# generated using pymatgen
data_Ho6Tm10CdAg3Rh4
_symmetry_space_group_name_H-M   'P 1'
_cell_length_a   9.45513536
_cell_length_b   9.43506251
_cell_length_c   9.45331715
_cell_angle_alpha   60.16615458
_cell_angle_beta   60.10151288
_cell_angle_gamma   60.18778690
_symmetry_Int_Tables_number   1
_chemical_formula_structural   Ho6Tm10CdAg3Rh4
_chemical_formula_sum   'Ho6 Tm10 Cd1 Ag3 Rh4'
_cell_volume   598.37317580
_cell_formula_units_Z   1
loop_
 _symmetry_equiv_pos_site_id
 _symmetry_equiv_pos_as_xyz
  1  'x, y, z'
loop_
 _atom_site_type_symbol
 _atom_site_label
 _atom_site_symmetry_multiplicity
 _atom_site_fract_x
 _atom_site_fract_y
 _atom_site_fract_z
 _atom_site_occupancy
  Ho  Ho0  1  0.312580  0.689042  0.689190  1
  Ho  Ho1  1  0.934977  0.567312  0.563196  1
  Ho  Ho2  1  0.934291  0.567074  0.935848  1
  Ho  Ho3  1  0.565288  0.935947  0.564043  1
  Ho  Ho4  1  0.563636  0.936800  0.935750  1
  Ho  Ho5  1  0.312255  0.313250  0.687893  1
  Tm  Tm6  1  0.935837  0.938062  0.563050  1
  Tm  Tm7  1  0.562132  0.565934  0.936982  1
  Tm  Tm8  1  0.688832  0.688114  0.312276  1
  Tm  Tm9  1  0.146851  0.556386  0.148465  1
  Tm  Tm10  1  0.688746  0.313131  0.688126  1
  Tm  Tm11  1  0.147255  0.146616  0.148538  1
  Tm  Tm12  1  0.554111  0.148302  0.148609  1
  Tm  Tm13  1  0.688188  0.313623  0.311718  1
  Tm  Tm14  1  0.148389  0.149778  0.551831  1
  Tm  Tm15  1  0.312849  0.688787  0.312016  1
  Cd  Cd16  1  0.919802  0.236947  0.920225  1
  Ag  Ag17  1  0.917138  0.915836  0.248740  1
  Ag  Ag18  1  0.249105  0.914045  0.917557  1
  Ag  Ag19  1  0.918086  0.916628  0.917156  1
  Rh  Rh20  1  0.356293  0.355079  0.931971  1
  Rh  Rh21  1  0.355965  0.929893  0.355468  1
  Rh  Rh22  1  0.929586  0.355394  0.355966  1
  Rh  Rh23  1  0.357810  0.358014  0.355388  1
