# generated using pymatgen
data_Mn2AlAsRu4
_symmetry_space_group_name_H-M   'P 1'
_cell_length_a   7.35243374
_cell_length_b   7.35243483
_cell_length_c   7.35243402
_cell_angle_alpha   33.58261477
_cell_angle_beta   33.58260465
_cell_angle_gamma   33.58261951
_symmetry_Int_Tables_number   1
_chemical_formula_structural   Mn2AlAsRu4
_chemical_formula_sum   'Mn2 Al1 As1 Ru4'
_cell_volume   108.32348883
_cell_formula_units_Z   1
loop_
 _symmetry_equiv_pos_site_id
 _symmetry_equiv_pos_as_xyz
  1  'x, y, z'
loop_
 _atom_site_type_symbol
 _atom_site_label
 _atom_site_symmetry_multiplicity
 _atom_site_fract_x
 _atom_site_fract_y
 _atom_site_fract_z
 _atom_site_occupancy
  Mn  Mn0  1  0.252950  0.252950  0.252950  1
  Mn  Mn1  1  0.747050  0.747050  0.747050  1
  Al  Al2  1  0.000000  0.000000  0.000000  1
  As  As3  1  0.500000  0.500000  0.500000  1
  Ru  Ru4  1  0.376770  0.376770  0.376770  1
  Ru  Ru5  1  0.873471  0.873471  0.873471  1
  Ru  Ru6  1  0.623230  0.623230  0.623230  1
  Ru  Ru7  1  0.126529  0.126529  0.126529  1
