# generated using pymatgen
data_K2UI6
_symmetry_space_group_name_H-M   'P 1'
_cell_length_a   8.69518600
_cell_length_b   8.33636981
_cell_length_c   14.47484229
_cell_angle_alpha   54.78885714
_cell_angle_beta   90.00000000
_cell_angle_gamma   90.00000000
_symmetry_Int_Tables_number   1
_chemical_formula_structural   K2UI6
_chemical_formula_sum   'K4 U2 I12'
_cell_volume   857.25330784
_cell_formula_units_Z   2
loop_
 _symmetry_equiv_pos_site_id
 _symmetry_equiv_pos_as_xyz
  1  'x, y, z'
loop_
 _atom_site_type_symbol
 _atom_site_label
 _atom_site_symmetry_multiplicity
 _atom_site_fract_x
 _atom_site_fract_y
 _atom_site_fract_z
 _atom_site_occupancy
  K  K0  1  0.578988  0.724990  0.252622  1
  K  K1  1  0.078988  0.275010  0.247378  1
  K  K2  1  0.421012  0.275010  0.747378  1
  K  K3  1  0.921012  0.724990  0.752622  1
  U  U4  1  0.000000  0.000000  0.000000  1
  U  U5  1  0.500000  0.000000  0.500000  1
  I  I6  1  0.988382  0.840849  0.247030  1
  I  I7  1  0.488382  0.159151  0.252970  1
  I  I8  1  0.011618  0.159151  0.752970  1
  I  I9  1  0.511618  0.840849  0.747030  1
  I  I10  1  0.690033  0.654487  0.548803  1
  I  I11  1  0.190033  0.345513  0.951197  1
  I  I12  1  0.309967  0.345513  0.451197  1
  I  I13  1  0.809967  0.654487  0.048803  1
  I  I14  1  0.707105  0.228973  0.959141  1
  I  I15  1  0.207105  0.771027  0.540859  1
  I  I16  1  0.292895  0.771027  0.040859  1
  I  I17  1  0.792895  0.228973  0.459141  1
