# generated using pymatgen
data_La3MgCd2Sn2Au
_symmetry_space_group_name_H-M   'P 1'
_cell_length_a   7.74824139
_cell_length_b   7.74824055
_cell_length_c   4.75926100
_cell_angle_alpha   90.00000000
_cell_angle_beta   90.00000000
_cell_angle_gamma   120.69957244
_symmetry_Int_Tables_number   1
_chemical_formula_structural   La3MgCd2Sn2Au
_chemical_formula_sum   'La3 Mg1 Cd2 Sn2 Au1'
_cell_volume   245.68097505
_cell_formula_units_Z   1
loop_
 _symmetry_equiv_pos_site_id
 _symmetry_equiv_pos_as_xyz
  1  'x, y, z'
loop_
 _atom_site_type_symbol
 _atom_site_label
 _atom_site_symmetry_multiplicity
 _atom_site_fract_x
 _atom_site_fract_y
 _atom_site_fract_z
 _atom_site_occupancy
  La  La0  1  0.593549  0.002279  0.000000  1
  La  La1  1  0.002279  0.593549  0.000000  1
  La  La2  1  0.402076  0.402076  0.000000  1
  Mg  Mg3  1  0.775165  0.775165  0.500000  1
  Cd  Cd4  1  0.236915  0.998556  0.500000  1
  Cd  Cd5  1  0.998556  0.236915  0.500000  1
  Sn  Sn6  1  0.338670  0.666744  0.500000  1
  Sn  Sn7  1  0.666744  0.338670  0.500000  1
  Au  Au8  1  0.986045  0.986045  0.000000  1
