# generated using pymatgen
data_Rb4Ni(PS4)2
_symmetry_space_group_name_H-M   'P 1'
_cell_length_a   6.76361361
_cell_length_b   7.15336011
_cell_length_c   9.34505631
_cell_angle_alpha   85.61835375
_cell_angle_beta   80.47343378
_cell_angle_gamma   85.39618924
_symmetry_Int_Tables_number   1
_chemical_formula_structural   Rb4Ni(PS4)2
_chemical_formula_sum   'Rb4 Ni1 P2 S8'
_cell_volume   443.54660025
_cell_formula_units_Z   1
loop_
 _symmetry_equiv_pos_site_id
 _symmetry_equiv_pos_as_xyz
  1  'x, y, z'
loop_
 _atom_site_type_symbol
 _atom_site_label
 _atom_site_symmetry_multiplicity
 _atom_site_fract_x
 _atom_site_fract_y
 _atom_site_fract_z
 _atom_site_occupancy
  Rb  Rb0  1  0.283236  0.327196  0.144226  1
  Rb  Rb1  1  0.738877  0.226850  0.491785  1
  Rb  Rb2  1  0.261123  0.773150  0.508215  1
  Rb  Rb3  1  0.716764  0.672804  0.855774  1
  Ni  Ni4  1  0.000000  0.000000  0.000000  1
  P  P5  1  0.833780  0.740707  0.252416  1
  P  P6  1  0.166220  0.259293  0.747584  1
  S  S7  1  0.703537  0.967166  0.137470  1
  S  S8  1  0.775305  0.490299  0.187901  1
  S  S9  1  0.126860  0.812756  0.167205  1
  S  S10  1  0.768946  0.750445  0.472488  1
  S  S11  1  0.231054  0.249555  0.527512  1
  S  S12  1  0.873140  0.187244  0.832795  1
  S  S13  1  0.224695  0.509701  0.812099  1
  S  S14  1  0.296463  0.032834  0.862530  1
