# generated using pymatgen
data_TbCe2Co(CuSb2)2
_symmetry_space_group_name_H-M   'P 1'
_cell_length_a   8.30970437
_cell_length_b   8.30984481
_cell_length_c   8.30970482
_cell_angle_alpha   109.97739205
_cell_angle_beta   108.46811401
_cell_angle_gamma   109.97739159
_symmetry_Int_Tables_number   1
_chemical_formula_structural   TbCe2Co(CuSb2)2
_chemical_formula_sum   'Tb2 Ce4 Co2 Cu4 Sb8'
_cell_volume   441.58839383
_cell_formula_units_Z   2
loop_
 _symmetry_equiv_pos_site_id
 _symmetry_equiv_pos_as_xyz
  1  'x, y, z'
loop_
 _atom_site_type_symbol
 _atom_site_label
 _atom_site_symmetry_multiplicity
 _atom_site_fract_x
 _atom_site_fract_y
 _atom_site_fract_z
 _atom_site_occupancy
  Tb  Tb0  1  0.875002  0.250000  0.125002  1
  Tb  Tb1  1  0.625002  0.750000  0.375002  1
  Ce  Ce2  1  0.250003  0.117964  0.867958  1
  Ce  Ce3  1  0.750000  0.382035  0.632037  1
  Ce  Ce4  1  0.132037  0.882035  0.250000  1
  Ce  Ce5  1  0.367958  0.617964  0.750003  1
  Co  Co6  1  0.375009  0.249983  0.624975  1
  Co  Co7  1  0.124975  0.749983  0.875009  1
  Cu  Cu8  1  0.249996  0.623972  0.373963  1
  Cu  Cu9  1  0.750010  0.876038  0.126042  1
  Cu  Cu10  1  0.626042  0.376038  0.250010  1
  Cu  Cu11  1  0.873963  0.123972  0.749996  1
  Sb  Sb12  1  0.657170  0.495910  0.996172  1
  Sb  Sb13  1  0.500267  0.004088  0.661249  1
  Sb  Sb14  1  0.999736  0.660990  0.503832  1
  Sb  Sb15  1  0.842835  0.839019  0.838744  1
  Sb  Sb16  1  0.496172  0.995910  0.157170  1
  Sb  Sb17  1  0.161249  0.504088  0.000267  1
  Sb  Sb18  1  0.003832  0.160990  0.499736  1
  Sb  Sb19  1  0.338744  0.339019  0.342835  1
