# generated using pymatgen
data_KReP2Pd
_symmetry_space_group_name_H-M   'P 1'
_cell_length_a   7.25092678
_cell_length_b   7.25092716
_cell_length_c   7.25092639
_cell_angle_alpha   147.88300056
_cell_angle_beta   147.88301125
_cell_angle_gamma   46.05811096
_symmetry_Int_Tables_number   1
_chemical_formula_structural   KReP2Pd
_chemical_formula_sum   'K1 Re1 P2 Pd1'
_cell_volume   107.38309704
_cell_formula_units_Z   1
loop_
 _symmetry_equiv_pos_site_id
 _symmetry_equiv_pos_as_xyz
  1  'x, y, z'
loop_
 _atom_site_type_symbol
 _atom_site_label
 _atom_site_symmetry_multiplicity
 _atom_site_fract_x
 _atom_site_fract_y
 _atom_site_fract_z
 _atom_site_occupancy
  K  K0  1  0.000000  0.000000  0.000000  1
  Re  Re1  1  0.250000  0.750000  0.500000  1
  P  P2  1  0.346886  0.346886  0.000000  1
  P  P3  1  0.653114  0.653114  0.000000  1
  Pd  Pd4  1  0.750000  0.250000  0.500000  1
