# generated using pymatgen
data_Dy4HoCo16(P4Ru)3
_symmetry_space_group_name_H-M   'P 1'
_cell_length_a   12.02962700
_cell_length_b   12.03021542
_cell_length_c   3.70978100
_cell_angle_alpha   90.00000000
_cell_angle_beta   90.00000000
_cell_angle_gamma   120.00161621
_symmetry_Int_Tables_number   1
_chemical_formula_structural   Dy4HoCo16(P4Ru)3
_chemical_formula_sum   'Dy4 Ho1 Co16 P12 Ru3'
_cell_volume   464.94051994
_cell_formula_units_Z   1
loop_
 _symmetry_equiv_pos_site_id
 _symmetry_equiv_pos_as_xyz
  1  'x, y, z'
loop_
 _atom_site_type_symbol
 _atom_site_label
 _atom_site_symmetry_multiplicity
 _atom_site_fract_x
 _atom_site_fract_y
 _atom_site_fract_z
 _atom_site_occupancy
  Dy  Dy0  1  0.666679  0.333356  0.000000  1
  Dy  Dy1  1  0.333321  0.666678  0.000000  1
  Dy  Dy2  1  0.815142  0.815140  0.500000  1
  Dy  Dy3  1  0.184858  0.999997  0.500000  1
  Ho  Ho4  1  0.000000  0.184903  0.500000  1
  Co  Co5  1  0.874193  0.357866  0.500000  1
  Co  Co6  1  0.642098  0.516259  0.500000  1
  Co  Co7  1  0.483731  0.125830  0.500000  1
  Co  Co8  1  0.357902  0.874161  0.500000  1
  Co  Co9  1  0.516269  0.642099  0.500000  1
  Co  Co10  1  0.125807  0.483673  0.500000  1
  Co  Co11  1  0.804056  0.179897  0.000000  1
  Co  Co12  1  0.820114  0.623994  0.000000  1
  Co  Co13  1  0.375990  0.196117  0.000000  1
  Co  Co14  1  0.179886  0.803882  0.000000  1
  Co  Co15  1  0.624010  0.820129  0.000000  1
  Co  Co16  1  0.195944  0.375843  0.000000  1
  Co  Co17  1  0.282743  0.282825  0.500000  1
  Co  Co18  1  0.717257  0.000082  0.500000  1
  Co  Co19  1  0.000000  0.717141  0.500000  1
  Co  Co20  1  0.000000  0.000171  0.000000  1
  P  P21  1  0.687258  0.165890  0.500000  1
  P  P22  1  0.834115  0.521382  0.500000  1
  P  P23  1  0.478613  0.312732  0.500000  1
  P  P24  1  0.165885  0.687267  0.500000  1
  P  P25  1  0.521387  0.834119  0.500000  1
  P  P26  1  0.312742  0.478631  0.500000  1
  P  P27  1  0.179873  0.180076  0.000000  1
  P  P28  1  0.820127  0.000204  0.000000  1
  P  P29  1  0.000000  0.819922  0.000000  1
  P  P30  1  0.636262  0.636255  0.000000  1
  P  P31  1  0.363738  0.999993  0.000000  1
  P  P32  1  0.000000  0.363524  0.000000  1
  Ru  Ru33  1  0.445984  0.445982  0.000000  1
  Ru  Ru34  1  0.554016  0.999998  0.000000  1
  Ru  Ru35  1  0.000000  0.553982  0.000000  1
