# generated using pymatgen
data_Y2Er6Re(B8Ir)3
_symmetry_space_group_name_H-M   'P 1'
_cell_length_a   3.64550500
_cell_length_b   9.15088168
_cell_length_c   11.48848000
_cell_angle_alpha   90.13112813
_cell_angle_beta   90.00000000
_cell_angle_gamma   90.00000000
_symmetry_Int_Tables_number   1
_chemical_formula_structural   Y2Er6Re(B8Ir)3
_chemical_formula_sum   'Y2 Er6 Re1 B24 Ir3'
_cell_volume   383.24992041
_cell_formula_units_Z   1
loop_
 _symmetry_equiv_pos_site_id
 _symmetry_equiv_pos_as_xyz
  1  'x, y, z'
loop_
 _atom_site_type_symbol
 _atom_site_label
 _atom_site_symmetry_multiplicity
 _atom_site_fract_x
 _atom_site_fract_y
 _atom_site_fract_z
 _atom_site_occupancy
  Y  Y0  1  0.000000  0.320684  0.413483  1
  Y  Y1  1  0.000000  0.683142  0.590585  1
  Er  Er2  1  0.000000  0.820653  0.082632  1
  Er  Er3  1  0.000000  0.175860  0.912153  1
  Er  Er4  1  0.000000  0.943675  0.372990  1
  Er  Er5  1  0.000000  0.053905  0.626441  1
  Er  Er6  1  0.000000  0.443473  0.125899  1
  Er  Er7  1  0.000000  0.557368  0.875220  1
  Re  Re8  1  0.000000  0.863024  0.821904  1
  B  B9  1  0.500000  0.553714  0.433973  1
  B  B10  1  0.500000  0.447493  0.566952  1
  B  B11  1  0.500000  0.053106  0.066140  1
  B  B12  1  0.500000  0.947024  0.933466  1
  B  B13  1  0.500000  0.750459  0.420275  1
  B  B14  1  0.500000  0.250404  0.579434  1
  B  B15  1  0.500000  0.248817  0.078703  1
  B  B16  1  0.500000  0.752048  0.920287  1
  B  B17  1  0.500000  0.792219  0.264905  1
  B  B18  1  0.500000  0.207673  0.733541  1
  B  B19  1  0.500000  0.292678  0.234349  1
  B  B20  1  0.500000  0.708204  0.766801  1
  B  B21  1  0.500000  0.631258  0.184359  1
  B  B22  1  0.500000  0.368078  0.815834  1
  B  B23  1  0.500000  0.131636  0.315150  1
  B  B24  1  0.500000  0.869303  0.685881  1
  B  B25  1  0.500000  0.981243  0.212680  1
  B  B26  1  0.500000  0.017797  0.786702  1
  B  B27  1  0.500000  0.481414  0.287003  1
  B  B28  1  0.500000  0.517927  0.714504  1
  B  B29  1  0.500000  0.608858  0.031342  1
  B  B30  1  0.500000  0.388707  0.970009  1
  B  B31  1  0.500000  0.108945  0.469334  1
  B  B32  1  0.500000  0.892075  0.528616  1
  Ir  Ir33  1  0.000000  0.637697  0.322005  1
  Ir  Ir34  1  0.000000  0.362241  0.678604  1
  Ir  Ir35  1  0.000000  0.137196  0.177842  1
