# generated using pymatgen
data_NdGd2Tm(MoN3)4
_symmetry_space_group_name_H-M   'P 1'
_cell_length_a   7.28055021
_cell_length_b   7.27982604
_cell_length_c   6.24487642
_cell_angle_alpha   75.13462821
_cell_angle_beta   75.12439542
_cell_angle_gamma   82.69120891
_symmetry_Int_Tables_number   1
_chemical_formula_structural   NdGd2Tm(MoN3)4
_chemical_formula_sum   'Nd1 Gd2 Tm1 Mo4 N12'
_cell_volume   308.51870948
_cell_formula_units_Z   1
loop_
 _symmetry_equiv_pos_site_id
 _symmetry_equiv_pos_as_xyz
  1  'x, y, z'
loop_
 _atom_site_type_symbol
 _atom_site_label
 _atom_site_symmetry_multiplicity
 _atom_site_fract_x
 _atom_site_fract_y
 _atom_site_fract_z
 _atom_site_occupancy
  Nd  Nd0  1  0.694408  0.305637  0.250024  1
  Gd  Gd1  1  0.087759  0.912315  0.249971  1
  Gd  Gd2  1  0.302667  0.697299  0.749981  1
  Tm  Tm3  1  0.914605  0.085318  0.750027  1
  Mo  Mo4  1  0.801763  0.618783  0.754438  1
  Mo  Mo5  1  0.197975  0.381526  0.246336  1
  Mo  Mo6  1  0.618508  0.802031  0.253621  1
  Mo  Mo7  1  0.381166  0.198233  0.745603  1
  N  N8  1  0.218147  0.999703  0.846822  1
  N  N9  1  0.350156  0.367059  0.466819  1
  N  N10  1  0.651319  0.636467  0.532236  1
  N  N11  1  0.622257  0.108785  0.665638  1
  N  N12  1  0.000320  0.781821  0.653076  1
  N  N13  1  0.783192  0.998378  0.141801  1
  N  N14  1  0.106995  0.620603  0.153824  1
  N  N15  1  0.891207  0.377699  0.834353  1
  N  N16  1  0.001623  0.216831  0.358283  1
  N  N17  1  0.363439  0.348646  0.967820  1
  N  N18  1  0.633072  0.649869  0.033142  1
  N  N19  1  0.379423  0.892996  0.346189  1
