# generated using pymatgen
data_Ce8Cu3Si13
_symmetry_space_group_name_H-M   'P 1'
_cell_length_a   8.06328700
_cell_length_b   8.06328815
_cell_length_c   8.40498500
_cell_angle_alpha   90.00000000
_cell_angle_beta   90.00000000
_cell_angle_gamma   119.99999117
_symmetry_Int_Tables_number   1
_chemical_formula_structural   Ce8Cu3Si13
_chemical_formula_sum   'Ce8 Cu3 Si13'
_cell_volume   473.25140433
_cell_formula_units_Z   1
loop_
 _symmetry_equiv_pos_site_id
 _symmetry_equiv_pos_as_xyz
  1  'x, y, z'
loop_
 _atom_site_type_symbol
 _atom_site_label
 _atom_site_symmetry_multiplicity
 _atom_site_fract_x
 _atom_site_fract_y
 _atom_site_fract_z
 _atom_site_occupancy
  Ce  Ce0  1  0.000000  0.000000  0.249016  1
  Ce  Ce1  1  0.000000  0.000000  0.750988  1
  Ce  Ce2  1  0.497975  0.502025  0.245703  1
  Ce  Ce3  1  0.497975  0.995950  0.245703  1
  Ce  Ce4  1  0.004050  0.502025  0.245703  1
  Ce  Ce5  1  0.497491  0.502509  0.754265  1
  Ce  Ce6  1  0.497491  0.994981  0.754265  1
  Ce  Ce7  1  0.005019  0.502509  0.754265  1
  Cu  Cu8  1  0.333333  0.666667  0.499265  1
  Cu  Cu9  1  0.666667  0.333333  0.502588  1
  Cu  Cu10  1  0.666667  0.333333  0.997894  1
  Si  Si11  1  0.168322  0.831678  0.499969  1
  Si  Si12  1  0.168322  0.336645  0.499969  1
  Si  Si13  1  0.663355  0.831678  0.499969  1
  Si  Si14  1  0.831255  0.168745  0.500376  1
  Si  Si15  1  0.831255  0.662508  0.500376  1
  Si  Si16  1  0.337492  0.168745  0.500376  1
  Si  Si17  1  0.830580  0.169420  0.999605  1
  Si  Si18  1  0.830580  0.661159  0.999605  1
  Si  Si19  1  0.338841  0.169420  0.999605  1
  Si  Si20  1  0.165527  0.834473  0.000049  1
  Si  Si21  1  0.165527  0.331054  0.000049  1
  Si  Si22  1  0.668946  0.834473  0.000049  1
  Si  Si23  1  0.333333  0.666667  0.000354  1
