# generated using pymatgen
data_Zr2Mo3P7Rh9
_symmetry_space_group_name_H-M   'P 1'
_cell_length_a   3.92020780
_cell_length_b   9.48034888
_cell_length_c   9.45716489
_cell_angle_alpha   119.95592904
_cell_angle_beta   90.01381516
_cell_angle_gamma   89.98732946
_symmetry_Int_Tables_number   1
_chemical_formula_structural   Zr2Mo3P7Rh9
_chemical_formula_sum   'Zr2 Mo3 P7 Rh9'
_cell_volume   304.52130289
_cell_formula_units_Z   1
loop_
 _symmetry_equiv_pos_site_id
 _symmetry_equiv_pos_as_xyz
  1  'x, y, z'
loop_
 _atom_site_type_symbol
 _atom_site_label
 _atom_site_symmetry_multiplicity
 _atom_site_fract_x
 _atom_site_fract_y
 _atom_site_fract_z
 _atom_site_occupancy
  Zr  Zr0  1  0.261927  0.666745  0.333493  1
  Zr  Zr1  1  0.761880  0.333661  0.666751  1
  Mo  Mo2  1  0.761906  0.091599  0.874129  1
  Mo  Mo3  1  0.761912  0.126972  0.220036  1
  Mo  Mo4  1  0.761936  0.782357  0.908099  1
  P  P5  1  0.262023  0.999643  0.999249  1
  P  P6  1  0.761872  0.879535  0.593662  1
  P  P7  1  0.761884  0.406354  0.285836  1
  P  P8  1  0.761877  0.713968  0.120242  1
  P  P9  1  0.261885  0.117906  0.413448  1
  P  P10  1  0.261833  0.586318  0.703994  1
  P  P11  1  0.261876  0.295882  0.882273  1
  Rh  Rh12  1  0.261919  0.881365  0.161814  1
  Rh  Rh13  1  0.261922  0.837634  0.718157  1
  Rh  Rh14  1  0.261904  0.280415  0.119083  1
  Rh  Rh15  1  0.761917  0.610906  0.552791  1
  Rh  Rh16  1  0.761907  0.447030  0.058049  1
  Rh  Rh17  1  0.761921  0.940960  0.388592  1
  Rh  Rh18  1  0.261907  0.368205  0.443803  1
  Rh  Rh19  1  0.261926  0.556483  0.924599  1
  Rh  Rh20  1  0.261864  0.076060  0.631903  1
