# generated using pymatgen
data_YEr7(CdPt)2
_symmetry_space_group_name_H-M   'P 1'
_cell_length_a   9.62096804
_cell_length_b   9.62096871
_cell_length_c   9.62004200
_cell_angle_alpha   60.00318625
_cell_angle_beta   60.00318393
_cell_angle_gamma   59.99362985
_symmetry_Int_Tables_number   1
_chemical_formula_structural   YEr7(CdPt)2
_chemical_formula_sum   'Y2 Er14 Cd4 Pt4'
_cell_volume   629.65047649
_cell_formula_units_Z   2
loop_
 _symmetry_equiv_pos_site_id
 _symmetry_equiv_pos_as_xyz
  1  'x, y, z'
loop_
 _atom_site_type_symbol
 _atom_site_label
 _atom_site_symmetry_multiplicity
 _atom_site_fract_x
 _atom_site_fract_y
 _atom_site_fract_z
 _atom_site_occupancy
  Y  Y0  1  0.565318  0.565318  0.934682  1
  Y  Y1  1  0.934682  0.934682  0.565318  1
  Er  Er2  1  0.352530  0.352530  0.352912  1
  Er  Er3  1  0.352530  0.352530  0.942028  1
  Er  Er4  1  0.352912  0.942028  0.352530  1
  Er  Er5  1  0.942028  0.352912  0.352530  1
  Er  Er6  1  0.810535  0.189465  0.189465  1
  Er  Er7  1  0.189465  0.810535  0.810535  1
  Er  Er8  1  0.189465  0.810535  0.189465  1
  Er  Er9  1  0.810535  0.189465  0.810535  1
  Er  Er10  1  0.189477  0.189477  0.810523  1
  Er  Er11  1  0.810523  0.810523  0.189477  1
  Er  Er12  1  0.935158  0.564842  0.564842  1
  Er  Er13  1  0.564842  0.935158  0.935158  1
  Er  Er14  1  0.564842  0.935158  0.564842  1
  Er  Er15  1  0.935158  0.564842  0.935158  1
  Cd  Cd16  1  0.582004  0.582004  0.581813  1
  Cd  Cd17  1  0.582004  0.582004  0.254180  1
  Cd  Cd18  1  0.581813  0.254180  0.582004  1
  Cd  Cd19  1  0.254180  0.581813  0.582004  1
  Pt  Pt20  1  0.143489  0.143489  0.143289  1
  Pt  Pt21  1  0.143489  0.143489  0.569733  1
  Pt  Pt22  1  0.143289  0.569733  0.143489  1
  Pt  Pt23  1  0.569733  0.143289  0.143489  1
