# generated using pymatgen
data_Tb4Sm(CoO6)2
_symmetry_space_group_name_H-M   'P 1'
_cell_length_a   6.81271831
_cell_length_b   6.81271917
_cell_length_c   7.27124300
_cell_angle_alpha   74.58438083
_cell_angle_beta   74.58436742
_cell_angle_gamma   50.27476956
_symmetry_Int_Tables_number   1
_chemical_formula_structural   Tb4Sm(CoO6)2
_chemical_formula_sum   'Tb4 Sm1 Co2 O12'
_cell_volume   248.12133218
_cell_formula_units_Z   1
loop_
 _symmetry_equiv_pos_site_id
 _symmetry_equiv_pos_as_xyz
  1  'x, y, z'
loop_
 _atom_site_type_symbol
 _atom_site_label
 _atom_site_symmetry_multiplicity
 _atom_site_fract_x
 _atom_site_fract_y
 _atom_site_fract_z
 _atom_site_occupancy
  Tb  Tb0  1  0.693146  0.693146  0.663179  1
  Tb  Tb1  1  0.693379  0.693379  0.144869  1
  Tb  Tb2  1  0.306621  0.306621  0.855131  1
  Tb  Tb3  1  0.306854  0.306854  0.336821  1
  Sm  Sm4  1  0.000000  0.000000  0.000000  1
  Co  Co5  1  0.244313  0.755687  0.500000  1
  Co  Co6  1  0.755687  0.244313  0.500000  1
  O  O7  1  0.406889  0.903628  0.921197  1
  O  O8  1  0.584198  0.100223  0.577548  1
  O  O9  1  0.899777  0.415802  0.422452  1
  O  O10  1  0.096372  0.593111  0.078803  1
  O  O11  1  0.000503  0.000503  0.332038  1
  O  O12  1  0.500145  0.500145  0.673054  1
  O  O13  1  0.903628  0.406889  0.921197  1
  O  O14  1  0.100223  0.584198  0.577548  1
  O  O15  1  0.415802  0.899777  0.422452  1
  O  O16  1  0.593111  0.096372  0.078803  1
  O  O17  1  0.499855  0.499855  0.326946  1
  O  O18  1  0.999497  0.999497  0.667962  1
