# generated using pymatgen
data_Ca5Bi2As
_symmetry_space_group_name_H-M   'P 1'
_cell_length_a   8.26199800
_cell_length_b   9.50348300
_cell_length_c   12.68213100
_cell_angle_alpha   90.00000000
_cell_angle_beta   90.00000000
_cell_angle_gamma   90.00000000
_symmetry_Int_Tables_number   1
_chemical_formula_structural   Ca5Bi2As
_chemical_formula_sum   'Ca20 Bi8 As4'
_cell_volume   995.77248694
_cell_formula_units_Z   4
loop_
 _symmetry_equiv_pos_site_id
 _symmetry_equiv_pos_as_xyz
  1  'x, y, z'
loop_
 _atom_site_type_symbol
 _atom_site_label
 _atom_site_symmetry_multiplicity
 _atom_site_fract_x
 _atom_site_fract_y
 _atom_site_fract_z
 _atom_site_occupancy
  Ca  Ca0  1  0.043879  0.750000  0.502640  1
  Ca  Ca1  1  0.956121  0.250000  0.497360  1
  Ca  Ca2  1  0.543879  0.250000  0.997360  1
  Ca  Ca3  1  0.456121  0.750000  0.002640  1
  Ca  Ca4  1  0.861688  0.750000  0.798208  1
  Ca  Ca5  1  0.138312  0.250000  0.201792  1
  Ca  Ca6  1  0.361688  0.250000  0.701792  1
  Ca  Ca7  1  0.638312  0.750000  0.298208  1
  Ca  Ca8  1  0.684163  0.537817  0.573881  1
  Ca  Ca9  1  0.315837  0.462183  0.426119  1
  Ca  Ca10  1  0.184163  0.462183  0.926119  1
  Ca  Ca11  1  0.315837  0.037817  0.426119  1
  Ca  Ca12  1  0.815837  0.537817  0.073881  1
  Ca  Ca13  1  0.684163  0.962183  0.573881  1
  Ca  Ca14  1  0.815837  0.962183  0.073881  1
  Ca  Ca15  1  0.184163  0.037817  0.926119  1
  Ca  Ca16  1  0.335112  0.750000  0.714518  1
  Ca  Ca17  1  0.664888  0.250000  0.285482  1
  Ca  Ca18  1  0.835112  0.250000  0.785482  1
  Ca  Ca19  1  0.164888  0.750000  0.214518  1
  Bi  Bi20  1  0.567127  0.510814  0.828825  1
  Bi  Bi21  1  0.432873  0.489186  0.171175  1
  Bi  Bi22  1  0.067127  0.489186  0.671175  1
  Bi  Bi23  1  0.432873  0.010814  0.171175  1
  Bi  Bi24  1  0.932873  0.510814  0.328825  1
  Bi  Bi25  1  0.567127  0.989186  0.828825  1
  Bi  Bi26  1  0.932873  0.989186  0.328825  1
  Bi  Bi27  1  0.067127  0.010814  0.671175  1
  As  As28  1  0.074032  0.750000  0.985966  1
  As  As29  1  0.925968  0.250000  0.014034  1
  As  As30  1  0.574032  0.250000  0.514034  1
  As  As31  1  0.425968  0.750000  0.485966  1
