# generated using pymatgen
data_Hf3BeIr2
_symmetry_space_group_name_H-M   'P 1'
_cell_length_a   8.33604138
_cell_length_b   8.33604137
_cell_length_c   8.33604100
_cell_angle_alpha   60.00000543
_cell_angle_beta   60.00000547
_cell_angle_gamma   60.00001048
_symmetry_Int_Tables_number   1
_chemical_formula_structural   Hf3BeIr2
_chemical_formula_sum   'Hf12 Be4 Ir8'
_cell_volume   409.60442271
_cell_formula_units_Z   4
loop_
 _symmetry_equiv_pos_site_id
 _symmetry_equiv_pos_as_xyz
  1  'x, y, z'
loop_
 _atom_site_type_symbol
 _atom_site_label
 _atom_site_symmetry_multiplicity
 _atom_site_fract_x
 _atom_site_fract_y
 _atom_site_fract_z
 _atom_site_occupancy
  Hf  Hf0  1  0.802897  0.802897  0.197103  1
  Hf  Hf1  1  0.197103  0.197103  0.802897  1
  Hf  Hf2  1  0.802897  0.197103  0.802897  1
  Hf  Hf3  1  0.197103  0.802897  0.197103  1
  Hf  Hf4  1  0.197103  0.802897  0.802897  1
  Hf  Hf5  1  0.802897  0.197103  0.197103  1
  Hf  Hf6  1  0.447103  0.447103  0.052897  1
  Hf  Hf7  1  0.052897  0.052897  0.447103  1
  Hf  Hf8  1  0.447103  0.052897  0.447103  1
  Hf  Hf9  1  0.052897  0.447103  0.052897  1
  Hf  Hf10  1  0.052897  0.447103  0.447103  1
  Hf  Hf11  1  0.447103  0.052897  0.052897  1
  Be  Be12  1  0.125000  0.625000  0.625000  1
  Be  Be13  1  0.625000  0.125000  0.625000  1
  Be  Be14  1  0.625000  0.625000  0.125000  1
  Be  Be15  1  0.625000  0.625000  0.625000  1
  Ir  Ir16  1  0.758224  0.413925  0.413925  1
  Ir  Ir17  1  0.413925  0.758224  0.413925  1
  Ir  Ir18  1  0.413925  0.413925  0.758224  1
  Ir  Ir19  1  0.413925  0.413925  0.413925  1
  Ir  Ir20  1  0.491776  0.836075  0.836075  1
  Ir  Ir21  1  0.836075  0.491776  0.836075  1
  Ir  Ir22  1  0.836075  0.836075  0.491776  1
  Ir  Ir23  1  0.836075  0.836075  0.836075  1
