# generated using pymatgen
data_MgSe2O7
_symmetry_space_group_name_H-M   'P 1'
_cell_length_a   5.19480042
_cell_length_b   7.44006100
_cell_length_c   8.66943741
_cell_angle_alpha   92.15524686
_cell_angle_beta   94.39123602
_cell_angle_gamma   105.14593393
_symmetry_Int_Tables_number   1
_chemical_formula_structural   MgSe2O7
_chemical_formula_sum   'Mg2 Se4 O14'
_cell_volume   321.90362920
_cell_formula_units_Z   2
loop_
 _symmetry_equiv_pos_site_id
 _symmetry_equiv_pos_as_xyz
  1  'x, y, z'
loop_
 _atom_site_type_symbol
 _atom_site_label
 _atom_site_symmetry_multiplicity
 _atom_site_fract_x
 _atom_site_fract_y
 _atom_site_fract_z
 _atom_site_occupancy
  Mg  Mg0  1  0.000000  0.500000  0.000000  1
  Mg  Mg1  1  0.500000  0.000000  0.500000  1
  Se  Se2  1  0.507320  0.648913  0.768608  1
  Se  Se3  1  0.492680  0.351087  0.231392  1
  Se  Se4  1  0.123450  0.246107  0.687758  1
  Se  Se5  1  0.876550  0.753893  0.312242  1
  O  O6  1  0.750700  0.552904  0.816143  1
  O  O7  1  0.249300  0.447096  0.183857  1
  O  O8  1  0.328625  0.685824  0.909412  1
  O  O9  1  0.671375  0.314176  0.090588  1
  O  O10  1  0.608394  0.827666  0.662932  1
  O  O11  1  0.391606  0.172334  0.337068  1
  O  O12  1  0.280972  0.480522  0.627203  1
  O  O13  1  0.719028  0.519478  0.372797  1
  O  O14  1  0.874671  0.189054  0.551419  1
  O  O15  1  0.125329  0.810946  0.448581  1
  O  O16  1  0.344925  0.124715  0.680881  1
  O  O17  1  0.655075  0.875285  0.319119  1
  O  O18  1  0.051015  0.273351  0.867435  1
  O  O19  1  0.948985  0.726649  0.132565  1
