# generated using pymatgen
data_Tb3TmHf4F28
_symmetry_space_group_name_H-M   'P 1'
_cell_length_a   5.67168003
_cell_length_b   9.03168558
_cell_length_c   12.17355000
_cell_angle_alpha   62.41299270
_cell_angle_beta   90.00636431
_cell_angle_gamma   89.98106095
_symmetry_Int_Tables_number   1
_chemical_formula_structural   Tb3TmHf4F28
_chemical_formula_sum   'Tb3 Tm1 Hf4 F28'
_cell_volume   552.69139669
_cell_formula_units_Z   1
loop_
 _symmetry_equiv_pos_site_id
 _symmetry_equiv_pos_as_xyz
  1  'x, y, z'
loop_
 _atom_site_type_symbol
 _atom_site_label
 _atom_site_symmetry_multiplicity
 _atom_site_fract_x
 _atom_site_fract_y
 _atom_site_fract_z
 _atom_site_occupancy
  Tb  Tb0  1  0.743287  0.184807  0.734797  1
  Tb  Tb1  1  0.755982  0.183306  0.234915  1
  Tb  Tb2  1  0.243274  0.814329  0.765021  1
  Tm  Tm3  1  0.256825  0.814970  0.264983  1
  Hf  Hf4  1  0.757242  0.726268  0.045716  1
  Hf  Hf5  1  0.243948  0.272350  0.957310  1
  Hf  Hf6  1  0.256401  0.276401  0.455444  1
  Hf  Hf7  1  0.743538  0.725772  0.541541  1
  F  F8  1  0.960916  0.710630  0.417420  1
  F  F9  1  0.043230  0.291475  0.580785  1
  F  F10  1  0.456933  0.290534  0.081569  1
  F  F11  1  0.542711  0.710380  0.920881  1
  F  F12  1  0.483471  0.734277  0.147794  1
  F  F13  1  0.520813  0.267269  0.856850  1
  F  F14  1  0.981169  0.266978  0.355323  1
  F  F15  1  0.018811  0.732022  0.642915  1
  F  F16  1  0.967050  0.747857  0.172479  1
  F  F17  1  0.041107  0.252520  0.828446  1
  F  F18  1  0.460450  0.254936  0.327468  1
  F  F19  1  0.538831  0.746051  0.670119  1
  F  F20  1  0.775236  0.476650  0.140539  1
  F  F21  1  0.224551  0.522206  0.861391  1
  F  F22  1  0.273251  0.526601  0.359166  1
  F  F23  1  0.722842  0.476666  0.638573  1
  F  F24  1  0.948210  0.275609  0.048571  1
  F  F25  1  0.050184  0.723865  0.952274  1
  F  F26  1  0.448998  0.724863  0.447754  1
  F  F27  1  0.551825  0.277280  0.547389  1
  F  F28  1  0.739080  0.974833  0.442025  1
  F  F29  1  0.260068  0.027307  0.557127  1
  F  F30  1  0.240279  0.023521  0.059979  1
  F  F31  1  0.760886  0.974736  0.943271  1
  F  F32  1  0.570449  0.969796  0.233105  1
  F  F33  1  0.420242  0.029292  0.767947  1
  F  F34  1  0.077737  0.023555  0.267223  1
  F  F35  1  0.920170  0.970081  0.731890  1
