# generated using pymatgen
data_Tb4HfIr2Rh
_symmetry_space_group_name_H-M   'P 1'
_cell_length_a   10.87108000
_cell_length_b   10.87108000
_cell_length_c   6.27369100
_cell_angle_alpha   90.00000000
_cell_angle_beta   90.00000000
_cell_angle_gamma   90.00000000
_symmetry_Int_Tables_number   1
_chemical_formula_structural   Tb4HfIr2Rh
_chemical_formula_sum   'Tb16 Hf4 Ir8 Rh4'
_cell_volume   741.42718868
_cell_formula_units_Z   4
loop_
 _symmetry_equiv_pos_site_id
 _symmetry_equiv_pos_as_xyz
  1  'x, y, z'
loop_
 _atom_site_type_symbol
 _atom_site_label
 _atom_site_symmetry_multiplicity
 _atom_site_fract_x
 _atom_site_fract_y
 _atom_site_fract_z
 _atom_site_occupancy
  Tb  Tb0  1  0.287825  0.086426  0.376137  1
  Tb  Tb1  1  0.287825  0.913574  0.876137  1
  Tb  Tb2  1  0.712175  0.086426  0.876137  1
  Tb  Tb3  1  0.712175  0.913574  0.376137  1
  Tb  Tb4  1  0.586426  0.787825  0.876137  1
  Tb  Tb5  1  0.586426  0.212175  0.376137  1
  Tb  Tb6  1  0.413574  0.787825  0.376137  1
  Tb  Tb7  1  0.413574  0.212175  0.876137  1
  Tb  Tb8  1  0.212175  0.413574  0.623863  1
  Tb  Tb9  1  0.212175  0.586426  0.123863  1
  Tb  Tb10  1  0.787825  0.413574  0.123863  1
  Tb  Tb11  1  0.787825  0.586426  0.623863  1
  Tb  Tb12  1  0.913574  0.712175  0.123863  1
  Tb  Tb13  1  0.913574  0.287825  0.623863  1
  Tb  Tb14  1  0.086426  0.712175  0.623863  1
  Tb  Tb15  1  0.086426  0.287825  0.123863  1
  Hf  Hf16  1  0.000000  0.000000  0.500000  1
  Hf  Hf17  1  0.000000  0.000000  0.000000  1
  Hf  Hf18  1  0.500000  0.500000  0.000000  1
  Hf  Hf19  1  0.500000  0.500000  0.500000  1
  Ir  Ir20  1  0.857418  0.142582  0.250000  1
  Ir  Ir21  1  0.857418  0.857418  0.750000  1
  Ir  Ir22  1  0.142582  0.142582  0.750000  1
  Ir  Ir23  1  0.142582  0.857418  0.250000  1
  Ir  Ir24  1  0.642582  0.357418  0.750000  1
  Ir  Ir25  1  0.642582  0.642582  0.250000  1
  Ir  Ir26  1  0.357418  0.357418  0.250000  1
  Ir  Ir27  1  0.357418  0.642582  0.750000  1
  Rh  Rh28  1  0.500000  0.000000  0.121826  1
  Rh  Rh29  1  0.500000  0.000000  0.621826  1
  Rh  Rh30  1  0.000000  0.500000  0.878174  1
  Rh  Rh31  1  0.000000  0.500000  0.378174  1
