# generated using pymatgen
data_DyYNb2(SbRh)4
_symmetry_space_group_name_H-M   'P 1'
_cell_length_a   4.50012800
_cell_length_b   6.37600003
_cell_length_c   9.01501305
_cell_angle_alpha   89.98836423
_cell_angle_beta   90.00000000
_cell_angle_gamma   90.00000000
_symmetry_Int_Tables_number   1
_chemical_formula_structural   DyYNb2(SbRh)4
_chemical_formula_sum   'Dy1 Y1 Nb2 Sb4 Rh4'
_cell_volume   258.66610773
_cell_formula_units_Z   1
loop_
 _symmetry_equiv_pos_site_id
 _symmetry_equiv_pos_as_xyz
  1  'x, y, z'
loop_
 _atom_site_type_symbol
 _atom_site_label
 _atom_site_symmetry_multiplicity
 _atom_site_fract_x
 _atom_site_fract_y
 _atom_site_fract_z
 _atom_site_occupancy
  Dy  Dy0  1  0.000000  0.005845  0.375925  1
  Y  Y1  1  0.500001  0.505786  0.624021  1
  Nb  Nb2  1  0.500001  0.494260  0.121433  1
  Nb  Nb3  1  0.000000  0.994291  0.878572  1
  Sb  Sb4  1  0.500001  0.984843  0.123919  1
  Sb  Sb5  1  0.000000  0.510487  0.370609  1
  Sb  Sb6  1  0.500001  0.010486  0.629343  1
  Sb  Sb7  1  0.000000  0.484834  0.876170  1
  Rh  Rh8  1  0.000000  0.734259  0.110363  1
  Rh  Rh9  1  0.500001  0.269894  0.351841  1
  Rh  Rh10  1  0.000000  0.771023  0.647906  1
  Rh  Rh11  1  0.500001  0.233986  0.889903  1
