# generated using pymatgen
data_Li11Dy12Ag(TeO6)8
_symmetry_space_group_name_H-M   'P 1'
_cell_length_a   10.78906592
_cell_length_b   10.78905872
_cell_length_c   10.78906382
_cell_angle_alpha   109.51592413
_cell_angle_beta   109.44902399
_cell_angle_gamma   109.44899941
_symmetry_Int_Tables_number   1
_chemical_formula_structural   Li11Dy12Ag(TeO6)8
_chemical_formula_sum   'Li11 Dy12 Ag1 Te8 O48'
_cell_volume   966.77986227
_cell_formula_units_Z   1
loop_
 _symmetry_equiv_pos_site_id
 _symmetry_equiv_pos_as_xyz
  1  'x, y, z'
loop_
 _atom_site_type_symbol
 _atom_site_label
 _atom_site_symmetry_multiplicity
 _atom_site_fract_x
 _atom_site_fract_y
 _atom_site_fract_z
 _atom_site_occupancy
  Li  Li0  1  0.374134  0.748871  0.124249  1
  Li  Li1  1  0.124814  0.876169  0.252209  1
  Li  Li2  1  0.624621  0.375753  0.249886  1
  Li  Li3  1  0.125867  0.250115  0.374736  1
  Li  Li4  1  0.750002  0.125001  0.375001  1
  Li  Li5  1  0.250000  0.875000  0.624999  1
  Li  Li6  1  0.876041  0.748645  0.623832  1
  Li  Li7  1  0.875379  0.125264  0.751131  1
  Li  Li8  1  0.375186  0.627394  0.751354  1
  Li  Li9  1  0.749998  0.624999  0.874997  1
  Li  Li10  1  0.623961  0.247792  0.872606  1
  Dy  Dy11  1  0.750000  0.876424  0.126424  1
  Dy  Dy12  1  0.872788  0.249928  0.125320  1
  Dy  Dy13  1  0.874544  0.625232  0.249772  1
  Dy  Dy14  1  0.375393  0.122859  0.250072  1
  Dy  Dy15  1  0.627213  0.752533  0.377141  1
  Dy  Dy16  1  0.250000  0.627499  0.377498  1
  Dy  Dy17  1  0.750000  0.373577  0.623576  1
  Dy  Dy18  1  0.375460  0.250228  0.624771  1
  Dy  Dy19  1  0.124607  0.374680  0.747466  1
  Dy  Dy20  1  0.625456  0.875230  0.750688  1
  Dy  Dy21  1  0.250000  0.122501  0.872501  1
  Dy  Dy22  1  0.124540  0.749312  0.874768  1
  Ag  Ag23  1  0.250001  0.374999  0.124998  1
  Te  Te24  1  0.995462  0.990169  0.997277  1
  Te  Te25  1  0.500210  0.000410  0.000437  1
  Te  Te26  1  0.504539  0.501816  0.994706  1
  Te  Te27  1  0.992893  0.502724  0.998186  1
  Te  Te28  1  0.999790  0.000226  0.500200  1
  Te  Te29  1  0.500027  0.999801  0.499590  1
  Te  Te30  1  0.999973  0.499564  0.499773  1
  Te  Te31  1  0.507109  0.505294  0.509831  1
  O  O32  1  0.704295  0.625277  0.029348  1
  O  O33  1  0.819725  0.410309  0.023330  1
  O  O34  1  0.202466  0.148476  0.075996  1
  O  O35  1  0.378430  0.906283  0.077572  1
  O  O36  1  0.475099  0.172602  0.094148  1
  O  O37  1  0.113021  0.909415  0.089690  1
  O  O38  1  0.527232  0.698021  0.118802  1
  O  O39  1  0.072481  0.424004  0.126469  1
  O  O40  1  0.698333  0.077954  0.172221  1
  O  O41  1  0.972770  0.091571  0.170790  1
  O  O42  1  0.617206  0.524775  0.193937  1
  O  O43  1  0.075262  0.674944  0.198170  1
  O  O44  1  0.828712  0.422429  0.300858  1
  O  O45  1  0.972954  0.880267  0.302225  1
  O  O46  1  0.421546  0.802497  0.327399  1
  O  O47  1  0.427520  0.553990  0.351524  1
  O  O48  1  0.801668  0.973889  0.379622  1
  O  O49  1  0.078454  0.405854  0.380951  1
  O  O50  1  0.579219  0.381199  0.408429  1
  O  O51  1  0.328624  0.027990  0.406497  1
  O  O52  1  0.330837  0.306062  0.423268  1
  O  O53  1  0.594267  0.120377  0.422045  1
  O  O54  1  0.878508  0.800633  0.472009  1
  O  O55  1  0.094213  0.671830  0.473340  1
  O  O56  1  0.121571  0.199142  0.527854  1
  O  O57  1  0.905733  0.327779  0.526109  1
  O  O58  1  0.405788  0.879128  0.577616  1
  O  O59  1  0.680276  0.703606  0.590586  1
  O  O60  1  0.671289  0.972148  0.593718  1
  O  O61  1  0.424739  0.622908  0.599682  1
  O  O62  1  0.921958  0.592687  0.619734  1
  O  O63  1  0.198489  0.026661  0.620873  1
  O  O64  1  0.595928  0.470650  0.674945  1
  O  O65  1  0.578041  0.197776  0.670728  1
  O  O66  1  0.024901  0.119049  0.697503  1
  O  O67  1  0.171375  0.577874  0.699366  1
  O  O68  1  0.920781  0.329210  0.801978  1
  O  O69  1  0.386979  0.476670  0.796393  1
  O  O70  1  0.023226  0.900317  0.825055  1
  O  O71  1  0.301511  0.922384  0.828172  1
  O  O72  1  0.904072  0.579017  0.874723  1
  O  O73  1  0.476774  0.301830  0.877093  1
  O  O74  1  0.882794  0.076732  0.907569  1
  O  O75  1  0.527046  0.829271  0.907312  1
  O  O76  1  0.795706  0.825056  0.920983  1
  O  O77  1  0.621491  0.093502  0.922125  1
  O  O78  1  0.297535  0.373530  0.946009  1
  O  O79  1  0.169165  0.592433  0.975228  1
