# generated using pymatgen
data_Ti5Cr2Pd4Pt17
_symmetry_space_group_name_H-M   'P 1'
_cell_length_a   5.57397700
_cell_length_b   5.57522846
_cell_length_c   15.95272481
_cell_angle_alpha   90.03601016
_cell_angle_beta   90.00000000
_cell_angle_gamma   119.99258087
_symmetry_Int_Tables_number   1
_chemical_formula_structural   Ti5Cr2Pd4Pt17
_chemical_formula_sum   'Ti5 Cr2 Pd4 Pt17'
_cell_volume   429.36406568
_cell_formula_units_Z   1
loop_
 _symmetry_equiv_pos_site_id
 _symmetry_equiv_pos_as_xyz
  1  'x, y, z'
loop_
 _atom_site_type_symbol
 _atom_site_label
 _atom_site_symmetry_multiplicity
 _atom_site_fract_x
 _atom_site_fract_y
 _atom_site_fract_z
 _atom_site_occupancy
  Ti  Ti0  1  0.333272  0.666546  0.140983  1
  Ti  Ti1  1  0.999931  0.999861  0.279889  1
  Ti  Ti2  1  0.665635  0.331269  0.431816  1
  Ti  Ti3  1  0.999987  0.999973  0.997314  1
  Ti  Ti4  1  0.333183  0.666368  0.575184  1
  Cr  Cr5  1  0.000109  0.000219  0.721736  1
  Cr  Cr6  1  0.666585  0.333168  0.855174  1
  Pd  Pd7  1  0.833702  0.667404  0.569920  1
  Pd  Pd8  1  0.499179  0.998358  0.001482  1
  Pd  Pd9  1  0.499321  0.501533  0.001669  1
  Pd  Pd10  1  0.002212  0.501533  0.001669  1
  Pt  Pt11  1  0.334888  0.167955  0.569650  1
  Pt  Pt12  1  0.166560  0.333120  0.859281  1
  Pt  Pt13  1  0.166698  0.333396  0.428816  1
  Pt  Pt14  1  0.166813  0.832990  0.428580  1
  Pt  Pt15  1  0.500067  0.000132  0.711510  1
  Pt  Pt16  1  0.666177  0.832990  0.428580  1
  Pt  Pt17  1  0.166869  0.832527  0.858695  1
  Pt  Pt18  1  0.665658  0.832527  0.858695  1
  Pt  Pt19  1  0.833498  0.167182  0.142383  1
  Pt  Pt20  1  0.833066  0.167955  0.569650  1
  Pt  Pt21  1  0.499485  0.499399  0.711664  1
  Pt  Pt22  1  0.333684  0.167182  0.142383  1
  Pt  Pt23  1  0.833337  0.666675  0.142634  1
  Pt  Pt24  1  0.500020  0.500401  0.286502  1
  Pt  Pt25  1  0.499770  0.999540  0.285978  1
  Pt  Pt26  1  0.000380  0.500401  0.286502  1
  Pt  Pt27  1  0.999915  0.499399  0.711664  1
