# generated using pymatgen
data_DyHo7Ta10(TiSi8)2
_symmetry_space_group_name_H-M   'P 1'
_cell_length_a   7.03778669
_cell_length_b   7.03763505
_cell_length_c   12.95649210
_cell_angle_alpha   89.95083837
_cell_angle_beta   90.04311241
_cell_angle_gamma   90.00189363
_symmetry_Int_Tables_number   1
_chemical_formula_structural   DyHo7Ta10(TiSi8)2
_chemical_formula_sum   'Dy1 Ho7 Ta10 Ti2 Si16'
_cell_volume   641.72652815
_cell_formula_units_Z   1
loop_
 _symmetry_equiv_pos_site_id
 _symmetry_equiv_pos_as_xyz
  1  'x, y, z'
loop_
 _atom_site_type_symbol
 _atom_site_label
 _atom_site_symmetry_multiplicity
 _atom_site_fract_x
 _atom_site_fract_y
 _atom_site_fract_z
 _atom_site_occupancy
  Dy  Dy0  1  0.341197  0.002095  0.468042  1
  Ho  Ho1  1  0.998548  0.657927  0.032485  1
  Ho  Ho2  1  0.001874  0.341345  0.531989  1
  Ho  Ho3  1  0.657927  0.998567  0.967466  1
  Ho  Ho4  1  0.159417  0.502955  0.782265  1
  Ho  Ho5  1  0.841495  0.497984  0.281975  1
  Ho  Ho6  1  0.502966  0.159425  0.217705  1
  Ho  Ho7  1  0.498008  0.841428  0.718088  1
  Ta  Ta8  1  0.346283  0.508410  0.375949  1
  Ta  Ta9  1  0.847254  0.992501  0.374674  1
  Ta  Ta10  1  0.007987  0.152968  0.126300  1
  Ta  Ta11  1  0.992500  0.847242  0.625350  1
  Ta  Ta12  1  0.508461  0.346314  0.624074  1
  Ta  Ta13  1  0.152959  0.008009  0.873695  1
  Ta  Ta14  1  0.672220  0.672161  0.500010  1
  Ta  Ta15  1  0.829356  0.170354  0.750084  1
  Ta  Ta16  1  0.170327  0.829346  0.249893  1
  Ta  Ta17  1  0.326243  0.326245  0.999999  1
  Ti  Ti18  1  0.492812  0.652903  0.124088  1
  Ti  Ti19  1  0.652914  0.492826  0.875904  1
  Si  Si20  1  0.045358  0.704987  0.435967  1
  Si  Si21  1  0.952630  0.295495  0.935788  1
  Si  Si22  1  0.705514  0.045578  0.564125  1
  Si  Si23  1  0.207677  0.455402  0.185279  1
  Si  Si24  1  0.794059  0.545269  0.687347  1
  Si  Si25  1  0.455358  0.207706  0.814717  1
  Si  Si26  1  0.545443  0.793876  0.312513  1
  Si  Si27  1  0.295496  0.952609  0.064205  1
  Si  Si28  1  0.794699  0.864918  0.181357  1
  Si  Si29  1  0.296510  0.633468  0.568834  1
  Si  Si30  1  0.701339  0.368216  0.066663  1
  Si  Si31  1  0.633953  0.296735  0.431257  1
  Si  Si32  1  0.368199  0.701339  0.933340  1
  Si  Si33  1  0.133775  0.204620  0.317961  1
  Si  Si34  1  0.204293  0.134072  0.681969  1
  Si  Si35  1  0.864953  0.794709  0.818645  1
