# generated using pymatgen
data_Eu2MnCuF10
_symmetry_space_group_name_H-M   'P 1'
_cell_length_a   5.71909988
_cell_length_b   5.72111508
_cell_length_c   7.84520600
_cell_angle_alpha   70.31602726
_cell_angle_beta   69.73874482
_cell_angle_gamma   72.11271242
_symmetry_Int_Tables_number   1
_chemical_formula_structural   Eu2MnCuF10
_chemical_formula_sum   'Eu2 Mn1 Cu1 F10'
_cell_volume   221.40139546
_cell_formula_units_Z   1
loop_
 _symmetry_equiv_pos_site_id
 _symmetry_equiv_pos_as_xyz
  1  'x, y, z'
loop_
 _atom_site_type_symbol
 _atom_site_label
 _atom_site_symmetry_multiplicity
 _atom_site_fract_x
 _atom_site_fract_y
 _atom_site_fract_z
 _atom_site_occupancy
  Eu  Eu0  1  0.553841  0.455315  0.745398  1
  Eu  Eu1  1  0.446159  0.544685  0.254602  1
  Mn  Mn2  1  0.000000  0.000000  0.000000  1
  Cu  Cu3  1  0.000000  0.000000  0.500000  1
  F  F4  1  0.089751  0.909698  0.242544  1
  F  F5  1  0.910249  0.090302  0.757456  1
  F  F6  1  0.207230  0.250869  0.382465  1
  F  F7  1  0.747166  0.791842  0.118814  1
  F  F8  1  0.701577  0.321712  0.030731  1
  F  F9  1  0.685169  0.294409  0.469195  1
  F  F10  1  0.298423  0.678288  0.969269  1
  F  F11  1  0.314831  0.705591  0.530805  1
  F  F12  1  0.252834  0.208158  0.881186  1
  F  F13  1  0.792770  0.749131  0.617535  1
