# generated using pymatgen
data_NdHoMn3Re14C3
_symmetry_space_group_name_H-M   'P 1'
_cell_length_a   6.95889486
_cell_length_b   6.95889582
_cell_length_c   6.95889415
_cell_angle_alpha   82.52110530
_cell_angle_beta   82.52110408
_cell_angle_gamma   82.52111010
_symmetry_Int_Tables_number   1
_chemical_formula_structural   NdHoMn3Re14C3
_chemical_formula_sum   'Nd1 Ho1 Mn3 Re14 C3'
_cell_volume   329.07923723
_cell_formula_units_Z   1
loop_
 _symmetry_equiv_pos_site_id
 _symmetry_equiv_pos_as_xyz
  1  'x, y, z'
loop_
 _atom_site_type_symbol
 _atom_site_label
 _atom_site_symmetry_multiplicity
 _atom_site_fract_x
 _atom_site_fract_y
 _atom_site_fract_z
 _atom_site_occupancy
  Nd  Nd0  1  0.647524  0.647524  0.647524  1
  Ho  Ho1  1  0.351440  0.351440  0.351440  1
  Mn  Mn2  1  0.998863  0.998863  0.502419  1
  Mn  Mn3  1  0.502419  0.998863  0.998863  1
  Mn  Mn4  1  0.998863  0.502419  0.998863  1
  Re  Re5  1  0.721273  0.278187  0.000292  1
  Re  Re6  1  0.000292  0.721273  0.278187  1
  Re  Re7  1  0.278187  0.000292  0.721273  1
  Re  Re8  1  0.000292  0.278187  0.721273  1
  Re  Re9  1  0.721273  0.000292  0.278187  1
  Re  Re10  1  0.278187  0.721273  0.000292  1
  Re  Re11  1  0.344448  0.863296  0.344448  1
  Re  Re12  1  0.344448  0.344448  0.863296  1
  Re  Re13  1  0.863296  0.344448  0.344448  1
  Re  Re14  1  0.653465  0.140796  0.653465  1
  Re  Re15  1  0.653465  0.653465  0.140796  1
  Re  Re16  1  0.140796  0.653465  0.653465  1
  Re  Re17  1  0.899636  0.899636  0.899636  1
  Re  Re18  1  0.100958  0.100958  0.100958  1
  C  C19  1  0.496419  0.496419  0.008035  1
  C  C20  1  0.008035  0.496419  0.496419  1
  C  C21  1  0.496419  0.008035  0.496419  1
