# generated using pymatgen
data_Ta7Nb5Co8(WN)4
_symmetry_space_group_name_H-M   'P 1'
_cell_length_a   8.15015285
_cell_length_b   8.15015274
_cell_length_c   8.15468000
_cell_angle_alpha   59.98162311
_cell_angle_beta   59.98162354
_cell_angle_gamma   59.93675870
_symmetry_Int_Tables_number   1
_chemical_formula_structural   Ta7Nb5Co8(WN)4
_chemical_formula_sum   'Ta7 Nb5 Co8 W4 N4'
_cell_volume   382.73207133
_cell_formula_units_Z   1
loop_
 _symmetry_equiv_pos_site_id
 _symmetry_equiv_pos_as_xyz
  1  'x, y, z'
loop_
 _atom_site_type_symbol
 _atom_site_label
 _atom_site_symmetry_multiplicity
 _atom_site_fract_x
 _atom_site_fract_y
 _atom_site_fract_z
 _atom_site_occupancy
  Ta  Ta0  1  0.810162  0.810162  0.189838  1
  Ta  Ta1  1  0.189742  0.189742  0.810258  1
  Ta  Ta2  1  0.809939  0.190357  0.809046  1
  Ta  Ta3  1  0.190357  0.809939  0.190659  1
  Ta  Ta4  1  0.190357  0.809939  0.809046  1
  Ta  Ta5  1  0.809939  0.190357  0.190659  1
  Ta  Ta6  1  0.440579  0.440579  0.059421  1
  Nb  Nb7  1  0.060466  0.060466  0.439534  1
  Nb  Nb8  1  0.439720  0.060082  0.440085  1
  Nb  Nb9  1  0.060082  0.439720  0.060113  1
  Nb  Nb10  1  0.060082  0.439720  0.440085  1
  Nb  Nb11  1  0.439720  0.060082  0.060113  1
  Co  Co12  1  0.731015  0.422753  0.423116  1
  Co  Co13  1  0.422753  0.731015  0.423116  1
  Co  Co14  1  0.422947  0.422947  0.732078  1
  Co  Co15  1  0.422947  0.422947  0.422027  1
  Co  Co16  1  0.516317  0.826874  0.828405  1
  Co  Co17  1  0.826874  0.516317  0.828405  1
  Co  Co18  1  0.827690  0.827690  0.516537  1
  Co  Co19  1  0.827690  0.827690  0.828083  1
  W  W20  1  0.125133  0.624702  0.625082  1
  W  W21  1  0.624702  0.125133  0.625082  1
  W  W22  1  0.624754  0.624754  0.125566  1
  W  W23  1  0.624754  0.624754  0.624925  1
  N  N24  1  0.627999  0.126069  0.122966  1
  N  N25  1  0.126069  0.627999  0.122966  1
  N  N26  1  0.123604  0.123604  0.629415  1
  N  N27  1  0.123604  0.123604  0.123377  1
