# generated using pymatgen
data_Zr2UTaI18
_symmetry_space_group_name_H-M   'P 1'
_cell_length_a   13.56900900
_cell_length_b   7.94755368
_cell_length_c   10.93543500
_cell_angle_alpha   75.63780185
_cell_angle_beta   90.00000000
_cell_angle_gamma   90.00000000
_symmetry_Int_Tables_number   1
_chemical_formula_structural   Zr2UTaI18
_chemical_formula_sum   'Zr2 U1 Ta1 I18'
_cell_volume   1142.42591640
_cell_formula_units_Z   1
loop_
 _symmetry_equiv_pos_site_id
 _symmetry_equiv_pos_as_xyz
  1  'x, y, z'
loop_
 _atom_site_type_symbol
 _atom_site_label
 _atom_site_symmetry_multiplicity
 _atom_site_fract_x
 _atom_site_fract_y
 _atom_site_fract_z
 _atom_site_occupancy
  Zr  Zr0  1  0.250000  0.758058  0.467807  1
  Zr  Zr1  1  0.750000  0.244386  0.525941  1
  U  U2  1  0.250000  0.647561  0.847337  1
  Ta  Ta3  1  0.750000  0.353198  0.147740  1
  I  I4  1  0.609502  0.441433  0.321839  1
  I  I5  1  0.103669  0.555050  0.669067  1
  I  I6  1  0.396331  0.555050  0.669067  1
  I  I7  1  0.890498  0.441433  0.321839  1
  I  I8  1  0.750000  0.682707  0.014280  1
  I  I9  1  0.250000  0.297769  0.002408  1
  I  I10  1  0.750000  0.519544  0.635602  1
  I  I11  1  0.250000  0.482543  0.360754  1
  I  I12  1  0.750000  0.022994  0.334370  1
  I  I13  1  0.250000  0.991064  0.656360  1
  I  I14  1  0.897043  0.243284  0.026407  1
  I  I15  1  0.404799  0.758651  0.989136  1
  I  I16  1  0.095201  0.758651  0.989136  1
  I  I17  1  0.602957  0.243284  0.026407  1
  I  I18  1  0.904627  0.056008  0.651847  1
  I  I19  1  0.404733  0.945662  0.345405  1
  I  I20  1  0.095267  0.945662  0.345405  1
  I  I21  1  0.595373  0.056008  0.651847  1
