# generated using pymatgen
data_Tm3LuAs6Rh7
_symmetry_space_group_name_H-M   'P 1'
_cell_length_a   7.23054849
_cell_length_b   7.23891728
_cell_length_c   7.23054761
_cell_angle_alpha   109.49466948
_cell_angle_beta   109.44776116
_cell_angle_gamma   109.49467648
_symmetry_Int_Tables_number   1
_chemical_formula_structural   Tm3LuAs6Rh7
_chemical_formula_sum   'Tm3 Lu1 As6 Rh7'
_cell_volume   291.25162610
_cell_formula_units_Z   1
loop_
 _symmetry_equiv_pos_site_id
 _symmetry_equiv_pos_as_xyz
  1  'x, y, z'
loop_
 _atom_site_type_symbol
 _atom_site_label
 _atom_site_symmetry_multiplicity
 _atom_site_fract_x
 _atom_site_fract_y
 _atom_site_fract_z
 _atom_site_occupancy
  Tm  Tm0  1  0.500000  0.500000  0.500000  1
  Tm  Tm1  1  0.500000  0.000000  0.000000  1
  Tm  Tm2  1  0.000000  0.000000  0.500000  1
  Lu  Lu3  1  0.000000  0.500000  0.000000  1
  As  As4  1  0.683529  0.000360  0.683529  1
  As  As5  1  0.683529  0.683169  0.000000  1
  As  As6  1  0.316471  0.316831  0.000000  1
  As  As7  1  0.000000  0.683169  0.683529  1
  As  As8  1  0.000000  0.316831  0.316471  1
  As  As9  1  0.316471  0.999640  0.316471  1
  Rh  Rh10  1  0.750361  0.500000  0.249639  1
  Rh  Rh11  1  0.500722  0.250361  0.750361  1
  Rh  Rh12  1  0.750361  0.250361  0.500722  1
  Rh  Rh13  1  0.249639  0.749639  0.499278  1
  Rh  Rh14  1  0.249639  0.500000  0.750361  1
  Rh  Rh15  1  0.499278  0.749639  0.249639  1
  Rh  Rh16  1  0.000000  0.000000  0.000000  1
