# generated using pymatgen
data_Lu3Co9(SiB2)2
_symmetry_space_group_name_H-M   'P 1'
_cell_length_a   5.05994201
_cell_length_b   5.06028798
_cell_length_c   9.30576600
_cell_angle_alpha   89.99991084
_cell_angle_beta   90.00004636
_cell_angle_gamma   119.99176640
_symmetry_Int_Tables_number   1
_chemical_formula_structural   Lu3Co9(SiB2)2
_chemical_formula_sum   'Lu3 Co9 Si2 B4'
_cell_volume   206.36667066
_cell_formula_units_Z   1
loop_
 _symmetry_equiv_pos_site_id
 _symmetry_equiv_pos_as_xyz
  1  'x, y, z'
loop_
 _atom_site_type_symbol
 _atom_site_label
 _atom_site_symmetry_multiplicity
 _atom_site_fract_x
 _atom_site_fract_y
 _atom_site_fract_z
 _atom_site_occupancy
  Lu  Lu0  1  0.999986  0.000006  0.999998  1
  Lu  Lu1  1  0.999992  0.000000  0.338640  1
  Lu  Lu2  1  0.000004  0.000004  0.661286  1
  Co  Co3  1  0.500000  0.999997  0.499977  1
  Co  Co4  1  0.500001  0.500003  0.499973  1
  Co  Co5  1  0.999995  0.499994  0.499993  1
  Co  Co6  1  0.499993  0.000001  0.197144  1
  Co  Co7  1  0.499986  0.499999  0.197107  1
  Co  Co8  1  0.999990  0.500002  0.197107  1
  Co  Co9  1  0.500002  0.000002  0.802884  1
  Co  Co10  1  0.499997  0.500000  0.802918  1
  Co  Co11  1  0.999996  0.499995  0.802908  1
  Si  Si12  1  0.333365  0.666718  0.000068  1
  Si  Si13  1  0.666606  0.333281  0.000069  1
  B  B14  1  0.333306  0.666595  0.346212  1
  B  B15  1  0.666681  0.333402  0.346212  1
  B  B16  1  0.666669  0.333377  0.653752  1
  B  B17  1  0.333329  0.666625  0.653753  1
