# generated using pymatgen
data_Er8NbGe16Mo11
_symmetry_space_group_name_H-M   'P 1'
_cell_length_a   6.91495741
_cell_length_b   7.06652468
_cell_length_c   13.12143300
_cell_angle_alpha   90.00000000
_cell_angle_beta   90.00000000
_cell_angle_gamma   90.16832201
_symmetry_Int_Tables_number   1
_chemical_formula_structural   Er8NbGe16Mo11
_chemical_formula_sum   'Er8 Nb1 Ge16 Mo11'
_cell_volume   641.17234548
_cell_formula_units_Z   1
loop_
 _symmetry_equiv_pos_site_id
 _symmetry_equiv_pos_as_xyz
  1  'x, y, z'
loop_
 _atom_site_type_symbol
 _atom_site_label
 _atom_site_symmetry_multiplicity
 _atom_site_fract_x
 _atom_site_fract_y
 _atom_site_fract_z
 _atom_site_occupancy
  Er  Er0  1  0.491010  0.328140  0.092640  1
  Er  Er1  1  0.989180  0.171918  0.407618  1
  Er  Er2  1  0.510668  0.671287  0.592630  1
  Er  Er3  1  0.010375  0.829143  0.907597  1
  Er  Er4  1  0.510668  0.671287  0.907370  1
  Er  Er5  1  0.010375  0.829143  0.592403  1
  Er  Er6  1  0.491010  0.328140  0.407360  1
  Er  Er7  1  0.989180  0.171918  0.092382  1
  Nb  Nb8  1  0.834725  0.508393  0.250000  1
  Ge  Ge9  1  0.812679  0.642486  0.750000  1
  Ge  Ge10  1  0.311970  0.858189  0.750000  1
  Ge  Ge11  1  0.192207  0.355415  0.250000  1
  Ge  Ge12  1  0.688002  0.138214  0.250000  1
  Ge  Ge13  1  0.533391  0.370056  0.750000  1
  Ge  Ge14  1  0.035081  0.130328  0.750000  1
  Ge  Ge15  1  0.462412  0.630235  0.250000  1
  Ge  Ge16  1  0.966924  0.873734  0.250000  1
  Ge  Ge17  1  0.672350  0.043897  0.547076  1
  Ge  Ge18  1  0.172197  0.455836  0.953061  1
  Ge  Ge19  1  0.326498  0.956276  0.046764  1
  Ge  Ge20  1  0.827178  0.543634  0.455915  1
  Ge  Ge21  1  0.326498  0.956276  0.453236  1
  Ge  Ge22  1  0.827178  0.543634  0.044085  1
  Ge  Ge23  1  0.672350  0.043897  0.952924  1
  Ge  Ge24  1  0.172197  0.455836  0.546939  1
  Mo  Mo25  1  0.669307  0.002668  0.750000  1
  Mo  Mo26  1  0.167719  0.496634  0.750000  1
  Mo  Mo27  1  0.330581  0.995725  0.250000  1
  Mo  Mo28  1  0.833847  0.340991  0.627859  1
  Mo  Mo29  1  0.335007  0.159992  0.873382  1
  Mo  Mo30  1  0.165494  0.658876  0.125889  1
  Mo  Mo31  1  0.663697  0.838972  0.374435  1
  Mo  Mo32  1  0.165494  0.658876  0.374111  1
  Mo  Mo33  1  0.663697  0.838972  0.125565  1
  Mo  Mo34  1  0.833847  0.340991  0.872141  1
  Mo  Mo35  1  0.335007  0.159992  0.626618  1
