# generated using pymatgen
data_Dy17(MgIr4)3
_symmetry_space_group_name_H-M   'P 1'
_cell_length_a   10.72944800
_cell_length_b   10.72944800
_cell_length_c   6.31560800
_cell_angle_alpha   90.00000000
_cell_angle_beta   90.00000000
_cell_angle_gamma   90.00000000
_symmetry_Int_Tables_number   1
_chemical_formula_structural   Dy17(MgIr4)3
_chemical_formula_sum   'Dy17 Mg3 Ir12'
_cell_volume   727.05945204
_cell_formula_units_Z   1
loop_
 _symmetry_equiv_pos_site_id
 _symmetry_equiv_pos_as_xyz
  1  'x, y, z'
loop_
 _atom_site_type_symbol
 _atom_site_label
 _atom_site_symmetry_multiplicity
 _atom_site_fract_x
 _atom_site_fract_y
 _atom_site_fract_z
 _atom_site_occupancy
  Dy  Dy0  1  0.284315  0.086897  0.381773  1
  Dy  Dy1  1  0.284442  0.914687  0.879778  1
  Dy  Dy2  1  0.715558  0.085313  0.879778  1
  Dy  Dy3  1  0.715685  0.913103  0.381773  1
  Dy  Dy4  1  0.586794  0.786014  0.877954  1
  Dy  Dy5  1  0.590217  0.206953  0.379420  1
  Dy  Dy6  1  0.409783  0.793047  0.379420  1
  Dy  Dy7  1  0.413206  0.213986  0.877954  1
  Dy  Dy8  1  0.206953  0.409783  0.620580  1
  Dy  Dy9  1  0.213986  0.586794  0.122046  1
  Dy  Dy10  1  0.786014  0.413206  0.122046  1
  Dy  Dy11  1  0.793047  0.590217  0.620580  1
  Dy  Dy12  1  0.914687  0.715558  0.120222  1
  Dy  Dy13  1  0.913103  0.284315  0.618227  1
  Dy  Dy14  1  0.086897  0.715685  0.618227  1
  Dy  Dy15  1  0.085313  0.284442  0.120222  1
  Dy  Dy16  1  0.500000  0.500000  0.500000  1
  Mg  Mg17  1  0.000000  0.000000  0.500000  1
  Mg  Mg18  1  0.000000  0.000000  0.000000  1
  Mg  Mg19  1  0.500000  0.500000  0.000000  1
  Ir  Ir20  1  0.847663  0.152638  0.247947  1
  Ir  Ir21  1  0.847362  0.847663  0.752053  1
  Ir  Ir22  1  0.152638  0.152337  0.752053  1
  Ir  Ir23  1  0.152337  0.847362  0.247947  1
  Ir  Ir24  1  0.655255  0.345883  0.747214  1
  Ir  Ir25  1  0.654117  0.655255  0.252786  1
  Ir  Ir26  1  0.345883  0.344745  0.252786  1
  Ir  Ir27  1  0.344745  0.654117  0.747214  1
  Ir  Ir28  1  0.500000  0.000000  0.121225  1
  Ir  Ir29  1  0.500000  0.000000  0.625746  1
  Ir  Ir30  1  0.000000  0.500000  0.878775  1
  Ir  Ir31  1  0.000000  0.500000  0.374254  1
