# generated using pymatgen
data_La3Pr4Tc4C9
_symmetry_space_group_name_H-M   'P 1'
_cell_length_a   6.58631080
_cell_length_b   6.58631101
_cell_length_c   12.13033319
_cell_angle_alpha   71.36195773
_cell_angle_beta   71.36195807
_cell_angle_gamma   48.11169746
_symmetry_Int_Tables_number   1
_chemical_formula_structural   La3Pr4Tc4C9
_chemical_formula_sum   'La3 Pr4 Tc4 C9'
_cell_volume   366.95904615
_cell_formula_units_Z   1
loop_
 _symmetry_equiv_pos_site_id
 _symmetry_equiv_pos_as_xyz
  1  'x, y, z'
loop_
 _atom_site_type_symbol
 _atom_site_label
 _atom_site_symmetry_multiplicity
 _atom_site_fract_x
 _atom_site_fract_y
 _atom_site_fract_z
 _atom_site_occupancy
  La  La0  1  0.861752  0.861752  0.618315  1
  La  La1  1  0.999929  0.999929  0.999706  1
  La  La2  1  0.628308  0.628308  0.157917  1
  Pr  Pr3  1  0.375170  0.375170  0.839823  1
  Pr  Pr4  1  0.142548  0.142548  0.686008  1
  Pr  Pr5  1  0.856820  0.856820  0.314645  1
  Pr  Pr6  1  0.139355  0.139355  0.380203  1
  Tc  Tc7  1  0.356923  0.356923  0.140138  1
  Tc  Tc8  1  0.567293  0.567293  0.569385  1
  Tc  Tc9  1  0.432414  0.432414  0.430510  1
  Tc  Tc10  1  0.642429  0.642429  0.859799  1
  C  C11  1  0.381582  0.381582  0.290746  1
  C  C12  1  0.924000  0.924000  0.817159  1
  C  C13  1  0.393916  0.393916  0.611572  1
  C  C14  1  0.192671  0.192671  0.143618  1
  C  C15  1  0.806551  0.806551  0.858428  1
  C  C16  1  0.499331  0.499331  0.999598  1
  C  C17  1  0.075291  0.075291  0.183445  1
  C  C18  1  0.617125  0.617125  0.709956  1
  C  C19  1  0.606593  0.606593  0.389028  1
