# generated using pymatgen
data_Er2ScSi2
_symmetry_space_group_name_H-M   'P 1'
_cell_length_a   7.20346500
_cell_length_b   7.20346500
_cell_length_c   4.19793600
_cell_angle_alpha   90.00000000
_cell_angle_beta   90.00000000
_cell_angle_gamma   90.00000000
_symmetry_Int_Tables_number   1
_chemical_formula_structural   Er2ScSi2
_chemical_formula_sum   'Er4 Sc2 Si4'
_cell_volume   217.83051286
_cell_formula_units_Z   2
loop_
 _symmetry_equiv_pos_site_id
 _symmetry_equiv_pos_as_xyz
  1  'x, y, z'
loop_
 _atom_site_type_symbol
 _atom_site_label
 _atom_site_symmetry_multiplicity
 _atom_site_fract_x
 _atom_site_fract_y
 _atom_site_fract_z
 _atom_site_occupancy
  Er  Er0  1  0.676438  0.176438  0.500000  1
  Er  Er1  1  0.323562  0.823562  0.500000  1
  Er  Er2  1  0.176438  0.323562  0.500000  1
  Er  Er3  1  0.823562  0.676438  0.500000  1
  Sc  Sc4  1  0.000000  0.000000  0.000000  1
  Sc  Sc5  1  0.500000  0.500000  0.000000  1
  Si  Si6  1  0.120604  0.620604  0.000000  1
  Si  Si7  1  0.879396  0.379396  0.000000  1
  Si  Si8  1  0.620604  0.879396  0.000000  1
  Si  Si9  1  0.379396  0.120604  0.000000  1
