# generated using pymatgen
data_AcEu3(PIr)4
_symmetry_space_group_name_H-M   'P 1'
_cell_length_a   6.35874460
_cell_length_b   6.35874460
_cell_length_c   6.35874460
_cell_angle_alpha   89.44185145
_cell_angle_beta   89.44185145
_cell_angle_gamma   90.55814855
_symmetry_Int_Tables_number   1
_chemical_formula_structural   AcEu3(PIr)4
_chemical_formula_sum   'Ac1 Eu3 P4 Ir4'
_cell_volume   257.07030751
_cell_formula_units_Z   1
loop_
 _symmetry_equiv_pos_site_id
 _symmetry_equiv_pos_as_xyz
  1  'x, y, z'
loop_
 _atom_site_type_symbol
 _atom_site_label
 _atom_site_symmetry_multiplicity
 _atom_site_fract_x
 _atom_site_fract_y
 _atom_site_fract_z
 _atom_site_occupancy
  Ac  Ac0  1  0.385049  0.885049  0.614951  1
  Eu  Eu1  1  0.891903  0.602887  0.391232  1
  Eu  Eu2  1  0.608768  0.391903  0.897113  1
  Eu  Eu3  1  0.102887  0.108768  0.108097  1
  P  P4  1  0.672881  0.172881  0.327119  1
  P  P5  1  0.166600  0.336702  0.667964  1
  P  P6  1  0.332036  0.666600  0.163298  1
  P  P7  1  0.836702  0.832036  0.833400  1
  Ir  Ir8  1  0.084139  0.584139  0.915861  1
  Ir  Ir9  1  0.587337  0.916534  0.084835  1
  Ir  Ir10  1  0.915165  0.087337  0.583466  1
  Ir  Ir11  1  0.416534  0.415165  0.412663  1
