# generated using pymatgen
data_EuB2OsRh
_symmetry_space_group_name_H-M   'P 1'
_cell_length_a   6.97946794
_cell_length_b   6.06958684
_cell_length_c   5.64829136
_cell_angle_alpha   73.01445219
_cell_angle_beta   56.27374667
_cell_angle_gamma   50.50755614
_symmetry_Int_Tables_number   1
_chemical_formula_structural   EuB2OsRh
_chemical_formula_sum   'Eu2 B4 Os2 Rh2'
_cell_volume   152.87953479
_cell_formula_units_Z   2
loop_
 _symmetry_equiv_pos_site_id
 _symmetry_equiv_pos_as_xyz
  1  'x, y, z'
loop_
 _atom_site_type_symbol
 _atom_site_label
 _atom_site_symmetry_multiplicity
 _atom_site_fract_x
 _atom_site_fract_y
 _atom_site_fract_z
 _atom_site_occupancy
  Eu  Eu0  1  0.004763  0.004763  0.995237  1
  Eu  Eu1  1  0.245237  0.245237  0.254763  1
  B  B2  1  0.664866  0.320730  0.693338  1
  B  B3  1  0.320730  0.664866  0.321066  1
  B  B4  1  0.929270  0.585134  0.928934  1
  B  B5  1  0.585134  0.929270  0.556662  1
  Os  Os6  1  0.366669  0.366669  0.633331  1
  Os  Os7  1  0.883331  0.883331  0.616669  1
  Rh  Rh8  1  0.616421  0.616421  0.883579  1
  Rh  Rh9  1  0.633579  0.633579  0.366421  1
