# generated using pymatgen
data_Ho4Al18(OsAu)3
_symmetry_space_group_name_H-M   'P 1'
_cell_length_a   7.65218286
_cell_length_b   7.65218183
_cell_length_c   9.48692200
_cell_angle_alpha   90.08716961
_cell_angle_beta   90.08716960
_cell_angle_gamma   119.63903354
_symmetry_Int_Tables_number   1
_chemical_formula_structural   Ho4Al18(OsAu)3
_chemical_formula_sum   'Ho4 Al18 Os3 Au3'
_cell_volume   482.82839709
_cell_formula_units_Z   1
loop_
 _symmetry_equiv_pos_site_id
 _symmetry_equiv_pos_as_xyz
  1  'x, y, z'
loop_
 _atom_site_type_symbol
 _atom_site_label
 _atom_site_symmetry_multiplicity
 _atom_site_fract_x
 _atom_site_fract_y
 _atom_site_fract_z
 _atom_site_occupancy
  Ho  Ho0  1  0.995881  0.670820  0.246901  1
  Ho  Ho1  1  0.006212  0.330679  0.752117  1
  Ho  Ho2  1  0.669321  0.993788  0.247883  1
  Ho  Ho3  1  0.329180  0.004119  0.753099  1
  Al  Al4  1  0.121147  0.123293  0.248644  1
  Al  Al5  1  0.876707  0.878853  0.751356  1
  Al  Al6  1  0.988762  0.322949  0.074848  1
  Al  Al7  1  0.990196  0.663652  0.923981  1
  Al  Al8  1  0.997597  0.676201  0.581147  1
  Al  Al9  1  0.323799  0.002403  0.418853  1
  Al  Al10  1  0.000695  0.325302  0.420846  1
  Al  Al11  1  0.674698  0.999305  0.579154  1
  Al  Al12  1  0.677051  0.011238  0.925152  1
  Al  Al13  1  0.336348  0.009804  0.076019  1
  Al  Al14  1  0.323974  0.324646  0.562460  1
  Al  Al15  1  0.675354  0.676026  0.437540  1
  Al  Al16  1  0.678560  0.667940  0.049528  1
  Al  Al17  1  0.332060  0.321440  0.950472  1
  Al  Al18  1  0.341701  0.540763  0.248602  1
  Al  Al19  1  0.656247  0.451741  0.758120  1
  Al  Al20  1  0.548259  0.343753  0.241880  1
  Al  Al21  1  0.459237  0.658299  0.751398  1
  Os  Os22  1  0.672017  0.327983  0.000000  1
  Os  Os23  1  0.001263  0.998737  0.000000  1
  Os  Os24  1  0.999174  0.000826  0.500000  1
  Au  Au25  1  0.326323  0.673677  0.000000  1
  Au  Au26  1  0.325500  0.674500  0.500000  1
  Au  Au27  1  0.672737  0.327263  0.500000  1
