# generated using pymatgen
data_Sc11FeRu2Pt
_symmetry_space_group_name_H-M   'P 1'
_cell_length_a   9.46716387
_cell_length_b   9.42887597
_cell_length_c   9.46716411
_cell_angle_alpha   60.13369395
_cell_angle_beta   59.73261066
_cell_angle_gamma   60.13369371
_symmetry_Int_Tables_number   1
_chemical_formula_structural   Sc11FeRu2Pt
_chemical_formula_sum   'Sc22 Fe2 Ru4 Pt2'
_cell_volume   597.54493578
_cell_formula_units_Z   2
loop_
 _symmetry_equiv_pos_site_id
 _symmetry_equiv_pos_as_xyz
  1  'x, y, z'
loop_
 _atom_site_type_symbol
 _atom_site_label
 _atom_site_symmetry_multiplicity
 _atom_site_fract_x
 _atom_site_fract_y
 _atom_site_fract_z
 _atom_site_occupancy
  Sc  Sc0  1  0.807373  0.807373  0.192627  1
  Sc  Sc1  1  0.192136  0.807864  0.192136  1
  Sc  Sc2  1  0.807373  0.192627  0.192627  1
  Sc  Sc3  1  0.192627  0.192627  0.807373  1
  Sc  Sc4  1  0.807864  0.192136  0.807864  1
  Sc  Sc5  1  0.192627  0.807373  0.807373  1
  Sc  Sc6  1  0.612121  0.615503  0.156873  1
  Sc  Sc7  1  0.615503  0.156873  0.615503  1
  Sc  Sc8  1  0.156873  0.615503  0.612121  1
  Sc  Sc9  1  0.615503  0.612121  0.615503  1
  Sc  Sc10  1  0.387879  0.384497  0.843127  1
  Sc  Sc11  1  0.384497  0.843127  0.384497  1
  Sc  Sc12  1  0.843127  0.384497  0.387879  1
  Sc  Sc13  1  0.384497  0.387879  0.384497  1
  Sc  Sc14  1  0.847343  0.840135  0.472388  1
  Sc  Sc15  1  0.840135  0.472388  0.840135  1
  Sc  Sc16  1  0.472388  0.840135  0.847343  1
  Sc  Sc17  1  0.840135  0.847343  0.840135  1
  Sc  Sc18  1  0.152657  0.159865  0.527612  1
  Sc  Sc19  1  0.159865  0.527612  0.159865  1
  Sc  Sc20  1  0.527612  0.159865  0.152657  1
  Sc  Sc21  1  0.159865  0.152657  0.159865  1
  Fe  Fe22  1  0.000000  0.000000  0.000000  1
  Fe  Fe23  1  0.500000  0.500000  0.500000  1
  Ru  Ru24  1  0.000000  0.000000  0.500000  1
  Ru  Ru25  1  0.000000  0.500000  0.500000  1
  Ru  Ru26  1  0.500000  0.500000  0.000000  1
  Ru  Ru27  1  0.500000  0.000000  0.000000  1
  Pt  Pt28  1  0.500000  0.000000  0.500000  1
  Pt  Pt29  1  0.000000  0.500000  0.000000  1
