# generated using pymatgen
data_Yb3ErNbOs7
_symmetry_space_group_name_H-M   'P 1'
_cell_length_a   5.40818800
_cell_length_b   5.40818733
_cell_length_c   8.60671300
_cell_angle_alpha   90.00000000
_cell_angle_beta   90.00000000
_cell_angle_gamma   119.99999187
_symmetry_Int_Tables_number   1
_chemical_formula_structural   Yb3ErNbOs7
_chemical_formula_sum   'Yb3 Er1 Nb1 Os7'
_cell_volume   218.00753031
_cell_formula_units_Z   1
loop_
 _symmetry_equiv_pos_site_id
 _symmetry_equiv_pos_as_xyz
  1  'x, y, z'
loop_
 _atom_site_type_symbol
 _atom_site_label
 _atom_site_symmetry_multiplicity
 _atom_site_fract_x
 _atom_site_fract_y
 _atom_site_fract_z
 _atom_site_occupancy
  Yb  Yb0  1  0.666667  0.333333  0.576080  1
  Yb  Yb1  1  0.666667  0.333333  0.935375  1
  Yb  Yb2  1  0.333333  0.666667  0.059148  1
  Er  Er3  1  0.333333  0.666667  0.425159  1
  Nb  Nb4  1  0.000000  0.000000  0.500052  1
  Os  Os5  1  0.000000  0.000000  0.002021  1
  Os  Os6  1  0.826781  0.173219  0.249241  1
  Os  Os7  1  0.826781  0.653563  0.249241  1
  Os  Os8  1  0.346437  0.173219  0.249241  1
  Os  Os9  1  0.172758  0.827242  0.751481  1
  Os  Os10  1  0.172758  0.345515  0.751481  1
  Os  Os11  1  0.654485  0.827242  0.751481  1
