# generated using pymatgen
data_YEr9(InBi)3
_symmetry_space_group_name_H-M   'P 1'
_cell_length_a   8.99707563
_cell_length_b   8.99707751
_cell_length_c   6.52348500
_cell_angle_alpha   90.00000000
_cell_angle_beta   90.00000000
_cell_angle_gamma   120.04284752
_symmetry_Int_Tables_number   1
_chemical_formula_structural   YEr9(InBi)3
_chemical_formula_sum   'Y1 Er9 In3 Bi3'
_cell_volume   457.11498686
_cell_formula_units_Z   1
loop_
 _symmetry_equiv_pos_site_id
 _symmetry_equiv_pos_as_xyz
  1  'x, y, z'
loop_
 _atom_site_type_symbol
 _atom_site_label
 _atom_site_symmetry_multiplicity
 _atom_site_fract_x
 _atom_site_fract_y
 _atom_site_fract_z
 _atom_site_occupancy
  Y  Y0  1  0.763735  0.763735  0.750000  1
  Er  Er1  1  0.666644  0.333303  0.007357  1
  Er  Er2  1  0.333303  0.666644  0.007357  1
  Er  Er3  1  0.333303  0.666644  0.492643  1
  Er  Er4  1  0.666644  0.333303  0.492643  1
  Er  Er5  1  0.236450  0.000127  0.750000  1
  Er  Er6  1  0.000127  0.236450  0.750000  1
  Er  Er7  1  0.237924  0.237924  0.250000  1
  Er  Er8  1  0.761924  0.000126  0.250000  1
  Er  Er9  1  0.000126  0.761924  0.250000  1
  In  In10  1  0.606749  0.606749  0.250000  1
  In  In11  1  0.393286  0.999983  0.250000  1
  In  In12  1  0.999983  0.393286  0.250000  1
  Bi  Bi13  1  0.395796  0.395796  0.750000  1
  Bi  Bi14  1  0.603746  0.000260  0.750000  1
  Bi  Bi15  1  0.000260  0.603746  0.750000  1
