# generated using pymatgen
data_Ca20(Zn3Ga)3
_symmetry_space_group_name_H-M   'P 1'
_cell_length_a   7.93167000
_cell_length_b   7.93167000
_cell_length_c   14.96535800
_cell_angle_alpha   90.00000000
_cell_angle_beta   90.00000000
_cell_angle_gamma   90.00000000
_symmetry_Int_Tables_number   1
_chemical_formula_structural   Ca20(Zn3Ga)3
_chemical_formula_sum   'Ca20 Zn9 Ga3'
_cell_volume   941.49145850
_cell_formula_units_Z   1
loop_
 _symmetry_equiv_pos_site_id
 _symmetry_equiv_pos_as_xyz
  1  'x, y, z'
loop_
 _atom_site_type_symbol
 _atom_site_label
 _atom_site_symmetry_multiplicity
 _atom_site_fract_x
 _atom_site_fract_y
 _atom_site_fract_z
 _atom_site_occupancy
  Ca  Ca0  1  0.671514  0.170488  0.101257  1
  Ca  Ca1  1  0.172865  0.671702  0.602300  1
  Ca  Ca2  1  0.328486  0.829512  0.101257  1
  Ca  Ca3  1  0.827135  0.328298  0.602300  1
  Ca  Ca4  1  0.829512  0.671514  0.101257  1
  Ca  Ca5  1  0.328298  0.172865  0.602300  1
  Ca  Ca6  1  0.170488  0.328486  0.101257  1
  Ca  Ca7  1  0.671702  0.827135  0.602300  1
  Ca  Ca8  1  0.829512  0.328486  0.898743  1
  Ca  Ca9  1  0.328298  0.827135  0.397700  1
  Ca  Ca10  1  0.170488  0.671514  0.898743  1
  Ca  Ca11  1  0.671702  0.172865  0.397700  1
  Ca  Ca12  1  0.671514  0.829512  0.898743  1
  Ca  Ca13  1  0.172865  0.328298  0.397700  1
  Ca  Ca14  1  0.328486  0.170488  0.898743  1
  Ca  Ca15  1  0.827135  0.671702  0.397700  1
  Ca  Ca16  1  0.500000  0.500000  0.753997  1
  Ca  Ca17  1  0.000000  0.000000  0.251071  1
  Ca  Ca18  1  0.000000  0.000000  0.748929  1
  Ca  Ca19  1  0.500000  0.500000  0.246003  1
  Zn  Zn20  1  0.616684  0.116990  0.751604  1
  Zn  Zn21  1  0.116990  0.616684  0.248396  1
  Zn  Zn22  1  0.883010  0.383316  0.248396  1
  Zn  Zn23  1  0.383316  0.883010  0.751604  1
  Zn  Zn24  1  0.883010  0.616684  0.751604  1
  Zn  Zn25  1  0.383316  0.116990  0.248396  1
  Zn  Zn26  1  0.116990  0.383316  0.751604  1
  Zn  Zn27  1  0.616684  0.883010  0.248396  1
  Zn  Zn28  1  0.000000  0.000000  0.000000  1
  Ga  Ga29  1  0.500000  0.500000  0.500000  1
  Ga  Ga30  1  0.500000  0.500000  0.000000  1
  Ga  Ga31  1  0.000000  0.000000  0.500000  1
