# generated using pymatgen
data_Ho2ZnNiIr
_symmetry_space_group_name_H-M   'P 1'
_cell_length_a   4.20084045
_cell_length_b   5.36845103
_cell_length_c   5.36845233
_cell_angle_alpha   62.30552679
_cell_angle_beta   66.96755234
_cell_angle_gamma   66.96754527
_symmetry_Int_Tables_number   1
_chemical_formula_structural   Ho2ZnNiIr
_chemical_formula_sum   'Ho2 Zn1 Ni1 Ir1'
_cell_volume   95.34032754
_cell_formula_units_Z   1
loop_
 _symmetry_equiv_pos_site_id
 _symmetry_equiv_pos_as_xyz
  1  'x, y, z'
loop_
 _atom_site_type_symbol
 _atom_site_label
 _atom_site_symmetry_multiplicity
 _atom_site_fract_x
 _atom_site_fract_y
 _atom_site_fract_z
 _atom_site_occupancy
  Ho  Ho0  1  0.203753  0.290835  0.301658  1
  Ho  Ho1  1  0.796247  0.698342  0.709165  1
  Zn  Zn2  1  0.000000  0.989646  0.010354  1
  Ni  Ni3  1  0.500000  0.739075  0.260925  1
  Ir  Ir4  1  0.500000  0.282103  0.717897  1
