# generated using pymatgen
data_La8Mo3WC8
_symmetry_space_group_name_H-M   'P 1'
_cell_length_a   5.84298804
_cell_length_b   5.84298911
_cell_length_c   10.71599300
_cell_angle_alpha   90.00000000
_cell_angle_beta   90.00000000
_cell_angle_gamma   89.91716952
_symmetry_Int_Tables_number   1
_chemical_formula_structural   La8Mo3WC8
_chemical_formula_sum   'La8 Mo3 W1 C8'
_cell_volume   365.84914275
_cell_formula_units_Z   1
loop_
 _symmetry_equiv_pos_site_id
 _symmetry_equiv_pos_as_xyz
  1  'x, y, z'
loop_
 _atom_site_type_symbol
 _atom_site_label
 _atom_site_symmetry_multiplicity
 _atom_site_fract_x
 _atom_site_fract_y
 _atom_site_fract_z
 _atom_site_occupancy
  La  La0  1  0.306233  0.692577  0.155543  1
  La  La1  1  0.692577  0.306233  0.844457  1
  La  La2  1  0.806284  0.806284  0.344355  1
  La  La3  1  0.193948  0.193948  0.655093  1
  La  La4  1  0.692577  0.306233  0.155543  1
  La  La5  1  0.306233  0.692577  0.844457  1
  La  La6  1  0.193948  0.193948  0.344907  1
  La  La7  1  0.806284  0.806284  0.655645  1
  Mo  Mo8  1  0.675666  0.325059  0.500000  1
  Mo  Mo9  1  0.325059  0.675666  0.500000  1
  Mo  Mo10  1  0.823590  0.823590  0.000000  1
  W  W11  1  0.175171  0.175171  0.000000  1
  C  C12  1  0.001569  0.001569  0.860573  1
  C  C13  1  0.500146  0.500146  0.639927  1
  C  C14  1  0.500146  0.500146  0.360073  1
  C  C15  1  0.497758  0.001456  0.000000  1
  C  C16  1  0.500098  0.999689  0.500000  1
  C  C17  1  0.001456  0.497758  0.000000  1
  C  C18  1  0.999689  0.500098  0.500000  1
  C  C19  1  0.001569  0.001569  0.139427  1
