# generated using pymatgen
data_CaLaNiIr3
_symmetry_space_group_name_H-M   'P 1'
_cell_length_a   5.42418611
_cell_length_b   5.42418584
_cell_length_c   5.28525726
_cell_angle_alpha   59.12658560
_cell_angle_beta   59.12658381
_cell_angle_gamma   59.99999530
_symmetry_Int_Tables_number   1
_chemical_formula_structural   CaLaNiIr3
_chemical_formula_sum   'Ca1 La1 Ni1 Ir3'
_cell_volume   108.48229942
_cell_formula_units_Z   1
loop_
 _symmetry_equiv_pos_site_id
 _symmetry_equiv_pos_as_xyz
  1  'x, y, z'
loop_
 _atom_site_type_symbol
 _atom_site_label
 _atom_site_symmetry_multiplicity
 _atom_site_fract_x
 _atom_site_fract_y
 _atom_site_fract_z
 _atom_site_occupancy
  Ca  Ca0  1  0.000104  0.000104  0.999687  1
  La  La1  1  0.750434  0.750434  0.748699  1
  Ni  Ni2  1  0.374514  0.374514  0.876458  1
  Ir  Ir3  1  0.374523  0.875902  0.375052  1
  Ir  Ir4  1  0.374523  0.374523  0.375052  1
  Ir  Ir5  1  0.875902  0.374523  0.375052  1
