# generated using pymatgen
data_Yb13Dy7Si15Ag
_symmetry_space_group_name_H-M   'P 1'
_cell_length_a   7.48551559
_cell_length_b   7.78994967
_cell_length_c   15.16390443
_cell_angle_alpha   90.13076688
_cell_angle_beta   89.20054827
_cell_angle_gamma   90.30481920
_symmetry_Int_Tables_number   1
_chemical_formula_structural   Yb13Dy7Si15Ag
_chemical_formula_sum   'Yb13 Dy7 Si15 Ag1'
_cell_volume   884.13366472
_cell_formula_units_Z   1
loop_
 _symmetry_equiv_pos_site_id
 _symmetry_equiv_pos_as_xyz
  1  'x, y, z'
loop_
 _atom_site_type_symbol
 _atom_site_label
 _atom_site_symmetry_multiplicity
 _atom_site_fract_x
 _atom_site_fract_y
 _atom_site_fract_z
 _atom_site_occupancy
  Yb  Yb0  1  0.648772  0.980609  0.250567  1
  Yb  Yb1  1  0.152596  0.518693  0.249233  1
  Yb  Yb2  1  0.845867  0.484392  0.748426  1
  Yb  Yb3  1  0.352712  0.016769  0.749427  1
  Yb  Yb4  1  0.983892  0.821181  0.098570  1
  Yb  Yb5  1  0.471613  0.683570  0.403478  1
  Yb  Yb6  1  0.509919  0.319232  0.900709  1
  Yb  Yb7  1  0.028263  0.185149  0.596843  1
  Yb  Yb8  1  0.027196  0.177089  0.901955  1
  Yb  Yb9  1  0.528727  0.315327  0.597121  1
  Yb  Yb10  1  0.472882  0.684816  0.096415  1
  Yb  Yb11  1  0.972510  0.816271  0.403001  1
  Yb  Yb12  1  0.671997  0.824761  0.876483  1
  Dy  Dy13  1  0.180975  0.677651  0.620575  1
  Dy  Dy14  1  0.826511  0.317990  0.126347  1
  Dy  Dy15  1  0.317672  0.177218  0.380006  1
  Dy  Dy16  1  0.322080  0.179777  0.122897  1
  Dy  Dy17  1  0.816702  0.322382  0.379626  1
  Dy  Dy18  1  0.190095  0.676577  0.879211  1
  Dy  Dy19  1  0.681708  0.822880  0.621026  1
  Si  Si20  1  0.756164  0.606129  0.248306  1
  Si  Si21  1  0.255598  0.894118  0.251660  1
  Si  Si22  1  0.748640  0.110064  0.746247  1
  Si  Si23  1  0.237564  0.391184  0.748298  1
  Si  Si24  1  0.027868  0.113813  0.251155  1
  Si  Si25  1  0.529287  0.383852  0.253615  1
  Si  Si26  1  0.468071  0.610583  0.744922  1
  Si  Si27  1  0.974756  0.886167  0.751482  1
  Si  Si28  1  0.358919  0.966408  0.538359  1
  Si  Si29  1  0.644279  0.040003  0.037748  1
  Si  Si30  1  0.140080  0.468043  0.460677  1
  Si  Si31  1  0.158008  0.465412  0.039227  1
  Si  Si32  1  0.640846  0.032175  0.461186  1
  Si  Si33  1  0.354578  0.969286  0.964753  1
  Si  Si34  1  0.858234  0.533807  0.537481  1
  Ag  Ag35  1  0.844416  0.526620  0.962966  1
