# generated using pymatgen
data_InWF6
_symmetry_space_group_name_H-M   'P 1'
_cell_length_a   5.86618066
_cell_length_b   5.86618016
_cell_length_c   5.86618017
_cell_angle_alpha   57.76930362
_cell_angle_beta   57.76931281
_cell_angle_gamma   57.76932051
_symmetry_Int_Tables_number   1
_chemical_formula_structural   InWF6
_chemical_formula_sum   'In1 W1 F6'
_cell_volume   135.42880445
_cell_formula_units_Z   1
loop_
 _symmetry_equiv_pos_site_id
 _symmetry_equiv_pos_as_xyz
  1  'x, y, z'
loop_
 _atom_site_type_symbol
 _atom_site_label
 _atom_site_symmetry_multiplicity
 _atom_site_fract_x
 _atom_site_fract_y
 _atom_site_fract_z
 _atom_site_occupancy
  In  In0  1  0.500000  0.500000  0.500000  1
  W  W1  1  0.000000  0.000000  0.000000  1
  F  F2  1  0.651815  0.845727  0.251840  1
  F  F3  1  0.845727  0.251840  0.651815  1
  F  F4  1  0.748160  0.348185  0.154273  1
  F  F5  1  0.154273  0.748160  0.348185  1
  F  F6  1  0.348185  0.154273  0.748160  1
  F  F7  1  0.251840  0.651815  0.845727  1
