# generated using pymatgen
data_La3Tb2Dy2Tm(CdIr)2
_symmetry_space_group_name_H-M   'P 1'
_cell_length_a   9.81088642
_cell_length_b   9.81326188
_cell_length_c   9.81326129
_cell_angle_alpha   59.98398941
_cell_angle_beta   60.00800681
_cell_angle_gamma   60.00801273
_symmetry_Int_Tables_number   1
_chemical_formula_structural   La3Tb2Dy2Tm(CdIr)2
_chemical_formula_sum   'La6 Tb4 Dy4 Tm2 Cd4 Ir4'
_cell_volume   668.06693871
_cell_formula_units_Z   2
loop_
 _symmetry_equiv_pos_site_id
 _symmetry_equiv_pos_as_xyz
  1  'x, y, z'
loop_
 _atom_site_type_symbol
 _atom_site_label
 _atom_site_symmetry_multiplicity
 _atom_site_fract_x
 _atom_site_fract_y
 _atom_site_fract_z
 _atom_site_occupancy
  La  La0  1  0.193417  0.806583  0.806583  1
  La  La1  1  0.806583  0.193417  0.193417  1
  La  La2  1  0.807259  0.192741  0.807259  1
  La  La3  1  0.192741  0.807259  0.192741  1
  La  La4  1  0.807259  0.807259  0.192741  1
  La  La5  1  0.192741  0.192741  0.807259  1
  Tb  Tb6  1  0.598080  0.596902  0.596902  1
  Tb  Tb7  1  0.596902  0.598080  0.208114  1
  Tb  Tb8  1  0.596902  0.208114  0.598080  1
  Tb  Tb9  1  0.208114  0.596902  0.596902  1
  Dy  Dy10  1  0.436230  0.063770  0.436230  1
  Dy  Dy11  1  0.063770  0.436230  0.063770  1
  Dy  Dy12  1  0.436230  0.436230  0.063770  1
  Dy  Dy13  1  0.063770  0.063770  0.436230  1
  Tm  Tm14  1  0.063314  0.436686  0.436686  1
  Tm  Tm15  1  0.436686  0.063314  0.063314  1
  Cd  Cd16  1  0.828615  0.828797  0.828797  1
  Cd  Cd17  1  0.828797  0.828615  0.513791  1
  Cd  Cd18  1  0.828797  0.513791  0.828615  1
  Cd  Cd19  1  0.513791  0.828797  0.828797  1
  Ir  Ir20  1  0.389913  0.391153  0.391153  1
  Ir  Ir21  1  0.391153  0.389913  0.827781  1
  Ir  Ir22  1  0.391153  0.827781  0.389913  1
  Ir  Ir23  1  0.827781  0.391153  0.391153  1
