# generated using pymatgen
data_Li4HfTcBr12
_symmetry_space_group_name_H-M   'P 1'
_cell_length_a   6.73780100
_cell_length_b   6.73780003
_cell_length_c   27.54606900
_cell_angle_alpha   90.00000000
_cell_angle_beta   90.00000000
_cell_angle_gamma   119.99999985
_symmetry_Int_Tables_number   1
_chemical_formula_structural   Li4HfTcBr12
_chemical_formula_sum   'Li8 Hf2 Tc2 Br24'
_cell_volume   1082.99527246
_cell_formula_units_Z   2
loop_
 _symmetry_equiv_pos_site_id
 _symmetry_equiv_pos_as_xyz
  1  'x, y, z'
loop_
 _atom_site_type_symbol
 _atom_site_label
 _atom_site_symmetry_multiplicity
 _atom_site_fract_x
 _atom_site_fract_y
 _atom_site_fract_z
 _atom_site_occupancy
  Li  Li0  1  0.000000  0.000000  0.250000  1
  Li  Li1  1  0.000000  0.000000  0.750000  1
  Li  Li2  1  0.333333  0.666667  0.000015  1
  Li  Li3  1  0.333333  0.666667  0.499985  1
  Li  Li4  1  0.333333  0.666667  0.250000  1
  Li  Li5  1  0.666667  0.333333  0.750000  1
  Li  Li6  1  0.666667  0.333333  0.999985  1
  Li  Li7  1  0.666667  0.333333  0.500015  1
  Hf  Hf8  1  0.333333  0.666667  0.750000  1
  Hf  Hf9  1  0.666667  0.333333  0.250000  1
  Tc  Tc10  1  0.000000  0.000000  0.000000  1
  Tc  Tc11  1  0.000000  0.000000  0.500000  1
  Br  Br12  1  0.348670  0.014769  0.305218  1
  Br  Br13  1  0.333901  0.985231  0.805218  1
  Br  Br14  1  0.000866  0.308675  0.053330  1
  Br  Br15  1  0.999134  0.307809  0.553330  1
  Br  Br16  1  0.985231  0.333901  0.305218  1
  Br  Br17  1  0.014769  0.348670  0.805218  1
  Br  Br18  1  0.348670  0.333901  0.194782  1
  Br  Br19  1  0.333901  0.348670  0.694782  1
  Br  Br20  1  0.307809  0.308675  0.446670  1
  Br  Br21  1  0.308675  0.307809  0.946670  1
  Br  Br22  1  0.691325  0.999134  0.446670  1
  Br  Br23  1  0.307809  0.999134  0.053330  1
  Br  Br24  1  0.308675  0.000866  0.553330  1
  Br  Br25  1  0.691325  0.692191  0.053330  1
  Br  Br26  1  0.692191  0.691325  0.553330  1
  Br  Br27  1  0.666099  0.651330  0.305218  1
  Br  Br28  1  0.651330  0.666099  0.805218  1
  Br  Br29  1  0.985231  0.651330  0.194782  1
  Br  Br30  1  0.014769  0.666099  0.694782  1
  Br  Br31  1  0.000866  0.692191  0.446670  1
  Br  Br32  1  0.999134  0.691325  0.946670  1
  Br  Br33  1  0.692191  0.000866  0.946670  1
  Br  Br34  1  0.666099  0.014769  0.194782  1
  Br  Br35  1  0.651330  0.985231  0.694782  1
