# generated using pymatgen
data_Zr18Re8IrPd
_symmetry_space_group_name_H-M   'P 1'
_cell_length_a   8.74702600
_cell_length_b   8.74702674
_cell_length_c   8.66354900
_cell_angle_alpha   90.00000000
_cell_angle_beta   90.00000000
_cell_angle_gamma   120.00000477
_symmetry_Int_Tables_number   1
_chemical_formula_structural   Zr18Re8IrPd
_chemical_formula_sum   'Zr18 Re8 Ir1 Pd1'
_cell_volume   574.04682399
_cell_formula_units_Z   1
loop_
 _symmetry_equiv_pos_site_id
 _symmetry_equiv_pos_as_xyz
  1  'x, y, z'
loop_
 _atom_site_type_symbol
 _atom_site_label
 _atom_site_symmetry_multiplicity
 _atom_site_fract_x
 _atom_site_fract_y
 _atom_site_fract_z
 _atom_site_occupancy
  Zr  Zr0  1  0.193737  0.806263  0.446835  1
  Zr  Zr1  1  0.193737  0.387476  0.446835  1
  Zr  Zr2  1  0.612524  0.806263  0.446835  1
  Zr  Zr3  1  0.804457  0.195543  0.554785  1
  Zr  Zr4  1  0.804457  0.608914  0.554785  1
  Zr  Zr5  1  0.391086  0.195543  0.554785  1
  Zr  Zr6  1  0.804457  0.195543  0.945215  1
  Zr  Zr7  1  0.804457  0.608914  0.945215  1
  Zr  Zr8  1  0.391086  0.195543  0.945215  1
  Zr  Zr9  1  0.193737  0.806263  0.053165  1
  Zr  Zr10  1  0.193737  0.387476  0.053165  1
  Zr  Zr11  1  0.612524  0.806263  0.053165  1
  Zr  Zr12  1  0.543793  0.456207  0.250000  1
  Zr  Zr13  1  0.543793  0.087584  0.250000  1
  Zr  Zr14  1  0.912416  0.456207  0.250000  1
  Zr  Zr15  1  0.457117  0.542883  0.750000  1
  Zr  Zr16  1  0.457117  0.914235  0.750000  1
  Zr  Zr17  1  0.085765  0.542883  0.750000  1
  Re  Re18  1  0.892460  0.107540  0.250000  1
  Re  Re19  1  0.892460  0.784921  0.250000  1
  Re  Re20  1  0.215079  0.107540  0.250000  1
  Re  Re21  1  0.107558  0.892442  0.750000  1
  Re  Re22  1  0.107558  0.215116  0.750000  1
  Re  Re23  1  0.784884  0.892442  0.750000  1
  Re  Re24  1  0.000000  0.000000  0.500429  1
  Re  Re25  1  0.000000  0.000000  0.999571  1
  Ir  Ir26  1  0.666667  0.333333  0.750000  1
  Pd  Pd27  1  0.333333  0.666667  0.250000  1
