# generated using pymatgen
data_Tb8Ti8Nb3Si16Ru
_symmetry_space_group_name_H-M   'P 1'
_cell_length_a   7.05159320
_cell_length_b   7.05159328
_cell_length_c   12.95289699
_cell_angle_alpha   90.09451212
_cell_angle_beta   89.90548829
_cell_angle_gamma   89.79571928
_symmetry_Int_Tables_number   1
_chemical_formula_structural   Tb8Ti8Nb3Si16Ru
_chemical_formula_sum   'Tb8 Ti8 Nb3 Si16 Ru1'
_cell_volume   644.07652507
_cell_formula_units_Z   1
loop_
 _symmetry_equiv_pos_site_id
 _symmetry_equiv_pos_as_xyz
  1  'x, y, z'
loop_
 _atom_site_type_symbol
 _atom_site_label
 _atom_site_symmetry_multiplicity
 _atom_site_fract_x
 _atom_site_fract_y
 _atom_site_fract_z
 _atom_site_occupancy
  Tb  Tb0  1  0.340094  0.002986  0.467715  1
  Tb  Tb1  1  0.497494  0.840858  0.718279  1
  Tb  Tb2  1  0.500886  0.159768  0.215538  1
  Tb  Tb3  1  0.840858  0.497494  0.281721  1
  Tb  Tb4  1  0.159768  0.500886  0.784462  1
  Tb  Tb5  1  0.658961  0.998940  0.968137  1
  Tb  Tb6  1  0.002986  0.340094  0.532285  1
  Tb  Tb7  1  0.998940  0.658961  0.031863  1
  Ti  Ti8  1  0.150226  0.004760  0.875294  1
  Ti  Ti9  1  0.490790  0.657220  0.126124  1
  Ti  Ti10  1  0.509409  0.347828  0.628222  1
  Ti  Ti11  1  0.657220  0.490790  0.873876  1
  Ti  Ti12  1  0.347828  0.509409  0.371778  1
  Ti  Ti13  1  0.846817  0.991591  0.375363  1
  Ti  Ti14  1  0.004760  0.150226  0.124706  1
  Ti  Ti15  1  0.991591  0.846817  0.624637  1
  Nb  Nb16  1  0.174862  0.827006  0.248078  1
  Nb  Nb17  1  0.827006  0.174862  0.751922  1
  Nb  Nb18  1  0.674453  0.674453  0.500000  1
  Si  Si19  1  0.202567  0.130170  0.685760  1
  Si  Si20  1  0.373947  0.698388  0.935081  1
  Si  Si21  1  0.629912  0.297050  0.435301  1
  Si  Si22  1  0.698388  0.373947  0.064919  1
  Si  Si23  1  0.297050  0.629912  0.564699  1
  Si  Si24  1  0.797066  0.869443  0.184890  1
  Si  Si25  1  0.130170  0.202567  0.314240  1
  Si  Si26  1  0.869443  0.797066  0.815110  1
  Si  Si27  1  0.287788  0.954359  0.062578  1
  Si  Si28  1  0.547584  0.792895  0.314864  1
  Si  Si29  1  0.449437  0.209665  0.817968  1
  Si  Si30  1  0.792895  0.547584  0.685136  1
  Si  Si31  1  0.209665  0.449437  0.182032  1
  Si  Si32  1  0.708212  0.048175  0.564786  1
  Si  Si33  1  0.954359  0.287788  0.937422  1
  Si  Si34  1  0.048175  0.708212  0.435214  1
  Ru  Ru35  1  0.328391  0.328391  0.000000  1
