# generated using pymatgen
data_La6Pr4Al4IrRu5
_symmetry_space_group_name_H-M   'P 1'
_cell_length_a   8.62914374
_cell_length_b   8.66939524
_cell_length_c   8.66939398
_cell_angle_alpha   109.66940561
_cell_angle_beta   109.65282905
_cell_angle_gamma   109.27982461
_symmetry_Int_Tables_number   1
_chemical_formula_structural   La6Pr4Al4IrRu5
_chemical_formula_sum   'La6 Pr4 Al4 Ir1 Ru5'
_cell_volume   498.08636974
_cell_formula_units_Z   1
loop_
 _symmetry_equiv_pos_site_id
 _symmetry_equiv_pos_as_xyz
  1  'x, y, z'
loop_
 _atom_site_type_symbol
 _atom_site_label
 _atom_site_symmetry_multiplicity
 _atom_site_fract_x
 _atom_site_fract_y
 _atom_site_fract_z
 _atom_site_occupancy
  La  La0  1  0.250000  0.687943  0.437943  1
  La  La1  1  0.750000  0.811557  0.061557  1
  La  La2  1  0.441529  0.252103  0.685885  1
  La  La3  1  0.687191  0.437869  0.249209  1
  La  La4  1  0.058471  0.744356  0.810574  1
  La  La5  1  0.812809  0.062018  0.750678  1
  Pr  Pr6  1  0.214468  0.216081  0.216393  1
  Pr  Pr7  1  0.500177  0.999268  0.285550  1
  Pr  Pr8  1  0.285532  0.501926  0.001613  1
  Pr  Pr9  1  0.999823  0.285373  0.499091  1
  Al  Al10  1  0.588420  0.589173  0.588247  1
  Al  Al11  1  0.498620  0.998898  0.910309  1
  Al  Al12  1  0.911580  0.499827  0.000753  1
  Al  Al13  1  0.001380  0.911689  0.500278  1
  Ir  Ir14  1  0.250000  0.114472  0.864472  1
  Ru  Ru15  1  0.750000  0.385502  0.635502  1
  Ru  Ru16  1  0.863459  0.250362  0.114002  1
  Ru  Ru17  1  0.115704  0.866350  0.250396  1
  Ru  Ru18  1  0.636540  0.750541  0.386902  1
  Ru  Ru19  1  0.384296  0.634691  0.750646  1
