# generated using pymatgen
data_Li2DyHo(WO4)4
_symmetry_space_group_name_H-M   'P 1'
_cell_length_a   10.01444951
_cell_length_b   5.98525000
_cell_length_c   5.08395235
_cell_angle_alpha   90.00000000
_cell_angle_beta   92.52777680
_cell_angle_gamma   90.00000000
_symmetry_Int_Tables_number   1
_chemical_formula_structural   Li2DyHo(WO4)4
_chemical_formula_sum   'Li2 Dy1 Ho1 W4 O16'
_cell_volume   304.43042622
_cell_formula_units_Z   1
loop_
 _symmetry_equiv_pos_site_id
 _symmetry_equiv_pos_as_xyz
  1  'x, y, z'
loop_
 _atom_site_type_symbol
 _atom_site_label
 _atom_site_symmetry_multiplicity
 _atom_site_fract_x
 _atom_site_fract_y
 _atom_site_fract_z
 _atom_site_occupancy
  Li  Li0  1  0.750000  0.736723  0.249999  1
  Li  Li1  1  0.250000  0.265766  0.749999  1
  Dy  Dy2  1  0.750000  0.332316  0.750000  1
  Ho  Ho3  1  0.250000  0.664586  0.250001  1
  W  W4  1  0.488219  0.169800  0.253782  1
  W  W5  1  0.011781  0.169800  0.246217  1
  W  W6  1  0.989424  0.829934  0.750951  1
  W  W7  1  0.510576  0.829934  0.749049  1
  O  O8  1  0.890802  0.910103  0.050206  1
  O  O9  1  0.401814  0.887543  0.063075  1
  O  O10  1  0.364671  0.359589  0.099168  1
  O  O11  1  0.888333  0.367518  0.108141  1
  O  O12  1  0.611668  0.367518  0.391859  1
  O  O13  1  0.135330  0.359589  0.400833  1
  O  O14  1  0.098186  0.887543  0.436925  1
  O  O15  1  0.609198  0.910103  0.449794  1
  O  O16  1  0.390431  0.091424  0.554167  1
  O  O17  1  0.902791  0.110702  0.559192  1
  O  O18  1  0.865582  0.639849  0.598296  1
  O  O19  1  0.386768  0.633842  0.608269  1
  O  O20  1  0.113231  0.633842  0.891731  1
  O  O21  1  0.634417  0.639849  0.901704  1
  O  O22  1  0.597209  0.110702  0.940808  1
  O  O23  1  0.109569  0.091424  0.945834  1
