# generated using pymatgen
data_TbHo3Ga18(Ir2Pt)2
_symmetry_space_group_name_H-M   'P 1'
_cell_length_a   7.61969162
_cell_length_b   7.61395006
_cell_length_c   9.47537100
_cell_angle_alpha   90.00000000
_cell_angle_beta   90.00000000
_cell_angle_gamma   119.85450982
_symmetry_Int_Tables_number   1
_chemical_formula_structural   TbHo3Ga18(Ir2Pt)2
_chemical_formula_sum   'Tb1 Ho3 Ga18 Ir4 Pt2'
_cell_volume   476.77020715
_cell_formula_units_Z   1
loop_
 _symmetry_equiv_pos_site_id
 _symmetry_equiv_pos_as_xyz
  1  'x, y, z'
loop_
 _atom_site_type_symbol
 _atom_site_label
 _atom_site_symmetry_multiplicity
 _atom_site_fract_x
 _atom_site_fract_y
 _atom_site_fract_z
 _atom_site_occupancy
  Tb  Tb0  1  0.996745  0.671439  0.250000  1
  Ho  Ho1  1  0.003238  0.328083  0.750000  1
  Ho  Ho2  1  0.671511  0.996824  0.250000  1
  Ho  Ho3  1  0.328231  0.003338  0.750000  1
  Ga  Ga4  1  0.133946  0.134173  0.250000  1
  Ga  Ga5  1  0.866176  0.866366  0.750000  1
  Ga  Ga6  1  0.998562  0.337747  0.080913  1
  Ga  Ga7  1  0.001774  0.661770  0.917283  1
  Ga  Ga8  1  0.001774  0.661770  0.582717  1
  Ga  Ga9  1  0.338849  0.999050  0.419016  1
  Ga  Ga10  1  0.998562  0.337747  0.419087  1
  Ga  Ga11  1  0.661778  0.001797  0.582261  1
  Ga  Ga12  1  0.661778  0.001797  0.917739  1
  Ga  Ga13  1  0.338849  0.999050  0.080984  1
  Ga  Ga14  1  0.335582  0.335578  0.569376  1
  Ga  Ga15  1  0.664044  0.664520  0.431993  1
  Ga  Ga16  1  0.664044  0.664520  0.068007  1
  Ga  Ga17  1  0.335582  0.335578  0.930624  1
  Ga  Ga18  1  0.337015  0.547606  0.250000  1
  Ga  Ga19  1  0.662722  0.451790  0.750000  1
  Ga  Ga20  1  0.547159  0.336580  0.250000  1
  Ga  Ga21  1  0.451778  0.662788  0.750000  1
  Ir  Ir22  1  0.671461  0.328748  0.999869  1
  Ir  Ir23  1  0.328763  0.671433  0.999855  1
  Ir  Ir24  1  0.328763  0.671433  0.500145  1
  Ir  Ir25  1  0.671461  0.328748  0.500131  1
  Pt  Pt26  1  0.999925  0.999863  0.999889  1
  Pt  Pt27  1  0.999925  0.999863  0.500111  1
