# generated using pymatgen
data_Er20Ir4Ru5Rh3
_symmetry_space_group_name_H-M   'P 1'
_cell_length_a   10.74359895
_cell_length_b   10.74359893
_cell_length_c   6.36746217
_cell_angle_alpha   89.98606089
_cell_angle_beta   89.98605787
_cell_angle_gamma   90.04936366
_symmetry_Int_Tables_number   1
_chemical_formula_structural   Er20Ir4Ru5Rh3
_chemical_formula_sum   'Er20 Ir4 Ru5 Rh3'
_cell_volume   734.96348274
_cell_formula_units_Z   1
loop_
 _symmetry_equiv_pos_site_id
 _symmetry_equiv_pos_as_xyz
  1  'x, y, z'
loop_
 _atom_site_type_symbol
 _atom_site_label
 _atom_site_symmetry_multiplicity
 _atom_site_fract_x
 _atom_site_fract_y
 _atom_site_fract_z
 _atom_site_occupancy
  Er  Er0  1  0.294018  0.085937  0.376587  1
  Er  Er1  1  0.293340  0.913022  0.877741  1
  Er  Er2  1  0.706964  0.086653  0.878059  1
  Er  Er3  1  0.706473  0.914185  0.375603  1
  Er  Er4  1  0.585622  0.793568  0.877775  1
  Er  Er5  1  0.586887  0.206147  0.376725  1
  Er  Er6  1  0.413562  0.793501  0.377043  1
  Er  Er7  1  0.413481  0.205947  0.877262  1
  Er  Er8  1  0.206432  0.414378  0.622225  1
  Er  Er9  1  0.206499  0.586438  0.122957  1
  Er  Er10  1  0.793853  0.413113  0.123275  1
  Er  Er11  1  0.794053  0.586519  0.622738  1
  Er  Er12  1  0.914063  0.705982  0.123413  1
  Er  Er13  1  0.913347  0.293036  0.621941  1
  Er  Er14  1  0.086978  0.706660  0.622259  1
  Er  Er15  1  0.085815  0.293527  0.124397  1
  Er  Er16  1  0.999534  0.000949  0.498894  1
  Er  Er17  1  0.999051  0.000466  0.001106  1
  Er  Er18  1  0.500039  0.500293  0.000325  1
  Er  Er19  1  0.499707  0.499961  0.499675  1
  Ir  Ir20  1  0.152743  0.847257  0.250000  1
  Ir  Ir21  1  0.653149  0.652604  0.249838  1
  Ir  Ir22  1  0.347396  0.346851  0.250162  1
  Ir  Ir23  1  0.347281  0.652719  0.750000  1
  Ru  Ru24  1  0.847735  0.152265  0.250000  1
  Ru  Ru25  1  0.500283  0.000514  0.121965  1
  Ru  Ru26  1  0.500058  0.000255  0.622532  1
  Ru  Ru27  1  0.999745  0.499942  0.877468  1
  Ru  Ru28  1  0.999486  0.499717  0.378035  1
  Rh  Rh29  1  0.846819  0.846563  0.749751  1
  Rh  Rh30  1  0.153437  0.153181  0.750249  1
  Rh  Rh31  1  0.652153  0.347847  0.750000  1
