# generated using pymatgen
data_NbAlInPt9
_symmetry_space_group_name_H-M   'P 1'
_cell_length_a   3.99926100
_cell_length_b   3.99926100
_cell_length_c   11.95534400
_cell_angle_alpha   90.00000000
_cell_angle_beta   90.00000000
_cell_angle_gamma   90.00000000
_symmetry_Int_Tables_number   1
_chemical_formula_structural   NbAlInPt9
_chemical_formula_sum   'Nb1 Al1 In1 Pt9'
_cell_volume   191.21483054
_cell_formula_units_Z   1
loop_
 _symmetry_equiv_pos_site_id
 _symmetry_equiv_pos_as_xyz
  1  'x, y, z'
loop_
 _atom_site_type_symbol
 _atom_site_label
 _atom_site_symmetry_multiplicity
 _atom_site_fract_x
 _atom_site_fract_y
 _atom_site_fract_z
 _atom_site_occupancy
  Nb  Nb0  1  0.000000  0.000000  0.997005  1
  Al  Al1  1  0.000000  0.000000  0.660035  1
  In  In2  1  0.000000  0.000000  0.337638  1
  Pt  Pt3  1  0.500000  0.500000  0.995994  1
  Pt  Pt4  1  0.500000  0.500000  0.334528  1
  Pt  Pt5  1  0.500000  0.500000  0.671211  1
  Pt  Pt6  1  0.500000  0.000000  0.158291  1
  Pt  Pt7  1  0.500000  0.000000  0.510402  1
  Pt  Pt8  1  0.500000  0.000000  0.833102  1
  Pt  Pt9  1  0.000000  0.500000  0.158291  1
  Pt  Pt10  1  0.000000  0.500000  0.510402  1
  Pt  Pt11  1  0.000000  0.500000  0.833102  1
