# generated using pymatgen
data_Zr6Ti4Sn6P
_symmetry_space_group_name_H-M   'P 1'
_cell_length_a   5.69059000
_cell_length_b   8.42426226
_cell_length_c   8.42427200
_cell_angle_alpha   119.99997446
_cell_angle_beta   89.99998286
_cell_angle_gamma   90.00004536
_symmetry_Int_Tables_number   1
_chemical_formula_structural   Zr6Ti4Sn6P
_chemical_formula_sum   'Zr6 Ti4 Sn6 P1'
_cell_volume   349.74563182
_cell_formula_units_Z   1
loop_
 _symmetry_equiv_pos_site_id
 _symmetry_equiv_pos_as_xyz
  1  'x, y, z'
loop_
 _atom_site_type_symbol
 _atom_site_label
 _atom_site_symmetry_multiplicity
 _atom_site_fract_x
 _atom_site_fract_y
 _atom_site_fract_z
 _atom_site_occupancy
  Zr  Zr0  1  0.759304  0.248993  0.000000  1
  Zr  Zr1  1  0.759300  0.751008  0.751007  1
  Zr  Zr2  1  0.759300  0.000000  0.248993  1
  Zr  Zr3  1  0.240696  0.751007  0.000000  1
  Zr  Zr4  1  0.240700  0.248994  0.248993  1
  Zr  Zr5  1  0.240700  0.000001  0.751007  1
  Ti  Ti6  1  0.500000  0.333333  0.666667  1
  Ti  Ti7  1  0.500000  0.666666  0.333333  1
  Ti  Ti8  1  0.000000  0.666666  0.333331  1
  Ti  Ti9  1  0.000000  0.333335  0.666669  1
  Sn  Sn10  1  0.748001  0.599817  0.000000  1
  Sn  Sn11  1  0.748003  0.400183  0.400183  1
  Sn  Sn12  1  0.748003  0.000000  0.599817  1
  Sn  Sn13  1  0.251999  0.400183  0.000000  1
  Sn  Sn14  1  0.251997  0.599817  0.599817  1
  Sn  Sn15  1  0.251997  0.000000  0.400183  1
  P  P16  1  0.499999  0.000001  0.000000  1
