# generated using pymatgen
data_TaReWS6
_symmetry_space_group_name_H-M   'P 1'
_cell_length_a   5.52230232
_cell_length_b   5.52221249
_cell_length_c   6.94047200
_cell_angle_alpha   82.45345287
_cell_angle_beta   82.45227855
_cell_angle_gamma   119.99201345
_symmetry_Int_Tables_number   1
_chemical_formula_structural   TaReWS6
_chemical_formula_sum   'Ta1 Re1 W1 S6'
_cell_volume   176.87481063
_cell_formula_units_Z   1
loop_
 _symmetry_equiv_pos_site_id
 _symmetry_equiv_pos_as_xyz
  1  'x, y, z'
loop_
 _atom_site_type_symbol
 _atom_site_label
 _atom_site_symmetry_multiplicity
 _atom_site_fract_x
 _atom_site_fract_y
 _atom_site_fract_z
 _atom_site_occupancy
  Ta  Ta0  1  0.499961  0.833315  0.500000  1
  Re  Re1  1  0.166690  0.166651  0.500002  1
  W  W2  1  0.833348  0.499996  0.499979  1
  S  S3  1  0.575210  0.250337  0.264609  1
  S  S4  1  0.238336  0.569227  0.264562  1
  S  S5  1  0.919514  0.913502  0.264747  1
  S  S6  1  0.764219  0.758168  0.735497  1
  S  S7  1  0.419843  0.094963  0.735440  1
  S  S8  1  0.082784  0.413744  0.735462  1
