# generated using pymatgen
data_Dy3Lu(Si4Tc3)2
_symmetry_space_group_name_H-M   'P 1'
_cell_length_a   6.77678443
_cell_length_b   6.76333435
_cell_length_c   6.76578597
_cell_angle_alpha   69.82055999
_cell_angle_beta   89.95642793
_cell_angle_gamma   90.08508836
_symmetry_Int_Tables_number   1
_chemical_formula_structural   Dy3Lu(Si4Tc3)2
_chemical_formula_sum   'Dy3 Lu1 Si8 Tc6'
_cell_volume   291.06518439
_cell_formula_units_Z   1
loop_
 _symmetry_equiv_pos_site_id
 _symmetry_equiv_pos_as_xyz
  1  'x, y, z'
loop_
 _atom_site_type_symbol
 _atom_site_label
 _atom_site_symmetry_multiplicity
 _atom_site_fract_x
 _atom_site_fract_y
 _atom_site_fract_z
 _atom_site_occupancy
  Dy  Dy0  1  0.167316  0.057790  0.808654  1
  Dy  Dy1  1  0.332898  0.557489  0.809132  1
  Dy  Dy2  1  0.832376  0.942559  0.191034  1
  Lu  Lu3  1  0.668774  0.442805  0.192633  1
  Si  Si4  1  0.448864  0.123032  0.103877  1
  Si  Si5  1  0.947394  0.378296  0.898044  1
  Si  Si6  1  0.552051  0.877047  0.897714  1
  Si  Si7  1  0.049953  0.621256  0.103497  1
  Si  Si8  1  0.857099  0.133085  0.511874  1
  Si  Si9  1  0.359474  0.368437  0.485717  1
  Si  Si10  1  0.142000  0.868378  0.486385  1
  Si  Si11  1  0.642043  0.630641  0.511602  1
  Tc  Tc12  1  0.500725  0.001798  0.498947  1
  Tc  Tc13  1  0.998872  0.499864  0.499258  1
  Tc  Tc14  1  0.149424  0.242824  0.240101  1
  Tc  Tc15  1  0.649929  0.257542  0.761387  1
  Tc  Tc16  1  0.849179  0.756631  0.760590  1
  Tc  Tc17  1  0.351628  0.740525  0.239553  1
