# generated using pymatgen
data_Tb3Lu(ZrGa5)2
_symmetry_space_group_name_H-M   'P 1'
_cell_length_a   5.93789479
_cell_length_b   9.44760429
_cell_length_c   11.46967200
_cell_angle_alpha   90.00000000
_cell_angle_beta   90.00000000
_cell_angle_gamma   89.94051365
_symmetry_Int_Tables_number   1
_chemical_formula_structural   Tb3Lu(ZrGa5)2
_chemical_formula_sum   'Tb6 Lu2 Zr4 Ga20'
_cell_volume   643.43540966
_cell_formula_units_Z   2
loop_
 _symmetry_equiv_pos_site_id
 _symmetry_equiv_pos_as_xyz
  1  'x, y, z'
loop_
 _atom_site_type_symbol
 _atom_site_label
 _atom_site_symmetry_multiplicity
 _atom_site_fract_x
 _atom_site_fract_y
 _atom_site_fract_z
 _atom_site_occupancy
  Tb  Tb0  1  0.884679  0.501033  0.352383  1
  Tb  Tb1  1  0.615321  0.998967  0.852383  1
  Tb  Tb2  1  0.114760  0.000719  0.646996  1
  Tb  Tb3  1  0.385240  0.499281  0.146996  1
  Tb  Tb4  1  0.114357  0.499256  0.647937  1
  Tb  Tb5  1  0.385643  0.000744  0.147937  1
  Lu  Lu6  1  0.885660  0.999226  0.352542  1
  Lu  Lu7  1  0.614340  0.500774  0.852542  1
  Zr  Zr8  1  0.858936  0.749666  0.073517  1
  Zr  Zr9  1  0.641064  0.750334  0.573517  1
  Zr  Zr10  1  0.142032  0.249936  0.926233  1
  Zr  Zr11  1  0.357968  0.250064  0.426233  1
  Ga  Ga12  1  0.876157  0.053391  0.090327  1
  Ga  Ga13  1  0.623843  0.446609  0.590327  1
  Ga  Ga14  1  0.124891  0.552914  0.910326  1
  Ga  Ga15  1  0.375109  0.947086  0.410326  1
  Ga  Ga16  1  0.123997  0.946037  0.910870  1
  Ga  Ga17  1  0.376003  0.553963  0.410870  1
  Ga  Ga18  1  0.876107  0.446490  0.088563  1
  Ga  Ga19  1  0.623893  0.053510  0.588563  1
  Ga  Ga20  1  0.151587  0.751182  0.258648  1
  Ga  Ga21  1  0.348413  0.748818  0.758648  1
  Ga  Ga22  1  0.846145  0.251275  0.742514  1
  Ga  Ga23  1  0.653855  0.248725  0.242514  1
  Ga  Ga24  1  0.395774  0.749544  0.997528  1
  Ga  Ga25  1  0.104226  0.750456  0.497528  1
  Ga  Ga26  1  0.605940  0.251434  0.000684  1
  Ga  Ga27  1  0.894060  0.248566  0.500684  1
  Ga  Ga28  1  0.612505  0.751724  0.295128  1
  Ga  Ga29  1  0.887495  0.748276  0.795128  1
  Ga  Ga30  1  0.389711  0.250323  0.705804  1
  Ga  Ga31  1  0.110289  0.249677  0.205804  1
