# generated using pymatgen
data_Sr5AcPb18
_symmetry_space_group_name_H-M   'P 1'
_cell_length_a   7.11098500
_cell_length_b   7.11098555
_cell_length_c   17.68725600
_cell_angle_alpha   90.00000000
_cell_angle_beta   90.00000000
_cell_angle_gamma   120.00000210
_symmetry_Int_Tables_number   1
_chemical_formula_structural   Sr5AcPb18
_chemical_formula_sum   'Sr5 Ac1 Pb18'
_cell_volume   774.55211246
_cell_formula_units_Z   1
loop_
 _symmetry_equiv_pos_site_id
 _symmetry_equiv_pos_as_xyz
  1  'x, y, z'
loop_
 _atom_site_type_symbol
 _atom_site_label
 _atom_site_symmetry_multiplicity
 _atom_site_fract_x
 _atom_site_fract_y
 _atom_site_fract_z
 _atom_site_occupancy
  Sr  Sr0  1  0.666667  0.333333  0.584034  1
  Sr  Sr1  1  0.666667  0.333333  0.915689  1
  Sr  Sr2  1  0.000000  0.000000  0.084583  1
  Sr  Sr3  1  0.333333  0.666667  0.250575  1
  Sr  Sr4  1  0.333333  0.666667  0.748641  1
  Ac  Ac5  1  0.000000  0.000000  0.417302  1
  Pb  Pb6  1  0.001002  0.500501  0.417431  1
  Pb  Pb7  1  0.499499  0.500501  0.417431  1
  Pb  Pb8  1  0.499499  0.998998  0.417431  1
  Pb  Pb9  1  0.660839  0.830419  0.582931  1
  Pb  Pb10  1  0.169581  0.830419  0.582931  1
  Pb  Pb11  1  0.169581  0.339161  0.582931  1
  Pb  Pb12  1  0.663384  0.831691  0.917551  1
  Pb  Pb13  1  0.168309  0.831691  0.917551  1
  Pb  Pb14  1  0.168309  0.336616  0.917551  1
  Pb  Pb15  1  0.001892  0.500946  0.081866  1
  Pb  Pb16  1  0.499054  0.500946  0.081866  1
  Pb  Pb17  1  0.499054  0.998108  0.081866  1
  Pb  Pb18  1  0.359348  0.179674  0.249786  1
  Pb  Pb19  1  0.820326  0.179674  0.249786  1
  Pb  Pb20  1  0.820326  0.640652  0.249786  1
  Pb  Pb21  1  0.307211  0.153605  0.749980  1
  Pb  Pb22  1  0.846395  0.153605  0.749980  1
  Pb  Pb23  1  0.846395  0.692789  0.749980  1
