# generated using pymatgen
data_Hf9TiTc3Pt
_symmetry_space_group_name_H-M   'P 1'
_cell_length_a   8.75150300
_cell_length_b   8.75150332
_cell_length_c   8.45228100
_cell_angle_alpha   90.00000000
_cell_angle_beta   90.00000000
_cell_angle_gamma   120.00000257
_symmetry_Int_Tables_number   1
_chemical_formula_structural   Hf9TiTc3Pt
_chemical_formula_sum   'Hf18 Ti2 Tc6 Pt2'
_cell_volume   560.62163709
_cell_formula_units_Z   2
loop_
 _symmetry_equiv_pos_site_id
 _symmetry_equiv_pos_as_xyz
  1  'x, y, z'
loop_
 _atom_site_type_symbol
 _atom_site_label
 _atom_site_symmetry_multiplicity
 _atom_site_fract_x
 _atom_site_fract_y
 _atom_site_fract_z
 _atom_site_occupancy
  Hf  Hf0  1  0.195459  0.804541  0.448645  1
  Hf  Hf1  1  0.195459  0.390916  0.448645  1
  Hf  Hf2  1  0.609084  0.804541  0.448645  1
  Hf  Hf3  1  0.804541  0.195459  0.551355  1
  Hf  Hf4  1  0.804541  0.609084  0.551355  1
  Hf  Hf5  1  0.390916  0.195459  0.551355  1
  Hf  Hf6  1  0.804541  0.195459  0.948645  1
  Hf  Hf7  1  0.804541  0.609084  0.948645  1
  Hf  Hf8  1  0.390916  0.195459  0.948645  1
  Hf  Hf9  1  0.195459  0.804541  0.051355  1
  Hf  Hf10  1  0.195459  0.390916  0.051355  1
  Hf  Hf11  1  0.609084  0.804541  0.051355  1
  Hf  Hf12  1  0.542684  0.457316  0.250000  1
  Hf  Hf13  1  0.542684  0.085368  0.250000  1
  Hf  Hf14  1  0.914632  0.457316  0.250000  1
  Hf  Hf15  1  0.457316  0.542684  0.750000  1
  Hf  Hf16  1  0.457316  0.914632  0.750000  1
  Hf  Hf17  1  0.085368  0.542684  0.750000  1
  Ti  Ti18  1  0.000000  0.000000  0.500000  1
  Ti  Ti19  1  0.000000  0.000000  0.000000  1
  Tc  Tc20  1  0.886001  0.113999  0.250000  1
  Tc  Tc21  1  0.886001  0.772000  0.250000  1
  Tc  Tc22  1  0.228000  0.113999  0.250000  1
  Tc  Tc23  1  0.113999  0.886001  0.750000  1
  Tc  Tc24  1  0.113999  0.228000  0.750000  1
  Tc  Tc25  1  0.772000  0.886001  0.750000  1
  Pt  Pt26  1  0.333333  0.666667  0.250000  1
  Pt  Pt27  1  0.666667  0.333333  0.750000  1
