# generated using pymatgen
data_Y3Mg3Sn2Pt
_symmetry_space_group_name_H-M   'P 1'
_cell_length_a   7.45770500
_cell_length_b   7.45770663
_cell_length_c   4.49637200
_cell_angle_alpha   90.00000000
_cell_angle_beta   90.00000000
_cell_angle_gamma   120.00000608
_symmetry_Int_Tables_number   1
_chemical_formula_structural   Y3Mg3Sn2Pt
_chemical_formula_sum   'Y3 Mg3 Sn2 Pt1'
_cell_volume   216.57251264
_cell_formula_units_Z   1
loop_
 _symmetry_equiv_pos_site_id
 _symmetry_equiv_pos_as_xyz
  1  'x, y, z'
loop_
 _atom_site_type_symbol
 _atom_site_label
 _atom_site_symmetry_multiplicity
 _atom_site_fract_x
 _atom_site_fract_y
 _atom_site_fract_z
 _atom_site_occupancy
  Y  Y0  1  0.399036  0.399036  0.000000  1
  Y  Y1  1  0.600964  0.000000  0.000000  1
  Y  Y2  1  0.000000  0.600964  0.000000  1
  Mg  Mg3  1  0.000000  0.229591  0.500000  1
  Mg  Mg4  1  0.770409  0.770409  0.500000  1
  Mg  Mg5  1  0.229591  0.000000  0.500000  1
  Sn  Sn6  1  0.666667  0.333333  0.500000  1
  Sn  Sn7  1  0.333333  0.666667  0.500000  1
  Pt  Pt8  1  0.000000  0.000000  0.000000  1
