# generated using pymatgen
data_Th3Ga2PdPt2Au
_symmetry_space_group_name_H-M   'P 1'
_cell_length_a   7.45877765
_cell_length_b   7.45877619
_cell_length_c   3.99523900
_cell_angle_alpha   90.00000000
_cell_angle_beta   90.00000000
_cell_angle_gamma   117.77253357
_symmetry_Int_Tables_number   1
_chemical_formula_structural   Th3Ga2PdPt2Au
_chemical_formula_sum   'Th3 Ga2 Pd1 Pt2 Au1'
_cell_volume   196.66419506
_cell_formula_units_Z   1
loop_
 _symmetry_equiv_pos_site_id
 _symmetry_equiv_pos_as_xyz
  1  'x, y, z'
loop_
 _atom_site_type_symbol
 _atom_site_label
 _atom_site_symmetry_multiplicity
 _atom_site_fract_x
 _atom_site_fract_y
 _atom_site_fract_z
 _atom_site_occupancy
  Th  Th0  1  0.414912  0.414912  0.500000  1
  Th  Th1  1  0.592479  0.993273  0.500000  1
  Th  Th2  1  0.993273  0.592479  0.500000  1
  Ga  Ga3  1  0.247542  0.002022  0.000000  1
  Ga  Ga4  1  0.002022  0.247542  0.000000  1
  Pd  Pd5  1  0.027842  0.027842  0.500000  1
  Pt  Pt6  1  0.663504  0.313347  0.000000  1
  Pt  Pt7  1  0.313347  0.663504  0.000000  1
  Au  Au8  1  0.745078  0.745078  0.000000  1
