# generated using pymatgen
data_Ho8ZnSi5Ir8
_symmetry_space_group_name_H-M   'P 1'
_cell_length_a   10.69884013
_cell_length_b   10.69884044
_cell_length_c   7.68310300
_cell_angle_alpha   71.40553034
_cell_angle_beta   71.40552978
_cell_angle_gamma   30.26928458
_symmetry_Int_Tables_number   1
_chemical_formula_structural   Ho8ZnSi5Ir8
_chemical_formula_sum   'Ho8 Zn1 Si5 Ir8'
_cell_volume   418.41499236
_cell_formula_units_Z   1
loop_
 _symmetry_equiv_pos_site_id
 _symmetry_equiv_pos_as_xyz
  1  'x, y, z'
loop_
 _atom_site_type_symbol
 _atom_site_label
 _atom_site_symmetry_multiplicity
 _atom_site_fract_x
 _atom_site_fract_y
 _atom_site_fract_z
 _atom_site_occupancy
  Ho  Ho0  1  0.210602  0.446139  0.401818  1
  Ho  Ho1  1  0.553861  0.789398  0.098182  1
  Ho  Ho2  1  0.446702  0.212251  0.901139  1
  Ho  Ho3  1  0.922884  0.215049  0.333010  1
  Ho  Ho4  1  0.784951  0.077116  0.166990  1
  Ho  Ho5  1  0.079869  0.782697  0.666055  1
  Ho  Ho6  1  0.217303  0.920131  0.833945  1
  Ho  Ho7  1  0.787749  0.553298  0.598861  1
  Zn  Zn8  1  0.629129  0.370871  0.750000  1
  Si  Si9  1  0.391255  0.608745  0.250000  1
  Si  Si10  1  0.298871  0.046380  0.442289  1
  Si  Si11  1  0.953620  0.701129  0.057711  1
  Si  Si12  1  0.700025  0.953482  0.558058  1
  Si  Si13  1  0.046518  0.299975  0.941942  1
  Ir  Ir14  1  0.274526  0.597861  0.035636  1
  Ir  Ir15  1  0.584251  0.284943  0.517272  1
  Ir  Ir16  1  0.715057  0.415749  0.982728  1
  Ir  Ir17  1  0.068919  0.370778  0.193036  1
  Ir  Ir18  1  0.629222  0.931081  0.306964  1
  Ir  Ir19  1  0.402139  0.725474  0.464364  1
  Ir  Ir20  1  0.932268  0.629723  0.806852  1
  Ir  Ir21  1  0.370277  0.067732  0.693148  1
