# generated using pymatgen
data_Ca6Nd2Si12Pd3Pt
_symmetry_space_group_name_H-M   'P 1'
_cell_length_a   8.25556500
_cell_length_b   8.25556574
_cell_length_c   8.43936900
_cell_angle_alpha   89.99999412
_cell_angle_beta   90.00000000
_cell_angle_gamma   120.00002294
_symmetry_Int_Tables_number   1
_chemical_formula_structural   Ca6Nd2Si12Pd3Pt
_chemical_formula_sum   'Ca6 Nd2 Si12 Pd3 Pt1'
_cell_volume   498.12019420
_cell_formula_units_Z   1
loop_
 _symmetry_equiv_pos_site_id
 _symmetry_equiv_pos_as_xyz
  1  'x, y, z'
loop_
 _atom_site_type_symbol
 _atom_site_label
 _atom_site_symmetry_multiplicity
 _atom_site_fract_x
 _atom_site_fract_y
 _atom_site_fract_z
 _atom_site_occupancy
  Ca  Ca0  1  0.500100  0.499900  0.750107  1
  Ca  Ca1  1  0.501157  0.498844  0.249908  1
  Ca  Ca2  1  0.999799  0.499900  0.750107  1
  Ca  Ca3  1  0.997688  0.498843  0.249908  1
  Ca  Ca4  1  0.500100  0.000201  0.750108  1
  Ca  Ca5  1  0.501156  0.002312  0.249907  1
  Nd  Nd6  1  0.000000  0.000000  0.749360  1
  Nd  Nd7  1  0.000000  0.000000  0.250569  1
  Si  Si8  1  0.834045  0.165955  0.999316  1
  Si  Si9  1  0.165661  0.834339  0.000595  1
  Si  Si10  1  0.331911  0.165955  0.999316  1
  Si  Si11  1  0.165491  0.834509  0.499566  1
  Si  Si12  1  0.668678  0.834339  0.000595  1
  Si  Si13  1  0.834764  0.165236  0.500439  1
  Si  Si14  1  0.834045  0.668089  0.999316  1
  Si  Si15  1  0.669018  0.834510  0.499566  1
  Si  Si16  1  0.165661  0.331323  0.000595  1
  Si  Si17  1  0.330471  0.165236  0.500439  1
  Si  Si18  1  0.165490  0.330982  0.499566  1
  Si  Si19  1  0.834764  0.669529  0.500439  1
  Pd  Pd20  1  0.333333  0.666667  0.001170  1
  Pd  Pd21  1  0.333333  0.666667  0.498616  1
  Pd  Pd22  1  0.666667  0.333333  0.501062  1
  Pt  Pt23  1  0.666667  0.333333  0.999433  1
