# generated using pymatgen
data_Y8Si13Hg
_symmetry_space_group_name_H-M   'P 1'
_cell_length_a   7.32458679
_cell_length_b   7.32458779
_cell_length_c   11.45657820
_cell_angle_alpha   89.84916962
_cell_angle_beta   89.84916812
_cell_angle_gamma   133.85335598
_symmetry_Int_Tables_number   1
_chemical_formula_structural   Y8Si13Hg
_chemical_formula_sum   'Y8 Si13 Hg1'
_cell_volume   443.21677932
_cell_formula_units_Z   1
loop_
 _symmetry_equiv_pos_site_id
 _symmetry_equiv_pos_as_xyz
  1  'x, y, z'
loop_
 _atom_site_type_symbol
 _atom_site_label
 _atom_site_symmetry_multiplicity
 _atom_site_fract_x
 _atom_site_fract_y
 _atom_site_fract_z
 _atom_site_occupancy
  Y  Y0  1  0.488192  0.983608  0.377404  1
  Y  Y1  1  0.981647  0.486066  0.615323  1
  Y  Y2  1  0.513934  0.018353  0.884677  1
  Y  Y3  1  0.016392  0.511808  0.122596  1
  Y  Y4  1  0.997667  0.002333  0.250000  1
  Y  Y5  1  0.997496  0.002504  0.750000  1
  Y  Y6  1  0.482314  0.484605  0.491157  1
  Y  Y7  1  0.515395  0.517686  0.008843  1
  Si  Si8  1  0.936850  0.116787  0.991085  1
  Si  Si9  1  0.098529  0.930709  0.004943  1
  Si  Si10  1  0.069291  0.901471  0.495057  1
  Si  Si11  1  0.883213  0.063150  0.508915  1
  Si  Si12  1  0.584495  0.921427  0.127369  1
  Si  Si13  1  0.939476  0.588579  0.875908  1
  Si  Si14  1  0.411421  0.060524  0.624092  1
  Si  Si15  1  0.078573  0.415505  0.372631  1
  Si  Si16  1  0.449160  0.135720  0.144817  1
  Si  Si17  1  0.186717  0.482744  0.838808  1
  Si  Si18  1  0.517256  0.813283  0.661192  1
  Si  Si19  1  0.864280  0.550840  0.355183  1
  Si  Si20  1  0.429030  0.570970  0.250000  1
  Hg  Hg21  1  0.558671  0.441329  0.750000  1
