# generated using pymatgen
data_EuZn2Cu2Rh
_symmetry_space_group_name_H-M   'P 1'
_cell_length_a   5.44485334
_cell_length_b   5.44485393
_cell_length_c   4.03288900
_cell_angle_alpha   90.00000000
_cell_angle_beta   90.00000000
_cell_angle_gamma   122.14143713
_symmetry_Int_Tables_number   1
_chemical_formula_structural   EuZn2Cu2Rh
_chemical_formula_sum   'Eu1 Zn2 Cu2 Rh1'
_cell_volume   101.23657034
_cell_formula_units_Z   1
loop_
 _symmetry_equiv_pos_site_id
 _symmetry_equiv_pos_as_xyz
  1  'x, y, z'
loop_
 _atom_site_type_symbol
 _atom_site_label
 _atom_site_symmetry_multiplicity
 _atom_site_fract_x
 _atom_site_fract_y
 _atom_site_fract_z
 _atom_site_occupancy
  Eu  Eu0  1  0.000000  0.000000  0.000000  1
  Zn  Zn1  1  0.329471  0.670529  0.000000  1
  Zn  Zn2  1  0.670529  0.329471  0.000000  1
  Cu  Cu3  1  0.000000  0.500000  0.500000  1
  Cu  Cu4  1  0.500000  0.000000  0.500000  1
  Rh  Rh5  1  0.500000  0.500000  0.500000  1
