# generated using pymatgen
data_Er20(Si3Hg)3
_symmetry_space_group_name_H-M   'P 1'
_cell_length_a   7.45585100
_cell_length_b   7.45585100
_cell_length_c   14.10556900
_cell_angle_alpha   90.00000000
_cell_angle_beta   90.00000000
_cell_angle_gamma   90.00000000
_symmetry_Int_Tables_number   1
_chemical_formula_structural   Er20(Si3Hg)3
_chemical_formula_sum   'Er20 Si9 Hg3'
_cell_volume   784.12454841
_cell_formula_units_Z   1
loop_
 _symmetry_equiv_pos_site_id
 _symmetry_equiv_pos_as_xyz
  1  'x, y, z'
loop_
 _atom_site_type_symbol
 _atom_site_label
 _atom_site_symmetry_multiplicity
 _atom_site_fract_x
 _atom_site_fract_y
 _atom_site_fract_z
 _atom_site_occupancy
  Er  Er0  1  0.824458  0.828595  0.607098  1
  Er  Er1  1  0.180214  0.836220  0.110910  1
  Er  Er2  1  0.160701  0.815811  0.392549  1
  Er  Er3  1  0.000000  0.500000  0.738831  1
  Er  Er4  1  0.839299  0.184189  0.392549  1
  Er  Er5  1  0.684189  0.660701  0.392549  1
  Er  Er6  1  0.671405  0.324458  0.607098  1
  Er  Er7  1  0.328595  0.675542  0.607098  1
  Er  Er8  1  0.000000  0.500000  0.232830  1
  Er  Er9  1  0.663780  0.680214  0.110910  1
  Er  Er10  1  0.680243  0.335865  0.888932  1
  Er  Er11  1  0.835865  0.819757  0.888932  1
  Er  Er12  1  0.315811  0.339299  0.392549  1
  Er  Er13  1  0.175542  0.171405  0.607098  1
  Er  Er14  1  0.819786  0.163780  0.110910  1
  Er  Er15  1  0.319757  0.664135  0.888932  1
  Er  Er16  1  0.336220  0.319786  0.110910  1
  Er  Er17  1  0.500000  0.000000  0.268462  1
  Er  Er18  1  0.164135  0.180243  0.888932  1
  Er  Er19  1  0.500000  0.000000  0.760132  1
  Si  Si20  1  0.623781  0.375715  0.252414  1
  Si  Si21  1  0.124547  0.876700  0.747224  1
  Si  Si22  1  0.376700  0.375453  0.747224  1
  Si  Si23  1  0.376219  0.624285  0.252414  1
  Si  Si24  1  0.875715  0.876219  0.252414  1
  Si  Si25  1  0.623300  0.624547  0.747224  1
  Si  Si26  1  0.000000  0.500000  0.507646  1
  Si  Si27  1  0.875453  0.123300  0.747224  1
  Si  Si28  1  0.124285  0.123781  0.252414  1
  Hg  Hg29  1  0.500000  0.000000  0.497402  1
  Hg  Hg30  1  0.500000  0.000000  0.995586  1
  Hg  Hg31  1  0.000000  0.500000  0.002604  1
