# generated using pymatgen
data_Er7Lu13(Bi2Ir)4
_symmetry_space_group_name_H-M   'P 1'
_cell_length_a   7.83945800
_cell_length_b   8.95443800
_cell_length_c   12.40926929
_cell_angle_alpha   90.00000000
_cell_angle_beta   89.98849876
_cell_angle_gamma   90.00000000
_symmetry_Int_Tables_number   1
_chemical_formula_structural   Er7Lu13(Bi2Ir)4
_chemical_formula_sum   'Er7 Lu13 Bi8 Ir4'
_cell_volume   871.10513139
_cell_formula_units_Z   1
loop_
 _symmetry_equiv_pos_site_id
 _symmetry_equiv_pos_as_xyz
  1  'x, y, z'
loop_
 _atom_site_type_symbol
 _atom_site_label
 _atom_site_symmetry_multiplicity
 _atom_site_fract_x
 _atom_site_fract_y
 _atom_site_fract_z
 _atom_site_occupancy
  Er  Er0  1  0.875202  0.250000  0.189684  1
  Er  Er1  1  0.625221  0.250000  0.690333  1
  Er  Er2  1  0.375034  0.750000  0.309965  1
  Er  Er3  1  0.557621  0.750000  0.998523  1
  Er  Er4  1  0.441849  0.250000  0.001313  1
  Er  Er5  1  0.058099  0.250000  0.501801  1
  Er  Er6  1  0.942312  0.750000  0.498166  1
  Lu  Lu7  1  0.656809  0.750000  0.705777  1
  Lu  Lu8  1  0.343996  0.250000  0.294389  1
  Lu  Lu9  1  0.156632  0.250000  0.793875  1
  Lu  Lu10  1  0.843425  0.750000  0.205985  1
  Lu  Lu11  1  0.122851  0.750000  0.811998  1
  Lu  Lu12  1  0.828077  0.459756  0.932334  1
  Lu  Lu13  1  0.172245  0.540949  0.066596  1
  Lu  Lu14  1  0.327879  0.540802  0.567341  1
  Lu  Lu15  1  0.172245  0.959051  0.066596  1
  Lu  Lu16  1  0.672356  0.459174  0.433050  1
  Lu  Lu17  1  0.828077  0.040244  0.932334  1
  Lu  Lu18  1  0.672356  0.040826  0.433050  1
  Lu  Lu19  1  0.327879  0.959198  0.567341  1
  Bi  Bi20  1  0.935573  0.007063  0.672810  1
  Bi  Bi21  1  0.065369  0.992420  0.327213  1
  Bi  Bi22  1  0.433477  0.991388  0.827341  1
  Bi  Bi23  1  0.065369  0.507580  0.327213  1
  Bi  Bi24  1  0.565444  0.007945  0.172592  1
  Bi  Bi25  1  0.935573  0.492937  0.672810  1
  Bi  Bi26  1  0.565444  0.492055  0.172592  1
  Bi  Bi27  1  0.433477  0.508612  0.827341  1
  Ir  Ir28  1  0.931692  0.750000  0.993089  1
  Ir  Ir29  1  0.068273  0.250000  0.006148  1
  Ir  Ir30  1  0.431734  0.250000  0.507000  1
  Ir  Ir31  1  0.568407  0.750000  0.493400  1
