# generated using pymatgen
data_Dy4Lu2GaNiOs
_symmetry_space_group_name_H-M   'P 1'
_cell_length_a   8.29884698
_cell_length_b   8.29884818
_cell_length_c   8.29884718
_cell_angle_alpha   113.06755164
_cell_angle_beta   110.48413618
_cell_angle_gamma   104.96539860
_symmetry_Int_Tables_number   1
_chemical_formula_structural   Dy4Lu2GaNiOs
_chemical_formula_sum   'Dy8 Lu4 Ga2 Ni2 Os2'
_cell_volume   437.71638571
_cell_formula_units_Z   2
loop_
 _symmetry_equiv_pos_site_id
 _symmetry_equiv_pos_as_xyz
  1  'x, y, z'
loop_
 _atom_site_type_symbol
 _atom_site_label
 _atom_site_symmetry_multiplicity
 _atom_site_fract_x
 _atom_site_fract_y
 _atom_site_fract_z
 _atom_site_occupancy
  Dy  Dy0  1  0.435895  0.243471  0.192424  1
  Dy  Dy1  1  0.564105  0.756529  0.807576  1
  Dy  Dy2  1  0.051047  0.243471  0.807576  1
  Dy  Dy3  1  0.948953  0.756529  0.192424  1
  Dy  Dy4  1  0.180177  0.278720  0.458898  1
  Dy  Dy5  1  0.819823  0.721280  0.541102  1
  Dy  Dy6  1  0.180177  0.721280  0.901458  1
  Dy  Dy7  1  0.819823  0.278720  0.098542  1
  Lu  Lu8  1  0.331752  0.647086  0.315334  1
  Lu  Lu9  1  0.668248  0.352914  0.684666  1
  Lu  Lu10  1  0.331752  0.016416  0.684666  1
  Lu  Lu11  1  0.668248  0.983584  0.315334  1
  Ga  Ga12  1  0.500000  0.500000  0.000000  1
  Ga  Ga13  1  0.000000  0.000000  0.000000  1
  Ni  Ni14  1  0.119442  0.619442  0.500000  1
  Ni  Ni15  1  0.880558  0.380558  0.500000  1
  Os  Os16  1  0.330575  0.000000  0.330575  1
  Os  Os17  1  0.669425  0.000000  0.669425  1
