# generated using pymatgen
data_SmY7Sc11Si16Au
_symmetry_space_group_name_H-M   'P 1'
_cell_length_a   7.04063439
_cell_length_b   7.40958736
_cell_length_c   14.06644695
_cell_angle_alpha   90.03565866
_cell_angle_beta   89.93484040
_cell_angle_gamma   89.88279906
_symmetry_Int_Tables_number   1
_chemical_formula_structural   SmY7Sc11Si16Au
_chemical_formula_sum   'Sm1 Y7 Sc11 Si16 Au1'
_cell_volume   733.81900283
_cell_formula_units_Z   1
loop_
 _symmetry_equiv_pos_site_id
 _symmetry_equiv_pos_as_xyz
  1  'x, y, z'
loop_
 _atom_site_type_symbol
 _atom_site_label
 _atom_site_symmetry_multiplicity
 _atom_site_fract_x
 _atom_site_fract_y
 _atom_site_fract_z
 _atom_site_occupancy
  Sm  Sm0  1  0.483898  0.671684  0.598986  1
  Y  Y1  1  0.011220  0.174251  0.096510  1
  Y  Y2  1  0.991149  0.814883  0.901350  1
  Y  Y3  1  0.484178  0.672626  0.900472  1
  Y  Y4  1  0.990960  0.814730  0.599393  1
  Y  Y5  1  0.510956  0.323620  0.096628  1
  Y  Y6  1  0.010455  0.174365  0.402673  1
  Y  Y7  1  0.510481  0.323869  0.402486  1
  Sc  Sc8  1  0.839003  0.498000  0.249971  1
  Sc  Sc9  1  0.340656  0.002446  0.249802  1
  Sc  Sc10  1  0.657105  0.999246  0.750149  1
  Sc  Sc11  1  0.324179  0.183990  0.626934  1
  Sc  Sc12  1  0.671577  0.824150  0.374874  1
  Sc  Sc13  1  0.170884  0.678989  0.373327  1
  Sc  Sc14  1  0.671843  0.823431  0.124665  1
  Sc  Sc15  1  0.837646  0.327447  0.626807  1
  Sc  Sc16  1  0.324811  0.184066  0.873600  1
  Sc  Sc17  1  0.836274  0.327257  0.874410  1
  Sc  Sc18  1  0.171101  0.678944  0.126232  1
  Si  Si19  1  0.027110  0.099306  0.750645  1
  Si  Si20  1  0.968858  0.886852  0.249760  1
  Si  Si21  1  0.467900  0.618423  0.249632  1
  Si  Si22  1  0.538846  0.381820  0.750695  1
  Si  Si23  1  0.287914  0.887154  0.750750  1
  Si  Si24  1  0.713671  0.126807  0.249654  1
  Si  Si25  1  0.213063  0.373193  0.249612  1
  Si  Si26  1  0.779671  0.627287  0.751091  1
  Si  Si27  1  0.159323  0.457898  0.529085  1
  Si  Si28  1  0.843513  0.535470  0.461143  1
  Si  Si29  1  0.344777  0.966739  0.462225  1
  Si  Si30  1  0.844131  0.535325  0.038704  1
  Si  Si31  1  0.657586  0.035755  0.539990  1
  Si  Si32  1  0.161698  0.459460  0.969733  1
  Si  Si33  1  0.656625  0.033544  0.959554  1
  Si  Si34  1  0.345395  0.964720  0.037050  1
  Au  Au35  1  0.151542  0.512255  0.751409  1
