# generated using pymatgen
data_Nd4Ga18IrRu2Pt3
_symmetry_space_group_name_H-M   'P 1'
_cell_length_a   7.68951142
_cell_length_b   7.68951093
_cell_length_c   9.64052339
_cell_angle_alpha   89.99509017
_cell_angle_beta   89.99509181
_cell_angle_gamma   119.42638408
_symmetry_Int_Tables_number   1
_chemical_formula_structural   Nd4Ga18IrRu2Pt3
_chemical_formula_sum   'Nd4 Ga18 Ir1 Ru2 Pt3'
_cell_volume   496.48950734
_cell_formula_units_Z   1
loop_
 _symmetry_equiv_pos_site_id
 _symmetry_equiv_pos_as_xyz
  1  'x, y, z'
loop_
 _atom_site_type_symbol
 _atom_site_label
 _atom_site_symmetry_multiplicity
 _atom_site_fract_x
 _atom_site_fract_y
 _atom_site_fract_z
 _atom_site_occupancy
  Nd  Nd0  1  0.999930  0.670804  0.250427  1
  Nd  Nd1  1  0.003606  0.331925  0.749423  1
  Nd  Nd2  1  0.668075  0.996394  0.250577  1
  Nd  Nd3  1  0.329196  0.000070  0.749573  1
  Ga  Ga4  1  0.122878  0.124643  0.250428  1
  Ga  Ga5  1  0.875357  0.877122  0.749572  1
  Ga  Ga6  1  0.001884  0.329775  0.079702  1
  Ga  Ga7  1  0.996662  0.670149  0.919660  1
  Ga  Ga8  1  0.993541  0.666477  0.578619  1
  Ga  Ga9  1  0.333523  0.006459  0.421381  1
  Ga  Ga10  1  0.998414  0.330195  0.421581  1
  Ga  Ga11  1  0.669805  0.001586  0.578419  1
  Ga  Ga12  1  0.670225  0.998116  0.920298  1
  Ga  Ga13  1  0.329851  0.003338  0.080340  1
  Ga  Ga14  1  0.328944  0.325298  0.558118  1
  Ga  Ga15  1  0.674702  0.671056  0.441882  1
  Ga  Ga16  1  0.673738  0.673478  0.061550  1
  Ga  Ga17  1  0.326522  0.326262  0.938450  1
  Ga  Ga18  1  0.342771  0.541928  0.250552  1
  Ga  Ga19  1  0.656081  0.452599  0.747180  1
  Ga  Ga20  1  0.547401  0.343919  0.252820  1
  Ga  Ga21  1  0.458072  0.657229  0.749448  1
  Ir  Ir22  1  0.670979  0.329021  0.500000  1
  Ru  Ru23  1  0.999996  0.000004  0.000000  1
  Ru  Ru24  1  0.999728  0.000272  0.500000  1
  Pt  Pt25  1  0.670514  0.329486  0.000000  1
  Pt  Pt26  1  0.329170  0.670830  0.000000  1
  Pt  Pt27  1  0.328437  0.671563  0.500000  1
