# generated using pymatgen
data_VAgF6
_symmetry_space_group_name_H-M   'P 1'
_cell_length_a   5.90857964
_cell_length_b   5.90857944
_cell_length_c   5.90858083
_cell_angle_alpha   57.02668111
_cell_angle_beta   57.02667537
_cell_angle_gamma   57.02666937
_symmetry_Int_Tables_number   1
_chemical_formula_structural   VAgF6
_chemical_formula_sum   'V1 Ag1 F6'
_cell_volume   135.86086572
_cell_formula_units_Z   1
loop_
 _symmetry_equiv_pos_site_id
 _symmetry_equiv_pos_as_xyz
  1  'x, y, z'
loop_
 _atom_site_type_symbol
 _atom_site_label
 _atom_site_symmetry_multiplicity
 _atom_site_fract_x
 _atom_site_fract_y
 _atom_site_fract_z
 _atom_site_occupancy
  V  V0  1  0.500000  0.500000  0.500000  1
  Ag  Ag1  1  0.000000  0.000000  0.000000  1
  F  F2  1  0.708457  0.185003  0.392577  1
  F  F3  1  0.392577  0.708457  0.185003  1
  F  F4  1  0.814997  0.607423  0.291543  1
  F  F5  1  0.607423  0.291543  0.814997  1
  F  F6  1  0.291543  0.814997  0.607423  1
  F  F7  1  0.185003  0.392577  0.708457  1
