# generated using pymatgen
data_Li4Ca3LuSi8
_symmetry_space_group_name_H-M   'P 1'
_cell_length_a   3.78404700
_cell_length_b   7.86196801
_cell_length_c   10.45389649
_cell_angle_alpha   89.76551806
_cell_angle_beta   90.00000000
_cell_angle_gamma   90.00000000
_symmetry_Int_Tables_number   1
_chemical_formula_structural   Li4Ca3LuSi8
_chemical_formula_sum   'Li4 Ca3 Lu1 Si8'
_cell_volume   311.00140647
_cell_formula_units_Z   1
loop_
 _symmetry_equiv_pos_site_id
 _symmetry_equiv_pos_as_xyz
  1  'x, y, z'
loop_
 _atom_site_type_symbol
 _atom_site_label
 _atom_site_symmetry_multiplicity
 _atom_site_fract_x
 _atom_site_fract_y
 _atom_site_fract_z
 _atom_site_occupancy
  Li  Li0  1  0.250000  0.997680  0.388380  1
  Li  Li1  1  0.750000  0.000951  0.610050  1
  Li  Li2  1  0.250000  0.496750  0.108057  1
  Li  Li3  1  0.750000  0.511279  0.888465  1
  Ca  Ca4  1  0.750000  0.866965  0.135057  1
  Ca  Ca5  1  0.250000  0.634783  0.638563  1
  Ca  Ca6  1  0.750000  0.361944  0.365249  1
  Lu  Lu7  1  0.250000  0.126333  0.865539  1
  Si  Si8  1  0.750000  0.265780  0.056670  1
  Si  Si9  1  0.250000  0.742068  0.932869  1
  Si  Si10  1  0.750000  0.767000  0.432475  1
  Si  Si11  1  0.250000  0.224977  0.576497  1
  Si  Si12  1  0.750000  0.847951  0.824086  1
  Si  Si13  1  0.250000  0.163029  0.167537  1
  Si  Si14  1  0.750000  0.329528  0.686017  1
  Si  Si15  1  0.250000  0.662982  0.324488  1
