# generated using pymatgen
data_Pr2Nd3SnBi2Br
_symmetry_space_group_name_H-M   'P 1'
_cell_length_a   9.69816100
_cell_length_b   9.61683743
_cell_length_c   6.75135700
_cell_angle_alpha   90.00000000
_cell_angle_beta   90.00000000
_cell_angle_gamma   120.28012761
_symmetry_Int_Tables_number   1
_chemical_formula_structural   Pr2Nd3SnBi2Br
_chemical_formula_sum   'Pr4 Nd6 Sn2 Bi4 Br2'
_cell_volume   543.76409806
_cell_formula_units_Z   2
loop_
 _symmetry_equiv_pos_site_id
 _symmetry_equiv_pos_as_xyz
  1  'x, y, z'
loop_
 _atom_site_type_symbol
 _atom_site_label
 _atom_site_symmetry_multiplicity
 _atom_site_fract_x
 _atom_site_fract_y
 _atom_site_fract_z
 _atom_site_occupancy
  Pr  Pr0  1  0.995174  0.266839  0.750000  1
  Pr  Pr1  1  0.004826  0.733161  0.250000  1
  Pr  Pr2  1  0.728334  0.733161  0.750000  1
  Pr  Pr3  1  0.271666  0.266839  0.250000  1
  Nd  Nd4  1  0.275552  0.000000  0.750000  1
  Nd  Nd5  1  0.724448  0.000000  0.250000  1
  Nd  Nd6  1  0.335838  0.671677  0.500000  1
  Nd  Nd7  1  0.664162  0.328323  0.500000  1
  Nd  Nd8  1  0.664162  0.328323  0.000000  1
  Nd  Nd9  1  0.335838  0.671677  0.000000  1
  Sn  Sn10  1  0.613599  0.000000  0.750000  1
  Sn  Sn11  1  0.386401  0.000000  0.250000  1
  Bi  Bi12  1  0.999359  0.615866  0.750000  1
  Bi  Bi13  1  0.000641  0.384134  0.250000  1
  Bi  Bi14  1  0.383492  0.384134  0.750000  1
  Bi  Bi15  1  0.616508  0.615866  0.250000  1
  Br  Br16  1  0.000000  0.000000  0.500000  1
  Br  Br17  1  0.000000  0.000000  0.000000  1
