# generated using pymatgen
data_La3Dy(ZnSi3)2
_symmetry_space_group_name_H-M   'P 1'
_cell_length_a   4.25849900
_cell_length_b   4.25988200
_cell_length_c   14.07134000
_cell_angle_alpha   90.00000000
_cell_angle_beta   90.00000000
_cell_angle_gamma   90.00000000
_symmetry_Int_Tables_number   1
_chemical_formula_structural   La3Dy(ZnSi3)2
_chemical_formula_sum   'La3 Dy1 Zn2 Si6'
_cell_volume   255.26400309
_cell_formula_units_Z   1
loop_
 _symmetry_equiv_pos_site_id
 _symmetry_equiv_pos_as_xyz
  1  'x, y, z'
loop_
 _atom_site_type_symbol
 _atom_site_label
 _atom_site_symmetry_multiplicity
 _atom_site_fract_x
 _atom_site_fract_y
 _atom_site_fract_z
 _atom_site_occupancy
  La  La0  1  0.000000  0.000000  0.504913  1
  La  La1  1  0.500000  0.000000  0.749574  1
  La  La2  1  0.000000  0.500000  0.243359  1
  Dy  Dy3  1  0.500000  0.500000  0.004769  1
  Zn  Zn4  1  0.000000  0.000000  0.917159  1
  Zn  Zn5  1  0.500000  0.500000  0.414929  1
  Si  Si6  1  0.000000  0.500000  0.836656  1
  Si  Si7  1  0.500000  0.000000  0.330429  1
  Si  Si8  1  0.000000  0.000000  0.082101  1
  Si  Si9  1  0.500000  0.500000  0.585713  1
  Si  Si10  1  0.500000  0.000000  0.162164  1
  Si  Si11  1  0.000000  0.500000  0.668233  1
