# generated using pymatgen
data_Li3(GeRh)2
_symmetry_space_group_name_H-M   'P 1'
_cell_length_a   6.87021782
_cell_length_b   6.87021803
_cell_length_c   6.87021738
_cell_angle_alpha   35.55048775
_cell_angle_beta   35.55048467
_cell_angle_gamma   35.55048650
_symmetry_Int_Tables_number   1
_chemical_formula_structural   Li3(GeRh)2
_chemical_formula_sum   'Li3 Ge2 Rh2'
_cell_volume   97.97073649
_cell_formula_units_Z   1
loop_
 _symmetry_equiv_pos_site_id
 _symmetry_equiv_pos_as_xyz
  1  'x, y, z'
loop_
 _atom_site_type_symbol
 _atom_site_label
 _atom_site_symmetry_multiplicity
 _atom_site_fract_x
 _atom_site_fract_y
 _atom_site_fract_z
 _atom_site_occupancy
  Li  Li0  1  0.639440  0.639440  0.639440  1
  Li  Li1  1  0.360560  0.360560  0.360560  1
  Li  Li2  1  0.500000  0.500000  0.500000  1
  Ge  Ge3  1  0.914603  0.914603  0.914603  1
  Ge  Ge4  1  0.085397  0.085397  0.085397  1
  Rh  Rh5  1  0.783469  0.783469  0.783469  1
  Rh  Rh6  1  0.216532  0.216532  0.216532  1
