# generated using pymatgen
data_Ho2Tm3Rh2
_symmetry_space_group_name_H-M   'P 1'
_cell_length_a   6.37192244
_cell_length_b   7.08716014
_cell_length_c   8.53965528
_cell_angle_alpha   96.93251686
_cell_angle_beta   111.90560328
_cell_angle_gamma   89.99999967
_symmetry_Int_Tables_number   1
_chemical_formula_structural   Ho2Tm3Rh2
_chemical_formula_sum   'Ho4 Tm6 Rh4'
_cell_volume   354.75688737
_cell_formula_units_Z   2
loop_
 _symmetry_equiv_pos_site_id
 _symmetry_equiv_pos_as_xyz
  1  'x, y, z'
loop_
 _atom_site_type_symbol
 _atom_site_label
 _atom_site_symmetry_multiplicity
 _atom_site_fract_x
 _atom_site_fract_y
 _atom_site_fract_z
 _atom_site_occupancy
  Ho  Ho0  1  0.789395  0.081496  0.811105  1
  Ho  Ho1  1  0.978291  0.418504  0.188895  1
  Ho  Ho2  1  0.210605  0.918504  0.188895  1
  Ho  Ho3  1  0.021709  0.581496  0.811105  1
  Tm  Tm4  1  0.209658  0.186175  0.562057  1
  Tm  Tm5  1  0.647601  0.313825  0.437943  1
  Tm  Tm6  1  0.790342  0.813825  0.437943  1
  Tm  Tm7  1  0.352399  0.686175  0.562057  1
  Tm  Tm8  1  0.423469  0.250000  0.000000  1
  Tm  Tm9  1  0.576531  0.750000  0.000000  1
  Rh  Rh10  1  0.594431  0.426876  0.777266  1
  Rh  Rh11  1  0.817164  0.073124  0.222734  1
  Rh  Rh12  1  0.405569  0.573124  0.222734  1
  Rh  Rh13  1  0.182836  0.926876  0.777266  1
