# generated using pymatgen
data_Sm2Y4MgCo17P12
_symmetry_space_group_name_H-M   'P 1'
_cell_length_a   3.73044100
_cell_length_b   10.60204000
_cell_length_c   12.27424900
_cell_angle_alpha   90.00000000
_cell_angle_beta   90.00000000
_cell_angle_gamma   90.00000000
_symmetry_Int_Tables_number   1
_chemical_formula_structural   Sm2Y4MgCo17P12
_chemical_formula_sum   'Sm2 Y4 Mg1 Co17 P12'
_cell_volume   485.45004242
_cell_formula_units_Z   1
loop_
 _symmetry_equiv_pos_site_id
 _symmetry_equiv_pos_as_xyz
  1  'x, y, z'
loop_
 _atom_site_type_symbol
 _atom_site_label
 _atom_site_symmetry_multiplicity
 _atom_site_fract_x
 _atom_site_fract_y
 _atom_site_fract_z
 _atom_site_occupancy
  Sm  Sm0  1  0.000000  0.500000  0.525699  1
  Sm  Sm1  1  0.500000  0.000000  0.477989  1
  Y  Y2  1  0.500000  0.821162  0.206637  1
  Y  Y3  1  0.500000  0.178838  0.206637  1
  Y  Y4  1  0.000000  0.682727  0.795235  1
  Y  Y5  1  0.000000  0.317273  0.795235  1
  Mg  Mg6  1  0.500000  0.500000  0.151676  1
  Co  Co7  1  0.000000  0.000000  0.840035  1
  Co  Co8  1  0.500000  0.500000  0.706155  1
  Co  Co9  1  0.000000  0.000000  0.294577  1
  Co  Co10  1  0.000000  0.500000  0.986283  1
  Co  Co11  1  0.500000  0.000000  0.011684  1
  Co  Co12  1  0.500000  0.329199  0.993065  1
  Co  Co13  1  0.500000  0.670801  0.993065  1
  Co  Co14  1  0.000000  0.163265  0.001649  1
  Co  Co15  1  0.000000  0.836735  0.001649  1
  Co  Co16  1  0.500000  0.295582  0.432295  1
  Co  Co17  1  0.500000  0.704418  0.432295  1
  Co  Co18  1  0.000000  0.202538  0.571257  1
  Co  Co19  1  0.000000  0.797462  0.571257  1
  Co  Co20  1  0.500000  0.880409  0.710074  1
  Co  Co21  1  0.500000  0.119591  0.710074  1
  Co  Co22  1  0.000000  0.622512  0.291913  1
  Co  Co23  1  0.000000  0.377488  0.291913  1
  P  P24  1  0.500000  0.500000  0.884156  1
  P  P25  1  0.000000  0.000000  0.115501  1
  P  P26  1  0.500000  0.500000  0.351324  1
  P  P27  1  0.000000  0.000000  0.657561  1
  P  P28  1  0.500000  0.307656  0.617845  1
  P  P29  1  0.500000  0.692344  0.617845  1
  P  P30  1  0.000000  0.191181  0.385296  1
  P  P31  1  0.000000  0.808819  0.385296  1
  P  P32  1  0.500000  0.849479  0.890771  1
  P  P33  1  0.500000  0.150521  0.890771  1
  P  P34  1  0.000000  0.662722  0.102643  1
  P  P35  1  0.000000  0.337278  0.102643  1
