# generated using pymatgen
data_Tb4Dy4Tc(B8Ru)3
_symmetry_space_group_name_H-M   'P 1'
_cell_length_a   3.68074400
_cell_length_b   9.16321665
_cell_length_c   11.55183500
_cell_angle_alpha   89.90120850
_cell_angle_beta   90.00000000
_cell_angle_gamma   90.00000000
_symmetry_Int_Tables_number   1
_chemical_formula_structural   Tb4Dy4Tc(B8Ru)3
_chemical_formula_sum   'Tb4 Dy4 Tc1 B24 Ru3'
_cell_volume   389.61341262
_cell_formula_units_Z   1
loop_
 _symmetry_equiv_pos_site_id
 _symmetry_equiv_pos_as_xyz
  1  'x, y, z'
loop_
 _atom_site_type_symbol
 _atom_site_label
 _atom_site_symmetry_multiplicity
 _atom_site_fract_x
 _atom_site_fract_y
 _atom_site_fract_z
 _atom_site_occupancy
  Tb  Tb0  1  0.000000  0.324687  0.413241  1
  Tb  Tb1  1  0.000000  0.676328  0.583680  1
  Tb  Tb2  1  0.000000  0.821289  0.087963  1
  Tb  Tb3  1  0.000000  0.176341  0.914908  1
  Dy  Dy4  1  0.000000  0.943522  0.372295  1
  Dy  Dy5  1  0.000000  0.057029  0.628399  1
  Dy  Dy6  1  0.000000  0.444248  0.128183  1
  Dy  Dy7  1  0.000000  0.556656  0.871219  1
  Tc  Tc8  1  0.000000  0.638054  0.321081  1
  B  B9  1  0.500000  0.553301  0.432754  1
  B  B10  1  0.500000  0.445995  0.567772  1
  B  B11  1  0.500000  0.054083  0.067552  1
  B  B12  1  0.500000  0.945749  0.932737  1
  B  B13  1  0.500000  0.748102  0.419240  1
  B  B14  1  0.500000  0.252153  0.580769  1
  B  B15  1  0.500000  0.247921  0.080534  1
  B  B16  1  0.500000  0.751907  0.919341  1
  B  B17  1  0.500000  0.791386  0.266417  1
  B  B18  1  0.500000  0.209235  0.733599  1
  B  B19  1  0.500000  0.290865  0.232872  1
  B  B20  1  0.500000  0.709646  0.766397  1
  B  B21  1  0.500000  0.631985  0.185848  1
  B  B22  1  0.500000  0.367693  0.814530  1
  B  B23  1  0.500000  0.132102  0.314003  1
  B  B24  1  0.500000  0.868342  0.685610  1
  B  B25  1  0.500000  0.984138  0.212743  1
  B  B26  1  0.500000  0.015809  0.787741  1
  B  B27  1  0.500000  0.483349  0.287261  1
  B  B28  1  0.500000  0.515560  0.712668  1
  B  B29  1  0.500000  0.607948  0.029231  1
  B  B30  1  0.500000  0.391537  0.969685  1
  B  B31  1  0.500000  0.108725  0.470345  1
  B  B32  1  0.500000  0.892733  0.530313  1
  Ru  Ru33  1  0.000000  0.361540  0.679456  1
  Ru  Ru34  1  0.000000  0.138066  0.178477  1
  Ru  Ru35  1  0.000000  0.861976  0.821133  1
