# generated using pymatgen
data_CeNd(MgIr)2
_symmetry_space_group_name_H-M   'P 1'
_cell_length_a   4.14012200
_cell_length_b   7.18555206
_cell_length_c   8.72533121
_cell_angle_alpha   88.40123069
_cell_angle_beta   90.00000000
_cell_angle_gamma   90.00000000
_symmetry_Int_Tables_number   1
_chemical_formula_structural   CeNd(MgIr)2
_chemical_formula_sum   'Ce2 Nd2 Mg4 Ir4'
_cell_volume   259.46937355
_cell_formula_units_Z   2
loop_
 _symmetry_equiv_pos_site_id
 _symmetry_equiv_pos_as_xyz
  1  'x, y, z'
loop_
 _atom_site_type_symbol
 _atom_site_label
 _atom_site_symmetry_multiplicity
 _atom_site_fract_x
 _atom_site_fract_y
 _atom_site_fract_z
 _atom_site_occupancy
  Ce  Ce0  1  0.750000  0.962939  0.682142  1
  Ce  Ce1  1  0.250000  0.037061  0.317858  1
  Nd  Nd2  1  0.250000  0.542502  0.176873  1
  Nd  Nd3  1  0.750000  0.457498  0.823127  1
  Mg  Mg4  1  0.250000  0.631838  0.559146  1
  Mg  Mg5  1  0.750000  0.368162  0.440854  1
  Mg  Mg6  1  0.750000  0.867919  0.055814  1
  Mg  Mg7  1  0.250000  0.132081  0.944186  1
  Ir  Ir8  1  0.250000  0.758676  0.861740  1
  Ir  Ir9  1  0.750000  0.241324  0.138260  1
  Ir  Ir10  1  0.750000  0.764408  0.375465  1
  Ir  Ir11  1  0.250000  0.235592  0.624535  1
