# generated using pymatgen
data_SrAc7Se16
_symmetry_space_group_name_H-M   'P 1'
_cell_length_a   8.68339063
_cell_length_b   8.76818163
_cell_length_c   9.02570639
_cell_angle_alpha   90.24996345
_cell_angle_beta   89.95405037
_cell_angle_gamma   89.93239565
_symmetry_Int_Tables_number   1
_chemical_formula_structural   SrAc7Se16
_chemical_formula_sum   'Sr1 Ac7 Se16'
_cell_volume   687.18789469
_cell_formula_units_Z   1
loop_
 _symmetry_equiv_pos_site_id
 _symmetry_equiv_pos_as_xyz
  1  'x, y, z'
loop_
 _atom_site_type_symbol
 _atom_site_label
 _atom_site_symmetry_multiplicity
 _atom_site_fract_x
 _atom_site_fract_y
 _atom_site_fract_z
 _atom_site_occupancy
  Sr  Sr0  1  0.998496  0.260215  0.287618  1
  Ac  Ac1  1  0.251411  0.490212  0.718530  1
  Ac  Ac2  1  0.251415  0.991336  0.719584  1
  Ac  Ac3  1  0.752163  0.508759  0.718252  1
  Ac  Ac4  1  0.753255  0.010307  0.719494  1
  Ac  Ac5  1  0.498567  0.239277  0.281695  1
  Ac  Ac6  1  0.997469  0.760107  0.282173  1
  Ac  Ac7  1  0.497739  0.738859  0.281526  1
  Se  Se8  1  0.500209  0.246624  0.633862  1
  Se  Se9  1  0.999900  0.753143  0.634186  1
  Se  Se10  1  0.499707  0.746653  0.635964  1
  Se  Se11  1  0.000234  0.253190  0.636353  1
  Se  Se12  1  0.748627  0.503947  0.366537  1
  Se  Se13  1  0.746475  0.998794  0.367639  1
  Se  Se14  1  0.251583  0.498658  0.366782  1
  Se  Se15  1  0.253265  0.993681  0.366688  1
  Se  Se16  1  0.235546  0.717394  0.995801  1
  Se  Se17  1  0.240236  0.216648  0.996162  1
  Se  Se18  1  0.742201  0.283867  0.996164  1
  Se  Se19  1  0.739411  0.784465  0.996424  1
  Se  Se20  1  0.009143  0.541080  0.998672  1
  Se  Se21  1  0.510140  0.961423  0.000143  1
  Se  Se22  1  0.511438  0.457231  0.999109  1
  Se  Se23  1  0.011369  0.044131  0.000641  1
