# generated using pymatgen
data_Tb2Os3Ru
_symmetry_space_group_name_H-M   'P 1'
_cell_length_a   5.28834500
_cell_length_b   5.28834429
_cell_length_c   9.03356700
_cell_angle_alpha   90.00000000
_cell_angle_beta   90.00000000
_cell_angle_gamma   120.00001073
_symmetry_Int_Tables_number   1
_chemical_formula_structural   Tb2Os3Ru
_chemical_formula_sum   'Tb4 Os6 Ru2'
_cell_volume   218.79095084
_cell_formula_units_Z   2
loop_
 _symmetry_equiv_pos_site_id
 _symmetry_equiv_pos_as_xyz
  1  'x, y, z'
loop_
 _atom_site_type_symbol
 _atom_site_label
 _atom_site_symmetry_multiplicity
 _atom_site_fract_x
 _atom_site_fract_y
 _atom_site_fract_z
 _atom_site_occupancy
  Tb  Tb0  1  0.333333  0.666667  0.434446  1
  Tb  Tb1  1  0.666667  0.333333  0.565554  1
  Tb  Tb2  1  0.666667  0.333333  0.934446  1
  Tb  Tb3  1  0.333333  0.666667  0.065554  1
  Os  Os4  1  0.829491  0.170509  0.250000  1
  Os  Os5  1  0.829491  0.658983  0.250000  1
  Os  Os6  1  0.341017  0.170509  0.250000  1
  Os  Os7  1  0.170509  0.829491  0.750000  1
  Os  Os8  1  0.170509  0.341017  0.750000  1
  Os  Os9  1  0.658983  0.829491  0.750000  1
  Ru  Ru10  1  0.000000  0.000000  0.500000  1
  Ru  Ru11  1  0.000000  0.000000  0.000000  1
