# generated using pymatgen
data_NaIn(Cu2Te3)2
_symmetry_space_group_name_H-M   'P 1'
_cell_length_a   11.70935851
_cell_length_b   11.70935928
_cell_length_c   8.39783200
_cell_angle_alpha   79.08054290
_cell_angle_beta   79.08054217
_cell_angle_gamma   15.26363908
_symmetry_Int_Tables_number   1
_chemical_formula_structural   NaIn(Cu2Te3)2
_chemical_formula_sum   'Na1 In1 Cu4 Te6'
_cell_volume   297.53590261
_cell_formula_units_Z   1
loop_
 _symmetry_equiv_pos_site_id
 _symmetry_equiv_pos_as_xyz
  1  'x, y, z'
loop_
 _atom_site_type_symbol
 _atom_site_label
 _atom_site_symmetry_multiplicity
 _atom_site_fract_x
 _atom_site_fract_y
 _atom_site_fract_z
 _atom_site_occupancy
  Na  Na0  1  0.660299  0.660299  0.439281  1
  In  In1  1  0.340357  0.340357  0.563894  1
  Cu  Cu2  1  0.708045  0.708045  0.078914  1
  Cu  Cu3  1  0.290596  0.290596  0.923807  1
  Cu  Cu4  1  0.045859  0.045859  0.385148  1
  Cu  Cu5  1  0.957827  0.957827  0.611903  1
  Te  Te6  1  0.719459  0.719459  0.766815  1
  Te  Te7  1  0.271940  0.271940  0.250885  1
  Te  Te8  1  0.595414  0.595414  0.130119  1
  Te  Te9  1  0.404115  0.404115  0.861099  1
  Te  Te10  1  0.942173  0.942173  0.308498  1
  Te  Te11  1  0.063917  0.063917  0.679637  1
