# generated using pymatgen
data_Th3AlIn2CoRu2
_symmetry_space_group_name_H-M   'P 1'
_cell_length_a   7.43815782
_cell_length_b   7.43815709
_cell_length_c   4.01835700
_cell_angle_alpha   90.00000000
_cell_angle_beta   90.00000000
_cell_angle_gamma   119.58483642
_symmetry_Int_Tables_number   1
_chemical_formula_structural   Th3AlIn2CoRu2
_chemical_formula_sum   'Th3 Al1 In2 Co1 Ru2'
_cell_volume   193.33548852
_cell_formula_units_Z   1
loop_
 _symmetry_equiv_pos_site_id
 _symmetry_equiv_pos_as_xyz
  1  'x, y, z'
loop_
 _atom_site_type_symbol
 _atom_site_label
 _atom_site_symmetry_multiplicity
 _atom_site_fract_x
 _atom_site_fract_y
 _atom_site_fract_z
 _atom_site_occupancy
  Th  Th0  1  0.589392  0.996552  0.000000  1
  Th  Th1  1  0.996552  0.589392  0.000000  1
  Th  Th2  1  0.434115  0.434115  0.000000  1
  Al  Al3  1  0.766063  0.766063  0.500000  1
  In  In4  1  0.236238  0.001793  0.500000  1
  In  In5  1  0.001793  0.236238  0.500000  1
  Co  Co6  1  0.962542  0.962542  0.000000  1
  Ru  Ru7  1  0.346318  0.666987  0.500000  1
  Ru  Ru8  1  0.666987  0.346318  0.500000  1
