# generated using pymatgen
data_DyZr(Tc2P)4
_symmetry_space_group_name_H-M   'P 1'
_cell_length_a   7.36539669
_cell_length_b   7.36539669
_cell_length_c   3.94816200
_cell_angle_alpha   90.00000000
_cell_angle_beta   90.00000000
_cell_angle_gamma   90.39917491
_symmetry_Int_Tables_number   1
_chemical_formula_structural   DyZr(Tc2P)4
_chemical_formula_sum   'Dy1 Zr1 Tc8 P4'
_cell_volume   214.17891225
_cell_formula_units_Z   1
loop_
 _symmetry_equiv_pos_site_id
 _symmetry_equiv_pos_as_xyz
  1  'x, y, z'
loop_
 _atom_site_type_symbol
 _atom_site_label
 _atom_site_symmetry_multiplicity
 _atom_site_fract_x
 _atom_site_fract_y
 _atom_site_fract_z
 _atom_site_occupancy
  Dy  Dy0  1  0.000000  0.000000  0.500000  1
  Zr  Zr1  1  0.500000  0.500000  0.000000  1
  Tc  Tc2  1  0.340989  0.084819  0.000000  1
  Tc  Tc3  1  0.579272  0.163449  0.500000  1
  Tc  Tc4  1  0.420728  0.836551  0.500000  1
  Tc  Tc5  1  0.659011  0.915181  0.000000  1
  Tc  Tc6  1  0.163449  0.579272  0.500000  1
  Tc  Tc7  1  0.836551  0.420728  0.500000  1
  Tc  Tc8  1  0.084819  0.340989  0.000000  1
  Tc  Tc9  1  0.915181  0.659011  0.000000  1
  P  P10  1  0.784995  0.215005  0.000000  1
  P  P11  1  0.710411  0.710411  0.500000  1
  P  P12  1  0.289589  0.289589  0.500000  1
  P  P13  1  0.215005  0.784995  0.000000  1
