# generated using pymatgen
data_ErTm3BBr6
_symmetry_space_group_name_H-M   'P 1'
_cell_length_a   3.91160400
_cell_length_b   13.03000921
_cell_length_c   13.49003525
_cell_angle_alpha   89.95070686
_cell_angle_beta   90.00000000
_cell_angle_gamma   90.00000000
_symmetry_Int_Tables_number   1
_chemical_formula_structural   ErTm3BBr6
_chemical_formula_sum   'Er2 Tm6 B2 Br12'
_cell_volume   687.56304745
_cell_formula_units_Z   2
loop_
 _symmetry_equiv_pos_site_id
 _symmetry_equiv_pos_as_xyz
  1  'x, y, z'
loop_
 _atom_site_type_symbol
 _atom_site_label
 _atom_site_symmetry_multiplicity
 _atom_site_fract_x
 _atom_site_fract_y
 _atom_site_fract_z
 _atom_site_occupancy
  Er  Er0  1  0.500000  0.622115  0.643557  1
  Er  Er1  1  0.500000  0.377885  0.356443  1
  Tm  Tm2  1  0.000000  0.100475  0.079796  1
  Tm  Tm3  1  0.000000  0.899525  0.920204  1
  Tm  Tm4  1  0.000000  0.600484  0.420170  1
  Tm  Tm5  1  0.000000  0.399516  0.579830  1
  Tm  Tm6  1  0.500000  0.121791  0.856813  1
  Tm  Tm7  1  0.500000  0.878209  0.143187  1
  B  B8  1  0.500000  0.000000  0.000000  1
  B  B9  1  0.500000  0.500000  0.500000  1
  Br  Br10  1  0.500000  0.267975  0.682240  1
  Br  Br11  1  0.500000  0.732025  0.317760  1
  Br  Br12  1  0.500000  0.768420  0.818249  1
  Br  Br13  1  0.500000  0.231580  0.181751  1
  Br  Br14  1  0.000000  0.260516  0.930755  1
  Br  Br15  1  0.000000  0.739484  0.069245  1
  Br  Br16  1  0.000000  0.480859  0.239128  1
  Br  Br17  1  0.000000  0.519141  0.760872  1
  Br  Br18  1  0.000000  0.980129  0.260327  1
  Br  Br19  1  0.000000  0.019871  0.739673  1
  Br  Br20  1  0.000000  0.238804  0.431365  1
  Br  Br21  1  0.000000  0.761196  0.568635  1
