# generated using pymatgen
data_Pr16Cd3Co2HgPt2
_symmetry_space_group_name_H-M   'P 1'
_cell_length_a   10.00112846
_cell_length_b   10.00112899
_cell_length_c   10.00611202
_cell_angle_alpha   59.98908519
_cell_angle_beta   59.98908458
_cell_angle_gamma   60.25088541
_symmetry_Int_Tables_number   1
_chemical_formula_structural   Pr16Cd3Co2HgPt2
_chemical_formula_sum   'Pr16 Cd3 Co2 Hg1 Pt2'
_cell_volume   708.91333129
_cell_formula_units_Z   1
loop_
 _symmetry_equiv_pos_site_id
 _symmetry_equiv_pos_as_xyz
  1  'x, y, z'
loop_
 _atom_site_type_symbol
 _atom_site_label
 _atom_site_symmetry_multiplicity
 _atom_site_fract_x
 _atom_site_fract_y
 _atom_site_fract_z
 _atom_site_occupancy
  Pr  Pr0  1  0.343765  0.343765  0.358358  1
  Pr  Pr1  1  0.346078  0.346078  0.950217  1
  Pr  Pr2  1  0.340803  0.957378  0.351239  1
  Pr  Pr3  1  0.957378  0.340803  0.351239  1
  Pr  Pr4  1  0.820087  0.190157  0.188384  1
  Pr  Pr5  1  0.189244  0.818270  0.800084  1
  Pr  Pr6  1  0.190157  0.820087  0.188384  1
  Pr  Pr7  1  0.818270  0.189244  0.800084  1
  Pr  Pr8  1  0.188695  0.188695  0.811218  1
  Pr  Pr9  1  0.807094  0.807094  0.190634  1
  Pr  Pr10  1  0.937445  0.562440  0.563096  1
  Pr  Pr11  1  0.560274  0.936530  0.938910  1
  Pr  Pr12  1  0.562440  0.937445  0.563096  1
  Pr  Pr13  1  0.936530  0.560274  0.938910  1
  Pr  Pr14  1  0.559254  0.559254  0.942046  1
  Pr  Pr15  1  0.935193  0.935193  0.563558  1
  Cd  Cd16  1  0.579601  0.579601  0.261702  1
  Cd  Cd17  1  0.581120  0.259542  0.579461  1
  Cd  Cd18  1  0.259542  0.581120  0.579461  1
  Co  Co19  1  0.142593  0.142593  0.141540  1
  Co  Co20  1  0.142727  0.142727  0.574105  1
  Hg  Hg21  1  0.583028  0.583028  0.582427  1
  Pt  Pt22  1  0.145203  0.573478  0.140923  1
  Pt  Pt23  1  0.573478  0.145203  0.140923  1
