# generated using pymatgen
data_Tm4Re3Tc2Os3
_symmetry_space_group_name_H-M   'P 1'
_cell_length_a   5.35191651
_cell_length_b   5.22387595
_cell_length_c   8.97308900
_cell_angle_alpha   90.00000000
_cell_angle_beta   90.00000000
_cell_angle_gamma   119.68516235
_symmetry_Int_Tables_number   1
_chemical_formula_structural   Tm4Re3Tc2Os3
_chemical_formula_sum   'Tm4 Re3 Tc2 Os3'
_cell_volume   217.94347614
_cell_formula_units_Z   1
loop_
 _symmetry_equiv_pos_site_id
 _symmetry_equiv_pos_as_xyz
  1  'x, y, z'
loop_
 _atom_site_type_symbol
 _atom_site_label
 _atom_site_symmetry_multiplicity
 _atom_site_fract_x
 _atom_site_fract_y
 _atom_site_fract_z
 _atom_site_occupancy
  Tm  Tm0  1  0.669415  0.335521  0.562466  1
  Tm  Tm1  1  0.328826  0.664100  0.435683  1
  Tm  Tm2  1  0.328826  0.664100  0.064317  1
  Tm  Tm3  1  0.669415  0.335521  0.937534  1
  Re  Re4  1  0.169443  0.339059  0.750000  1
  Re  Re5  1  0.832015  0.662615  0.250000  1
  Re  Re6  1  0.832506  0.169428  0.250000  1
  Tc  Tc7  1  0.170687  0.827613  0.750000  1
  Tc  Tc8  1  0.654034  0.824382  0.750000  1
  Os  Os9  1  0.996879  0.001088  0.500116  1
  Os  Os10  1  0.996879  0.001088  0.999884  1
  Os  Os11  1  0.351073  0.175481  0.250000  1
