# generated using pymatgen
data_YbEr4(In2Pt)2
_symmetry_space_group_name_H-M   'P 1'
_cell_length_a   3.63472300
_cell_length_b   8.09006600
_cell_length_c   18.18800900
_cell_angle_alpha   90.00000000
_cell_angle_beta   90.00000000
_cell_angle_gamma   90.00000000
_symmetry_Int_Tables_number   1
_chemical_formula_structural   YbEr4(In2Pt)2
_chemical_formula_sum   'Yb2 Er8 In8 Pt4'
_cell_volume   534.82111396
_cell_formula_units_Z   2
loop_
 _symmetry_equiv_pos_site_id
 _symmetry_equiv_pos_as_xyz
  1  'x, y, z'
loop_
 _atom_site_type_symbol
 _atom_site_label
 _atom_site_symmetry_multiplicity
 _atom_site_fract_x
 _atom_site_fract_y
 _atom_site_fract_z
 _atom_site_occupancy
  Yb  Yb0  1  0.000000  0.000000  0.000000  1
  Yb  Yb1  1  0.000000  0.500000  0.500000  1
  Er  Er2  1  0.000000  0.117676  0.413835  1
  Er  Er3  1  0.000000  0.882324  0.586165  1
  Er  Er4  1  0.000000  0.382324  0.913835  1
  Er  Er5  1  0.000000  0.617676  0.086165  1
  Er  Er6  1  0.000000  0.243561  0.220454  1
  Er  Er7  1  0.000000  0.756439  0.779546  1
  Er  Er8  1  0.000000  0.256439  0.720454  1
  Er  Er9  1  0.000000  0.743561  0.279546  1
  In  In10  1  0.500000  0.425293  0.351294  1
  In  In11  1  0.500000  0.574707  0.648706  1
  In  In12  1  0.500000  0.074707  0.851294  1
  In  In13  1  0.500000  0.925293  0.148706  1
  In  In14  1  0.500000  0.292561  0.066566  1
  In  In15  1  0.500000  0.707439  0.933434  1
  In  In16  1  0.500000  0.207439  0.566566  1
  In  In17  1  0.500000  0.792561  0.433434  1
  Pt  Pt18  1  0.500000  0.024114  0.303339  1
  Pt  Pt19  1  0.500000  0.975886  0.696661  1
  Pt  Pt20  1  0.500000  0.475886  0.803339  1
  Pt  Pt21  1  0.500000  0.524114  0.196661  1
