# generated using pymatgen
data_Ho3Er17Zn3Cd3Co2
_symmetry_space_group_name_H-M   'P 1'
_cell_length_a   9.41653701
_cell_length_b   9.41692562
_cell_length_c   9.52794100
_cell_angle_alpha   90.00000000
_cell_angle_beta   90.00000000
_cell_angle_gamma   120.00013137
_symmetry_Int_Tables_number   1
_chemical_formula_structural   Ho3Er17Zn3Cd3Co2
_chemical_formula_sum   'Ho3 Er17 Zn3 Cd3 Co2'
_cell_volume   731.69396611
_cell_formula_units_Z   1
loop_
 _symmetry_equiv_pos_site_id
 _symmetry_equiv_pos_as_xyz
  1  'x, y, z'
loop_
 _atom_site_type_symbol
 _atom_site_label
 _atom_site_symmetry_multiplicity
 _atom_site_fract_x
 _atom_site_fract_y
 _atom_site_fract_z
 _atom_site_occupancy
  Ho  Ho0  1  0.458622  0.541404  0.750000  1
  Ho  Ho1  1  0.458614  0.917227  0.750000  1
  Ho  Ho2  1  0.082733  0.541379  0.750000  1
  Er  Er3  1  0.999996  0.000006  0.474508  1
  Er  Er4  1  0.999996  0.000006  0.025492  1
  Er  Er5  1  0.210173  0.789835  0.435555  1
  Er  Er6  1  0.210183  0.420359  0.435571  1
  Er  Er7  1  0.579684  0.789850  0.435548  1
  Er  Er8  1  0.789191  0.210799  0.559527  1
  Er  Er9  1  0.789179  0.578381  0.559523  1
  Er  Er10  1  0.421574  0.210787  0.559548  1
  Er  Er11  1  0.789191  0.210799  0.940473  1
  Er  Er12  1  0.789179  0.578381  0.940477  1
  Er  Er13  1  0.421574  0.210787  0.940452  1
  Er  Er14  1  0.210173  0.789835  0.064445  1
  Er  Er15  1  0.210183  0.420359  0.064429  1
  Er  Er16  1  0.579684  0.789850  0.064452  1
  Er  Er17  1  0.542019  0.457996  0.250000  1
  Er  Er18  1  0.542024  0.084068  0.250000  1
  Er  Er19  1  0.915982  0.457988  0.250000  1
  Zn  Zn20  1  0.878053  0.121956  0.250000  1
  Zn  Zn21  1  0.878037  0.756108  0.250000  1
  Zn  Zn22  1  0.243907  0.121976  0.250000  1
  Cd  Cd23  1  0.110188  0.889794  0.750000  1
  Cd  Cd24  1  0.110285  0.220407  0.750000  1
  Cd  Cd25  1  0.779578  0.889704  0.750000  1
  Co  Co26  1  0.333306  0.666611  0.250000  1
  Co  Co27  1  0.666690  0.333351  0.750000  1
