# generated using pymatgen
data_YbAg3Ir3RuO14
_symmetry_space_group_name_H-M   'P 1'
_cell_length_a   7.26165572
_cell_length_b   7.16195938
_cell_length_c   7.16195900
_cell_angle_alpha   60.00000638
_cell_angle_beta   60.45313302
_cell_angle_gamma   60.45313113
_symmetry_Int_Tables_number   1
_chemical_formula_structural   YbAg3Ir3RuO14
_chemical_formula_sum   'Yb1 Ag3 Ir3 Ru1 O14'
_cell_volume   265.17047972
_cell_formula_units_Z   1
loop_
 _symmetry_equiv_pos_site_id
 _symmetry_equiv_pos_as_xyz
  1  'x, y, z'
loop_
 _atom_site_type_symbol
 _atom_site_label
 _atom_site_symmetry_multiplicity
 _atom_site_fract_x
 _atom_site_fract_y
 _atom_site_fract_z
 _atom_site_occupancy
  Yb  Yb0  1  0.625000  0.125000  0.125000  1
  Ag  Ag1  1  0.125000  0.125000  0.125000  1
  Ag  Ag2  1  0.125000  0.125000  0.625000  1
  Ag  Ag3  1  0.125000  0.625000  0.125000  1
  Ir  Ir4  1  0.625000  0.625000  0.625000  1
  Ir  Ir5  1  0.625000  0.625000  0.125000  1
  Ir  Ir6  1  0.625000  0.125000  0.625000  1
  Ru  Ru7  1  0.125000  0.625000  0.625000  1
  O  O8  1  0.023187  0.992271  0.992271  1
  O  O9  1  0.226813  0.257729  0.257729  1
  O  O10  1  0.308637  0.305603  0.692880  1
  O  O11  1  0.548635  0.544181  0.953592  1
  O  O12  1  0.701365  0.296408  0.705819  1
  O  O13  1  0.701365  0.296408  0.296408  1
  O  O14  1  0.308637  0.692880  0.692880  1
  O  O15  1  0.308637  0.692880  0.305603  1
  O  O16  1  0.701365  0.705819  0.296408  1
  O  O17  1  0.941363  0.557120  0.557120  1
  O  O18  1  0.548635  0.953592  0.953592  1
  O  O19  1  0.941363  0.944397  0.557120  1
  O  O20  1  0.941363  0.557120  0.944397  1
  O  O21  1  0.548635  0.953592  0.544181  1
