# generated using pymatgen
data_CaSb12(RuRh)2
_symmetry_space_group_name_H-M   'P 1'
_cell_length_a   8.15434360
_cell_length_b   8.13471675
_cell_length_c   8.15434358
_cell_angle_alpha   109.47365611
_cell_angle_beta   109.57032925
_cell_angle_gamma   109.46723285
_symmetry_Int_Tables_number   1
_chemical_formula_structural   CaSb12(RuRh)2
_chemical_formula_sum   'Ca1 Sb12 Ru2 Rh2'
_cell_volume   415.88594486
_cell_formula_units_Z   1
loop_
 _symmetry_equiv_pos_site_id
 _symmetry_equiv_pos_as_xyz
  1  'x, y, z'
loop_
 _atom_site_type_symbol
 _atom_site_label
 _atom_site_symmetry_multiplicity
 _atom_site_fract_x
 _atom_site_fract_y
 _atom_site_fract_z
 _atom_site_occupancy
  Ca  Ca0  1  0.000000  0.000000  0.000000  1
  Sb  Sb1  1  0.158170  0.495643  0.337473  1
  Sb  Sb2  1  0.502965  0.658418  0.841815  1
  Sb  Sb3  1  0.339135  0.842294  0.183451  1
  Sb  Sb4  1  0.816602  0.658418  0.155454  1
  Sb  Sb5  1  0.658844  0.842294  0.503158  1
  Sb  Sb6  1  0.183398  0.341582  0.844546  1
  Sb  Sb7  1  0.660865  0.157706  0.816549  1
  Sb  Sb8  1  0.341156  0.157706  0.496842  1
  Sb  Sb9  1  0.497035  0.341582  0.158185  1
  Sb  Sb10  1  0.841830  0.504357  0.662527  1
  Sb  Sb11  1  0.844699  0.187097  0.342397  1
  Sb  Sb12  1  0.155301  0.812903  0.657603  1
  Ru  Ru13  1  0.500000  0.500000  0.500000  1
  Ru  Ru14  1  0.000000  0.500000  0.000000  1
  Rh  Rh15  1  0.500000  0.000000  0.000000  1
  Rh  Rh16  1  0.000000  0.000000  0.500000  1
