# generated using pymatgen
data_Yb2PrAl3Ge2Pt
_symmetry_space_group_name_H-M   'P 1'
_cell_length_a   7.01839300
_cell_length_b   7.06953239
_cell_length_c   4.32949000
_cell_angle_alpha   90.00000000
_cell_angle_beta   90.00000000
_cell_angle_gamma   119.76100052
_symmetry_Int_Tables_number   1
_chemical_formula_structural   Yb2PrAl3Ge2Pt
_chemical_formula_sum   'Yb2 Pr1 Al3 Ge2 Pt1'
_cell_volume   186.48187760
_cell_formula_units_Z   1
loop_
 _symmetry_equiv_pos_site_id
 _symmetry_equiv_pos_as_xyz
  1  'x, y, z'
loop_
 _atom_site_type_symbol
 _atom_site_label
 _atom_site_symmetry_multiplicity
 _atom_site_fract_x
 _atom_site_fract_y
 _atom_site_fract_z
 _atom_site_occupancy
  Yb  Yb0  1  0.000412  0.421094  0.000000  1
  Yb  Yb1  1  0.579317  0.578906  0.000000  1
  Pr  Pr2  1  0.424548  0.000000  0.000000  1
  Al  Al3  1  0.772238  0.000000  0.500000  1
  Al  Al4  1  0.230344  0.231117  0.500000  1
  Al  Al5  1  0.999227  0.768883  0.500000  1
  Ge  Ge6  1  0.669452  0.339887  0.500000  1
  Ge  Ge7  1  0.329567  0.660113  0.500000  1
  Pt  Pt8  1  0.994893  0.000000  0.000000  1
