# generated using pymatgen
data_CaSmHo6(B6Ru)4
_symmetry_space_group_name_H-M   'P 1'
_cell_length_a   3.66104000
_cell_length_b   9.14188238
_cell_length_c   11.53553202
_cell_angle_alpha   89.90171557
_cell_angle_beta   90.00000000
_cell_angle_gamma   90.00000000
_symmetry_Int_Tables_number   1
_chemical_formula_structural   CaSmHo6(B6Ru)4
_chemical_formula_sum   'Ca1 Sm1 Ho6 B24 Ru4'
_cell_volume   386.07981230
_cell_formula_units_Z   1
loop_
 _symmetry_equiv_pos_site_id
 _symmetry_equiv_pos_as_xyz
  1  'x, y, z'
loop_
 _atom_site_type_symbol
 _atom_site_label
 _atom_site_symmetry_multiplicity
 _atom_site_fract_x
 _atom_site_fract_y
 _atom_site_fract_z
 _atom_site_occupancy
  Ca  Ca0  1  0.000000  0.322363  0.413748  1
  Sm  Sm1  1  0.000000  0.675834  0.585188  1
  Ho  Ho2  1  0.000000  0.822581  0.086077  1
  Ho  Ho3  1  0.000000  0.177968  0.915031  1
  Ho  Ho4  1  0.000000  0.944162  0.370261  1
  Ho  Ho5  1  0.000000  0.058308  0.628759  1
  Ho  Ho6  1  0.000000  0.442691  0.129244  1
  Ho  Ho7  1  0.000000  0.556242  0.872651  1
  B  B8  1  0.500000  0.554329  0.431101  1
  B  B9  1  0.500000  0.444639  0.568432  1
  B  B10  1  0.500000  0.053337  0.066331  1
  B  B11  1  0.500000  0.946202  0.933007  1
  B  B12  1  0.500000  0.748837  0.417193  1
  B  B13  1  0.500000  0.251596  0.581937  1
  B  B14  1  0.500000  0.247439  0.080251  1
  B  B15  1  0.500000  0.752086  0.920104  1
  B  B16  1  0.500000  0.791544  0.264785  1
  B  B17  1  0.500000  0.209350  0.735119  1
  B  B18  1  0.500000  0.289420  0.232849  1
  B  B19  1  0.500000  0.710455  0.767675  1
  B  B20  1  0.500000  0.631857  0.184973  1
  B  B21  1  0.500000  0.368112  0.816147  1
  B  B22  1  0.500000  0.130590  0.313350  1
  B  B23  1  0.500000  0.870007  0.686150  1
  B  B24  1  0.500000  0.983143  0.211159  1
  B  B25  1  0.500000  0.017230  0.788044  1
  B  B26  1  0.500000  0.484014  0.286791  1
  B  B27  1  0.500000  0.514951  0.713885  1
  B  B28  1  0.500000  0.608023  0.030022  1
  B  B29  1  0.500000  0.391986  0.970785  1
  B  B30  1  0.500000  0.102994  0.471396  1
  B  B31  1  0.500000  0.897561  0.528235  1
  Ru  Ru32  1  0.000000  0.639939  0.318954  1
  Ru  Ru33  1  0.000000  0.360664  0.681684  1
  Ru  Ru34  1  0.000000  0.136333  0.176915  1
  Ru  Ru35  1  0.000000  0.863212  0.821768  1
