# generated using pymatgen
data_Nd2CoRuCl2
_symmetry_space_group_name_H-M   'P 1'
_cell_length_a   4.05301800
_cell_length_b   4.05301889
_cell_length_c   11.61499000
_cell_angle_alpha   90.00000000
_cell_angle_beta   90.00000000
_cell_angle_gamma   120.00000906
_symmetry_Int_Tables_number   1
_chemical_formula_structural   Nd2CoRuCl2
_chemical_formula_sum   'Nd2 Co1 Ru1 Cl2'
_cell_volume   165.23673031
_cell_formula_units_Z   1
loop_
 _symmetry_equiv_pos_site_id
 _symmetry_equiv_pos_as_xyz
  1  'x, y, z'
loop_
 _atom_site_type_symbol
 _atom_site_label
 _atom_site_symmetry_multiplicity
 _atom_site_fract_x
 _atom_site_fract_y
 _atom_site_fract_z
 _atom_site_occupancy
  Nd  Nd0  1  0.000000  0.000000  0.174664  1
  Nd  Nd1  1  0.000000  0.000000  0.826297  1
  Co  Co2  1  0.333334  0.666667  0.991320  1
  Ru  Ru3  1  0.666667  0.333334  0.007533  1
  Cl  Cl4  1  0.333334  0.666667  0.324593  1
  Cl  Cl5  1  0.666667  0.333334  0.675592  1
