# generated using pymatgen
data_TiAl6V5Fe12
_symmetry_space_group_name_H-M   'P 1'
_cell_length_a   4.04716600
_cell_length_b   5.72319400
_cell_length_c   12.13948000
_cell_angle_alpha   90.00000000
_cell_angle_beta   89.99963661
_cell_angle_gamma   90.00000000
_symmetry_Int_Tables_number   1
_chemical_formula_structural   TiAl6V5Fe12
_chemical_formula_sum   'Ti1 Al6 V5 Fe12'
_cell_volume   281.18332967
_cell_formula_units_Z   1
loop_
 _symmetry_equiv_pos_site_id
 _symmetry_equiv_pos_as_xyz
  1  'x, y, z'
loop_
 _atom_site_type_symbol
 _atom_site_label
 _atom_site_symmetry_multiplicity
 _atom_site_fract_x
 _atom_site_fract_y
 _atom_site_fract_z
 _atom_site_occupancy
  Ti  Ti0  1  0.000000  0.000000  0.000000  1
  Al  Al1  1  0.000000  0.500000  0.000000  1
  Al  Al2  1  0.500086  0.000000  0.166926  1
  Al  Al3  1  0.000097  0.500000  0.334536  1
  Al  Al4  1  0.500001  0.000000  0.500000  1
  Al  Al5  1  0.999903  0.500000  0.665464  1
  Al  Al6  1  0.499914  0.000000  0.833073  1
  V  V7  1  0.500071  0.500000  0.166159  1
  V  V8  1  0.000068  0.000000  0.332933  1
  V  V9  1  0.500001  0.500000  0.500000  1
  V  V10  1  0.999932  0.000000  0.667067  1
  V  V11  1  0.499929  0.500000  0.833841  1
  Fe  Fe12  1  0.500001  0.256841  0.000000  1
  Fe  Fe13  1  0.500001  0.743158  0.000000  1
  Fe  Fe14  1  0.000081  0.252996  0.169891  1
  Fe  Fe15  1  0.000081  0.747004  0.169891  1
  Fe  Fe16  1  0.500083  0.249836  0.334299  1
  Fe  Fe17  1  0.500083  0.750164  0.334299  1
  Fe  Fe18  1  0.000000  0.249830  0.500000  1
  Fe  Fe19  1  0.000000  0.750170  0.500000  1
  Fe  Fe20  1  0.499917  0.249836  0.665701  1
  Fe  Fe21  1  0.499917  0.750164  0.665701  1
  Fe  Fe22  1  0.999919  0.252996  0.830109  1
  Fe  Fe23  1  0.999919  0.747004  0.830109  1
