# generated using pymatgen
data_PrEuTh(AgSn)4
_symmetry_space_group_name_H-M   'P 1'
_cell_length_a   9.01614967
_cell_length_b   9.01614947
_cell_length_c   9.01615086
_cell_angle_alpha   149.63929095
_cell_angle_beta   130.82804358
_cell_angle_gamma   58.89209167
_symmetry_Int_Tables_number   1
_chemical_formula_structural   PrEuTh(AgSn)4
_chemical_formula_sum   'Pr1 Eu1 Th1 Ag4 Sn4'
_cell_volume   278.14531222
_cell_formula_units_Z   1
loop_
 _symmetry_equiv_pos_site_id
 _symmetry_equiv_pos_as_xyz
  1  'x, y, z'
loop_
 _atom_site_type_symbol
 _atom_site_label
 _atom_site_symmetry_multiplicity
 _atom_site_fract_x
 _atom_site_fract_y
 _atom_site_fract_z
 _atom_site_occupancy
  Pr  Pr0  1  0.129685  0.129685  0.000000  1
  Eu  Eu1  1  0.500060  0.000060  0.500000  1
  Th  Th2  1  0.869843  0.869843  0.000000  1
  Ag  Ag3  1  0.475075  0.670064  0.805012  1
  Ag  Ag4  1  0.865052  0.670064  0.194988  1
  Ag  Ag5  1  0.134902  0.330266  0.804635  1
  Ag  Ag6  1  0.525632  0.330266  0.195365  1
  Sn  Sn7  1  0.284385  0.784385  0.500000  1
  Sn  Sn8  1  0.716842  0.216842  0.500000  1
  Sn  Sn9  1  0.808597  0.499263  0.309334  1
  Sn  Sn10  1  0.189929  0.499263  0.690666  1
