# generated using pymatgen
data_Tb5Pr3Sc12Si15Ru
_symmetry_space_group_name_H-M   'P 1'
_cell_length_a   7.15335729
_cell_length_b   7.50856494
_cell_length_c   14.07047902
_cell_angle_alpha   90.00835256
_cell_angle_beta   90.10560765
_cell_angle_gamma   90.21365351
_symmetry_Int_Tables_number   1
_chemical_formula_structural   Tb5Pr3Sc12Si15Ru
_chemical_formula_sum   'Tb5 Pr3 Sc12 Si15 Ru1'
_cell_volume   755.73925123
_cell_formula_units_Z   1
loop_
 _symmetry_equiv_pos_site_id
 _symmetry_equiv_pos_as_xyz
  1  'x, y, z'
loop_
 _atom_site_type_symbol
 _atom_site_label
 _atom_site_symmetry_multiplicity
 _atom_site_fract_x
 _atom_site_fract_y
 _atom_site_fract_z
 _atom_site_occupancy
  Tb  Tb0  1  0.990612  0.825776  0.595428  1
  Tb  Tb1  1  0.510275  0.324099  0.098160  1
  Tb  Tb2  1  0.011816  0.179285  0.403510  1
  Tb  Tb3  1  0.511689  0.323338  0.404629  1
  Tb  Tb4  1  0.488888  0.676493  0.595503  1
  Pr  Pr5  1  0.010127  0.176597  0.097080  1
  Pr  Pr6  1  0.990831  0.829678  0.903841  1
  Pr  Pr7  1  0.490161  0.672299  0.904859  1
  Sc  Sc8  1  0.156542  0.498052  0.748709  1
  Sc  Sc9  1  0.838975  0.496331  0.250646  1
  Sc  Sc10  1  0.339240  0.004601  0.250937  1
  Sc  Sc11  1  0.669029  0.000996  0.748614  1
  Sc  Sc12  1  0.314977  0.171050  0.626971  1
  Sc  Sc13  1  0.671112  0.826009  0.374223  1
  Sc  Sc14  1  0.172410  0.676990  0.374580  1
  Sc  Sc15  1  0.672062  0.826781  0.127819  1
  Sc  Sc16  1  0.838400  0.318045  0.626909  1
  Sc  Sc17  1  0.318244  0.171895  0.870453  1
  Sc  Sc18  1  0.836263  0.320886  0.871097  1
  Sc  Sc19  1  0.172033  0.676414  0.127274  1
  Si  Si20  1  0.968786  0.880172  0.252007  1
  Si  Si21  1  0.469924  0.614995  0.250970  1
  Si  Si22  1  0.529536  0.383972  0.747091  1
  Si  Si23  1  0.287539  0.871869  0.745855  1
  Si  Si24  1  0.710013  0.127915  0.252729  1
  Si  Si25  1  0.216261  0.374712  0.252402  1
  Si  Si26  1  0.781012  0.622649  0.746003  1
  Si  Si27  1  0.158647  0.468631  0.537469  1
  Si  Si28  1  0.845794  0.535926  0.461093  1
  Si  Si29  1  0.345461  0.965782  0.459847  1
  Si  Si30  1  0.844776  0.536653  0.039843  1
  Si  Si31  1  0.654750  0.034135  0.538660  1
  Si  Si32  1  0.155572  0.465565  0.963182  1
  Si  Si33  1  0.650157  0.040949  0.962329  1
  Si  Si34  1  0.350438  0.967386  0.041235  1
  Ru  Ru35  1  0.027649  0.113073  0.748042  1
