# generated using pymatgen
data_U2Co12SiGeP5
_symmetry_space_group_name_H-M   'P 1'
_cell_length_a   9.12835099
_cell_length_b   9.11240262
_cell_length_c   3.58917301
_cell_angle_alpha   89.99204890
_cell_angle_beta   90.00501630
_cell_angle_gamma   120.32743410
_symmetry_Int_Tables_number   1
_chemical_formula_structural   U2Co12SiGeP5
_chemical_formula_sum   'U2 Co12 Si1 Ge1 P5'
_cell_volume   257.69609975
_cell_formula_units_Z   1
loop_
 _symmetry_equiv_pos_site_id
 _symmetry_equiv_pos_as_xyz
  1  'x, y, z'
loop_
 _atom_site_type_symbol
 _atom_site_label
 _atom_site_symmetry_multiplicity
 _atom_site_fract_x
 _atom_site_fract_y
 _atom_site_fract_z
 _atom_site_occupancy
  U  U0  1  0.001659  0.000004  0.000021  1
  U  U1  1  0.335211  0.667003  0.499987  1
  Co  Co2  1  0.111529  0.396085  0.000117  1
  Co  Co3  1  0.596547  0.711321  0.999932  1
  Co  Co4  1  0.293562  0.893027  0.999975  1
  Co  Co5  1  0.048974  0.777456  0.500046  1
  Co  Co6  1  0.227364  0.273910  0.499991  1
  Co  Co7  1  0.723822  0.950014  0.499994  1
  Co  Co8  1  0.819514  0.623462  0.999909  1
  Co  Co9  1  0.380752  0.206162  0.999935  1
  Co  Co10  1  0.796250  0.172771  0.000126  1
  Co  Co11  1  0.910751  0.441473  0.499986  1
  Co  Co12  1  0.552157  0.469787  0.499878  1
  Co  Co13  1  0.532537  0.084245  0.500110  1
  Si  Si14  1  0.063175  0.620375  0.000014  1
  Ge  Ge15  1  0.669991  0.334615  0.999999  1
  P  P16  1  0.773006  0.734595  0.499953  1
  P  P17  1  0.269081  0.040910  0.499935  1
  P  P18  1  0.961149  0.225947  0.500104  1
  P  P19  1  0.376127  0.442737  0.999962  1
  P  P20  1  0.556846  0.934097  0.000024  1
