# generated using pymatgen
data_Ba3RhI2
_symmetry_space_group_name_H-M   'P 1'
_cell_length_a   15.92489687
_cell_length_b   15.18119005
_cell_length_c   8.64654760
_cell_angle_alpha   78.65831867
_cell_angle_beta   69.17698046
_cell_angle_gamma   32.16470454
_symmetry_Int_Tables_number   1
_chemical_formula_structural   Ba3RhI2
_chemical_formula_sum   'Ba12 Rh4 I8'
_cell_volume   1017.04629681
_cell_formula_units_Z   4
loop_
 _symmetry_equiv_pos_site_id
 _symmetry_equiv_pos_as_xyz
  1  'x, y, z'
loop_
 _atom_site_type_symbol
 _atom_site_label
 _atom_site_symmetry_multiplicity
 _atom_site_fract_x
 _atom_site_fract_y
 _atom_site_fract_z
 _atom_site_occupancy
  Ba  Ba0  1  0.050953  0.449047  0.449047  1
  Ba  Ba1  1  0.800953  0.199047  0.199047  1
  Ba  Ba2  1  0.092726  0.592944  0.951157  1
  Ba  Ba3  1  0.886826  0.298843  0.657056  1
  Ba  Ba4  1  0.592944  0.092726  0.363174  1
  Ba  Ba5  1  0.157274  0.657056  0.298843  1
  Ba  Ba6  1  0.298843  0.886826  0.157274  1
  Ba  Ba7  1  0.363174  0.951157  0.592944  1
  Ba  Ba8  1  0.199047  0.800953  0.800953  1
  Ba  Ba9  1  0.449047  0.050953  0.050953  1
  Ba  Ba10  1  0.951157  0.363174  0.092726  1
  Ba  Ba11  1  0.657056  0.157274  0.886826  1
  Rh  Rh12  1  0.334062  0.334062  0.165938  1
  Rh  Rh13  1  0.165938  0.165938  0.334062  1
  Rh  Rh14  1  0.084062  0.084062  0.915938  1
  Rh  Rh15  1  0.915938  0.915938  0.084062  1
  I  I16  1  0.577197  0.577197  0.422803  1
  I  I17  1  0.672803  0.672803  0.827197  1
  I  I18  1  0.255293  0.255293  0.744707  1
  I  I19  1  0.422803  0.422803  0.577197  1
  I  I20  1  0.994707  0.994707  0.505293  1
  I  I21  1  0.744707  0.744707  0.255293  1
  I  I22  1  0.827197  0.827197  0.672803  1
  I  I23  1  0.505293  0.505293  0.994707  1
