# generated using pymatgen
data_Nd6HoLuAu4
_symmetry_space_group_name_H-M   'P 1'
_cell_length_a   5.01989300
_cell_length_b   7.31803095
_cell_length_c   9.19867501
_cell_angle_alpha   90.19237031
_cell_angle_beta   90.00000000
_cell_angle_gamma   90.00000000
_symmetry_Int_Tables_number   1
_chemical_formula_structural   Nd6HoLuAu4
_chemical_formula_sum   'Nd6 Ho1 Lu1 Au4'
_cell_volume   337.91815865
_cell_formula_units_Z   1
loop_
 _symmetry_equiv_pos_site_id
 _symmetry_equiv_pos_as_xyz
  1  'x, y, z'
loop_
 _atom_site_type_symbol
 _atom_site_label
 _atom_site_symmetry_multiplicity
 _atom_site_fract_x
 _atom_site_fract_y
 _atom_site_fract_z
 _atom_site_occupancy
  Nd  Nd0  1  0.250000  0.487930  0.175513  1
  Nd  Nd1  1  0.750000  0.510223  0.824679  1
  Nd  Nd2  1  0.250000  0.991456  0.322927  1
  Nd  Nd3  1  0.750000  0.009236  0.677235  1
  Nd  Nd4  1  0.750000  0.651456  0.412577  1
  Nd  Nd5  1  0.250000  0.348583  0.587152  1
  Ho  Ho6  1  0.250000  0.851121  0.922343  1
  Lu  Lu7  1  0.750000  0.148733  0.077904  1
  Au  Au8  1  0.250000  0.243977  0.911154  1
  Au  Au9  1  0.750000  0.757600  0.090053  1
  Au  Au10  1  0.250000  0.758175  0.608119  1
  Au  Au11  1  0.750000  0.241509  0.390344  1
