# generated using pymatgen
data_Nd8Zn4Si11Hg
_symmetry_space_group_name_H-M   'P 1'
_cell_length_a   8.30739986
_cell_length_b   8.30739996
_cell_length_c   8.48856300
_cell_angle_alpha   90.00310127
_cell_angle_beta   89.99689724
_cell_angle_gamma   119.92346864
_symmetry_Int_Tables_number   1
_chemical_formula_structural   Nd8Zn4Si11Hg
_chemical_formula_sum   'Nd8 Zn4 Si11 Hg1'
_cell_volume   507.72604889
_cell_formula_units_Z   1
loop_
 _symmetry_equiv_pos_site_id
 _symmetry_equiv_pos_as_xyz
  1  'x, y, z'
loop_
 _atom_site_type_symbol
 _atom_site_label
 _atom_site_symmetry_multiplicity
 _atom_site_fract_x
 _atom_site_fract_y
 _atom_site_fract_z
 _atom_site_occupancy
  Nd  Nd0  1  0.003285  0.996715  0.745750  1
  Nd  Nd1  1  0.003165  0.996836  0.254141  1
  Nd  Nd2  1  0.498823  0.501177  0.749081  1
  Nd  Nd3  1  0.493441  0.996549  0.747295  1
  Nd  Nd4  1  0.003451  0.506559  0.747295  1
  Nd  Nd5  1  0.500183  0.499816  0.250897  1
  Nd  Nd6  1  0.000991  0.505347  0.252744  1
  Nd  Nd7  1  0.494653  0.999008  0.252744  1
  Zn  Zn8  1  0.660143  0.339857  0.996638  1
  Zn  Zn9  1  0.666694  0.333306  0.503174  1
  Zn  Zn10  1  0.333910  0.666091  0.497093  1
  Zn  Zn11  1  0.333207  0.666793  0.003022  1
  Si  Si12  1  0.833512  0.667376  0.999906  1
  Si  Si13  1  0.332624  0.166488  0.999906  1
  Si  Si14  1  0.834014  0.165986  0.500197  1
  Si  Si15  1  0.833448  0.667487  0.500184  1
  Si  Si16  1  0.332513  0.166552  0.500184  1
  Si  Si17  1  0.166434  0.833566  0.499711  1
  Si  Si18  1  0.667338  0.833201  0.499797  1
  Si  Si19  1  0.166799  0.332662  0.499797  1
  Si  Si20  1  0.166078  0.833922  0.000177  1
  Si  Si21  1  0.663064  0.821740  0.000316  1
  Si  Si22  1  0.178260  0.336936  0.000316  1
  Hg  Hg23  1  0.833972  0.166028  0.999637  1
