# generated using pymatgen
data_Dy3HoSb3As3Rh7
_symmetry_space_group_name_H-M   'P 1'
_cell_length_a   7.50927982
_cell_length_b   7.44248798
_cell_length_c   7.44248800
_cell_angle_alpha   109.28870805
_cell_angle_beta   109.65311013
_cell_angle_gamma   109.65312145
_symmetry_Int_Tables_number   1
_chemical_formula_structural   Dy3HoSb3As3Rh7
_chemical_formula_sum   'Dy3 Ho1 Sb3 As3 Rh7'
_cell_volume   319.47205233
_cell_formula_units_Z   1
loop_
 _symmetry_equiv_pos_site_id
 _symmetry_equiv_pos_as_xyz
  1  'x, y, z'
loop_
 _atom_site_type_symbol
 _atom_site_label
 _atom_site_symmetry_multiplicity
 _atom_site_fract_x
 _atom_site_fract_y
 _atom_site_fract_z
 _atom_site_occupancy
  Dy  Dy0  1  0.988011  0.479240  0.000000  1
  Dy  Dy1  1  0.988011  0.000000  0.479240  1
  Dy  Dy2  1  0.508771  0.520760  0.520760  1
  Ho  Ho3  1  0.545806  0.000000  0.000000  1
  Sb  Sb4  1  0.011190  0.699224  0.699224  1
  Sb  Sb5  1  0.311965  0.000000  0.300776  1
  Sb  Sb6  1  0.311965  0.300776  0.000000  1
  As  As7  1  0.008602  0.334611  0.334611  1
  As  As8  1  0.673991  0.000000  0.665389  1
  As  As9  1  0.673991  0.665389  0.000000  1
  Rh  Rh10  1  0.964520  0.000000  0.000000  1
  Rh  Rh11  1  0.500549  0.748181  0.246880  1
  Rh  Rh12  1  0.752368  0.498699  0.251819  1
  Rh  Rh13  1  0.253669  0.753120  0.501301  1
  Rh  Rh14  1  0.253669  0.501301  0.753120  1
  Rh  Rh15  1  0.500549  0.246880  0.748181  1
  Rh  Rh16  1  0.752368  0.251819  0.498699  1
