# generated using pymatgen
data_Dy3Mg2ZnSi2Au
_symmetry_space_group_name_H-M   'P 1'
_cell_length_a   7.06567900
_cell_length_b   7.09822896
_cell_length_c   4.33357200
_cell_angle_alpha   90.00000000
_cell_angle_beta   90.00000000
_cell_angle_gamma   119.84842830
_symmetry_Int_Tables_number   1
_chemical_formula_structural   Dy3Mg2ZnSi2Au
_chemical_formula_sum   'Dy3 Mg2 Zn1 Si2 Au1'
_cell_volume   188.51323458
_cell_formula_units_Z   1
loop_
 _symmetry_equiv_pos_site_id
 _symmetry_equiv_pos_as_xyz
  1  'x, y, z'
loop_
 _atom_site_type_symbol
 _atom_site_label
 _atom_site_symmetry_multiplicity
 _atom_site_fract_x
 _atom_site_fract_y
 _atom_site_fract_z
 _atom_site_occupancy
  Dy  Dy0  1  0.573156  0.000000  0.000000  1
  Dy  Dy1  1  0.001993  0.583717  0.000000  1
  Dy  Dy2  1  0.418277  0.416283  0.000000  1
  Mg  Mg3  1  0.002812  0.242902  0.500000  1
  Mg  Mg4  1  0.759910  0.757098  0.500000  1
  Zn  Zn5  1  0.253405  0.000000  0.500000  1
  Si  Si6  1  0.331052  0.671833  0.500000  1
  Si  Si7  1  0.659221  0.328167  0.500000  1
  Au  Au8  1  0.000174  0.000000  0.000000  1
