# generated using pymatgen
data_PrAs4(RuRh2)2
_symmetry_space_group_name_H-M   'P 1'
_cell_length_a   7.27129100
_cell_length_b   7.21273927
_cell_length_c   3.91771000
_cell_angle_alpha   90.00000000
_cell_angle_beta   90.00000000
_cell_angle_gamma   120.26890525
_symmetry_Int_Tables_number   1
_chemical_formula_structural   PrAs4(RuRh2)2
_chemical_formula_sum   'Pr1 As4 Ru2 Rh4'
_cell_volume   177.45632910
_cell_formula_units_Z   1
loop_
 _symmetry_equiv_pos_site_id
 _symmetry_equiv_pos_as_xyz
  1  'x, y, z'
loop_
 _atom_site_type_symbol
 _atom_site_label
 _atom_site_symmetry_multiplicity
 _atom_site_fract_x
 _atom_site_fract_y
 _atom_site_fract_z
 _atom_site_occupancy
  Pr  Pr0  1  0.999532  0.999063  0.000000  1
  As  As1  1  0.331909  0.663819  0.000000  1
  As  As2  1  0.387752  0.198259  0.499999  1
  As  As3  1  0.810505  0.198259  0.499999  1
  As  As4  1  0.804714  0.609429  0.499999  1
  Ru  Ru5  1  0.531956  0.462949  0.000000  1
  Ru  Ru6  1  0.930991  0.462949  0.000000  1
  Rh  Rh7  1  0.532738  0.065478  0.000000  1
  Rh  Rh8  1  0.201515  0.403028  0.499999  1
  Rh  Rh9  1  0.197862  0.801718  0.499999  1
  Rh  Rh10  1  0.603855  0.801718  0.499999  1
