# generated using pymatgen
data_Na2Cr2HgO8
_symmetry_space_group_name_H-M   'P 1'
_cell_length_a   5.66747645
_cell_length_b   6.16679561
_cell_length_c   7.24091670
_cell_angle_alpha   74.66983266
_cell_angle_beta   87.49856896
_cell_angle_gamma   62.79738801
_symmetry_Int_Tables_number   1
_chemical_formula_structural   Na2Cr2HgO8
_chemical_formula_sum   'Na2 Cr2 Hg1 O8'
_cell_volume   216.19040205
_cell_formula_units_Z   1
loop_
 _symmetry_equiv_pos_site_id
 _symmetry_equiv_pos_as_xyz
  1  'x, y, z'
loop_
 _atom_site_type_symbol
 _atom_site_label
 _atom_site_symmetry_multiplicity
 _atom_site_fract_x
 _atom_site_fract_y
 _atom_site_fract_z
 _atom_site_occupancy
  Na  Na0  1  0.212903  0.725929  0.189837  1
  Na  Na1  1  0.786520  0.274378  0.810370  1
  Cr  Cr2  1  0.882300  0.346474  0.284440  1
  Cr  Cr3  1  0.117806  0.653450  0.715460  1
  Hg  Hg4  1  0.499967  0.000089  0.500151  1
  O  O5  1  0.899972  0.169801  0.143131  1
  O  O6  1  0.679156  0.643994  0.179757  1
  O  O7  1  0.195306  0.326726  0.328816  1
  O  O8  1  0.234216  0.744474  0.512597  1
  O  O9  1  0.766004  0.255496  0.487260  1
  O  O10  1  0.804782  0.673327  0.671213  1
  O  O11  1  0.320803  0.355909  0.820098  1
  O  O12  1  0.100263  0.829955  0.856867  1
