# generated using pymatgen
data_GaCl17
_symmetry_space_group_name_H-M   'P 1'
_cell_length_a   7.64607126
_cell_length_b   6.63142552
_cell_length_c   14.72842400
_cell_angle_alpha   81.54076089
_cell_angle_beta   86.17429261
_cell_angle_gamma   64.73230592
_symmetry_Int_Tables_number   1
_chemical_formula_structural   GaCl17
_chemical_formula_sum   'Ga1 Cl17'
_cell_volume   667.99067260
_cell_formula_units_Z   1
loop_
 _symmetry_equiv_pos_site_id
 _symmetry_equiv_pos_as_xyz
  1  'x, y, z'
loop_
 _atom_site_type_symbol
 _atom_site_label
 _atom_site_symmetry_multiplicity
 _atom_site_fract_x
 _atom_site_fract_y
 _atom_site_fract_z
 _atom_site_occupancy
  Ga  Ga0  1  0.960037  0.301027  0.988506  1
  Cl  Cl1  1  0.002794  0.427225  0.489409  1
  Cl  Cl2  1  0.559684  0.067844  0.679696  1
  Cl  Cl3  1  0.457233  0.977416  0.212892  1
  Cl  Cl4  1  0.619777  0.048890  0.375850  1
  Cl  Cl5  1  0.350767  0.252424  0.763900  1
  Cl  Cl6  1  0.161356  0.969717  0.967529  1
  Cl  Cl7  1  0.720705  0.138511  0.478563  1
  Cl  Cl8  1  0.046430  0.435411  0.094401  1
  Cl  Cl9  1  0.891252  0.348185  0.611142  1
  Cl  Cl10  1  0.064635  0.550233  0.864425  1
  Cl  Cl11  1  0.130555  0.492143  0.311735  1
  Cl  Cl12  1  0.662478  0.422888  0.955742  1
  Cl  Cl13  1  0.217087  0.650388  0.553221  1
  Cl  Cl14  1  0.361415  0.795128  0.609346  1
  Cl  Cl15  1  0.699858  0.749917  0.158802  1
  Cl  Cl16  1  0.829548  0.780384  0.781149  1
  Cl  Cl17  1  0.264390  0.697772  0.277435  1
