# generated using pymatgen
data_Tb3Cd3Ag2Ir
_symmetry_space_group_name_H-M   'P 1'
_cell_length_a   7.96429500
_cell_length_b   7.96429456
_cell_length_c   3.79561100
_cell_angle_alpha   90.00000000
_cell_angle_beta   90.00000000
_cell_angle_gamma   120.00000597
_symmetry_Int_Tables_number   1
_chemical_formula_structural   Tb3Cd3Ag2Ir
_chemical_formula_sum   'Tb3 Cd3 Ag2 Ir1'
_cell_volume   208.50042975
_cell_formula_units_Z   1
loop_
 _symmetry_equiv_pos_site_id
 _symmetry_equiv_pos_as_xyz
  1  'x, y, z'
loop_
 _atom_site_type_symbol
 _atom_site_label
 _atom_site_symmetry_multiplicity
 _atom_site_fract_x
 _atom_site_fract_y
 _atom_site_fract_z
 _atom_site_occupancy
  Tb  Tb0  1  0.576187  0.965241  0.000000  1
  Tb  Tb1  1  0.034759  0.610946  0.000000  1
  Tb  Tb2  1  0.389054  0.423813  0.000000  1
  Cd  Cd3  1  0.269962  0.005748  0.500000  1
  Cd  Cd4  1  0.994252  0.264214  0.500000  1
  Cd  Cd5  1  0.735786  0.730038  0.500000  1
  Ag  Ag6  1  0.666667  0.333333  0.500000  1
  Ag  Ag7  1  0.000000  0.000000  0.000000  1
  Ir  Ir8  1  0.333333  0.666667  0.500000  1
