# generated using pymatgen
data_Tm8Sc11GaSi15W
_symmetry_space_group_name_H-M   'P 1'
_cell_length_a   7.00097614
_cell_length_b   7.30385600
_cell_length_c   13.88374996
_cell_angle_alpha   89.96883034
_cell_angle_beta   89.90784188
_cell_angle_gamma   90.21244976
_symmetry_Int_Tables_number   1
_chemical_formula_structural   Tm8Sc11GaSi15W
_chemical_formula_sum   'Tm8 Sc11 Ga1 Si15 W1'
_cell_volume   709.92745224
_cell_formula_units_Z   1
loop_
 _symmetry_equiv_pos_site_id
 _symmetry_equiv_pos_as_xyz
  1  'x, y, z'
loop_
 _atom_site_type_symbol
 _atom_site_label
 _atom_site_symmetry_multiplicity
 _atom_site_fract_x
 _atom_site_fract_y
 _atom_site_fract_z
 _atom_site_occupancy
  Tm  Tm0  1  0.011691  0.177336  0.094025  1
  Tm  Tm1  1  0.992219  0.818734  0.901989  1
  Tm  Tm2  1  0.486636  0.674345  0.902238  1
  Tm  Tm3  1  0.992291  0.820149  0.599653  1
  Tm  Tm4  1  0.510467  0.323069  0.094827  1
  Tm  Tm5  1  0.009813  0.175128  0.403891  1
  Tm  Tm6  1  0.510809  0.323829  0.403642  1
  Tm  Tm7  1  0.488934  0.677134  0.599603  1
  Sc  Sc8  1  0.840043  0.496259  0.249484  1
  Sc  Sc9  1  0.340031  0.003559  0.249565  1
  Sc  Sc10  1  0.659777  0.994407  0.750710  1
  Sc  Sc11  1  0.330880  0.175538  0.628825  1
  Sc  Sc12  1  0.668485  0.823568  0.373599  1
  Sc  Sc13  1  0.171401  0.675831  0.374456  1
  Sc  Sc14  1  0.670194  0.823866  0.125498  1
  Sc  Sc15  1  0.828955  0.330231  0.628081  1
  Sc  Sc16  1  0.328760  0.178984  0.873139  1
  Sc  Sc17  1  0.828344  0.329181  0.872945  1
  Sc  Sc18  1  0.171344  0.674876  0.123493  1
  Ga  Ga19  1  0.162300  0.463806  0.544831  1
  Si  Si20  1  0.031896  0.123229  0.750931  1
  Si  Si21  1  0.969719  0.887113  0.249099  1
  Si  Si22  1  0.467995  0.612795  0.249270  1
  Si  Si23  1  0.521495  0.396744  0.750382  1
  Si  Si24  1  0.282270  0.857098  0.750776  1
  Si  Si25  1  0.715534  0.131021  0.249251  1
  Si  Si26  1  0.213757  0.368667  0.248989  1
  Si  Si27  1  0.795767  0.629726  0.750864  1
  Si  Si28  1  0.840585  0.535545  0.461332  1
  Si  Si29  1  0.343078  0.964774  0.462544  1
  Si  Si30  1  0.841345  0.534358  0.037838  1
  Si  Si31  1  0.659651  0.035264  0.538592  1
  Si  Si32  1  0.156330  0.466699  0.952749  1
  Si  Si33  1  0.659312  0.034167  0.960992  1
  Si  Si34  1  0.344151  0.965387  0.037433  1
  W  W35  1  0.153739  0.497582  0.754467  1
