# generated using pymatgen
data_KSn6Ir3Rh
_symmetry_space_group_name_H-M   'P 1'
_cell_length_a   6.98850469
_cell_length_b   7.00951578
_cell_length_c   7.00198016
_cell_angle_alpha   119.22681345
_cell_angle_beta   119.12595529
_cell_angle_gamma   91.40887803
_symmetry_Int_Tables_number   1
_chemical_formula_structural   KSn6Ir3Rh
_chemical_formula_sum   'K1 Sn6 Ir3 Rh1'
_cell_volume   245.52517063
_cell_formula_units_Z   1
loop_
 _symmetry_equiv_pos_site_id
 _symmetry_equiv_pos_as_xyz
  1  'x, y, z'
loop_
 _atom_site_type_symbol
 _atom_site_label
 _atom_site_symmetry_multiplicity
 _atom_site_fract_x
 _atom_site_fract_y
 _atom_site_fract_z
 _atom_site_occupancy
  K  K0  1  0.999788  0.000350  0.000000  1
  Sn  Sn1  1  0.471192  0.121325  0.000000  1
  Sn  Sn2  1  0.122559  0.469724  0.000000  1
  Sn  Sn3  1  0.877746  0.877993  0.347996  1
  Sn  Sn4  1  0.529751  0.529998  0.652004  1
  Sn  Sn5  1  0.999490  0.498597  0.499364  1
  Sn  Sn6  1  0.500126  0.999233  0.500636  1
  Ir  Ir7  1  0.752298  0.412869  0.000000  1
  Ir  Ir8  1  0.247077  0.247843  0.658489  1
  Ir  Ir9  1  0.588589  0.589355  0.341511  1
  Rh  Rh10  1  0.411385  0.752713  0.000000  1
