# generated using pymatgen
data_K6Li4TaTiAs6
_symmetry_space_group_name_H-M   'P 1'
_cell_length_a   10.16935051
_cell_length_b   10.16935125
_cell_length_c   15.20459300
_cell_angle_alpha   90.00000000
_cell_angle_beta   90.00000000
_cell_angle_gamma   143.00957631
_symmetry_Int_Tables_number   1
_chemical_formula_structural   K6Li4TaTiAs6
_chemical_formula_sum   'K12 Li8 Ta2 Ti2 As12'
_cell_volume   946.08018355
_cell_formula_units_Z   2
loop_
 _symmetry_equiv_pos_site_id
 _symmetry_equiv_pos_as_xyz
  1  'x, y, z'
loop_
 _atom_site_type_symbol
 _atom_site_label
 _atom_site_symmetry_multiplicity
 _atom_site_fract_x
 _atom_site_fract_y
 _atom_site_fract_z
 _atom_site_occupancy
  K  K0  1  0.604658  0.946597  0.827389  1
  K  K1  1  0.280522  0.282720  0.320914  1
  K  K2  1  0.219478  0.217280  0.820914  1
  K  K3  1  0.717280  0.719478  0.679086  1
  K  K4  1  0.446597  0.104658  0.672611  1
  K  K5  1  0.895342  0.553403  0.327389  1
  K  K6  1  0.053403  0.395342  0.172611  1
  K  K7  1  0.395287  0.055681  0.170534  1
  K  K8  1  0.555681  0.895287  0.329466  1
  K  K9  1  0.104713  0.444319  0.670534  1
  K  K10  1  0.944319  0.604713  0.829466  1
  K  K11  1  0.782720  0.780522  0.179086  1
  Li  Li12  1  0.083146  0.916854  0.000000  1
  Li  Li13  1  0.581946  0.418054  0.500000  1
  Li  Li14  1  0.918054  0.081946  0.000000  1
  Li  Li15  1  0.749108  0.250892  0.000000  1
  Li  Li16  1  0.750892  0.249108  0.500000  1
  Li  Li17  1  0.248710  0.751290  0.000000  1
  Li  Li18  1  0.251290  0.748710  0.500000  1
  Li  Li19  1  0.416854  0.583146  0.500000  1
  Ta  Ta20  1  0.084255  0.915745  0.500000  1
  Ta  Ta21  1  0.415745  0.584255  0.000000  1
  Ti  Ti22  1  0.913654  0.086346  0.500000  1
  Ti  Ti23  1  0.586346  0.413654  0.000000  1
  As  As24  1  0.067450  0.389565  0.407811  1
  As  As25  1  0.889565  0.567450  0.092189  1
  As  As26  1  0.432550  0.110435  0.907811  1
  As  As27  1  0.610435  0.932550  0.592189  1
  As  As28  1  0.933171  0.613030  0.592213  1
  As  As29  1  0.113030  0.433171  0.907787  1
  As  As30  1  0.566829  0.886970  0.092213  1
  As  As31  1  0.386970  0.066829  0.407787  1
  As  As32  1  0.225430  0.222382  0.589710  1
  As  As33  1  0.722382  0.725430  0.910290  1
  As  As34  1  0.274570  0.277618  0.089710  1
  As  As35  1  0.777618  0.774570  0.410290  1
