# generated using pymatgen
data_Rb8LaTb2SmBr20
_symmetry_space_group_name_H-M   'P 1'
_cell_length_a   8.83576247
_cell_length_b   9.32771700
_cell_length_c   14.11422332
_cell_angle_alpha   90.00000000
_cell_angle_beta   90.63639954
_cell_angle_gamma   90.00000000
_symmetry_Int_Tables_number   1
_chemical_formula_structural   Rb8LaTb2SmBr20
_chemical_formula_sum   'Rb8 La1 Tb2 Sm1 Br20'
_cell_volume   1163.18712954
_cell_formula_units_Z   1
loop_
 _symmetry_equiv_pos_site_id
 _symmetry_equiv_pos_as_xyz
  1  'x, y, z'
loop_
 _atom_site_type_symbol
 _atom_site_label
 _atom_site_symmetry_multiplicity
 _atom_site_fract_x
 _atom_site_fract_y
 _atom_site_fract_z
 _atom_site_occupancy
  Rb  Rb0  1  0.944761  0.004671  0.826301  1
  Rb  Rb1  1  0.055942  0.998113  0.173668  1
  Rb  Rb2  1  0.443220  0.997600  0.670714  1
  Rb  Rb3  1  0.055942  0.501887  0.173668  1
  Rb  Rb4  1  0.556261  0.004413  0.329149  1
  Rb  Rb5  1  0.944761  0.495329  0.826301  1
  Rb  Rb6  1  0.556261  0.495587  0.329149  1
  Rb  Rb7  1  0.443220  0.502400  0.670714  1
  La  La8  1  0.572909  0.750000  0.005187  1
  Tb  Tb9  1  0.071133  0.250000  0.496334  1
  Tb  Tb10  1  0.426998  0.250000  0.996423  1
  Sm  Sm11  1  0.928225  0.750000  0.504023  1
  Br  Br12  1  0.115931  0.750000  0.674229  1
  Br  Br13  1  0.887535  0.250000  0.328591  1
  Br  Br14  1  0.612173  0.250000  0.830336  1
  Br  Br15  1  0.378563  0.750000  0.177623  1
  Br  Br16  1  0.839854  0.046071  0.568717  1
  Br  Br17  1  0.159027  0.958039  0.431493  1
  Br  Br18  1  0.338880  0.963533  0.926417  1
  Br  Br19  1  0.159027  0.541961  0.431493  1
  Br  Br20  1  0.660808  0.050218  0.073262  1
  Br  Br21  1  0.839854  0.453929  0.568717  1
  Br  Br22  1  0.660808  0.449782  0.073262  1
  Br  Br23  1  0.338880  0.536467  0.926417  1
  Br  Br24  1  0.596369  0.750000  0.512856  1
  Br  Br25  1  0.399724  0.250000  0.485641  1
  Br  Br26  1  0.096806  0.250000  0.987638  1
  Br  Br27  1  0.914105  0.750000  0.011507  1
  Br  Br28  1  0.655164  0.750000  0.800358  1
  Br  Br29  1  0.348522  0.250000  0.193071  1
  Br  Br30  1  0.153014  0.250000  0.692762  1
  Br  Br31  1  0.845322  0.750000  0.303979  1
