# generated using pymatgen
data_Y7Ho(Lu3Si4)4
_symmetry_space_group_name_H-M   'P 1'
_cell_length_a   7.57772708
_cell_length_b   7.57698226
_cell_length_c   13.85275526
_cell_angle_alpha   90.02271120
_cell_angle_beta   90.01545759
_cell_angle_gamma   89.99630827
_symmetry_Int_Tables_number   1
_chemical_formula_structural   Y7Ho(Lu3Si4)4
_chemical_formula_sum   'Y7 Ho1 Lu12 Si16'
_cell_volume   795.37390929
_cell_formula_units_Z   1
loop_
 _symmetry_equiv_pos_site_id
 _symmetry_equiv_pos_as_xyz
  1  'x, y, z'
loop_
 _atom_site_type_symbol
 _atom_site_label
 _atom_site_symmetry_multiplicity
 _atom_site_fract_x
 _atom_site_fract_y
 _atom_site_fract_z
 _atom_site_occupancy
  Y  Y0  1  0.352542  0.003881  0.461315  1
  Y  Y1  1  0.495773  0.852913  0.711295  1
  Y  Y2  1  0.504199  0.146788  0.211226  1
  Y  Y3  1  0.852768  0.495477  0.288408  1
  Y  Y4  1  0.147180  0.504325  0.788666  1
  Y  Y5  1  0.647681  0.995941  0.961672  1
  Y  Y6  1  0.003955  0.352648  0.538622  1
  Ho  Ho7  1  0.996251  0.646951  0.038789  1
  Lu  Lu8  1  0.320849  0.321384  0.999951  1
  Lu  Lu9  1  0.179008  0.820562  0.249770  1
  Lu  Lu10  1  0.820864  0.179193  0.750132  1
  Lu  Lu11  1  0.679032  0.679017  0.499905  1
  Lu  Lu12  1  0.143564  0.995383  0.874007  1
  Lu  Lu13  1  0.505049  0.644004  0.123814  1
  Lu  Lu14  1  0.494976  0.356086  0.623842  1
  Lu  Lu15  1  0.643903  0.505354  0.876423  1
  Lu  Lu16  1  0.356074  0.494910  0.376113  1
  Lu  Lu17  1  0.856246  0.004611  0.373735  1
  Lu  Lu18  1  0.995379  0.143682  0.126159  1
  Lu  Lu19  1  0.004790  0.856159  0.626203  1
  Si  Si20  1  0.205470  0.147177  0.682926  1
  Si  Si21  1  0.352144  0.705571  0.933078  1
  Si  Si22  1  0.647154  0.294244  0.432816  1
  Si  Si23  1  0.706206  0.353463  0.067464  1
  Si  Si24  1  0.294259  0.647031  0.567167  1
  Si  Si25  1  0.795187  0.852185  0.182252  1
  Si  Si26  1  0.147138  0.205383  0.317114  1
  Si  Si27  1  0.852815  0.794631  0.817240  1
  Si  Si28  1  0.294833  0.944369  0.062595  1
  Si  Si29  1  0.555408  0.794788  0.312690  1
  Si  Si30  1  0.444725  0.205150  0.812793  1
  Si  Si31  1  0.794885  0.555369  0.687390  1
  Si  Si32  1  0.204554  0.445215  0.186937  1
  Si  Si33  1  0.704936  0.055405  0.562652  1
  Si  Si34  1  0.944921  0.295974  0.937555  1
  Si  Si35  1  0.055284  0.704772  0.437287  1
