# generated using pymatgen
data_CaYLu4Co16(P6Ru)2
_symmetry_space_group_name_H-M   'P 1'
_cell_length_a   3.68341500
_cell_length_b   10.46911400
_cell_length_c   12.18979400
_cell_angle_alpha   90.00000000
_cell_angle_beta   90.00000000
_cell_angle_gamma   90.00000000
_symmetry_Int_Tables_number   1
_chemical_formula_structural   CaYLu4Co16(P6Ru)2
_chemical_formula_sum   'Ca1 Y1 Lu4 Co16 P12 Ru2'
_cell_volume   470.06395213
_cell_formula_units_Z   1
loop_
 _symmetry_equiv_pos_site_id
 _symmetry_equiv_pos_as_xyz
  1  'x, y, z'
loop_
 _atom_site_type_symbol
 _atom_site_label
 _atom_site_symmetry_multiplicity
 _atom_site_fract_x
 _atom_site_fract_y
 _atom_site_fract_z
 _atom_site_occupancy
  Ca  Ca0  1  0.000000  0.500000  0.525692  1
  Y  Y1  1  0.500000  0.000000  0.474477  1
  Lu  Lu2  1  0.500000  0.818371  0.206284  1
  Lu  Lu3  1  0.500000  0.181629  0.206284  1
  Lu  Lu4  1  0.000000  0.681669  0.793569  1
  Lu  Lu5  1  0.000000  0.318331  0.793569  1
  Co  Co6  1  0.500000  0.500000  0.706021  1
  Co  Co7  1  0.000000  0.000000  0.294683  1
  Co  Co8  1  0.000000  0.500000  0.986118  1
  Co  Co9  1  0.500000  0.000000  0.013446  1
  Co  Co10  1  0.500000  0.332204  0.990218  1
  Co  Co11  1  0.500000  0.667796  0.990218  1
  Co  Co12  1  0.000000  0.167902  0.009906  1
  Co  Co13  1  0.000000  0.832098  0.009906  1
  Co  Co14  1  0.500000  0.296110  0.430383  1
  Co  Co15  1  0.500000  0.703890  0.430383  1
  Co  Co16  1  0.000000  0.202787  0.569461  1
  Co  Co17  1  0.000000  0.797213  0.569461  1
  Co  Co18  1  0.500000  0.877791  0.708220  1
  Co  Co19  1  0.500000  0.122209  0.708220  1
  Co  Co20  1  0.000000  0.622308  0.291622  1
  Co  Co21  1  0.000000  0.377692  0.291622  1
  P  P22  1  0.500000  0.500000  0.881814  1
  P  P23  1  0.000000  0.000000  0.118437  1
  P  P24  1  0.500000  0.500000  0.349870  1
  P  P25  1  0.000000  0.000000  0.649930  1
  P  P26  1  0.500000  0.311416  0.617786  1
  P  P27  1  0.500000  0.688584  0.617786  1
  P  P28  1  0.000000  0.188352  0.382237  1
  P  P29  1  0.000000  0.811648  0.382237  1
  P  P30  1  0.500000  0.845514  0.892330  1
  P  P31  1  0.500000  0.154486  0.892330  1
  P  P32  1  0.000000  0.654262  0.107660  1
  P  P33  1  0.000000  0.345738  0.107660  1
  Ru  Ru34  1  0.500000  0.500000  0.159522  1
  Ru  Ru35  1  0.000000  0.000000  0.840644  1
