# generated using pymatgen
data_Dy4Ho4Tc3B24Rh
_symmetry_space_group_name_H-M   'P 1'
_cell_length_a   3.67595200
_cell_length_b   9.14509612
_cell_length_c   11.52938602
_cell_angle_alpha   90.13347465
_cell_angle_beta   90.00000000
_cell_angle_gamma   90.00000000
_symmetry_Int_Tables_number   1
_chemical_formula_structural   Dy4Ho4Tc3B24Rh
_chemical_formula_sum   'Dy4 Ho4 Tc3 B24 Rh1'
_cell_volume   387.58156151
_cell_formula_units_Z   1
loop_
 _symmetry_equiv_pos_site_id
 _symmetry_equiv_pos_as_xyz
  1  'x, y, z'
loop_
 _atom_site_type_symbol
 _atom_site_label
 _atom_site_symmetry_multiplicity
 _atom_site_fract_x
 _atom_site_fract_y
 _atom_site_fract_z
 _atom_site_occupancy
  Dy  Dy0  1  0.500000  0.318677  0.415988  1
  Dy  Dy1  1  0.500000  0.677889  0.590897  1
  Dy  Dy2  1  0.500000  0.177149  0.912881  1
  Dy  Dy3  1  0.500000  0.827172  0.081261  1
  Ho  Ho4  1  0.500000  0.440372  0.129238  1
  Ho  Ho5  1  0.500000  0.557366  0.871000  1
  Ho  Ho6  1  0.500000  0.056440  0.629682  1
  Ho  Ho7  1  0.500000  0.943447  0.369496  1
  Tc  Tc8  1  0.500000  0.138368  0.180257  1
  Tc  Tc9  1  0.500000  0.861795  0.820557  1
  Tc  Tc10  1  0.500000  0.362756  0.678049  1
  B  B11  1  0.000000  0.101388  0.471295  1
  B  B12  1  0.000000  0.895494  0.528087  1
  B  B13  1  0.000000  0.397456  0.972073  1
  B  B14  1  0.000000  0.603650  0.029289  1
  B  B15  1  0.000000  0.130417  0.314990  1
  B  B16  1  0.000000  0.868786  0.685383  1
  B  B17  1  0.000000  0.369682  0.814259  1
  B  B18  1  0.000000  0.631238  0.184060  1
  B  B19  1  0.000000  0.053665  0.066675  1
  B  B20  1  0.000000  0.947284  0.932401  1
  B  B21  1  0.000000  0.446407  0.566813  1
  B  B22  1  0.000000  0.553894  0.433608  1
  B  B23  1  0.000000  0.482867  0.287975  1
  B  B24  1  0.000000  0.518116  0.712375  1
  B  B25  1  0.000000  0.017587  0.787110  1
  B  B26  1  0.000000  0.982836  0.211796  1
  B  B27  1  0.000000  0.248982  0.081489  1
  B  B28  1  0.000000  0.752041  0.918654  1
  B  B29  1  0.000000  0.250640  0.581249  1
  B  B30  1  0.000000  0.748905  0.419991  1
  B  B31  1  0.000000  0.291250  0.235405  1
  B  B32  1  0.000000  0.708638  0.765712  1
  B  B33  1  0.000000  0.208902  0.734307  1
  B  B34  1  0.000000  0.790752  0.264879  1
  Rh  Rh35  1  0.500000  0.637699  0.320820  1
