# generated using pymatgen
data_BaIn2AgSn
_symmetry_space_group_name_H-M   'P 1'
_cell_length_a   7.08919043
_cell_length_b   7.08919088
_cell_length_c   7.08919067
_cell_angle_alpha   139.73624679
_cell_angle_beta   139.73625755
_cell_angle_gamma   58.25397808
_symmetry_Int_Tables_number   1
_chemical_formula_structural   BaIn2AgSn
_chemical_formula_sum   'Ba1 In2 Ag1 Sn1'
_cell_volume   147.47239670
_cell_formula_units_Z   1
loop_
 _symmetry_equiv_pos_site_id
 _symmetry_equiv_pos_as_xyz
  1  'x, y, z'
loop_
 _atom_site_type_symbol
 _atom_site_label
 _atom_site_symmetry_multiplicity
 _atom_site_fract_x
 _atom_site_fract_y
 _atom_site_fract_z
 _atom_site_occupancy
  Ba  Ba0  1  0.000070  0.000070  0.000000  1
  In  In1  1  0.742348  0.242348  0.500000  1
  In  In2  1  0.242348  0.742348  0.500000  1
  Ag  Ag3  1  0.620623  0.620623  0.000000  1
  Sn  Sn4  1  0.394612  0.394612  0.000000  1
