# generated using pymatgen
data_Yb3EuTm4(B6Os)4
_symmetry_space_group_name_H-M   'P 1'
_cell_length_a   3.63921200
_cell_length_b   9.14539740
_cell_length_c   11.55112351
_cell_angle_alpha   90.03391586
_cell_angle_beta   90.00000000
_cell_angle_gamma   90.00000000
_symmetry_Int_Tables_number   1
_chemical_formula_structural   Yb3EuTm4(B6Os)4
_chemical_formula_sum   'Yb3 Eu1 Tm4 B24 Os4'
_cell_volume   384.44488681
_cell_formula_units_Z   1
loop_
 _symmetry_equiv_pos_site_id
 _symmetry_equiv_pos_as_xyz
  1  'x, y, z'
loop_
 _atom_site_type_symbol
 _atom_site_label
 _atom_site_symmetry_multiplicity
 _atom_site_fract_x
 _atom_site_fract_y
 _atom_site_fract_z
 _atom_site_occupancy
  Yb  Yb0  1  0.000000  0.676568  0.585888  1
  Yb  Yb1  1  0.000000  0.824195  0.084364  1
  Yb  Yb2  1  0.000000  0.175143  0.914597  1
  Eu  Eu3  1  0.000000  0.323297  0.414984  1
  Tm  Tm4  1  0.000000  0.941739  0.367972  1
  Tm  Tm5  1  0.000000  0.056750  0.632931  1
  Tm  Tm6  1  0.000000  0.442386  0.130877  1
  Tm  Tm7  1  0.000000  0.558682  0.868106  1
  B  B8  1  0.500000  0.555683  0.432661  1
  B  B9  1  0.500000  0.446687  0.568686  1
  B  B10  1  0.500000  0.053689  0.067042  1
  B  B11  1  0.500000  0.946214  0.932669  1
  B  B12  1  0.500000  0.749460  0.417291  1
  B  B13  1  0.500000  0.250812  0.584357  1
  B  B14  1  0.500000  0.248844  0.082141  1
  B  B15  1  0.500000  0.751245  0.917209  1
  B  B16  1  0.500000  0.791457  0.264268  1
  B  B17  1  0.500000  0.208549  0.736488  1
  B  B18  1  0.500000  0.290909  0.234395  1
  B  B19  1  0.500000  0.708841  0.764397  1
  B  B20  1  0.500000  0.631095  0.184721  1
  B  B21  1  0.500000  0.369515  0.814902  1
  B  B22  1  0.500000  0.129674  0.313659  1
  B  B23  1  0.500000  0.869203  0.685874  1
  B  B24  1  0.500000  0.982723  0.210914  1
  B  B25  1  0.500000  0.016473  0.789028  1
  B  B26  1  0.500000  0.484294  0.287756  1
  B  B27  1  0.500000  0.517419  0.711940  1
  B  B28  1  0.500000  0.596509  0.026166  1
  B  B29  1  0.500000  0.403975  0.973143  1
  B  B30  1  0.500000  0.095045  0.473984  1
  B  B31  1  0.500000  0.902711  0.526798  1
  Os  Os32  1  0.000000  0.639540  0.318643  1
  Os  Os33  1  0.000000  0.360862  0.681128  1
  Os  Os34  1  0.000000  0.139223  0.179924  1
  Os  Os35  1  0.000000  0.860588  0.820097  1
