# generated using pymatgen
data_TlSn3Sb(PO4)6
_symmetry_space_group_name_H-M   'P 1'
_cell_length_a   8.46895020
_cell_length_b   8.47296407
_cell_length_c   9.26577009
_cell_angle_alpha   90.03320461
_cell_angle_beta   117.16476490
_cell_angle_gamma   119.98996546
_symmetry_Int_Tables_number   1
_chemical_formula_structural   TlSn3Sb(PO4)6
_chemical_formula_sum   'Tl1 Sn3 Sb1 P6 O24'
_cell_volume   489.24329888
_cell_formula_units_Z   1
loop_
 _symmetry_equiv_pos_site_id
 _symmetry_equiv_pos_as_xyz
  1  'x, y, z'
loop_
 _atom_site_type_symbol
 _atom_site_label
 _atom_site_symmetry_multiplicity
 _atom_site_fract_x
 _atom_site_fract_y
 _atom_site_fract_z
 _atom_site_occupancy
  Tl  Tl0  1  0.999803  0.498502  0.500006  1
  Sn  Sn1  1  0.707630  0.851981  0.562724  1
  Sn  Sn2  1  0.307157  0.651622  0.961547  1
  Sn  Sn3  1  0.692146  0.344202  0.039800  1
  Sb  Sb4  1  0.293940  0.145460  0.441517  1
  P  P5  1  0.788824  0.247192  0.752309  1
  P  P6  1  0.211653  0.961255  0.753064  1
  P  P7  1  0.491997  0.455665  0.249737  1
  P  P8  1  0.503400  0.538686  0.752953  1
  P  P9  1  0.790808  0.032523  0.249404  1
  P  P10  1  0.214486  0.754644  0.250282  1
  O  O11  1  0.632839  0.612761  0.419109  1
  O  O12  1  0.268381  0.792496  0.110806  1
  O  O13  1  0.801815  0.015731  0.418322  1
  O  O14  1  0.843819  0.109908  0.719877  1
  O  O15  1  0.314409  0.470690  0.109454  1
  O  O16  1  0.596051  0.216667  0.578798  1
  O  O17  1  0.986698  0.873590  0.720143  1
  O  O18  1  0.977636  0.455934  0.800922  1
  O  O19  1  0.636326  0.840018  0.109007  1
  O  O20  1  0.279969  0.820856  0.801291  1
  O  O21  1  0.380871  0.258649  0.281461  1
  O  O22  1  0.342164  0.518391  0.800507  1
  O  O23  1  0.201541  0.981845  0.580037  1
  O  O24  1  0.644996  0.463744  0.198030  1
  O  O25  1  0.730804  0.177185  0.197448  1
  O  O26  1  0.609147  0.731139  0.721208  1
  O  O27  1  0.366650  0.154740  0.890910  1
  O  O28  1  0.361159  0.376540  0.579481  1
  O  O29  1  0.016788  0.550520  0.197435  1
  O  O30  1  0.020356  0.119367  0.282155  1
  O  O31  1  0.398608  0.781007  0.419655  1
  O  O32  1  0.678595  0.520333  0.890584  1
  O  O33  1  0.161473  0.898325  0.282473  1
  O  O34  1  0.731812  0.208735  0.889400  1
