# generated using pymatgen
data_Ac7Yb(TlSi2)4
_symmetry_space_group_name_H-M   'P 1'
_cell_length_a   4.52617700
_cell_length_b   8.04376401
_cell_length_c   15.30810500
_cell_angle_alpha   90.50222109
_cell_angle_beta   90.00000000
_cell_angle_gamma   90.00000000
_symmetry_Int_Tables_number   1
_chemical_formula_structural   Ac7Yb(TlSi2)4
_chemical_formula_sum   'Ac7 Yb1 Tl4 Si8'
_cell_volume   557.30841708
_cell_formula_units_Z   1
loop_
 _symmetry_equiv_pos_site_id
 _symmetry_equiv_pos_as_xyz
  1  'x, y, z'
loop_
 _atom_site_type_symbol
 _atom_site_label
 _atom_site_symmetry_multiplicity
 _atom_site_fract_x
 _atom_site_fract_y
 _atom_site_fract_z
 _atom_site_occupancy
  Ac  Ac0  1  0.500000  0.747515  0.032206  1
  Ac  Ac1  1  0.500000  0.239993  0.961617  1
  Ac  Ac2  1  0.500000  0.254866  0.468187  1
  Ac  Ac3  1  0.500000  0.751949  0.537880  1
  Ac  Ac4  1  0.500000  0.617030  0.281858  1
  Ac  Ac5  1  0.500000  0.387030  0.720126  1
  Ac  Ac6  1  0.500000  0.117510  0.216016  1
  Yb  Yb7  1  0.500000  0.886183  0.781693  1
  Tl  Tl8  1  0.000000  0.939108  0.377613  1
  Tl  Tl9  1  0.000000  0.052221  0.631391  1
  Tl  Tl10  1  0.000000  0.437171  0.120514  1
  Tl  Tl11  1  0.000000  0.574203  0.873165  1
  Si  Si12  1  0.000000  0.551141  0.427009  1
  Si  Si13  1  0.000000  0.461804  0.578335  1
  Si  Si14  1  0.000000  0.041568  0.070229  1
  Si  Si15  1  0.000000  0.939418  0.920116  1
  Si  Si16  1  0.000000  0.832601  0.180595  1
  Si  Si17  1  0.000000  0.156399  0.815125  1
  Si  Si18  1  0.000000  0.332024  0.319590  1
  Si  Si19  1  0.000000  0.680267  0.686737  1
