# generated using pymatgen
data_Ca4CdSb3Pt4
_symmetry_space_group_name_H-M   'P 1'
_cell_length_a   4.62026300
_cell_length_b   7.40912491
_cell_length_c   8.03678739
_cell_angle_alpha   91.81083000
_cell_angle_beta   90.00000000
_cell_angle_gamma   90.00000000
_symmetry_Int_Tables_number   1
_chemical_formula_structural   Ca4CdSb3Pt4
_chemical_formula_sum   'Ca4 Cd1 Sb3 Pt4'
_cell_volume   274.97876360
_cell_formula_units_Z   1
loop_
 _symmetry_equiv_pos_site_id
 _symmetry_equiv_pos_as_xyz
  1  'x, y, z'
loop_
 _atom_site_type_symbol
 _atom_site_label
 _atom_site_symmetry_multiplicity
 _atom_site_fract_x
 _atom_site_fract_y
 _atom_site_fract_z
 _atom_site_occupancy
  Ca  Ca0  1  0.250000  0.015693  0.307453  1
  Ca  Ca1  1  0.250000  0.510202  0.192378  1
  Ca  Ca2  1  0.750000  0.985702  0.694272  1
  Ca  Ca3  1  0.750000  0.489093  0.807386  1
  Cd  Cd4  1  0.750000  0.322428  0.414659  1
  Sb  Sb5  1  0.250000  0.175849  0.916865  1
  Sb  Sb6  1  0.250000  0.675871  0.578294  1
  Sb  Sb7  1  0.750000  0.814152  0.085646  1
  Pt  Pt8  1  0.250000  0.303457  0.610675  1
  Pt  Pt9  1  0.250000  0.794341  0.904319  1
  Pt  Pt10  1  0.750000  0.720192  0.405274  1
  Pt  Pt11  1  0.750000  0.193021  0.082779  1
