# generated using pymatgen
data_ThZn2Cu3Pd
_symmetry_space_group_name_H-M   'P 1'
_cell_length_a   5.16289300
_cell_length_b   8.20969500
_cell_length_c   10.61921300
_cell_angle_alpha   90.00000000
_cell_angle_beta   90.00000000
_cell_angle_gamma   90.00000000
_symmetry_Int_Tables_number   1
_chemical_formula_structural   ThZn2Cu3Pd
_chemical_formula_sum   'Th4 Zn8 Cu12 Pd4'
_cell_volume   450.10359252
_cell_formula_units_Z   4
loop_
 _symmetry_equiv_pos_site_id
 _symmetry_equiv_pos_as_xyz
  1  'x, y, z'
loop_
 _atom_site_type_symbol
 _atom_site_label
 _atom_site_symmetry_multiplicity
 _atom_site_fract_x
 _atom_site_fract_y
 _atom_site_fract_z
 _atom_site_occupancy
  Th  Th0  1  0.250000  0.258988  0.562399  1
  Th  Th1  1  0.750000  0.741012  0.437601  1
  Th  Th2  1  0.250000  0.758988  0.937601  1
  Th  Th3  1  0.750000  0.241012  0.062399  1
  Zn  Zn4  1  0.750000  0.350676  0.354182  1
  Zn  Zn5  1  0.250000  0.649324  0.645818  1
  Zn  Zn6  1  0.750000  0.850676  0.145818  1
  Zn  Zn7  1  0.250000  0.149324  0.854182  1
  Zn  Zn8  1  0.750000  0.684229  0.750207  1
  Zn  Zn9  1  0.250000  0.315771  0.249793  1
  Zn  Zn10  1  0.750000  0.184229  0.749793  1
  Zn  Zn11  1  0.250000  0.815771  0.250207  1
  Cu  Cu12  1  0.506227  0.563348  0.187935  1
  Cu  Cu13  1  0.006227  0.436652  0.812065  1
  Cu  Cu14  1  0.993773  0.063348  0.312065  1
  Cu  Cu15  1  0.493773  0.936652  0.687935  1
  Cu  Cu16  1  0.750000  0.592276  0.986352  1
  Cu  Cu17  1  0.250000  0.407724  0.013648  1
  Cu  Cu18  1  0.750000  0.092276  0.513648  1
  Cu  Cu19  1  0.250000  0.907724  0.486352  1
  Cu  Cu20  1  0.506227  0.063348  0.312065  1
  Cu  Cu21  1  0.006227  0.936652  0.687935  1
  Cu  Cu22  1  0.993773  0.563348  0.187935  1
  Cu  Cu23  1  0.493773  0.436652  0.812065  1
  Pd  Pd24  1  0.750000  0.939057  0.909916  1
  Pd  Pd25  1  0.250000  0.060943  0.090084  1
  Pd  Pd26  1  0.750000  0.439057  0.590084  1
  Pd  Pd27  1  0.250000  0.560943  0.409916  1
