# generated using pymatgen
data_Sc6Zn17Ag6Bi
_symmetry_space_group_name_H-M   'P 1'
_cell_length_a   8.94274142
_cell_length_b   8.95663783
_cell_length_c   8.95699100
_cell_angle_alpha   59.99908343
_cell_angle_beta   59.94985552
_cell_angle_gamma   59.94852050
_symmetry_Int_Tables_number   1
_chemical_formula_structural   Sc6Zn17Ag6Bi
_chemical_formula_sum   'Sc6 Zn17 Ag6 Bi1'
_cell_volume   506.90415069
_cell_formula_units_Z   1
loop_
 _symmetry_equiv_pos_site_id
 _symmetry_equiv_pos_as_xyz
  1  'x, y, z'
loop_
 _atom_site_type_symbol
 _atom_site_label
 _atom_site_symmetry_multiplicity
 _atom_site_fract_x
 _atom_site_fract_y
 _atom_site_fract_z
 _atom_site_occupancy
  Sc  Sc0  1  0.725489  0.272308  0.272332  1
  Sc  Sc1  1  0.274511  0.727692  0.727668  1
  Sc  Sc2  1  0.274563  0.727629  0.270149  1
  Sc  Sc3  1  0.725437  0.272371  0.729851  1
  Sc  Sc4  1  0.274537  0.270125  0.727631  1
  Sc  Sc5  1  0.725463  0.729875  0.272369  1
  Zn  Zn6  1  0.626318  0.124571  0.124563  1
  Zn  Zn7  1  0.373682  0.875429  0.875437  1
  Zn  Zn8  1  0.500000  0.000000  0.000000  1
  Zn  Zn9  1  0.000000  0.500000  0.500000  1
  Zn  Zn10  1  0.000000  0.500000  0.000000  1
  Zn  Zn11  1  0.500000  0.000000  0.500000  1
  Zn  Zn12  1  0.000000  0.000000  0.500000  1
  Zn  Zn13  1  0.500000  0.500000  0.000000  1
  Zn  Zn14  1  0.340675  0.341035  0.341035  1
  Zn  Zn15  1  0.659325  0.658965  0.658965  1
  Zn  Zn16  1  0.340590  0.340992  0.977416  1
  Zn  Zn17  1  0.340649  0.977310  0.341020  1
  Zn  Zn18  1  0.659410  0.659008  0.022584  1
  Zn  Zn19  1  0.659351  0.022690  0.658980  1
  Zn  Zn20  1  0.974550  0.341813  0.341805  1
  Zn  Zn21  1  0.025450  0.658187  0.658195  1
  Zn  Zn22  1  0.000000  0.000000  0.000000  1
  Ag  Ag23  1  0.122958  0.123802  0.123821  1
  Ag  Ag24  1  0.877042  0.876198  0.876179  1
  Ag  Ag25  1  0.122892  0.123852  0.629409  1
  Ag  Ag26  1  0.122912  0.629411  0.123862  1
  Ag  Ag27  1  0.877108  0.876148  0.370591  1
  Ag  Ag28  1  0.877088  0.370589  0.876138  1
  Bi  Bi29  1  0.500000  0.500000  0.500000  1
