# generated using pymatgen
data_Ca3Pr15(SmSn8)2
_symmetry_space_group_name_H-M   'P 1'
_cell_length_a   8.16816984
_cell_length_b   8.53371211
_cell_length_c   16.20560624
_cell_angle_alpha   90.03429375
_cell_angle_beta   89.49025881
_cell_angle_gamma   89.92505185
_symmetry_Int_Tables_number   1
_chemical_formula_structural   Ca3Pr15(SmSn8)2
_chemical_formula_sum   'Ca3 Pr15 Sm2 Sn16'
_cell_volume   1129.56282058
_cell_formula_units_Z   1
loop_
 _symmetry_equiv_pos_site_id
 _symmetry_equiv_pos_as_xyz
  1  'x, y, z'
loop_
 _atom_site_type_symbol
 _atom_site_label
 _atom_site_symmetry_multiplicity
 _atom_site_fract_x
 _atom_site_fract_y
 _atom_site_fract_z
 _atom_site_occupancy
  Ca  Ca0  1  0.670754  0.004791  0.749880  1
  Ca  Ca1  1  0.828754  0.504393  0.250757  1
  Ca  Ca2  1  0.329991  0.994317  0.250599  1
  Pr  Pr3  1  0.842709  0.670865  0.624066  1
  Pr  Pr4  1  0.655633  0.170799  0.375608  1
  Pr  Pr5  1  0.161180  0.328327  0.122586  1
  Pr  Pr6  1  0.662237  0.172266  0.123940  1
  Pr  Pr7  1  0.156239  0.331081  0.377278  1
  Pr  Pr8  1  0.344881  0.830846  0.624984  1
  Pr  Pr9  1  0.838711  0.673015  0.875887  1
  Pr  Pr10  1  0.496020  0.318781  0.902448  1
  Pr  Pr11  1  0.997090  0.182247  0.596838  1
  Pr  Pr12  1  0.503004  0.680835  0.403789  1
  Pr  Pr13  1  0.005736  0.814934  0.096168  1
  Pr  Pr14  1  0.504009  0.681010  0.095795  1
  Pr  Pr15  1  0.003519  0.816193  0.403895  1
  Pr  Pr16  1  0.499601  0.317722  0.597680  1
  Pr  Pr17  1  0.993785  0.181898  0.903070  1
  Sm  Sm18  1  0.337334  0.829140  0.874833  1
  Sm  Sm19  1  0.170855  0.496989  0.748942  1
  Sn  Sn20  1  0.325687  0.035460  0.036402  1
  Sn  Sn21  1  0.812972  0.461814  0.462857  1
  Sn  Sn22  1  0.684002  0.961990  0.536980  1
  Sn  Sn23  1  0.179079  0.537372  0.958032  1
  Sn  Sn24  1  0.670666  0.962475  0.961174  1
  Sn  Sn25  1  0.185931  0.537592  0.540761  1
  Sn  Sn26  1  0.318447  0.038994  0.463396  1
  Sn  Sn27  1  0.821172  0.463999  0.037991  1
  Sn  Sn28  1  0.537233  0.606424  0.751454  1
  Sn  Sn29  1  0.039110  0.891387  0.751073  1
  Sn  Sn30  1  0.459624  0.394425  0.249959  1
  Sn  Sn31  1  0.962059  0.104177  0.250240  1
  Sn  Sn32  1  0.296548  0.144112  0.751276  1
  Sn  Sn33  1  0.801731  0.360052  0.750845  1
  Sn  Sn34  1  0.702596  0.858745  0.249284  1
  Sn  Sn35  1  0.201101  0.640533  0.249232  1
