# generated using pymatgen
data_Al8Ir4PdRu3
_symmetry_space_group_name_H-M   'P 1'
_cell_length_a   6.06538800
_cell_length_b   4.24163200
_cell_length_c   8.51197600
_cell_angle_alpha   90.00000000
_cell_angle_beta   90.00005526
_cell_angle_gamma   90.00000000
_symmetry_Int_Tables_number   1
_chemical_formula_structural   Al8Ir4PdRu3
_chemical_formula_sum   'Al8 Ir4 Pd1 Ru3'
_cell_volume   218.98883086
_cell_formula_units_Z   1
loop_
 _symmetry_equiv_pos_site_id
 _symmetry_equiv_pos_as_xyz
  1  'x, y, z'
loop_
 _atom_site_type_symbol
 _atom_site_label
 _atom_site_symmetry_multiplicity
 _atom_site_fract_x
 _atom_site_fract_y
 _atom_site_fract_z
 _atom_site_occupancy
  Al  Al0  1  0.990541  0.749999  0.125003  1
  Al  Al1  1  0.509456  0.749999  0.125005  1
  Al  Al2  1  0.995140  0.250001  0.379428  1
  Al  Al3  1  0.504855  0.250001  0.379431  1
  Al  Al4  1  0.501030  0.749999  0.625000  1
  Al  Al5  1  0.998975  0.749999  0.625002  1
  Al  Al6  1  0.504854  0.250001  0.870563  1
  Al  Al7  1  0.995149  0.250001  0.870566  1
  Ir  Ir8  1  0.749997  0.250001  0.124998  1
  Ir  Ir9  1  0.249997  0.749999  0.371028  1
  Ir  Ir10  1  0.750003  0.250001  0.624999  1
  Ir  Ir11  1  0.250003  0.749999  0.878976  1
  Pd  Pd12  1  0.249999  0.250001  0.124999  1
  Ru  Ru13  1  0.749998  0.749999  0.373888  1
  Ru  Ru14  1  0.250001  0.250001  0.624997  1
  Ru  Ru15  1  0.750001  0.749999  0.876115  1
