# generated using pymatgen
data_K2Ga2Te3
_symmetry_space_group_name_H-M   'P 1'
_cell_length_a   7.78494100
_cell_length_b   7.78494091
_cell_length_c   9.87050520
_cell_angle_alpha   82.39495061
_cell_angle_beta   82.39495316
_cell_angle_gamma   120.10529436
_symmetry_Int_Tables_number   1
_chemical_formula_structural   K2Ga2Te3
_chemical_formula_sum   'K4 Ga4 Te6'
_cell_volume   498.99278370
_cell_formula_units_Z   2
loop_
 _symmetry_equiv_pos_site_id
 _symmetry_equiv_pos_as_xyz
  1  'x, y, z'
loop_
 _atom_site_type_symbol
 _atom_site_label
 _atom_site_symmetry_multiplicity
 _atom_site_fract_x
 _atom_site_fract_y
 _atom_site_fract_z
 _atom_site_occupancy
  K  K0  1  0.662285  0.337715  0.000000  1
  K  K1  1  0.337715  0.662285  0.000000  1
  K  K2  1  0.000000  0.000000  0.000000  1
  K  K3  1  0.500000  0.500000  0.500000  1
  Ga  Ga4  1  0.876351  0.209674  0.369526  1
  Ga  Ga5  1  0.790326  0.123649  0.630474  1
  Ga  Ga6  1  0.209674  0.876351  0.369526  1
  Ga  Ga7  1  0.123649  0.790326  0.630474  1
  Te  Te8  1  0.420084  0.065164  0.741007  1
  Te  Te9  1  0.065164  0.420084  0.741007  1
  Te  Te10  1  0.934836  0.579916  0.258993  1
  Te  Te11  1  0.774055  0.774055  0.740566  1
  Te  Te12  1  0.579916  0.934836  0.258993  1
  Te  Te13  1  0.225945  0.225945  0.259434  1
