# generated using pymatgen
data_Tm6Co16NiMoP12
_symmetry_space_group_name_H-M   'P 1'
_cell_length_a   3.68223700
_cell_length_b   10.46673100
_cell_length_c   12.15867600
_cell_angle_alpha   90.00000000
_cell_angle_beta   90.00000000
_cell_angle_gamma   90.00000000
_symmetry_Int_Tables_number   1
_chemical_formula_structural   Tm6Co16NiMoP12
_chemical_formula_sum   'Tm6 Co16 Ni1 Mo1 P12'
_cell_volume   468.60733909
_cell_formula_units_Z   1
loop_
 _symmetry_equiv_pos_site_id
 _symmetry_equiv_pos_as_xyz
  1  'x, y, z'
loop_
 _atom_site_type_symbol
 _atom_site_label
 _atom_site_symmetry_multiplicity
 _atom_site_fract_x
 _atom_site_fract_y
 _atom_site_fract_z
 _atom_site_occupancy
  Tm  Tm0  1  0.000000  0.500000  0.523260  1
  Tm  Tm1  1  0.500000  0.000000  0.477242  1
  Tm  Tm2  1  0.500000  0.818586  0.206993  1
  Tm  Tm3  1  0.500000  0.181414  0.206993  1
  Tm  Tm4  1  0.000000  0.683701  0.796330  1
  Tm  Tm5  1  0.000000  0.316299  0.796330  1
  Co  Co6  1  0.000000  0.000000  0.838853  1
  Co  Co7  1  0.000000  0.000000  0.297148  1
  Co  Co8  1  0.000000  0.500000  0.986166  1
  Co  Co9  1  0.500000  0.000000  0.015346  1
  Co  Co10  1  0.500000  0.330961  0.989686  1
  Co  Co11  1  0.500000  0.669039  0.989686  1
  Co  Co12  1  0.000000  0.165405  0.005742  1
  Co  Co13  1  0.000000  0.834595  0.005742  1
  Co  Co14  1  0.500000  0.296378  0.432175  1
  Co  Co15  1  0.500000  0.703622  0.432175  1
  Co  Co16  1  0.000000  0.201936  0.568970  1
  Co  Co17  1  0.000000  0.798064  0.568970  1
  Co  Co18  1  0.500000  0.878400  0.708373  1
  Co  Co19  1  0.500000  0.121600  0.708373  1
  Co  Co20  1  0.000000  0.622539  0.292863  1
  Co  Co21  1  0.000000  0.377461  0.292863  1
  Ni  Ni22  1  0.500000  0.500000  0.701755  1
  Mo  Mo23  1  0.500000  0.500000  0.156657  1
  P  P24  1  0.500000  0.500000  0.880795  1
  P  P25  1  0.000000  0.000000  0.118808  1
  P  P26  1  0.500000  0.500000  0.351062  1
  P  P27  1  0.000000  0.000000  0.654300  1
  P  P28  1  0.500000  0.311026  0.616802  1
  P  P29  1  0.500000  0.688974  0.616802  1
  P  P30  1  0.000000  0.187412  0.384249  1
  P  P31  1  0.000000  0.812588  0.384249  1
  P  P32  1  0.500000  0.850029  0.890801  1
  P  P33  1  0.500000  0.149971  0.890801  1
  P  P34  1  0.000000  0.658238  0.106320  1
  P  P35  1  0.000000  0.341762  0.106320  1
