# generated using pymatgen
data_Y16MgCd3TcNi3
_symmetry_space_group_name_H-M   'P 1'
_cell_length_a   9.68502360
_cell_length_b   9.68502460
_cell_length_c   9.68502367
_cell_angle_alpha   59.28253338
_cell_angle_beta   59.28253058
_cell_angle_gamma   59.28252623
_symmetry_Int_Tables_number   1
_chemical_formula_structural   Y16MgCd3TcNi3
_chemical_formula_sum   'Y16 Mg1 Cd3 Tc1 Ni3'
_cell_volume   631.87729267
_cell_formula_units_Z   1
loop_
 _symmetry_equiv_pos_site_id
 _symmetry_equiv_pos_as_xyz
  1  'x, y, z'
loop_
 _atom_site_type_symbol
 _atom_site_label
 _atom_site_symmetry_multiplicity
 _atom_site_fract_x
 _atom_site_fract_y
 _atom_site_fract_z
 _atom_site_occupancy
  Y  Y0  1  0.598009  0.598009  0.598009  1
  Y  Y1  1  0.600757  0.600757  0.205518  1
  Y  Y2  1  0.600757  0.205518  0.600757  1
  Y  Y3  1  0.205518  0.600757  0.600757  1
  Y  Y4  1  0.060543  0.438301  0.438301  1
  Y  Y5  1  0.436634  0.061603  0.061603  1
  Y  Y6  1  0.438301  0.060543  0.438301  1
  Y  Y7  1  0.061603  0.436634  0.061603  1
  Y  Y8  1  0.438301  0.438301  0.060543  1
  Y  Y9  1  0.061603  0.061603  0.436634  1
  Y  Y10  1  0.187144  0.815795  0.815795  1
  Y  Y11  1  0.806120  0.189249  0.189249  1
  Y  Y12  1  0.815795  0.187144  0.815795  1
  Y  Y13  1  0.189249  0.806120  0.189249  1
  Y  Y14  1  0.815795  0.815795  0.187144  1
  Y  Y15  1  0.189249  0.189249  0.806120  1
  Mg  Mg16  1  0.824919  0.824919  0.824919  1
  Cd  Cd17  1  0.829611  0.829611  0.505890  1
  Cd  Cd18  1  0.829611  0.505890  0.829611  1
  Cd  Cd19  1  0.505890  0.829611  0.829611  1
  Tc  Tc20  1  0.393919  0.393919  0.393919  1
  Ni  Ni21  1  0.392545  0.392545  0.825577  1
  Ni  Ni22  1  0.392545  0.825577  0.392545  1
  Ni  Ni23  1  0.825577  0.392545  0.392545  1
