# generated using pymatgen
data_Hf12Al4IrRh7
_symmetry_space_group_name_H-M   'P 1'
_cell_length_a   8.50678341
_cell_length_b   8.50678350
_cell_length_c   8.50678396
_cell_angle_alpha   60.06350233
_cell_angle_beta   60.06349755
_cell_angle_gamma   60.06351059
_symmetry_Int_Tables_number   1
_chemical_formula_structural   Hf12Al4IrRh7
_chemical_formula_sum   'Hf12 Al4 Ir1 Rh7'
_cell_volume   435.91895155
_cell_formula_units_Z   1
loop_
 _symmetry_equiv_pos_site_id
 _symmetry_equiv_pos_as_xyz
  1  'x, y, z'
loop_
 _atom_site_type_symbol
 _atom_site_label
 _atom_site_symmetry_multiplicity
 _atom_site_fract_x
 _atom_site_fract_y
 _atom_site_fract_z
 _atom_site_occupancy
  Hf  Hf0  1  0.807375  0.807375  0.191981  1
  Hf  Hf1  1  0.192461  0.192461  0.807557  1
  Hf  Hf2  1  0.807375  0.191981  0.807375  1
  Hf  Hf3  1  0.192461  0.807557  0.192461  1
  Hf  Hf4  1  0.191981  0.807375  0.807375  1
  Hf  Hf5  1  0.807557  0.192461  0.192461  1
  Hf  Hf6  1  0.442355  0.442355  0.057701  1
  Hf  Hf7  1  0.056924  0.056924  0.443225  1
  Hf  Hf8  1  0.442355  0.057701  0.442355  1
  Hf  Hf9  1  0.056924  0.443225  0.056924  1
  Hf  Hf10  1  0.057701  0.442355  0.442355  1
  Hf  Hf11  1  0.443225  0.056924  0.056924  1
  Al  Al12  1  0.125407  0.624902  0.624902  1
  Al  Al13  1  0.624902  0.125407  0.624902  1
  Al  Al14  1  0.624902  0.624902  0.125407  1
  Al  Al15  1  0.624951  0.624951  0.624951  1
  Ir  Ir16  1  0.840724  0.840724  0.840724  1
  Rh  Rh17  1  0.769900  0.410074  0.410074  1
  Rh  Rh18  1  0.410074  0.769900  0.410074  1
  Rh  Rh19  1  0.410074  0.410074  0.769900  1
  Rh  Rh20  1  0.409972  0.409972  0.409972  1
  Rh  Rh21  1  0.480628  0.839886  0.839886  1
  Rh  Rh22  1  0.839886  0.480628  0.839886  1
  Rh  Rh23  1  0.839886  0.839886  0.480628  1
