# generated using pymatgen
data_Tb3YScPt3O14
_symmetry_space_group_name_H-M   'P 1'
_cell_length_a   7.28044099
_cell_length_b   7.28044064
_cell_length_c   7.35415181
_cell_angle_alpha   60.33100488
_cell_angle_beta   60.33101658
_cell_angle_gamma   59.99999465
_symmetry_Int_Tables_number   1
_chemical_formula_structural   Tb3YScPt3O14
_chemical_formula_sum   'Tb3 Y1 Sc1 Pt3 O14'
_cell_volume   277.00510727
_cell_formula_units_Z   1
loop_
 _symmetry_equiv_pos_site_id
 _symmetry_equiv_pos_as_xyz
  1  'x, y, z'
loop_
 _atom_site_type_symbol
 _atom_site_label
 _atom_site_symmetry_multiplicity
 _atom_site_fract_x
 _atom_site_fract_y
 _atom_site_fract_z
 _atom_site_occupancy
  Tb  Tb0  1  0.625000  0.625000  0.625000  1
  Tb  Tb1  1  0.625000  0.125000  0.625000  1
  Tb  Tb2  1  0.125000  0.625000  0.625000  1
  Y  Y3  1  0.625000  0.625000  0.125000  1
  Sc  Sc4  1  0.125000  0.125000  0.625000  1
  Pt  Pt5  1  0.125000  0.125000  0.125000  1
  Pt  Pt6  1  0.625000  0.125000  0.125000  1
  Pt  Pt7  1  0.125000  0.625000  0.125000  1
  O  O8  1  0.031629  0.476519  0.460224  1
  O  O9  1  0.789350  0.789350  0.202622  1
  O  O10  1  0.789350  0.218677  0.202622  1
  O  O11  1  0.476519  0.031629  0.460224  1
  O  O12  1  0.031323  0.460650  0.047378  1
  O  O13  1  0.747101  0.747101  0.758697  1
  O  O14  1  0.031629  0.031629  0.460224  1
  O  O15  1  0.218677  0.789350  0.202622  1
  O  O16  1  0.218371  0.218371  0.789776  1
  O  O17  1  0.502899  0.502899  0.491303  1
  O  O18  1  0.773481  0.218371  0.789776  1
  O  O19  1  0.460650  0.031323  0.047378  1
  O  O20  1  0.460650  0.460650  0.047378  1
  O  O21  1  0.218371  0.773481  0.789776  1
