# generated using pymatgen
data_Dy2Y2CoAg
_symmetry_space_group_name_H-M   'P 1'
_cell_length_a   9.41706189
_cell_length_b   9.41706229
_cell_length_c   9.42967100
_cell_angle_alpha   59.95570946
_cell_angle_beta   59.95570807
_cell_angle_gamma   60.08860244
_symmetry_Int_Tables_number   1
_chemical_formula_structural   Dy2Y2CoAg
_chemical_formula_sum   'Dy8 Y8 Co4 Ag4'
_cell_volume   591.30413619
_cell_formula_units_Z   4
loop_
 _symmetry_equiv_pos_site_id
 _symmetry_equiv_pos_as_xyz
  1  'x, y, z'
loop_
 _atom_site_type_symbol
 _atom_site_label
 _atom_site_symmetry_multiplicity
 _atom_site_fract_x
 _atom_site_fract_y
 _atom_site_fract_z
 _atom_site_occupancy
  Dy  Dy0  1  0.347568  0.347568  0.347255  1
  Dy  Dy1  1  0.347568  0.347568  0.957609  1
  Dy  Dy2  1  0.347255  0.957609  0.347568  1
  Dy  Dy3  1  0.957609  0.347255  0.347568  1
  Dy  Dy4  1  0.812079  0.187921  0.187921  1
  Dy  Dy5  1  0.187921  0.812079  0.812079  1
  Dy  Dy6  1  0.187921  0.812079  0.187921  1
  Dy  Dy7  1  0.812079  0.187921  0.812079  1
  Y  Y8  1  0.187771  0.187771  0.812229  1
  Y  Y9  1  0.812229  0.812229  0.187771  1
  Y  Y10  1  0.937596  0.562404  0.562404  1
  Y  Y11  1  0.562404  0.937596  0.937596  1
  Y  Y12  1  0.562404  0.937596  0.562404  1
  Y  Y13  1  0.937596  0.562404  0.937596  1
  Y  Y14  1  0.562223  0.562223  0.937777  1
  Y  Y15  1  0.937777  0.937777  0.562223  1
  Co  Co16  1  0.140922  0.140922  0.143445  1
  Co  Co17  1  0.140922  0.140922  0.574710  1
  Co  Co18  1  0.143445  0.574710  0.140922  1
  Co  Co19  1  0.574710  0.143445  0.140922  1
  Ag  Ag20  1  0.580883  0.580883  0.580882  1
  Ag  Ag21  1  0.580883  0.580883  0.257352  1
  Ag  Ag22  1  0.580882  0.257352  0.580883  1
  Ag  Ag23  1  0.257352  0.580882  0.580883  1
