# generated using pymatgen
data_Ge2H7N
_symmetry_space_group_name_H-M   'P 1'
_cell_length_a   5.05691234
_cell_length_b   4.06702335
_cell_length_c   7.14387399
_cell_angle_alpha   71.95897514
_cell_angle_beta   88.18113543
_cell_angle_gamma   86.88637093
_symmetry_Int_Tables_number   1
_chemical_formula_structural   Ge2H7N
_chemical_formula_sum   'Ge2 H7 N1'
_cell_volume   139.47803951
_cell_formula_units_Z   1
loop_
 _symmetry_equiv_pos_site_id
 _symmetry_equiv_pos_as_xyz
  1  'x, y, z'
loop_
 _atom_site_type_symbol
 _atom_site_label
 _atom_site_symmetry_multiplicity
 _atom_site_fract_x
 _atom_site_fract_y
 _atom_site_fract_z
 _atom_site_occupancy
  Ge  Ge0  1  0.652544  0.508758  0.796018  1
  Ge  Ge1  1  0.786486  0.093495  0.623230  1
  H  H2  1  0.015975  0.779785  0.278703  1
  H  H3  1  0.654978  0.212410  0.418516  1
  H  H4  1  0.303965  0.603851  0.242423  1
  H  H5  1  0.347550  0.518538  0.812627  1
  H  H6  1  0.087825  0.094035  0.581565  1
  H  H7  1  0.224707  0.007476  0.117880  1
  H  H8  1  0.762749  0.390069  0.005554  1
  N  N9  1  0.151738  0.766141  0.171900  1
