# generated using pymatgen
data_RbLiTiF6
_symmetry_space_group_name_H-M   'P 1'
_cell_length_a   10.89299900
_cell_length_b   5.70683382
_cell_length_c   9.04979826
_cell_angle_alpha   89.46626334
_cell_angle_beta   90.00000000
_cell_angle_gamma   90.00000000
_symmetry_Int_Tables_number   1
_chemical_formula_structural   RbLiTiF6
_chemical_formula_sum   'Rb4 Li4 Ti4 F24'
_cell_volume   562.55209282
_cell_formula_units_Z   4
loop_
 _symmetry_equiv_pos_site_id
 _symmetry_equiv_pos_as_xyz
  1  'x, y, z'
loop_
 _atom_site_type_symbol
 _atom_site_label
 _atom_site_symmetry_multiplicity
 _atom_site_fract_x
 _atom_site_fract_y
 _atom_site_fract_z
 _atom_site_occupancy
  Rb  Rb0  1  0.685590  0.301288  0.000417  1
  Rb  Rb1  1  0.185590  0.698712  0.499583  1
  Rb  Rb2  1  0.314410  0.698712  0.999583  1
  Rb  Rb3  1  0.814410  0.301288  0.500417  1
  Li  Li4  1  0.594762  0.748035  0.678857  1
  Li  Li5  1  0.094762  0.251965  0.821143  1
  Li  Li6  1  0.405238  0.251965  0.321143  1
  Li  Li7  1  0.905238  0.748035  0.178857  1
  Ti  Ti8  1  0.911191  0.774967  0.771887  1
  Ti  Ti9  1  0.411191  0.225033  0.728113  1
  Ti  Ti10  1  0.088809  0.225033  0.228113  1
  Ti  Ti11  1  0.588809  0.774967  0.271887  1
  F  F12  1  0.751619  0.636986  0.747017  1
  F  F13  1  0.251619  0.363014  0.752983  1
  F  F14  1  0.248381  0.363014  0.252983  1
  F  F15  1  0.748381  0.636986  0.247017  1
  F  F16  1  0.900782  0.693064  0.975010  1
  F  F17  1  0.400782  0.306936  0.524990  1
  F  F18  1  0.099218  0.306936  0.024990  1
  F  F19  1  0.599218  0.693064  0.475010  1
  F  F20  1  0.067314  0.921969  0.794208  1
  F  F21  1  0.567314  0.078031  0.705792  1
  F  F22  1  0.932686  0.078031  0.205792  1
  F  F23  1  0.432686  0.921969  0.294208  1
  F  F24  1  0.915258  0.820075  0.567002  1
  F  F25  1  0.415258  0.179925  0.932998  1
  F  F26  1  0.084742  0.179925  0.432998  1
  F  F27  1  0.584742  0.820075  0.067002  1
  F  F28  1  0.839209  0.066150  0.801225  1
  F  F29  1  0.339209  0.933850  0.698775  1
  F  F30  1  0.160791  0.933850  0.198775  1
  F  F31  1  0.660791  0.066150  0.301225  1
  F  F32  1  0.991595  0.481748  0.735581  1
  F  F33  1  0.491595  0.518252  0.764419  1
  F  F34  1  0.008405  0.518252  0.264419  1
  F  F35  1  0.508405  0.481748  0.235581  1
