# generated using pymatgen
data_SrCaPr(Si3Pd10)2
_symmetry_space_group_name_H-M   'P 1'
_cell_length_a   8.78483384
_cell_length_b   8.78485484
_cell_length_c   8.78483600
_cell_angle_alpha   60.00006630
_cell_angle_beta   60.00015297
_cell_angle_gamma   59.99992424
_symmetry_Int_Tables_number   1
_chemical_formula_structural   SrCaPr(Si3Pd10)2
_chemical_formula_sum   'Sr1 Ca1 Pr1 Si6 Pd20'
_cell_volume   479.38812597
_cell_formula_units_Z   1
loop_
 _symmetry_equiv_pos_site_id
 _symmetry_equiv_pos_as_xyz
  1  'x, y, z'
loop_
 _atom_site_type_symbol
 _atom_site_label
 _atom_site_symmetry_multiplicity
 _atom_site_fract_x
 _atom_site_fract_y
 _atom_site_fract_z
 _atom_site_occupancy
  Sr  Sr0  1  0.249999  0.250000  0.250000  1
  Ca  Ca1  1  0.000000  0.000000  0.000000  1
  Pr  Pr2  1  0.750001  0.750000  0.750000  1
  Si  Si3  1  0.733782  0.266219  0.266218  1
  Si  Si4  1  0.266218  0.733782  0.733782  1
  Si  Si5  1  0.266218  0.733782  0.266218  1
  Si  Si6  1  0.733782  0.266218  0.733782  1
  Si  Si7  1  0.266218  0.266219  0.733782  1
  Si  Si8  1  0.733782  0.733782  0.266218  1
  Pd  Pd9  1  0.387690  0.387691  0.387691  1
  Pd  Pd10  1  0.614573  0.614571  0.614573  1
  Pd  Pd11  1  0.387690  0.387690  0.836929  1
  Pd  Pd12  1  0.387689  0.836927  0.387691  1
  Pd  Pd13  1  0.614573  0.614573  0.156283  1
  Pd  Pd14  1  0.614573  0.156284  0.614572  1
  Pd  Pd15  1  0.836930  0.387690  0.387690  1
  Pd  Pd16  1  0.156283  0.614574  0.614572  1
  Pd  Pd17  1  0.347564  0.997935  0.997936  1
  Pd  Pd18  1  0.656566  0.997936  0.997933  1
  Pd  Pd19  1  0.997934  0.347565  0.656566  1
  Pd  Pd20  1  0.997936  0.656564  0.347564  1
  Pd  Pd21  1  0.997934  0.347565  0.997935  1
  Pd  Pd22  1  0.656568  0.997934  0.347565  1
  Pd  Pd23  1  0.997935  0.656565  0.997935  1
  Pd  Pd24  1  0.347565  0.997934  0.656567  1
  Pd  Pd25  1  0.997935  0.997936  0.347565  1
  Pd  Pd26  1  0.997934  0.997935  0.656565  1
  Pd  Pd27  1  0.656566  0.347564  0.997935  1
  Pd  Pd28  1  0.347563  0.656565  0.997936  1
