# generated using pymatgen
data_Tb12Tm8Si15Ru
_symmetry_space_group_name_H-M   'P 1'
_cell_length_a   7.34627179
_cell_length_b   7.73120312
_cell_length_c   14.48669876
_cell_angle_alpha   90.00441888
_cell_angle_beta   90.11042069
_cell_angle_gamma   90.00895669
_symmetry_Int_Tables_number   1
_chemical_formula_structural   Tb12Tm8Si15Ru
_chemical_formula_sum   'Tb12 Tm8 Si15 Ru1'
_cell_volume   822.77803973
_cell_formula_units_Z   1
loop_
 _symmetry_equiv_pos_site_id
 _symmetry_equiv_pos_as_xyz
  1  'x, y, z'
loop_
 _atom_site_type_symbol
 _atom_site_label
 _atom_site_symmetry_multiplicity
 _atom_site_fract_x
 _atom_site_fract_y
 _atom_site_fract_z
 _atom_site_occupancy
  Tb  Tb0  1  0.318922  0.820290  0.376387  1
  Tb  Tb1  1  0.817055  0.676701  0.123208  1
  Tb  Tb2  1  0.670209  0.185345  0.873921  1
  Tb  Tb3  1  0.194001  0.325962  0.627225  1
  Tb  Tb4  1  0.523101  0.674322  0.595266  1
  Tb  Tb5  1  0.024163  0.818596  0.903859  1
  Tb  Tb6  1  0.473580  0.315780  0.097496  1
  Tb  Tb7  1  0.975513  0.181357  0.403171  1
  Tb  Tb8  1  0.475551  0.315865  0.403217  1
  Tb  Tb9  1  0.975459  0.181761  0.096427  1
  Tb  Tb10  1  0.519850  0.673155  0.904652  1
  Tb  Tb11  1  0.023605  0.818157  0.596022  1
  Tm  Tm12  1  0.672086  0.184968  0.626381  1
  Tm  Tm13  1  0.193410  0.326378  0.872413  1
  Tm  Tm14  1  0.317557  0.820092  0.124587  1
  Tm  Tm15  1  0.817661  0.676325  0.375839  1
  Tm  Tm16  1  0.840015  0.512911  0.749757  1
  Tm  Tm17  1  0.353647  0.983559  0.749950  1
  Tm  Tm18  1  0.150773  0.484431  0.249879  1
  Tm  Tm19  1  0.649614  0.013395  0.250289  1
  Si  Si20  1  0.651748  0.970951  0.461375  1
  Si  Si21  1  0.153741  0.529028  0.039054  1
  Si  Si22  1  0.344458  0.026454  0.961827  1
  Si  Si23  1  0.852224  0.469706  0.538631  1
  Si  Si24  1  0.351496  0.025601  0.540378  1
  Si  Si25  1  0.859793  0.469967  0.958996  1
  Si  Si26  1  0.643355  0.971027  0.040322  1
  Si  Si27  1  0.146958  0.528435  0.459568  1
  Si  Si28  1  0.981096  0.102349  0.749607  1
  Si  Si29  1  0.521603  0.603961  0.250120  1
  Si  Si30  1  0.018066  0.893927  0.249937  1
  Si  Si31  1  0.738752  0.876120  0.749030  1
  Si  Si32  1  0.227926  0.634492  0.751460  1
  Si  Si33  1  0.268151  0.128714  0.249474  1
  Si  Si34  1  0.771412  0.370389  0.250832  1
  Ru  Ru35  1  0.483451  0.409533  0.749440  1
