# generated using pymatgen
data_TbHo3Tm4(B6Rh)4
_symmetry_space_group_name_H-M   'P 1'
_cell_length_a   3.63520000
_cell_length_b   9.13441700
_cell_length_c   11.47221400
_cell_angle_alpha   90.00301996
_cell_angle_beta   90.00000000
_cell_angle_gamma   90.00000000
_symmetry_Int_Tables_number   1
_chemical_formula_structural   TbHo3Tm4(B6Rh)4
_chemical_formula_sum   'Tb1 Ho3 Tm4 B24 Rh4'
_cell_volume   380.93982938
_cell_formula_units_Z   1
loop_
 _symmetry_equiv_pos_site_id
 _symmetry_equiv_pos_as_xyz
  1  'x, y, z'
loop_
 _atom_site_type_symbol
 _atom_site_label
 _atom_site_symmetry_multiplicity
 _atom_site_fract_x
 _atom_site_fract_y
 _atom_site_fract_z
 _atom_site_occupancy
  Tb  Tb0  1  0.500000  0.322163  0.413727  1
  Ho  Ho1  1  0.500000  0.678090  0.586323  1
  Ho  Ho2  1  0.500000  0.178012  0.913736  1
  Ho  Ho3  1  0.500000  0.821920  0.086189  1
  Tm  Tm4  1  0.500000  0.444379  0.126795  1
  Tm  Tm5  1  0.500000  0.555723  0.873081  1
  Tm  Tm6  1  0.500000  0.055522  0.627123  1
  Tm  Tm7  1  0.500000  0.944164  0.373047  1
  B  B8  1  0.000000  0.107333  0.470974  1
  B  B9  1  0.000000  0.891961  0.529264  1
  B  B10  1  0.000000  0.391793  0.970644  1
  B  B11  1  0.000000  0.608291  0.029247  1
  B  B12  1  0.000000  0.132265  0.316179  1
  B  B13  1  0.000000  0.867237  0.683599  1
  B  B14  1  0.000000  0.367290  0.816515  1
  B  B15  1  0.000000  0.632793  0.183426  1
  B  B16  1  0.000000  0.054088  0.065371  1
  B  B17  1  0.000000  0.945870  0.934532  1
  B  B18  1  0.000000  0.446205  0.565886  1
  B  B19  1  0.000000  0.554604  0.434560  1
  B  B20  1  0.000000  0.483198  0.285955  1
  B  B21  1  0.000000  0.517505  0.713763  1
  B  B22  1  0.000000  0.017270  0.786429  1
  B  B23  1  0.000000  0.982520  0.213597  1
  B  B24  1  0.000000  0.250001  0.079478  1
  B  B25  1  0.000000  0.749996  0.920370  1
  B  B26  1  0.000000  0.249730  0.580153  1
  B  B27  1  0.000000  0.750144  0.420436  1
  B  B28  1  0.000000  0.294369  0.235350  1
  B  B29  1  0.000000  0.705422  0.764165  1
  B  B30  1  0.000000  0.205314  0.736067  1
  B  B31  1  0.000000  0.794620  0.264036  1
  Rh  Rh32  1  0.500000  0.139634  0.179131  1
  Rh  Rh33  1  0.500000  0.860082  0.820699  1
  Rh  Rh34  1  0.500000  0.360050  0.679797  1
  Rh  Rh35  1  0.500000  0.640438  0.320356  1
