# generated using pymatgen
data_Hf2Zr2NbSi4
_symmetry_space_group_name_H-M   'P 1'
_cell_length_a   7.03841700
_cell_length_b   7.03841700
_cell_length_c   12.86699200
_cell_angle_alpha   90.00000000
_cell_angle_beta   90.00000000
_cell_angle_gamma   90.00000000
_symmetry_Int_Tables_number   1
_chemical_formula_structural   Hf2Zr2NbSi4
_chemical_formula_sum   'Hf8 Zr8 Nb4 Si16'
_cell_volume   637.42195520
_cell_formula_units_Z   4
loop_
 _symmetry_equiv_pos_site_id
 _symmetry_equiv_pos_as_xyz
  1  'x, y, z'
loop_
 _atom_site_type_symbol
 _atom_site_label
 _atom_site_symmetry_multiplicity
 _atom_site_fract_x
 _atom_site_fract_y
 _atom_site_fract_z
 _atom_site_occupancy
  Hf  Hf0  1  0.496337  0.354737  0.126172  1
  Hf  Hf1  1  0.503663  0.645263  0.626172  1
  Hf  Hf2  1  0.854737  0.003663  0.876172  1
  Hf  Hf3  1  0.145263  0.996337  0.376172  1
  Hf  Hf4  1  0.645263  0.503663  0.373828  1
  Hf  Hf5  1  0.354737  0.496337  0.873828  1
  Hf  Hf6  1  0.003663  0.854737  0.123828  1
  Hf  Hf7  1  0.996337  0.145263  0.623828  1
  Zr  Zr8  1  0.497768  0.153281  0.531912  1
  Zr  Zr9  1  0.502232  0.846719  0.031912  1
  Zr  Zr10  1  0.653281  0.002232  0.281912  1
  Zr  Zr11  1  0.346719  0.997768  0.781912  1
  Zr  Zr12  1  0.846719  0.502232  0.968088  1
  Zr  Zr13  1  0.153281  0.497768  0.468088  1
  Zr  Zr14  1  0.002232  0.653281  0.718088  1
  Zr  Zr15  1  0.997768  0.346719  0.218088  1
  Nb  Nb16  1  0.675316  0.324684  0.750000  1
  Nb  Nb17  1  0.324684  0.675316  0.250000  1
  Nb  Nb18  1  0.824684  0.824684  0.500000  1
  Nb  Nb19  1  0.175316  0.175316  0.000000  1
  Si  Si20  1  0.796773  0.146288  0.072049  1
  Si  Si21  1  0.203227  0.853712  0.572049  1
  Si  Si22  1  0.646288  0.703227  0.822049  1
  Si  Si23  1  0.353712  0.296773  0.322049  1
  Si  Si24  1  0.853712  0.203227  0.427951  1
  Si  Si25  1  0.146288  0.796773  0.927951  1
  Si  Si26  1  0.703227  0.646288  0.177951  1
  Si  Si27  1  0.296773  0.353712  0.677951  1
  Si  Si28  1  0.548389  0.198746  0.935487  1
  Si  Si29  1  0.451611  0.801254  0.435487  1
  Si  Si30  1  0.698746  0.951611  0.685487  1
  Si  Si31  1  0.301254  0.048389  0.185487  1
  Si  Si32  1  0.801254  0.451611  0.564513  1
  Si  Si33  1  0.198746  0.548389  0.064513  1
  Si  Si34  1  0.951611  0.698746  0.314513  1
  Si  Si35  1  0.048389  0.301254  0.814513  1
