# generated using pymatgen
data_Tb10NdCd9Pd4
_symmetry_space_group_name_H-M   'P 1'
_cell_length_a   13.25348998
_cell_length_b   13.25349074
_cell_length_c   3.72092100
_cell_angle_alpha   90.00000000
_cell_angle_beta   90.00000000
_cell_angle_gamma   112.70591702
_symmetry_Int_Tables_number   1
_chemical_formula_structural   Tb10NdCd9Pd4
_chemical_formula_sum   'Tb10 Nd1 Cd9 Pd4'
_cell_volume   602.94337104
_cell_formula_units_Z   1
loop_
 _symmetry_equiv_pos_site_id
 _symmetry_equiv_pos_as_xyz
  1  'x, y, z'
loop_
 _atom_site_type_symbol
 _atom_site_label
 _atom_site_symmetry_multiplicity
 _atom_site_fract_x
 _atom_site_fract_y
 _atom_site_fract_z
 _atom_site_occupancy
  Tb  Tb0  1  0.416401  0.075256  0.000000  1
  Tb  Tb1  1  0.583599  0.924744  0.000000  1
  Tb  Tb2  1  0.075256  0.416401  0.000000  1
  Tb  Tb3  1  0.924744  0.583599  0.000000  1
  Tb  Tb4  1  0.163051  0.836949  0.000000  1
  Tb  Tb5  1  0.836949  0.163051  0.000000  1
  Tb  Tb6  1  0.372758  0.627242  0.000000  1
  Tb  Tb7  1  0.627242  0.372758  0.000000  1
  Tb  Tb8  1  0.307635  0.307635  0.000000  1
  Tb  Tb9  1  0.692365  0.692365  0.000000  1
  Nd  Nd10  1  0.000000  0.000000  0.000000  1
  Cd  Cd11  1  0.366156  0.841923  0.500000  1
  Cd  Cd12  1  0.633844  0.158077  0.500000  1
  Cd  Cd13  1  0.841923  0.366156  0.500000  1
  Cd  Cd14  1  0.158077  0.633844  0.500000  1
  Cd  Cd15  1  0.217543  0.070449  0.500000  1
  Cd  Cd16  1  0.782457  0.929551  0.500000  1
  Cd  Cd17  1  0.070449  0.217543  0.500000  1
  Cd  Cd18  1  0.929551  0.782457  0.500000  1
  Cd  Cd19  1  0.500000  0.500000  0.500000  1
  Pd  Pd20  1  0.450975  0.249454  0.500000  1
  Pd  Pd21  1  0.549025  0.750546  0.500000  1
  Pd  Pd22  1  0.249454  0.450975  0.500000  1
  Pd  Pd23  1  0.750546  0.549025  0.500000  1
