# generated using pymatgen
data_DyH5Os
_symmetry_space_group_name_H-M   'P 1'
_cell_length_a   4.43215700
_cell_length_b   4.72543900
_cell_length_c   11.66025500
_cell_angle_alpha   90.00000000
_cell_angle_beta   90.00000000
_cell_angle_gamma   90.00000000
_symmetry_Int_Tables_number   1
_chemical_formula_structural   DyH5Os
_chemical_formula_sum   'Dy4 H20 Os4'
_cell_volume   244.21106943
_cell_formula_units_Z   4
loop_
 _symmetry_equiv_pos_site_id
 _symmetry_equiv_pos_as_xyz
  1  'x, y, z'
loop_
 _atom_site_type_symbol
 _atom_site_label
 _atom_site_symmetry_multiplicity
 _atom_site_fract_x
 _atom_site_fract_y
 _atom_site_fract_z
 _atom_site_occupancy
  Dy  Dy0  1  0.281270  0.145890  0.649119  1
  Dy  Dy1  1  0.781270  0.354110  0.350881  1
  Dy  Dy2  1  0.218730  0.854110  0.149119  1
  Dy  Dy3  1  0.718730  0.645890  0.850881  1
  H  H4  1  0.557761  0.367596  0.519051  1
  H  H5  1  0.057761  0.132404  0.480949  1
  H  H6  1  0.942239  0.632404  0.019051  1
  H  H7  1  0.442239  0.867596  0.980949  1
  H  H8  1  0.121598  0.940934  0.817866  1
  H  H9  1  0.621598  0.559066  0.182134  1
  H  H10  1  0.378402  0.059066  0.317866  1
  H  H11  1  0.878402  0.440934  0.682134  1
  H  H12  1  0.201215  0.441690  0.829874  1
  H  H13  1  0.701215  0.058310  0.170126  1
  H  H14  1  0.298785  0.558310  0.329874  1
  H  H15  1  0.798785  0.941690  0.670126  1
  H  H16  1  0.617206  0.139120  0.823926  1
  H  H17  1  0.117206  0.360880  0.176074  1
  H  H18  1  0.882794  0.860880  0.323926  1
  H  H19  1  0.382794  0.639120  0.676074  1
  H  H20  1  0.976207  0.090786  0.996597  1
  H  H21  1  0.476207  0.409214  0.003403  1
  H  H22  1  0.523793  0.909214  0.496597  1
  H  H23  1  0.023793  0.590786  0.503403  1
  Os  Os24  1  0.313478  0.151404  0.908622  1
  Os  Os25  1  0.813478  0.348596  0.091378  1
  Os  Os26  1  0.186522  0.848596  0.408622  1
  Os  Os27  1  0.686522  0.651404  0.591378  1
