# generated using pymatgen
data_Ca3(SiRh)2
_symmetry_space_group_name_H-M   'P 1'
_cell_length_a   5.81710200
_cell_length_b   7.63356000
_cell_length_c   13.38415700
_cell_angle_alpha   90.00000000
_cell_angle_beta   90.00000000
_cell_angle_gamma   90.00000000
_symmetry_Int_Tables_number   1
_chemical_formula_structural   Ca3(SiRh)2
_chemical_formula_sum   'Ca12 Si8 Rh8'
_cell_volume   594.32613018
_cell_formula_units_Z   4
loop_
 _symmetry_equiv_pos_site_id
 _symmetry_equiv_pos_as_xyz
  1  'x, y, z'
loop_
 _atom_site_type_symbol
 _atom_site_label
 _atom_site_symmetry_multiplicity
 _atom_site_fract_x
 _atom_site_fract_y
 _atom_site_fract_z
 _atom_site_occupancy
  Ca  Ca0  1  0.136029  0.604254  0.100393  1
  Ca  Ca1  1  0.136029  0.895746  0.899607  1
  Ca  Ca2  1  0.863971  0.104254  0.399607  1
  Ca  Ca3  1  0.863971  0.395746  0.600393  1
  Ca  Ca4  1  0.863971  0.395746  0.899607  1
  Ca  Ca5  1  0.863971  0.104254  0.100393  1
  Ca  Ca6  1  0.136029  0.895746  0.600393  1
  Ca  Ca7  1  0.136029  0.604254  0.399607  1
  Ca  Ca8  1  0.364490  0.265063  0.250000  1
  Ca  Ca9  1  0.364490  0.234937  0.750000  1
  Ca  Ca10  1  0.635510  0.765063  0.250000  1
  Ca  Ca11  1  0.635510  0.734937  0.750000  1
  Si  Si12  1  0.839196  0.414042  0.250000  1
  Si  Si13  1  0.839196  0.085958  0.750000  1
  Si  Si14  1  0.160804  0.914042  0.250000  1
  Si  Si15  1  0.160804  0.585958  0.750000  1
  Si  Si16  1  0.410303  0.250000  0.000000  1
  Si  Si17  1  0.589697  0.750000  0.500000  1
  Si  Si18  1  0.589697  0.750000  0.000000  1
  Si  Si19  1  0.410303  0.250000  0.500000  1
  Rh  Rh20  1  0.637173  0.472303  0.090774  1
  Rh  Rh21  1  0.637173  0.027697  0.909226  1
  Rh  Rh22  1  0.362827  0.972303  0.409226  1
  Rh  Rh23  1  0.362827  0.527697  0.590774  1
  Rh  Rh24  1  0.362827  0.527697  0.909226  1
  Rh  Rh25  1  0.362827  0.972303  0.090774  1
  Rh  Rh26  1  0.637173  0.027697  0.590774  1
  Rh  Rh27  1  0.637173  0.472303  0.409226  1
