# generated using pymatgen
data_CsEu(SeO4)2
_symmetry_space_group_name_H-M   'P 1'
_cell_length_a   5.30259500
_cell_length_b   5.30259477
_cell_length_c   9.27371400
_cell_angle_alpha   90.00000000
_cell_angle_beta   90.00000000
_cell_angle_gamma   119.99999519
_symmetry_Int_Tables_number   1
_chemical_formula_structural   CsEu(SeO4)2
_chemical_formula_sum   'Cs1 Eu1 Se2 O8'
_cell_volume   225.81939945
_cell_formula_units_Z   1
loop_
 _symmetry_equiv_pos_site_id
 _symmetry_equiv_pos_as_xyz
  1  'x, y, z'
loop_
 _atom_site_type_symbol
 _atom_site_label
 _atom_site_symmetry_multiplicity
 _atom_site_fract_x
 _atom_site_fract_y
 _atom_site_fract_z
 _atom_site_occupancy
  Cs  Cs0  1  0.000000  0.000000  0.500001  1
  Eu  Eu1  1  0.000000  0.000000  0.000000  1
  Se  Se2  1  0.333333  0.666666  0.218854  1
  Se  Se3  1  0.666666  0.333333  0.781146  1
  O  O4  1  0.042585  0.364103  0.155924  1
  O  O5  1  0.635899  0.678485  0.155924  1
  O  O6  1  0.321516  0.957415  0.155924  1
  O  O7  1  0.333333  0.666666  0.396574  1
  O  O8  1  0.666666  0.333333  0.603426  1
  O  O9  1  0.678484  0.042586  0.844076  1
  O  O10  1  0.364103  0.321516  0.844076  1
  O  O11  1  0.957414  0.635898  0.844076  1
