# generated using pymatgen
data_Dy3Er(B4Ir)4
_symmetry_space_group_name_H-M   'P 1'
_cell_length_a   3.57068500
_cell_length_b   5.96700900
_cell_length_c   11.57408628
_cell_angle_alpha   90.02482240
_cell_angle_beta   90.00000000
_cell_angle_gamma   90.00000000
_symmetry_Int_Tables_number   1
_chemical_formula_structural   Dy3Er(B4Ir)4
_chemical_formula_sum   'Dy3 Er1 B16 Ir4'
_cell_volume   246.60104182
_cell_formula_units_Z   1
loop_
 _symmetry_equiv_pos_site_id
 _symmetry_equiv_pos_as_xyz
  1  'x, y, z'
loop_
 _atom_site_type_symbol
 _atom_site_label
 _atom_site_symmetry_multiplicity
 _atom_site_fract_x
 _atom_site_fract_y
 _atom_site_fract_z
 _atom_site_occupancy
  Dy  Dy0  1  0.500000  0.631115  0.148616  1
  Dy  Dy1  1  0.500000  0.368620  0.851236  1
  Dy  Dy2  1  0.500000  0.131257  0.351676  1
  Er  Er3  1  0.500000  0.869149  0.648454  1
  B  B4  1  0.000000  0.975400  0.192381  1
  B  B5  1  0.000000  0.024330  0.807147  1
  B  B6  1  0.000000  0.475124  0.308107  1
  B  B7  1  0.000000  0.525618  0.692012  1
  B  B8  1  0.000000  0.790854  0.312552  1
  B  B9  1  0.000000  0.207999  0.687385  1
  B  B10  1  0.000000  0.290550  0.187784  1
  B  B11  1  0.000000  0.709529  0.811739  1
  B  B12  1  0.000000  0.864005  0.469952  1
  B  B13  1  0.000000  0.135967  0.530898  1
  B  B14  1  0.000000  0.363459  0.030205  1
  B  B15  1  0.000000  0.636612  0.969533  1
  B  B16  1  0.000000  0.887660  0.046333  1
  B  B17  1  0.000000  0.112086  0.953378  1
  B  B18  1  0.000000  0.387880  0.454027  1
  B  B19  1  0.000000  0.613111  0.546727  1
  Ir  Ir20  1  0.500000  0.644015  0.403807  1
  Ir  Ir21  1  0.500000  0.356138  0.596936  1
  Ir  Ir22  1  0.500000  0.143167  0.096625  1
  Ir  Ir23  1  0.500000  0.856355  0.902484  1
