# generated using pymatgen
data_Li4Pr6PPd12
_symmetry_space_group_name_H-M   'P 1'
_cell_length_a   8.42839593
_cell_length_b   8.42839629
_cell_length_c   8.42839700
_cell_angle_alpha   109.47121752
_cell_angle_beta   109.47121840
_cell_angle_gamma   109.47122200
_symmetry_Int_Tables_number   1
_chemical_formula_structural   Li4Pr6PPd12
_chemical_formula_sum   'Li4 Pr6 P1 Pd12'
_cell_volume   460.90666751
_cell_formula_units_Z   1
loop_
 _symmetry_equiv_pos_site_id
 _symmetry_equiv_pos_as_xyz
  1  'x, y, z'
loop_
 _atom_site_type_symbol
 _atom_site_label
 _atom_site_symmetry_multiplicity
 _atom_site_fract_x
 _atom_site_fract_y
 _atom_site_fract_z
 _atom_site_occupancy
  Li  Li0  1  0.000000  0.000000  0.500000  1
  Li  Li1  1  0.500000  0.000000  0.000000  1
  Li  Li2  1  0.000000  0.500000  0.000000  1
  Li  Li3  1  0.500000  0.500000  0.500000  1
  Pr  Pr4  1  0.000000  0.304059  0.304059  1
  Pr  Pr5  1  0.000000  0.695941  0.695941  1
  Pr  Pr6  1  0.304059  0.000000  0.304059  1
  Pr  Pr7  1  0.695941  0.695941  0.000000  1
  Pr  Pr8  1  0.695941  0.000000  0.695941  1
  Pr  Pr9  1  0.304059  0.304059  0.000000  1
  P  P10  1  0.000000  0.000000  0.000000  1
  Pd  Pd11  1  0.333790  0.666210  0.000000  1
  Pd  Pd12  1  0.000000  0.333790  0.666210  1
  Pd  Pd13  1  0.666210  0.000000  0.333790  1
  Pd  Pd14  1  0.332418  0.666210  0.666210  1
  Pd  Pd15  1  0.666210  0.332418  0.666210  1
  Pd  Pd16  1  0.667582  0.333790  0.333790  1
  Pd  Pd17  1  0.333790  0.667582  0.333790  1
  Pd  Pd18  1  0.333790  0.333790  0.667582  1
  Pd  Pd19  1  0.000000  0.666210  0.333790  1
  Pd  Pd20  1  0.666210  0.666210  0.332418  1
  Pd  Pd21  1  0.333790  0.000000  0.666210  1
  Pd  Pd22  1  0.666210  0.333790  0.000000  1
