# generated using pymatgen
data_CaEr4Rh5
_symmetry_space_group_name_H-M   'P 1'
_cell_length_a   3.39710100
_cell_length_b   3.39710100
_cell_length_c   17.19022400
_cell_angle_alpha   90.00000000
_cell_angle_beta   90.00000000
_cell_angle_gamma   90.00000000
_symmetry_Int_Tables_number   1
_chemical_formula_structural   CaEr4Rh5
_chemical_formula_sum   'Ca1 Er4 Rh5'
_cell_volume   198.38025959
_cell_formula_units_Z   1
loop_
 _symmetry_equiv_pos_site_id
 _symmetry_equiv_pos_as_xyz
  1  'x, y, z'
loop_
 _atom_site_type_symbol
 _atom_site_label
 _atom_site_symmetry_multiplicity
 _atom_site_fract_x
 _atom_site_fract_y
 _atom_site_fract_z
 _atom_site_occupancy
  Ca  Ca0  1  0.000000  0.000000  0.000000  1
  Er  Er1  1  0.000000  0.000000  0.199664  1
  Er  Er2  1  0.000000  0.000000  0.399861  1
  Er  Er3  1  0.000000  0.000000  0.600139  1
  Er  Er4  1  0.000000  0.000000  0.800336  1
  Rh  Rh5  1  0.500000  0.500000  0.109733  1
  Rh  Rh6  1  0.500000  0.500000  0.302284  1
  Rh  Rh7  1  0.500000  0.500000  0.500000  1
  Rh  Rh8  1  0.500000  0.500000  0.697716  1
  Rh  Rh9  1  0.500000  0.500000  0.890267  1
