# generated using pymatgen
data_TbY5(RhI3)2
_symmetry_space_group_name_H-M   'P 1'
_cell_length_a   4.24311900
_cell_length_b   8.89354186
_cell_length_c   12.41362260
_cell_angle_alpha   86.35277760
_cell_angle_beta   90.00000000
_cell_angle_gamma   90.00000000
_symmetry_Int_Tables_number   1
_chemical_formula_structural   TbY5(RhI3)2
_chemical_formula_sum   'Tb1 Y5 Rh2 I6'
_cell_volume   467.49611657
_cell_formula_units_Z   1
loop_
 _symmetry_equiv_pos_site_id
 _symmetry_equiv_pos_as_xyz
  1  'x, y, z'
loop_
 _atom_site_type_symbol
 _atom_site_label
 _atom_site_symmetry_multiplicity
 _atom_site_fract_x
 _atom_site_fract_y
 _atom_site_fract_z
 _atom_site_occupancy
  Tb  Tb0  1  0.750000  0.136546  0.127568  1
  Y  Y1  1  0.250000  0.862710  0.871558  1
  Y  Y2  1  0.750000  0.098686  0.682968  1
  Y  Y3  1  0.250000  0.901123  0.317227  1
  Y  Y4  1  0.250000  0.259108  0.896698  1
  Y  Y5  1  0.750000  0.740568  0.103107  1
  Rh  Rh6  1  0.750000  0.054683  0.907736  1
  Rh  Rh7  1  0.250000  0.945820  0.092664  1
  I  I8  1  0.250000  0.353909  0.637011  1
  I  I9  1  0.750000  0.646048  0.363039  1
  I  I10  1  0.750000  0.141428  0.392891  1
  I  I11  1  0.250000  0.858538  0.607584  1
  I  I12  1  0.250000  0.425046  0.132818  1
  I  I13  1  0.750000  0.575788  0.867130  1
