# generated using pymatgen
data_TbEr2UN4
_symmetry_space_group_name_H-M   'P 1'
_cell_length_a   6.89809567
_cell_length_b   9.10540953
_cell_length_c   5.94346415
_cell_angle_alpha   29.24298144
_cell_angle_beta   54.52770565
_cell_angle_gamma   40.74850550
_symmetry_Int_Tables_number   1
_chemical_formula_structural   TbEr2UN4
_chemical_formula_sum   'Tb1 Er2 U1 N4'
_cell_volume   115.16058197
_cell_formula_units_Z   1
loop_
 _symmetry_equiv_pos_site_id
 _symmetry_equiv_pos_as_xyz
  1  'x, y, z'
loop_
 _atom_site_type_symbol
 _atom_site_label
 _atom_site_symmetry_multiplicity
 _atom_site_fract_x
 _atom_site_fract_y
 _atom_site_fract_z
 _atom_site_occupancy
  Tb  Tb0  1  0.500000  0.000000  0.000000  1
  Er  Er1  1  0.250000  0.500000  0.000000  1
  Er  Er2  1  0.750000  0.500000  0.000000  1
  U  U3  1  0.000000  0.000000  0.000000  1
  N  N4  1  0.500000  0.500000  0.500000  1
  N  N5  1  0.231602  0.000000  0.536795  1
  N  N6  1  0.000000  0.500000  0.500000  1
  N  N7  1  0.768398  0.000000  0.463205  1
