# generated using pymatgen
data_Tb5ZnIn4Co
_symmetry_space_group_name_H-M   'P 1'
_cell_length_a   3.58343200
_cell_length_b   8.21924723
_cell_length_c   18.29198668
_cell_angle_alpha   90.57480817
_cell_angle_beta   90.00000000
_cell_angle_gamma   90.00000000
_symmetry_Int_Tables_number   1
_chemical_formula_structural   Tb5ZnIn4Co
_chemical_formula_sum   'Tb10 Zn2 In8 Co2'
_cell_volume   538.72884846
_cell_formula_units_Z   2
loop_
 _symmetry_equiv_pos_site_id
 _symmetry_equiv_pos_as_xyz
  1  'x, y, z'
loop_
 _atom_site_type_symbol
 _atom_site_label
 _atom_site_symmetry_multiplicity
 _atom_site_fract_x
 _atom_site_fract_y
 _atom_site_fract_z
 _atom_site_occupancy
  Tb  Tb0  1  0.000000  0.115411  0.412470  1
  Tb  Tb1  1  0.000000  0.884589  0.587530  1
  Tb  Tb2  1  0.000000  0.377295  0.919706  1
  Tb  Tb3  1  0.000000  0.622705  0.080294  1
  Tb  Tb4  1  0.000000  0.215060  0.226326  1
  Tb  Tb5  1  0.000000  0.784940  0.773674  1
  Tb  Tb6  1  0.000000  0.232585  0.717215  1
  Tb  Tb7  1  0.000000  0.767415  0.282785  1
  Tb  Tb8  1  0.000000  0.000000  0.000000  1
  Tb  Tb9  1  0.000000  0.500000  0.500000  1
  Zn  Zn10  1  0.500000  0.480233  0.799901  1
  Zn  Zn11  1  0.500000  0.519767  0.200099  1
  In  In12  1  0.500000  0.423394  0.350106  1
  In  In13  1  0.500000  0.576606  0.649894  1
  In  In14  1  0.500000  0.074748  0.849205  1
  In  In15  1  0.500000  0.925252  0.150795  1
  In  In16  1  0.500000  0.291940  0.071911  1
  In  In17  1  0.500000  0.708060  0.928089  1
  In  In18  1  0.500000  0.203925  0.568896  1
  In  In19  1  0.500000  0.796075  0.431104  1
  Co  Co20  1  0.500000  0.019306  0.305381  1
  Co  Co21  1  0.500000  0.980694  0.694619  1
