# generated using pymatgen
data_Rb2Tb2Bi3SbSe10
_symmetry_space_group_name_H-M   'P 1'
_cell_length_a   4.16482600
_cell_length_b   12.44549828
_cell_length_c   22.32636863
_cell_angle_alpha   89.62029874
_cell_angle_beta   90.00000000
_cell_angle_gamma   90.00000000
_symmetry_Int_Tables_number   1
_chemical_formula_structural   Rb2Tb2Bi3SbSe10
_chemical_formula_sum   'Rb4 Tb4 Bi6 Sb2 Se20'
_cell_volume   1157.22472930
_cell_formula_units_Z   2
loop_
 _symmetry_equiv_pos_site_id
 _symmetry_equiv_pos_as_xyz
  1  'x, y, z'
loop_
 _atom_site_type_symbol
 _atom_site_label
 _atom_site_symmetry_multiplicity
 _atom_site_fract_x
 _atom_site_fract_y
 _atom_site_fract_z
 _atom_site_occupancy
  Rb  Rb0  1  0.250000  0.488597  0.209594  1
  Rb  Rb1  1  0.750000  0.511403  0.790406  1
  Rb  Rb2  1  0.750000  0.989412  0.288645  1
  Rb  Rb3  1  0.250000  0.010588  0.711355  1
  Tb  Tb4  1  0.250000  0.364855  0.023468  1
  Tb  Tb5  1  0.750000  0.635145  0.976532  1
  Tb  Tb6  1  0.750000  0.863413  0.475997  1
  Tb  Tb7  1  0.250000  0.136587  0.524003  1
  Bi  Bi8  1  0.750000  0.301955  0.374279  1
  Bi  Bi9  1  0.250000  0.698045  0.625721  1
  Bi  Bi10  1  0.250000  0.595720  0.423220  1
  Bi  Bi11  1  0.750000  0.404280  0.576780  1
  Bi  Bi12  1  0.750000  0.095953  0.074326  1
  Bi  Bi13  1  0.250000  0.904047  0.925674  1
  Sb  Sb14  1  0.250000  0.806698  0.125114  1
  Sb  Sb15  1  0.750000  0.193302  0.874886  1
  Se  Se16  1  0.250000  0.812019  0.389790  1
  Se  Se17  1  0.750000  0.187981  0.610210  1
  Se  Se18  1  0.750000  0.309728  0.109991  1
  Se  Se19  1  0.250000  0.690272  0.890009  1
  Se  Se20  1  0.250000  0.247283  0.295919  1
  Se  Se21  1  0.750000  0.752717  0.704081  1
  Se  Se22  1  0.750000  0.752586  0.199574  1
  Se  Se23  1  0.250000  0.247414  0.800426  1
  Se  Se24  1  0.250000  0.356420  0.480897  1
  Se  Se25  1  0.750000  0.643580  0.519103  1
  Se  Se26  1  0.750000  0.856290  0.019328  1
  Se  Se27  1  0.250000  0.143710  0.980672  1
  Se  Se28  1  0.250000  0.018651  0.158241  1
  Se  Se29  1  0.750000  0.981349  0.841759  1
  Se  Se30  1  0.750000  0.526786  0.340681  1
  Se  Se31  1  0.250000  0.473214  0.659319  1
  Se  Se32  1  0.250000  0.582894  0.060899  1
  Se  Se33  1  0.750000  0.417106  0.939101  1
  Se  Se34  1  0.750000  0.083000  0.439323  1
  Se  Se35  1  0.250000  0.917000  0.560677  1
