# generated using pymatgen
data_La5Er3(CuP)12
_symmetry_space_group_name_H-M   'P 1'
_cell_length_a   3.98853400
_cell_length_b   10.88378971
_cell_length_c   13.04528407
_cell_angle_alpha   89.88165410
_cell_angle_beta   90.00000000
_cell_angle_gamma   90.00000000
_symmetry_Int_Tables_number   1
_chemical_formula_structural   La5Er3(CuP)12
_chemical_formula_sum   'La5 Er3 Cu12 P12'
_cell_volume   566.29933903
_cell_formula_units_Z   1
loop_
 _symmetry_equiv_pos_site_id
 _symmetry_equiv_pos_as_xyz
  1  'x, y, z'
loop_
 _atom_site_type_symbol
 _atom_site_label
 _atom_site_symmetry_multiplicity
 _atom_site_fract_x
 _atom_site_fract_y
 _atom_site_fract_z
 _atom_site_occupancy
  La  La0  1  0.250000  0.935236  0.799484  1
  La  La1  1  0.750000  0.431497  0.708473  1
  La  La2  1  0.250000  0.565252  0.289411  1
  La  La3  1  0.750000  0.065502  0.207761  1
  La  La4  1  0.250000  0.844542  0.500445  1
  Er  Er5  1  0.750000  0.344437  0.999303  1
  Er  Er6  1  0.250000  0.654669  0.999735  1
  Er  Er7  1  0.750000  0.159376  0.500412  1
  Cu  Cu8  1  0.250000  0.396391  0.510282  1
  Cu  Cu9  1  0.750000  0.896141  0.990802  1
  Cu  Cu10  1  0.250000  0.105041  0.011735  1
  Cu  Cu11  1  0.750000  0.596848  0.490399  1
  Cu  Cu12  1  0.250000  0.272023  0.331664  1
  Cu  Cu13  1  0.750000  0.766677  0.161670  1
  Cu  Cu14  1  0.250000  0.231757  0.834272  1
  Cu  Cu15  1  0.750000  0.730366  0.671952  1
  Cu  Cu16  1  0.250000  0.855409  0.272201  1
  Cu  Cu17  1  0.750000  0.357203  0.218582  1
  Cu  Cu18  1  0.250000  0.641443  0.780879  1
  Cu  Cu19  1  0.750000  0.143801  0.722305  1
  P  P20  1  0.250000  0.235618  0.644088  1
  P  P21  1  0.750000  0.733443  0.858261  1
  P  P22  1  0.250000  0.266287  0.142690  1
  P  P23  1  0.750000  0.763399  0.346950  1
  P  P24  1  0.250000  0.601115  0.599173  1
  P  P25  1  0.750000  0.110200  0.904855  1
  P  P26  1  0.250000  0.893441  0.093303  1
  P  P27  1  0.750000  0.392678  0.401829  1
  P  P28  1  0.250000  0.064773  0.374161  1
  P  P29  1  0.750000  0.556130  0.122495  1
  P  P30  1  0.250000  0.442435  0.875968  1
  P  P31  1  0.750000  0.946869  0.634461  1
