# generated using pymatgen
data_NaSm6FeBr12
_symmetry_space_group_name_H-M   'P 1'
_cell_length_a   9.36441544
_cell_length_b   9.36441374
_cell_length_c   9.36441525
_cell_angle_alpha   106.92215084
_cell_angle_beta   106.92215889
_cell_angle_gamma   106.92215450
_symmetry_Int_Tables_number   1
_chemical_formula_structural   NaSm6FeBr12
_chemical_formula_sum   'Na1 Sm6 Fe1 Br12'
_cell_volume   685.33925835
_cell_formula_units_Z   1
loop_
 _symmetry_equiv_pos_site_id
 _symmetry_equiv_pos_as_xyz
  1  'x, y, z'
loop_
 _atom_site_type_symbol
 _atom_site_label
 _atom_site_symmetry_multiplicity
 _atom_site_fract_x
 _atom_site_fract_y
 _atom_site_fract_z
 _atom_site_occupancy
  Na  Na0  1  0.500000  0.500000  0.500000  1
  Sm  Sm1  1  0.312269  0.106127  0.029410  1
  Sm  Sm2  1  0.029410  0.312269  0.106127  1
  Sm  Sm3  1  0.106127  0.029410  0.312269  1
  Sm  Sm4  1  0.893872  0.970590  0.687731  1
  Sm  Sm5  1  0.970590  0.687731  0.893872  1
  Sm  Sm6  1  0.687731  0.893873  0.970589  1
  Fe  Fe7  1  0.000000  0.000000  0.000000  1
  Br  Br8  1  0.684709  0.220013  0.073736  1
  Br  Br9  1  0.370375  0.449784  0.148926  1
  Br  Br10  1  0.073736  0.684709  0.220013  1
  Br  Br11  1  0.779986  0.926264  0.315291  1
  Br  Br12  1  0.449784  0.148927  0.370374  1
  Br  Br13  1  0.148927  0.370374  0.449784  1
  Br  Br14  1  0.851074  0.629626  0.550217  1
  Br  Br15  1  0.550216  0.851074  0.629626  1
  Br  Br16  1  0.220013  0.073736  0.684709  1
  Br  Br17  1  0.926264  0.315291  0.779986  1
  Br  Br18  1  0.629626  0.550217  0.851074  1
  Br  Br19  1  0.315291  0.779986  0.926264  1
