# generated using pymatgen
data_Co4Ni2Se7S
_symmetry_space_group_name_H-M   'P 1'
_cell_length_a   6.93478378
_cell_length_b   6.93375838
_cell_length_c   6.93375900
_cell_angle_alpha   60.00000182
_cell_angle_beta   60.00489298
_cell_angle_gamma   60.00489275
_symmetry_Int_Tables_number   1
_chemical_formula_structural   Co4Ni2Se7S
_chemical_formula_sum   'Co4 Ni2 Se7 S1'
_cell_volume   235.76943035
_cell_formula_units_Z   1
loop_
 _symmetry_equiv_pos_site_id
 _symmetry_equiv_pos_as_xyz
  1  'x, y, z'
loop_
 _atom_site_type_symbol
 _atom_site_label
 _atom_site_symmetry_multiplicity
 _atom_site_fract_x
 _atom_site_fract_y
 _atom_site_fract_z
 _atom_site_occupancy
  Co  Co0  1  0.117480  0.133096  0.133096  1
  Co  Co1  1  0.625854  0.124715  0.124715  1
  Co  Co2  1  0.117480  0.133096  0.616328  1
  Co  Co3  1  0.117480  0.616328  0.133096  1
  Ni  Ni4  1  0.523775  0.492075  0.492075  1
  Ni  Ni5  1  0.743458  0.752181  0.752181  1
  Se  Se6  1  0.369181  0.365968  0.365968  1
  Se  Se7  1  0.337380  0.887540  0.887540  1
  Se  Se8  1  0.883276  0.883357  0.350010  1
  Se  Se9  1  0.883276  0.350010  0.883357  1
  Se  Se10  1  0.369181  0.365968  0.898885  1
  Se  Se11  1  0.369181  0.898885  0.365968  1
  Se  Se12  1  0.883276  0.883357  0.883357  1
  S  S13  1  0.909723  0.363426  0.363426  1
