# generated using pymatgen
data_TbEr5Al24(Os3Pd)2
_symmetry_space_group_name_H-M   'P 1'
_cell_length_a   8.79799300
_cell_length_b   8.84218012
_cell_length_c   9.55868348
_cell_angle_alpha   89.83274722
_cell_angle_beta   90.00000000
_cell_angle_gamma   119.83482379
_symmetry_Int_Tables_number   1
_chemical_formula_structural   TbEr5Al24(Os3Pd)2
_chemical_formula_sum   'Tb1 Er5 Al24 Os6 Pd2'
_cell_volume   645.04449072
_cell_formula_units_Z   1
loop_
 _symmetry_equiv_pos_site_id
 _symmetry_equiv_pos_as_xyz
  1  'x, y, z'
loop_
 _atom_site_type_symbol
 _atom_site_label
 _atom_site_symmetry_multiplicity
 _atom_site_fract_x
 _atom_site_fract_y
 _atom_site_fract_z
 _atom_site_occupancy
  Tb  Tb0  1  0.191786  0.383573  0.252661  1
  Er  Er1  1  0.807198  0.614395  0.746377  1
  Er  Er2  1  0.611925  0.809860  0.253890  1
  Er  Er3  1  0.388211  0.190412  0.746151  1
  Er  Er4  1  0.197934  0.809860  0.253890  1
  Er  Er5  1  0.802203  0.190412  0.746151  1
  Al  Al6  1  0.335790  0.671581  0.026752  1
  Al  Al7  1  0.664559  0.329117  0.972479  1
  Al  Al8  1  0.666791  0.333580  0.522686  1
  Al  Al9  1  0.333346  0.666693  0.477843  1
  Al  Al10  1  0.163472  0.326944  0.575547  1
  Al  Al11  1  0.836618  0.673235  0.425212  1
  Al  Al12  1  0.672231  0.835136  0.576333  1
  Al  Al13  1  0.838544  0.677087  0.080372  1
  Al  Al14  1  0.328122  0.164680  0.424269  1
  Al  Al15  1  0.161485  0.322970  0.918849  1
  Al  Al16  1  0.162905  0.835136  0.576333  1
  Al  Al17  1  0.325924  0.157814  0.078478  1
  Al  Al18  1  0.836559  0.164680  0.424269  1
  Al  Al19  1  0.674397  0.842029  0.921030  1
  Al  Al20  1  0.831890  0.157814  0.078478  1
  Al  Al21  1  0.167633  0.842029  0.921030  1
  Al  Al22  1  0.561907  0.123816  0.249009  1
  Al  Al23  1  0.438125  0.876250  0.751074  1
  Al  Al24  1  0.875721  0.438770  0.251641  1
  Al  Al25  1  0.123764  0.561616  0.748577  1
  Al  Al26  1  0.563049  0.438770  0.251641  1
  Al  Al27  1  0.437851  0.561616  0.748577  1
  Al  Al28  1  0.000442  0.000884  0.250535  1
  Al  Al29  1  0.998818  0.997635  0.749639  1
  Os  Os30  1  0.500133  0.000266  0.999942  1
  Os  Os31  1  0.500116  0.000233  0.500146  1
  Os  Os32  1  0.999717  0.500187  0.500375  1
  Os  Os33  1  0.500470  0.500187  0.500375  1
  Os  Os34  1  0.000001  0.000002  0.000037  1
  Os  Os35  1  0.999997  0.999994  0.500083  1
  Pd  Pd36  1  0.999861  0.500368  0.999633  1
  Pd  Pd37  1  0.500507  0.500368  0.999633  1
