# generated using pymatgen
data_CaTm4Cd5
_symmetry_space_group_name_H-M   'P 1'
_cell_length_a   3.76671000
_cell_length_b   3.76671000
_cell_length_c   18.18139900
_cell_angle_alpha   90.00000000
_cell_angle_beta   90.00000000
_cell_angle_gamma   90.00000000
_symmetry_Int_Tables_number   1
_chemical_formula_structural   CaTm4Cd5
_chemical_formula_sum   'Ca1 Tm4 Cd5'
_cell_volume   257.95958395
_cell_formula_units_Z   1
loop_
 _symmetry_equiv_pos_site_id
 _symmetry_equiv_pos_as_xyz
  1  'x, y, z'
loop_
 _atom_site_type_symbol
 _atom_site_label
 _atom_site_symmetry_multiplicity
 _atom_site_fract_x
 _atom_site_fract_y
 _atom_site_fract_z
 _atom_site_occupancy
  Ca  Ca0  1  0.000000  0.000000  0.000000  1
  Tm  Tm1  1  0.000000  0.000000  0.201939  1
  Tm  Tm2  1  0.000000  0.000000  0.400768  1
  Tm  Tm3  1  0.000000  0.000000  0.599232  1
  Tm  Tm4  1  0.000000  0.000000  0.798061  1
  Cd  Cd5  1  0.500000  0.500000  0.106560  1
  Cd  Cd6  1  0.500000  0.500000  0.301647  1
  Cd  Cd7  1  0.500000  0.500000  0.500000  1
  Cd  Cd8  1  0.500000  0.500000  0.698353  1
  Cd  Cd9  1  0.500000  0.500000  0.893440  1
