# generated using pymatgen
data_PrSm3Ga4CoRu3
_symmetry_space_group_name_H-M   'P 1'
_cell_length_a   4.58650100
_cell_length_b   7.35109216
_cell_length_c   7.08121989
_cell_angle_alpha   90.14574001
_cell_angle_beta   90.00000000
_cell_angle_gamma   90.00000000
_symmetry_Int_Tables_number   1
_chemical_formula_structural   PrSm3Ga4CoRu3
_chemical_formula_sum   'Pr1 Sm3 Ga4 Co1 Ru3'
_cell_volume   238.74816150
_cell_formula_units_Z   1
loop_
 _symmetry_equiv_pos_site_id
 _symmetry_equiv_pos_as_xyz
  1  'x, y, z'
loop_
 _atom_site_type_symbol
 _atom_site_label
 _atom_site_symmetry_multiplicity
 _atom_site_fract_x
 _atom_site_fract_y
 _atom_site_fract_z
 _atom_site_occupancy
  Pr  Pr0  1  0.250000  0.527953  0.690889  1
  Sm  Sm1  1  0.250000  0.029558  0.806329  1
  Sm  Sm2  1  0.750000  0.972097  0.193724  1
  Sm  Sm3  1  0.750000  0.476508  0.302441  1
  Ga  Ga4  1  0.250000  0.192643  0.391296  1
  Ga  Ga5  1  0.250000  0.691695  0.104934  1
  Ga  Ga6  1  0.750000  0.806552  0.613422  1
  Ga  Ga7  1  0.750000  0.309383  0.893574  1
  Co  Co8  1  0.750000  0.650176  0.941076  1
  Ru  Ru9  1  0.250000  0.845281  0.436350  1
  Ru  Ru10  1  0.250000  0.344511  0.063443  1
  Ru  Ru11  1  0.750000  0.153643  0.562521  1
