# generated using pymatgen
data_Li4PrNd3Si5Hg
_symmetry_space_group_name_H-M   'P 1'
_cell_length_a   9.62146833
_cell_length_b   9.62146921
_cell_length_c   6.86220500
_cell_angle_alpha   90.00000000
_cell_angle_beta   90.00000000
_cell_angle_gamma   153.04980191
_symmetry_Int_Tables_number   1
_chemical_formula_structural   Li4PrNd3Si5Hg
_chemical_formula_sum   'Li4 Pr1 Nd3 Si5 Hg1'
_cell_volume   287.90654319
_cell_formula_units_Z   1
loop_
 _symmetry_equiv_pos_site_id
 _symmetry_equiv_pos_as_xyz
  1  'x, y, z'
loop_
 _atom_site_type_symbol
 _atom_site_label
 _atom_site_symmetry_multiplicity
 _atom_site_fract_x
 _atom_site_fract_y
 _atom_site_fract_z
 _atom_site_occupancy
  Li  Li0  1  0.187527  0.812473  0.048390  1
  Li  Li1  1  0.187527  0.812473  0.451610  1
  Li  Li2  1  0.814298  0.185702  0.930917  1
  Li  Li3  1  0.814298  0.185702  0.569083  1
  Pr  Pr4  1  0.654937  0.345063  0.750000  1
  Nd  Nd5  1  0.347200  0.652800  0.250000  1
  Nd  Nd6  1  0.547304  0.452696  0.250000  1
  Nd  Nd7  1  0.448327  0.551673  0.750000  1
  Si  Si8  1  0.280365  0.719635  0.750000  1
  Si  Si9  1  0.057521  0.942479  0.925098  1
  Si  Si10  1  0.941841  0.058159  0.075321  1
  Si  Si11  1  0.941841  0.058159  0.424679  1
  Si  Si12  1  0.057521  0.942479  0.574902  1
  Hg  Hg13  1  0.719493  0.280507  0.250000  1
