# generated using pymatgen
data_Ta3NbTc2(P2Rh)2
_symmetry_space_group_name_H-M   'P 1'
_cell_length_a   3.75200700
_cell_length_b   6.37737603
_cell_length_c   7.26714103
_cell_angle_alpha   89.98934152
_cell_angle_beta   90.00000000
_cell_angle_gamma   90.00000000
_symmetry_Int_Tables_number   1
_chemical_formula_structural   Ta3NbTc2(P2Rh)2
_chemical_formula_sum   'Ta3 Nb1 Tc2 P4 Rh2'
_cell_volume   173.88785325
_cell_formula_units_Z   1
loop_
 _symmetry_equiv_pos_site_id
 _symmetry_equiv_pos_as_xyz
  1  'x, y, z'
loop_
 _atom_site_type_symbol
 _atom_site_label
 _atom_site_symmetry_multiplicity
 _atom_site_fract_x
 _atom_site_fract_y
 _atom_site_fract_z
 _atom_site_occupancy
  Ta  Ta0  1  0.250000  0.027710  0.827893  1
  Ta  Ta1  1  0.250000  0.527315  0.671171  1
  Ta  Ta2  1  0.750000  0.475388  0.329131  1
  Nb  Nb3  1  0.750000  0.976398  0.170033  1
  Tc  Tc4  1  0.250000  0.141713  0.445537  1
  Tc  Tc5  1  0.250000  0.639732  0.056599  1
  P  P6  1  0.250000  0.768958  0.367760  1
  P  P7  1  0.250000  0.270807  0.132583  1
  P  P8  1  0.750000  0.238346  0.620956  1
  P  P9  1  0.750000  0.738233  0.879254  1
  Rh  Rh10  1  0.750000  0.847182  0.567821  1
  Rh  Rh11  1  0.750000  0.348220  0.931262  1
