# generated using pymatgen
data_TbPu2UAs6Ru7
_symmetry_space_group_name_H-M   'P 1'
_cell_length_a   7.23433493
_cell_length_b   7.25646383
_cell_length_c   7.17407161
_cell_angle_alpha   109.35089302
_cell_angle_beta   109.24766233
_cell_angle_gamma   109.70839515
_symmetry_Int_Tables_number   1
_chemical_formula_structural   TbPu2UAs6Ru7
_chemical_formula_sum   'Tb1 Pu2 U1 As6 Ru7'
_cell_volume   290.29014270
_cell_formula_units_Z   1
loop_
 _symmetry_equiv_pos_site_id
 _symmetry_equiv_pos_as_xyz
  1  'x, y, z'
loop_
 _atom_site_type_symbol
 _atom_site_label
 _atom_site_symmetry_multiplicity
 _atom_site_fract_x
 _atom_site_fract_y
 _atom_site_fract_z
 _atom_site_occupancy
  Tb  Tb0  1  0.000000  0.000000  0.500000  1
  Pu  Pu1  1  0.500000  0.000000  0.000000  1
  Pu  Pu2  1  0.500000  0.500000  0.500000  1
  U  U3  1  0.000000  0.500000  0.000000  1
  As  As4  1  0.312796  0.002071  0.314217  1
  As  As5  1  0.000000  0.309990  0.313163  1
  As  As6  1  0.000000  0.690010  0.686837  1
  As  As7  1  0.312796  0.310724  0.998578  1
  As  As8  1  0.687204  0.689276  0.001422  1
  As  As9  1  0.687204  0.997929  0.685783  1
  Ru  Ru10  1  0.749234  0.493851  0.245765  1
  Ru  Ru11  1  0.490768  0.745384  0.245384  1
  Ru  Ru12  1  0.509232  0.254616  0.754616  1
  Ru  Ru13  1  0.749234  0.255384  0.503470  1
  Ru  Ru14  1  0.250766  0.744616  0.496530  1
  Ru  Ru15  1  0.250766  0.506149  0.754235  1
  Ru  Ru16  1  0.000000  0.000000  0.000000  1
