# generated using pymatgen
data_Tb7NdCo3Si12Pd
_symmetry_space_group_name_H-M   'P 1'
_cell_length_a   8.06913200
_cell_length_b   8.06913347
_cell_length_c   8.03525000
_cell_angle_alpha   90.00000000
_cell_angle_beta   90.00000000
_cell_angle_gamma   119.99999396
_symmetry_Int_Tables_number   1
_chemical_formula_structural   Tb7NdCo3Si12Pd
_chemical_formula_sum   'Tb7 Nd1 Co3 Si12 Pd1'
_cell_volume   453.08926322
_cell_formula_units_Z   1
loop_
 _symmetry_equiv_pos_site_id
 _symmetry_equiv_pos_as_xyz
  1  'x, y, z'
loop_
 _atom_site_type_symbol
 _atom_site_label
 _atom_site_symmetry_multiplicity
 _atom_site_fract_x
 _atom_site_fract_y
 _atom_site_fract_z
 _atom_site_occupancy
  Tb  Tb0  1  0.491240  0.508760  0.754157  1
  Tb  Tb1  1  0.503835  0.496165  0.248099  1
  Tb  Tb2  1  0.017520  0.508760  0.754157  1
  Tb  Tb3  1  0.992329  0.496165  0.248099  1
  Tb  Tb4  1  0.491240  0.982480  0.754157  1
  Tb  Tb5  1  0.503835  0.007671  0.248099  1
  Tb  Tb6  1  0.000000  0.000000  0.750211  1
  Nd  Nd7  1  0.000000  0.000000  0.247250  1
  Co  Co8  1  0.666667  0.333333  0.967370  1
  Co  Co9  1  0.333333  0.666667  0.032795  1
  Co  Co10  1  0.333333  0.666667  0.464173  1
  Si  Si11  1  0.827313  0.172687  0.997207  1
  Si  Si12  1  0.171556  0.828444  0.998986  1
  Si  Si13  1  0.345374  0.172687  0.997207  1
  Si  Si14  1  0.173181  0.826819  0.502185  1
  Si  Si15  1  0.656888  0.828444  0.998986  1
  Si  Si16  1  0.835357  0.164643  0.499620  1
  Si  Si17  1  0.827313  0.654626  0.997207  1
  Si  Si18  1  0.653638  0.826819  0.502185  1
  Si  Si19  1  0.171556  0.343112  0.998986  1
  Si  Si20  1  0.329285  0.164643  0.499620  1
  Si  Si21  1  0.173181  0.346362  0.502185  1
  Si  Si22  1  0.835357  0.670715  0.499620  1
  Pd  Pd23  1  0.666667  0.333333  0.537434  1
