# generated using pymatgen
data_Sm4Er3Tm(B6Os)4
_symmetry_space_group_name_H-M   'P 1'
_cell_length_a   3.66949800
_cell_length_b   9.17199702
_cell_length_c   11.58490002
_cell_angle_alpha   90.00735900
_cell_angle_beta   90.00000000
_cell_angle_gamma   90.00000000
_symmetry_Int_Tables_number   1
_chemical_formula_structural   Sm4Er3Tm(B6Os)4
_chemical_formula_sum   'Sm4 Er3 Tm1 B24 Os4'
_cell_volume   389.90862927
_cell_formula_units_Z   1
loop_
 _symmetry_equiv_pos_site_id
 _symmetry_equiv_pos_as_xyz
  1  'x, y, z'
loop_
 _atom_site_type_symbol
 _atom_site_label
 _atom_site_symmetry_multiplicity
 _atom_site_fract_x
 _atom_site_fract_y
 _atom_site_fract_z
 _atom_site_occupancy
  Sm  Sm0  1  0.000000  0.322284  0.414207  1
  Sm  Sm1  1  0.000000  0.677723  0.585923  1
  Sm  Sm2  1  0.000000  0.822168  0.085715  1
  Sm  Sm3  1  0.000000  0.177842  0.914119  1
  Er  Er4  1  0.000000  0.944219  0.372541  1
  Er  Er5  1  0.000000  0.055768  0.627529  1
  Er  Er6  1  0.000000  0.444283  0.127241  1
  Tm  Tm7  1  0.000000  0.555795  0.872524  1
  B  B8  1  0.500000  0.555332  0.431564  1
  B  B9  1  0.500000  0.444707  0.568558  1
  B  B10  1  0.500000  0.055299  0.068416  1
  B  B11  1  0.500000  0.944519  0.931526  1
  B  B12  1  0.500000  0.749376  0.418246  1
  B  B13  1  0.500000  0.250697  0.581818  1
  B  B14  1  0.500000  0.249420  0.081724  1
  B  B15  1  0.500000  0.750259  0.918231  1
  B  B16  1  0.500000  0.791098  0.266527  1
  B  B17  1  0.500000  0.209044  0.733523  1
  B  B18  1  0.500000  0.291145  0.233434  1
  B  B19  1  0.500000  0.708544  0.766632  1
  B  B20  1  0.500000  0.630814  0.184996  1
  B  B21  1  0.500000  0.369443  0.815101  1
  B  B22  1  0.500000  0.130861  0.314947  1
  B  B23  1  0.500000  0.869045  0.685127  1
  B  B24  1  0.500000  0.984333  0.213865  1
  B  B25  1  0.500000  0.015573  0.786165  1
  B  B26  1  0.500000  0.484307  0.286100  1
  B  B27  1  0.500000  0.515880  0.714132  1
  B  B28  1  0.500000  0.603503  0.028076  1
  B  B29  1  0.500000  0.396765  0.971349  1
  B  B30  1  0.500000  0.103709  0.471578  1
  B  B31  1  0.500000  0.896277  0.528471  1
  Os  Os32  1  0.000000  0.638281  0.320026  1
  Os  Os33  1  0.000000  0.361996  0.680131  1
  Os  Os34  1  0.000000  0.138398  0.179827  1
  Os  Os35  1  0.000000  0.861291  0.820110  1
