# generated using pymatgen
data_Tb7Sc(AlRu)8
_symmetry_space_group_name_H-M   'P 1'
_cell_length_a   4.05823700
_cell_length_b   6.98380838
_cell_length_c   15.95759373
_cell_angle_alpha   90.43419583
_cell_angle_beta   90.00000000
_cell_angle_gamma   90.00000000
_symmetry_Int_Tables_number   1
_chemical_formula_structural   Tb7Sc(AlRu)8
_chemical_formula_sum   'Tb7 Sc1 Al8 Ru8'
_cell_volume   452.25632992
_cell_formula_units_Z   1
loop_
 _symmetry_equiv_pos_site_id
 _symmetry_equiv_pos_as_xyz
  1  'x, y, z'
loop_
 _atom_site_type_symbol
 _atom_site_label
 _atom_site_symmetry_multiplicity
 _atom_site_fract_x
 _atom_site_fract_y
 _atom_site_fract_z
 _atom_site_occupancy
  Tb  Tb0  1  0.750000  0.964762  0.219461  1
  Tb  Tb1  1  0.250000  0.164037  0.565341  1
  Tb  Tb2  1  0.750000  0.841833  0.438057  1
  Tb  Tb3  1  0.750000  0.464764  0.281108  1
  Tb  Tb4  1  0.750000  0.338750  0.061918  1
  Tb  Tb5  1  0.250000  0.657131  0.934430  1
  Tb  Tb6  1  0.250000  0.034747  0.778570  1
  Sc  Sc7  1  0.250000  0.541837  0.715063  1
  Al  Al8  1  0.750000  0.504782  0.568566  1
  Al  Al9  1  0.750000  0.364342  0.846964  1
  Al  Al10  1  0.750000  0.994954  0.932197  1
  Al  Al11  1  0.750000  0.863311  0.652484  1
  Al  Al12  1  0.250000  0.501355  0.436017  1
  Al  Al13  1  0.250000  0.997582  0.064743  1
  Al  Al14  1  0.250000  0.634558  0.150493  1
  Al  Al15  1  0.250000  0.135934  0.350054  1
  Ru  Ru16  1  0.750000  0.728816  0.809030  1
  Ru  Ru17  1  0.250000  0.228693  0.935916  1
  Ru  Ru18  1  0.750000  0.266767  0.437934  1
  Ru  Ru19  1  0.250000  0.753400  0.312837  1
  Ru  Ru20  1  0.750000  0.764292  0.062848  1
  Ru  Ru21  1  0.750000  0.263368  0.691252  1
  Ru  Ru22  1  0.250000  0.254360  0.187766  1
  Ru  Ru23  1  0.250000  0.735627  0.566953  1
