# generated using pymatgen
data_Y5Ho3Cd2OsPt
_symmetry_space_group_name_H-M   'P 1'
_cell_length_a   9.65529341
_cell_length_b   9.66797738
_cell_length_c   9.72826231
_cell_angle_alpha   59.70707764
_cell_angle_beta   59.83580670
_cell_angle_gamma   59.68084396
_symmetry_Int_Tables_number   1
_chemical_formula_structural   Y5Ho3Cd2OsPt
_chemical_formula_sum   'Y10 Ho6 Cd4 Os2 Pt2'
_cell_volume   638.35172132
_cell_formula_units_Z   2
loop_
 _symmetry_equiv_pos_site_id
 _symmetry_equiv_pos_as_xyz
  1  'x, y, z'
loop_
 _atom_site_type_symbol
 _atom_site_label
 _atom_site_symmetry_multiplicity
 _atom_site_fract_x
 _atom_site_fract_y
 _atom_site_fract_z
 _atom_site_occupancy
  Y  Y0  1  0.188330  0.814085  0.190966  1
  Y  Y1  1  0.814077  0.188325  0.806620  1
  Y  Y2  1  0.188465  0.188470  0.811528  1
  Y  Y3  1  0.808391  0.808395  0.191600  1
  Y  Y4  1  0.938003  0.557311  0.566240  1
  Y  Y5  1  0.557326  0.937991  0.938462  1
  Y  Y6  1  0.556806  0.938253  0.566198  1
  Y  Y7  1  0.938242  0.556818  0.938751  1
  Y  Y8  1  0.562746  0.562743  0.937255  1
  Y  Y9  1  0.940116  0.940115  0.559892  1
  Ho  Ho10  1  0.349378  0.349333  0.352253  1
  Ho  Ho11  1  0.349240  0.349292  0.949132  1
  Ho  Ho12  1  0.346188  0.955257  0.349218  1
  Ho  Ho13  1  0.955251  0.346196  0.349252  1
  Ho  Ho14  1  0.814106  0.188603  0.190795  1
  Ho  Ho15  1  0.188577  0.814050  0.806554  1
  Cd  Cd16  1  0.580135  0.580047  0.580775  1
  Cd  Cd17  1  0.580044  0.580139  0.259052  1
  Cd  Cd18  1  0.580816  0.256208  0.581555  1
  Cd  Cd19  1  0.256208  0.580817  0.581442  1
  Os  Os20  1  0.142961  0.145505  0.139105  1
  Os  Os21  1  0.145517  0.142976  0.572418  1
  Pt  Pt22  1  0.146497  0.572577  0.139251  1
  Pt  Pt23  1  0.572580  0.146496  0.141687  1
