# generated using pymatgen
data_Dy16Tm4Si15As
_symmetry_space_group_name_H-M   'P 1'
_cell_length_a   7.49205685
_cell_length_b   7.62855293
_cell_length_c   14.62063316
_cell_angle_alpha   89.88342780
_cell_angle_beta   85.62308623
_cell_angle_gamma   89.94599992
_symmetry_Int_Tables_number   1
_chemical_formula_structural   Dy16Tm4Si15As
_chemical_formula_sum   'Dy16 Tm4 Si15 As1'
_cell_volume   833.18211839
_cell_formula_units_Z   1
loop_
 _symmetry_equiv_pos_site_id
 _symmetry_equiv_pos_as_xyz
  1  'x, y, z'
loop_
 _atom_site_type_symbol
 _atom_site_label
 _atom_site_symmetry_multiplicity
 _atom_site_fract_x
 _atom_site_fract_y
 _atom_site_fract_z
 _atom_site_occupancy
  Dy  Dy0  1  0.011080  0.823400  0.102794  1
  Dy  Dy1  1  0.473136  0.685110  0.397761  1
  Dy  Dy2  1  0.487742  0.319387  0.897808  1
  Dy  Dy3  1  0.027104  0.185609  0.602867  1
  Dy  Dy4  1  0.992230  0.178398  0.898109  1
  Dy  Dy5  1  0.525989  0.314563  0.602024  1
  Dy  Dy6  1  0.506664  0.681802  0.102583  1
  Dy  Dy7  1  0.972780  0.813218  0.397579  1
  Dy  Dy8  1  0.638658  0.838129  0.881098  1
  Dy  Dy9  1  0.174525  0.677192  0.622300  1
  Dy  Dy10  1  0.861650  0.335702  0.117851  1
  Dy  Dy11  1  0.325352  0.176311  0.378138  1
  Dy  Dy12  1  0.360566  0.163414  0.118831  1
  Dy  Dy13  1  0.825582  0.322587  0.378263  1
  Dy  Dy14  1  0.140400  0.665124  0.882126  1
  Dy  Dy15  1  0.674901  0.823749  0.622325  1
  Tm  Tm16  1  0.673078  0.995044  0.245756  1
  Tm  Tm17  1  0.172085  0.503809  0.245572  1
  Tm  Tm18  1  0.827926  0.495727  0.751316  1
  Tm  Tm19  1  0.326863  0.004950  0.753770  1
  Si  Si20  1  0.786492  0.628718  0.251562  1
  Si  Si21  1  0.286558  0.869797  0.252075  1
  Si  Si22  1  0.712289  0.131203  0.748523  1
  Si  Si23  1  0.212278  0.370806  0.748770  1
  Si  Si24  1  0.045053  0.109107  0.251745  1
  Si  Si25  1  0.545649  0.390513  0.250992  1
  Si  Si26  1  0.455141  0.609483  0.749493  1
  Si  Si27  1  0.954891  0.891094  0.749326  1
  Si  Si28  1  0.356750  0.972499  0.542947  1
  Si  Si29  1  0.710675  0.031430  0.043741  1
  Si  Si30  1  0.144413  0.471580  0.458036  1
  Si  Si31  1  0.213723  0.468670  0.044217  1
  Si  Si32  1  0.643771  0.026529  0.457119  1
  Si  Si33  1  0.291265  0.968590  0.955491  1
  Si  Si34  1  0.856174  0.527036  0.542843  1
  As  As35  1  0.786566  0.529722  0.954250  1
