# generated using pymatgen
data_Ba6Sn8BiI
_symmetry_space_group_name_H-M   'P 1'
_cell_length_a   9.36623031
_cell_length_b   9.36622915
_cell_length_c   9.46479934
_cell_angle_alpha   119.65610082
_cell_angle_beta   119.65609188
_cell_angle_gamma   90.00000157
_symmetry_Int_Tables_number   1
_chemical_formula_structural   Ba6Sn8BiI
_chemical_formula_sum   'Ba6 Sn8 Bi1 I1'
_cell_volume   593.17016712
_cell_formula_units_Z   1
loop_
 _symmetry_equiv_pos_site_id
 _symmetry_equiv_pos_as_xyz
  1  'x, y, z'
loop_
 _atom_site_type_symbol
 _atom_site_label
 _atom_site_symmetry_multiplicity
 _atom_site_fract_x
 _atom_site_fract_y
 _atom_site_fract_z
 _atom_site_occupancy
  Ba  Ba0  1  0.252561  0.252561  0.505122  1
  Ba  Ba1  1  0.747439  0.747439  0.494878  1
  Ba  Ba2  1  0.658922  0.167599  0.000000  1
  Ba  Ba3  1  0.341078  0.832401  0.000000  1
  Ba  Ba4  1  0.832401  0.658922  0.000000  1
  Ba  Ba5  1  0.167599  0.341078  0.000000  1
  Sn  Sn6  1  0.334080  0.834270  0.388440  1
  Sn  Sn7  1  0.665920  0.165730  0.611560  1
  Sn  Sn8  1  0.054361  0.554171  0.388440  1
  Sn  Sn9  1  0.554171  0.334080  0.388440  1
  Sn  Sn10  1  0.165730  0.945639  0.611560  1
  Sn  Sn11  1  0.945639  0.445829  0.611560  1
  Sn  Sn12  1  0.445829  0.665920  0.611560  1
  Sn  Sn13  1  0.834270  0.054361  0.388440  1
  Bi  Bi14  1  0.500000  0.500000  0.000000  1
  I  I15  1  0.000000  0.000000  0.000000  1
