# generated using pymatgen
data_Er4ReI4
_symmetry_space_group_name_H-M   'P 1'
_cell_length_a   11.13810079
_cell_length_b   11.13810083
_cell_length_c   6.12582017
_cell_angle_alpha   90.41278181
_cell_angle_beta   90.41277712
_cell_angle_gamma   90.00387554
_symmetry_Int_Tables_number   1
_chemical_formula_structural   Er4ReI4
_chemical_formula_sum   'Er8 Re2 I8'
_cell_volume   759.91319938
_cell_formula_units_Z   2
loop_
 _symmetry_equiv_pos_site_id
 _symmetry_equiv_pos_as_xyz
  1  'x, y, z'
loop_
 _atom_site_type_symbol
 _atom_site_label
 _atom_site_symmetry_multiplicity
 _atom_site_fract_x
 _atom_site_fract_y
 _atom_site_fract_z
 _atom_site_occupancy
  Er  Er0  1  0.199776  0.918047  0.002612  1
  Er  Er1  1  0.800224  0.081953  0.997388  1
  Er  Er2  1  0.081953  0.800224  0.497388  1
  Er  Er3  1  0.918047  0.199776  0.502612  1
  Er  Er4  1  0.800250  0.918082  0.496462  1
  Er  Er5  1  0.199750  0.081918  0.503538  1
  Er  Er6  1  0.081918  0.199750  0.003538  1
  Er  Er7  1  0.918082  0.800250  0.996462  1
  Re  Re8  1  0.999877  0.000123  0.250000  1
  Re  Re9  1  0.000123  0.999877  0.750000  1
  I  I10  1  0.360300  0.848275  0.495119  1
  I  I11  1  0.639700  0.151725  0.504881  1
  I  I12  1  0.151725  0.639700  0.004881  1
  I  I13  1  0.848275  0.360300  0.995119  1
  I  I14  1  0.360163  0.152032  0.013150  1
  I  I15  1  0.639837  0.847968  0.986850  1
  I  I16  1  0.847968  0.639837  0.486850  1
  I  I17  1  0.152032  0.360163  0.513150  1
