# generated using pymatgen
data_Er5P12PdRu18
_symmetry_space_group_name_H-M   'P 1'
_cell_length_a   12.56791135
_cell_length_b   12.56791225
_cell_length_c   3.97361800
_cell_angle_alpha   90.00000000
_cell_angle_beta   90.00000000
_cell_angle_gamma   120.55136314
_symmetry_Int_Tables_number   1
_chemical_formula_structural   Er5P12PdRu18
_chemical_formula_sum   'Er5 P12 Pd1 Ru18'
_cell_volume   540.50931840
_cell_formula_units_Z   1
loop_
 _symmetry_equiv_pos_site_id
 _symmetry_equiv_pos_as_xyz
  1  'x, y, z'
loop_
 _atom_site_type_symbol
 _atom_site_label
 _atom_site_symmetry_multiplicity
 _atom_site_fract_x
 _atom_site_fract_y
 _atom_site_fract_z
 _atom_site_occupancy
  Er  Er0  1  0.182180  0.182180  0.500000  1
  Er  Er1  1  0.816968  0.000331  0.500000  1
  Er  Er2  1  0.000331  0.816968  0.500000  1
  Er  Er3  1  0.330700  0.667678  0.000000  1
  Er  Er4  1  0.667678  0.330700  0.000000  1
  P  P5  1  0.813944  0.813944  0.000000  1
  P  P6  1  0.183825  0.000623  0.000000  1
  P  P7  1  0.000623  0.183825  0.000000  1
  P  P8  1  0.172344  0.479921  0.500000  1
  P  P9  1  0.520090  0.699254  0.500000  1
  P  P10  1  0.306107  0.830381  0.500000  1
  P  P11  1  0.699254  0.520090  0.500000  1
  P  P12  1  0.830381  0.306107  0.500000  1
  P  P13  1  0.479921  0.172344  0.500000  1
  P  P14  1  0.364502  0.364502  0.000000  1
  P  P15  1  0.627041  0.999719  0.000000  1
  P  P16  1  0.999719  0.627041  0.000000  1
  Pd  Pd17  1  0.553172  0.553172  0.000000  1
  Ru  Ru18  1  0.445803  0.000551  0.000000  1
  Ru  Ru19  1  0.000551  0.445803  0.000000  1
  Ru  Ru20  1  0.714267  0.714267  0.500000  1
  Ru  Ru21  1  0.283077  0.001321  0.500000  1
  Ru  Ru22  1  0.001321  0.283077  0.500000  1
  Ru  Ru23  1  0.185674  0.378656  0.000000  1
  Ru  Ru24  1  0.622539  0.808325  0.000000  1
  Ru  Ru25  1  0.190321  0.815621  0.000000  1
  Ru  Ru26  1  0.808325  0.622539  0.000000  1
  Ru  Ru27  1  0.815621  0.190321  0.000000  1
  Ru  Ru28  1  0.378656  0.185674  0.000000  1
  Ru  Ru29  1  0.366495  0.493078  0.500000  1
  Ru  Ru30  1  0.507651  0.875926  0.500000  1
  Ru  Ru31  1  0.127598  0.635114  0.500000  1
  Ru  Ru32  1  0.875926  0.507651  0.500000  1
  Ru  Ru33  1  0.635114  0.127598  0.500000  1
  Ru  Ru34  1  0.493078  0.366495  0.500000  1
  Ru  Ru35  1  0.999205  0.999205  0.000000  1
