# generated using pymatgen
data_MgZrPaPt2
_symmetry_space_group_name_H-M   'P 1'
_cell_length_a   7.73271600
_cell_length_b   7.58772000
_cell_length_c   3.59000500
_cell_angle_alpha   90.00000000
_cell_angle_beta   90.00000000
_cell_angle_gamma   90.00000000
_symmetry_Int_Tables_number   1
_chemical_formula_structural   MgZrPaPt2
_chemical_formula_sum   'Mg2 Zr2 Pa2 Pt4'
_cell_volume   210.63881838
_cell_formula_units_Z   2
loop_
 _symmetry_equiv_pos_site_id
 _symmetry_equiv_pos_as_xyz
  1  'x, y, z'
loop_
 _atom_site_type_symbol
 _atom_site_label
 _atom_site_symmetry_multiplicity
 _atom_site_fract_x
 _atom_site_fract_y
 _atom_site_fract_z
 _atom_site_occupancy
  Mg  Mg0  1  0.995008  0.987879  0.000000  1
  Mg  Mg1  1  0.495007  0.512120  0.000000  1
  Zr  Zr2  1  0.173775  0.675879  0.500001  1
  Zr  Zr3  1  0.673774  0.824121  0.500001  1
  Pa  Pa4  1  0.332209  0.161759  0.500001  1
  Pa  Pa5  1  0.832209  0.338242  0.500001  1
  Pt  Pt6  1  0.632106  0.140529  0.000000  1
  Pt  Pt7  1  0.132105  0.359470  0.000000  1
  Pt  Pt8  1  0.866904  0.630022  0.000000  1
  Pt  Pt9  1  0.366903  0.869979  0.000000  1
