# generated using pymatgen
data_NdEu(Cu9Si4)2
_symmetry_space_group_name_H-M   'P 1'
_cell_length_a   8.16068895
_cell_length_b   8.16068938
_cell_length_c   8.16069010
_cell_angle_alpha   120.46833350
_cell_angle_beta   120.46833077
_cell_angle_gamma   89.19072431
_symmetry_Int_Tables_number   1
_chemical_formula_structural   NdEu(Cu9Si4)2
_chemical_formula_sum   'Nd1 Eu1 Cu18 Si8'
_cell_volume   381.53409026
_cell_formula_units_Z   1
loop_
 _symmetry_equiv_pos_site_id
 _symmetry_equiv_pos_as_xyz
  1  'x, y, z'
loop_
 _atom_site_type_symbol
 _atom_site_label
 _atom_site_symmetry_multiplicity
 _atom_site_fract_x
 _atom_site_fract_y
 _atom_site_fract_z
 _atom_site_occupancy
  Nd  Nd0  1  0.250000  0.250000  0.000000  1
  Eu  Eu1  1  0.750000  0.750000  0.000000  1
  Cu  Cu2  1  0.435268  0.701685  0.137290  1
  Cu  Cu3  1  0.701685  0.564395  0.266417  1
  Cu  Cu4  1  0.297978  0.435268  0.733583  1
  Cu  Cu5  1  0.935605  0.798315  0.733583  1
  Cu  Cu6  1  0.564395  0.297978  0.862710  1
  Cu  Cu7  1  0.306802  0.557883  0.499884  1
  Cu  Cu8  1  0.057999  0.806918  0.500116  1
  Cu  Cu9  1  0.693082  0.442001  0.499884  1
  Cu  Cu10  1  0.942117  0.193198  0.500116  1
  Cu  Cu11  1  0.442001  0.942117  0.748919  1
  Cu  Cu12  1  0.193198  0.693082  0.251081  1
  Cu  Cu13  1  0.557883  0.057999  0.251081  1
  Cu  Cu14  1  0.202022  0.935605  0.137290  1
  Cu  Cu15  1  0.064732  0.202022  0.266417  1
  Cu  Cu16  1  0.000000  0.500000  0.500000  1
  Cu  Cu17  1  0.500000  0.000000  0.500000  1
  Cu  Cu18  1  0.806918  0.306802  0.748919  1
  Cu  Cu19  1  0.798315  0.064732  0.862710  1
  Si  Si20  1  0.293597  0.793807  0.851023  1
  Si  Si21  1  0.057426  0.557216  0.851023  1
  Si  Si22  1  0.557216  0.706193  0.499790  1
  Si  Si23  1  0.793807  0.942784  0.500210  1
  Si  Si24  1  0.442574  0.293597  0.499790  1
  Si  Si25  1  0.942784  0.442574  0.148977  1
  Si  Si26  1  0.706193  0.206403  0.148977  1
  Si  Si27  1  0.206403  0.057426  0.500210  1
