# generated using pymatgen
data_Dy2Fe3P7Ru9
_symmetry_space_group_name_H-M   'P 1'
_cell_length_a   9.30417100
_cell_length_b   9.30417123
_cell_length_c   3.85620700
_cell_angle_alpha   90.00000000
_cell_angle_beta   90.00000000
_cell_angle_gamma   119.99999563
_symmetry_Int_Tables_number   1
_chemical_formula_structural   Dy2Fe3P7Ru9
_chemical_formula_sum   'Dy2 Fe3 P7 Ru9'
_cell_volume   289.09885219
_cell_formula_units_Z   1
loop_
 _symmetry_equiv_pos_site_id
 _symmetry_equiv_pos_as_xyz
  1  'x, y, z'
loop_
 _atom_site_type_symbol
 _atom_site_label
 _atom_site_symmetry_multiplicity
 _atom_site_fract_x
 _atom_site_fract_y
 _atom_site_fract_z
 _atom_site_occupancy
  Dy  Dy0  1  0.333333  0.666667  0.000000  1
  Dy  Dy1  1  0.000000  0.000000  0.500000  1
  Fe  Fe2  1  0.934301  0.490403  0.000000  1
  Fe  Fe3  1  0.509597  0.443898  0.000000  1
  Fe  Fe4  1  0.556102  0.065699  0.000000  1
  P  P5  1  0.970301  0.745252  0.000000  1
  P  P6  1  0.254748  0.225049  0.000000  1
  P  P7  1  0.774951  0.029699  0.000000  1
  P  P8  1  0.063063  0.448560  0.500000  1
  P  P9  1  0.551440  0.614502  0.500000  1
  P  P10  1  0.385498  0.936937  0.500000  1
  P  P11  1  0.666667  0.333333  0.000000  1
  Ru  Ru12  1  0.726757  0.754685  0.000000  1
  Ru  Ru13  1  0.245315  0.972072  0.000000  1
  Ru  Ru14  1  0.027928  0.273243  0.000000  1
  Ru  Ru15  1  0.104306  0.718279  0.500000  1
  Ru  Ru16  1  0.281721  0.386027  0.500000  1
  Ru  Ru17  1  0.613973  0.895694  0.500000  1
  Ru  Ru18  1  0.754844  0.538026  0.500000  1
  Ru  Ru19  1  0.461974  0.216819  0.500000  1
  Ru  Ru20  1  0.783181  0.245156  0.500000  1
