# generated using pymatgen
data_HfZr2Ti6(NbSi2)3
_symmetry_space_group_name_H-M   'P 1'
_cell_length_a   3.63096700
_cell_length_b   6.92840491
_cell_length_c   11.97000935
_cell_angle_alpha   89.77704399
_cell_angle_beta   90.00000000
_cell_angle_gamma   90.00000000
_symmetry_Int_Tables_number   1
_chemical_formula_structural   HfZr2Ti6(NbSi2)3
_chemical_formula_sum   'Hf1 Zr2 Ti6 Nb3 Si6'
_cell_volume   301.12496631
_cell_formula_units_Z   1
loop_
 _symmetry_equiv_pos_site_id
 _symmetry_equiv_pos_as_xyz
  1  'x, y, z'
loop_
 _atom_site_type_symbol
 _atom_site_label
 _atom_site_symmetry_multiplicity
 _atom_site_fract_x
 _atom_site_fract_y
 _atom_site_fract_z
 _atom_site_occupancy
  Hf  Hf0  1  0.500000  0.295792  0.296172  1
  Zr  Zr1  1  0.500000  0.294813  0.705789  1
  Zr  Zr2  1  0.500000  0.796047  0.203673  1
  Ti  Ti3  1  0.000000  0.750665  0.998087  1
  Ti  Ti4  1  0.000000  0.247193  0.501854  1
  Ti  Ti5  1  0.000000  0.626677  0.627023  1
  Ti  Ti6  1  0.000000  0.124635  0.124897  1
  Ti  Ti7  1  0.000000  0.127643  0.872367  1
  Ti  Ti8  1  0.000000  0.625117  0.372950  1
  Nb  Nb9  1  0.500000  0.408635  0.998161  1
  Nb  Nb10  1  0.500000  0.906286  0.503114  1
  Nb  Nb11  1  0.500000  0.794941  0.796659  1
  Si  Si12  1  0.000000  0.993491  0.667019  1
  Si  Si13  1  0.000000  0.496203  0.161913  1
  Si  Si14  1  0.000000  0.504796  0.835991  1
  Si  Si15  1  0.000000  0.998774  0.338016  1
  Si  Si16  1  0.500000  0.004779  0.997123  1
  Si  Si17  1  0.500000  0.503715  0.499190  1
