# generated using pymatgen
data_Dy11Th5Mg4FeRu3
_symmetry_space_group_name_H-M   'P 1'
_cell_length_a   9.67094207
_cell_length_b   9.76245715
_cell_length_c   9.76245698
_cell_angle_alpha   59.91219015
_cell_angle_beta   60.33709880
_cell_angle_gamma   60.33710992
_symmetry_Int_Tables_number   1
_chemical_formula_structural   Dy11Th5Mg4FeRu3
_chemical_formula_sum   'Dy11 Th5 Mg4 Fe1 Ru3'
_cell_volume   654.59745315
_cell_formula_units_Z   1
loop_
 _symmetry_equiv_pos_site_id
 _symmetry_equiv_pos_as_xyz
  1  'x, y, z'
loop_
 _atom_site_type_symbol
 _atom_site_label
 _atom_site_symmetry_multiplicity
 _atom_site_fract_x
 _atom_site_fract_y
 _atom_site_fract_z
 _atom_site_occupancy
  Dy  Dy0  1  0.186113  0.813193  0.813193  1
  Dy  Dy1  1  0.191172  0.813288  0.185121  1
  Dy  Dy2  1  0.813666  0.184920  0.810580  1
  Dy  Dy3  1  0.191172  0.185121  0.813288  1
  Dy  Dy4  1  0.813666  0.810580  0.184920  1
  Dy  Dy5  1  0.934339  0.566546  0.566546  1
  Dy  Dy6  1  0.567005  0.933971  0.933971  1
  Dy  Dy7  1  0.562234  0.937301  0.562770  1
  Dy  Dy8  1  0.937657  0.562427  0.936397  1
  Dy  Dy9  1  0.562234  0.562770  0.937301  1
  Dy  Dy10  1  0.937657  0.936397  0.562427  1
  Th  Th11  1  0.342947  0.347766  0.347766  1
  Th  Th12  1  0.341823  0.342654  0.964692  1
  Th  Th13  1  0.341823  0.964692  0.342654  1
  Th  Th14  1  0.962206  0.346404  0.346404  1
  Th  Th15  1  0.825801  0.182987  0.182987  1
  Mg  Mg16  1  0.579790  0.579719  0.579719  1
  Mg  Mg17  1  0.578866  0.582753  0.258585  1
  Mg  Mg18  1  0.578866  0.258585  0.582753  1
  Mg  Mg19  1  0.260124  0.579037  0.579037  1
  Fe  Fe20  1  0.120455  0.151755  0.151755  1
  Ru  Ru21  1  0.146341  0.141407  0.567886  1
  Ru  Ru22  1  0.146341  0.567886  0.141407  1
  Ru  Ru23  1  0.577706  0.147839  0.147839  1
