# generated using pymatgen
data_Sr21Ga8Sn6Hg
_symmetry_space_group_name_H-M   'P 1'
_cell_length_a   12.15163646
_cell_length_b   12.15163767
_cell_length_c   12.15163700
_cell_angle_alpha   60.00000456
_cell_angle_beta   60.00000124
_cell_angle_gamma   60.00000100
_symmetry_Int_Tables_number   1
_chemical_formula_structural   Sr21Ga8Sn6Hg
_chemical_formula_sum   'Sr21 Ga8 Sn6 Hg1'
_cell_volume   1268.78896232
_cell_formula_units_Z   1
loop_
 _symmetry_equiv_pos_site_id
 _symmetry_equiv_pos_as_xyz
  1  'x, y, z'
loop_
 _atom_site_type_symbol
 _atom_site_label
 _atom_site_symmetry_multiplicity
 _atom_site_fract_x
 _atom_site_fract_y
 _atom_site_fract_z
 _atom_site_occupancy
  Sr  Sr0  1  0.869327  0.869327  0.392018  1
  Sr  Sr1  1  0.607982  0.130673  0.130673  1
  Sr  Sr2  1  0.869327  0.392018  0.869327  1
  Sr  Sr3  1  0.130673  0.130673  0.130673  1
  Sr  Sr4  1  0.392018  0.869327  0.869327  1
  Sr  Sr5  1  0.869327  0.869327  0.869327  1
  Sr  Sr6  1  0.173007  0.826993  0.500000  1
  Sr  Sr7  1  0.826993  0.500000  0.500000  1
  Sr  Sr8  1  0.130673  0.130673  0.607982  1
  Sr  Sr9  1  0.826993  0.173007  0.500000  1
  Sr  Sr10  1  0.173007  0.500000  0.500000  1
  Sr  Sr11  1  0.130673  0.607982  0.130673  1
  Sr  Sr12  1  0.500000  0.500000  0.173007  1
  Sr  Sr13  1  0.500000  0.173007  0.826993  1
  Sr  Sr14  1  0.500000  0.826993  0.173007  1
  Sr  Sr15  1  0.500000  0.500000  0.826993  1
  Sr  Sr16  1  0.500000  0.173007  0.500000  1
  Sr  Sr17  1  0.173007  0.500000  0.826993  1
  Sr  Sr18  1  0.000000  0.000000  0.000000  1
  Sr  Sr19  1  0.500000  0.826993  0.500000  1
  Sr  Sr20  1  0.826993  0.500000  0.173007  1
  Ga  Ga21  1  0.693455  0.919636  0.693455  1
  Ga  Ga22  1  0.693455  0.693455  0.919636  1
  Ga  Ga23  1  0.693455  0.693455  0.693455  1
  Ga  Ga24  1  0.306545  0.080364  0.306545  1
  Ga  Ga25  1  0.919636  0.693455  0.693455  1
  Ga  Ga26  1  0.306545  0.306545  0.080364  1
  Ga  Ga27  1  0.080364  0.306545  0.306545  1
  Ga  Ga28  1  0.306545  0.306545  0.306545  1
  Sn  Sn29  1  0.784746  0.215254  0.784746  1
  Sn  Sn30  1  0.784746  0.215254  0.215254  1
  Sn  Sn31  1  0.215254  0.784746  0.215254  1
  Sn  Sn32  1  0.215254  0.784746  0.784746  1
  Sn  Sn33  1  0.784746  0.784746  0.215254  1
  Sn  Sn34  1  0.215254  0.215254  0.784746  1
  Hg  Hg35  1  0.500000  0.500000  0.500000  1
