# generated using pymatgen
data_Yb3MnRuC6
_symmetry_space_group_name_H-M   'P 1'
_cell_length_a   8.21595000
_cell_length_b   8.21595087
_cell_length_c   5.00226100
_cell_angle_alpha   90.00000000
_cell_angle_beta   90.00000000
_cell_angle_gamma   119.99999541
_symmetry_Int_Tables_number   1
_chemical_formula_structural   Yb3MnRuC6
_chemical_formula_sum   'Yb6 Mn2 Ru2 C12'
_cell_volume   292.42373574
_cell_formula_units_Z   2
loop_
 _symmetry_equiv_pos_site_id
 _symmetry_equiv_pos_as_xyz
  1  'x, y, z'
loop_
 _atom_site_type_symbol
 _atom_site_label
 _atom_site_symmetry_multiplicity
 _atom_site_fract_x
 _atom_site_fract_y
 _atom_site_fract_z
 _atom_site_occupancy
  Yb  Yb0  1  0.613982  0.688656  0.750000  1
  Yb  Yb1  1  0.925326  0.613982  0.250000  1
  Yb  Yb2  1  0.688656  0.074674  0.250000  1
  Yb  Yb3  1  0.311344  0.925326  0.750000  1
  Yb  Yb4  1  0.074674  0.386018  0.750000  1
  Yb  Yb5  1  0.386018  0.311344  0.250000  1
  Mn  Mn6  1  0.000000  0.000000  0.500000  1
  Mn  Mn7  1  0.000000  0.000000  0.000000  1
  Ru  Ru8  1  0.666667  0.333333  0.750000  1
  Ru  Ru9  1  0.333333  0.666667  0.250000  1
  C  C10  1  0.956062  0.778897  0.750000  1
  C  C11  1  0.177165  0.956062  0.250000  1
  C  C12  1  0.778897  0.822835  0.250000  1
  C  C13  1  0.221103  0.177165  0.750000  1
  C  C14  1  0.822835  0.043938  0.750000  1
  C  C15  1  0.043938  0.221103  0.250000  1
  C  C16  1  0.865389  0.592191  0.750000  1
  C  C17  1  0.273199  0.865389  0.250000  1
  C  C18  1  0.592191  0.726801  0.250000  1
  C  C19  1  0.407809  0.273199  0.750000  1
  C  C20  1  0.134611  0.407809  0.250000  1
  C  C21  1  0.726801  0.134611  0.750000  1
