# generated using pymatgen
data_Cs12TiW3S16
_symmetry_space_group_name_H-M   'P 1'
_cell_length_a   10.03023900
_cell_length_b   9.94914773
_cell_length_c   11.79671800
_cell_angle_alpha   90.00000000
_cell_angle_beta   90.00000000
_cell_angle_gamma   89.64615017
_symmetry_Int_Tables_number   1
_chemical_formula_structural   Cs12TiW3S16
_chemical_formula_sum   'Cs12 Ti1 W3 S16'
_cell_volume   1177.19952100
_cell_formula_units_Z   1
loop_
 _symmetry_equiv_pos_site_id
 _symmetry_equiv_pos_as_xyz
  1  'x, y, z'
loop_
 _atom_site_type_symbol
 _atom_site_label
 _atom_site_symmetry_multiplicity
 _atom_site_fract_x
 _atom_site_fract_y
 _atom_site_fract_z
 _atom_site_occupancy
  Cs  Cs0  1  0.410164  0.847222  0.750000  1
  Cs  Cs1  1  0.585209  0.148961  0.250000  1
  Cs  Cs2  1  0.081269  0.356272  0.750000  1
  Cs  Cs3  1  0.716420  0.555020  0.953699  1
  Cs  Cs4  1  0.286495  0.457062  0.038936  1
  Cs  Cs5  1  0.920823  0.649835  0.250000  1
  Cs  Cs6  1  0.202709  0.948624  0.034725  1
  Cs  Cs7  1  0.286495  0.457062  0.461064  1
  Cs  Cs8  1  0.202709  0.948624  0.465275  1
  Cs  Cs9  1  0.716420  0.555020  0.546301  1
  Cs  Cs10  1  0.797437  0.038940  0.549677  1
  Cs  Cs11  1  0.797437  0.038940  0.950323  1
  Ti  Ti12  1  0.983876  0.776291  0.750000  1
  W  W13  1  0.516213  0.275180  0.750000  1
  W  W14  1  0.015583  0.221628  0.250000  1
  W  W15  1  0.485146  0.725022  0.250000  1
  S  S16  1  0.573130  0.517084  0.250000  1
  S  S17  1  0.070287  0.988314  0.750000  1
  S  S18  1  0.453722  0.167923  0.907554  1
  S  S19  1  0.048065  0.666660  0.588804  1
  S  S20  1  0.427905  0.482157  0.750000  1
  S  S21  1  0.950035  0.330130  0.093889  1
  S  S22  1  0.548274  0.834029  0.406515  1
  S  S23  1  0.756104  0.792545  0.750000  1
  S  S24  1  0.048065  0.666660  0.911196  1
  S  S25  1  0.262457  0.708935  0.250000  1
  S  S26  1  0.548274  0.834029  0.093485  1
  S  S27  1  0.238773  0.207137  0.250000  1
  S  S28  1  0.738200  0.292325  0.750000  1
  S  S29  1  0.453722  0.167923  0.592446  1
  S  S30  1  0.928546  0.014319  0.250000  1
  S  S31  1  0.950035  0.330130  0.406111  1
