# generated using pymatgen
data_Ti12Cd(Sn2Sb)3
_symmetry_space_group_name_H-M   'P 1'
_cell_length_a   9.27990400
_cell_length_b   9.28238918
_cell_length_c   5.68731308
_cell_angle_alpha   90.01710600
_cell_angle_beta   90.00000000
_cell_angle_gamma   119.99114394
_symmetry_Int_Tables_number   1
_chemical_formula_structural   Ti12Cd(Sn2Sb)3
_chemical_formula_sum   'Ti12 Cd1 Sn6 Sb3'
_cell_volume   424.30656210
_cell_formula_units_Z   1
loop_
 _symmetry_equiv_pos_site_id
 _symmetry_equiv_pos_as_xyz
  1  'x, y, z'
loop_
 _atom_site_type_symbol
 _atom_site_label
 _atom_site_symmetry_multiplicity
 _atom_site_fract_x
 _atom_site_fract_y
 _atom_site_fract_z
 _atom_site_occupancy
  Ti  Ti0  1  0.840562  0.681125  0.757247  1
  Ti  Ti1  1  0.161252  0.845883  0.242648  1
  Ti  Ti2  1  0.684631  0.845883  0.242648  1
  Ti  Ti3  1  0.311338  0.158359  0.757258  1
  Ti  Ti4  1  0.847021  0.158359  0.757258  1
  Ti  Ti5  1  0.153782  0.307565  0.242718  1
  Ti  Ti6  1  0.501893  0.003786  0.498647  1
  Ti  Ti7  1  0.498583  0.498358  0.999649  1
  Ti  Ti8  1  0.999775  0.498358  0.999649  1
  Ti  Ti9  1  0.999942  0.498588  0.500413  1
  Ti  Ti10  1  0.501835  0.003670  0.001100  1
  Ti  Ti11  1  0.498646  0.498588  0.500413  1
  Cd  Cd12  1  0.995931  0.991863  0.500578  1
  Sn  Sn13  1  0.597517  0.800505  0.745874  1
  Sn  Sn14  1  0.202989  0.800505  0.745874  1
  Sn  Sn15  1  0.800873  0.601747  0.254366  1
  Sn  Sn16  1  0.667167  0.334333  0.754259  1
  Sn  Sn17  1  0.334041  0.668083  0.246141  1
  Sn  Sn18  1  0.996677  0.993354  0.998801  1
  Sb  Sb19  1  0.202471  0.404942  0.745665  1
  Sb  Sb20  1  0.801044  0.203074  0.254399  1
  Sb  Sb21  1  0.402030  0.203074  0.254399  1
