# generated using pymatgen
data_Sr5AcSn8BiSb
_symmetry_space_group_name_H-M   'P 1'
_cell_length_a   9.08583360
_cell_length_b   9.08645917
_cell_length_c   9.09239340
_cell_angle_alpha   120.49347841
_cell_angle_beta   120.49006942
_cell_angle_gamma   89.14974137
_symmetry_Int_Tables_number   1
_chemical_formula_structural   Sr5AcSn8BiSb
_chemical_formula_sum   'Sr5 Ac1 Sn8 Bi1 Sb1'
_cell_volume   526.78426578
_cell_formula_units_Z   1
loop_
 _symmetry_equiv_pos_site_id
 _symmetry_equiv_pos_as_xyz
  1  'x, y, z'
loop_
 _atom_site_type_symbol
 _atom_site_label
 _atom_site_symmetry_multiplicity
 _atom_site_fract_x
 _atom_site_fract_y
 _atom_site_fract_z
 _atom_site_occupancy
  Sr  Sr0  1  0.752721  0.752711  0.000000  1
  Sr  Sr1  1  0.160774  0.666429  0.827326  1
  Sr  Sr2  1  0.839064  0.333518  0.172658  1
  Sr  Sr3  1  0.666456  0.839058  0.505617  1
  Sr  Sr4  1  0.333505  0.160817  0.494414  1
  Ac  Ac5  1  0.247017  0.247069  0.999982  1
  Sn  Sn6  1  0.829927  0.331809  0.784659  1
  Sn  Sn7  1  0.169234  0.669001  0.215285  1
  Sn  Sn8  1  0.547089  0.045204  0.215217  1
  Sn  Sn9  1  0.331624  0.547193  0.501793  1
  Sn  Sn10  1  0.953925  0.169395  0.500292  1
  Sn  Sn11  1  0.453811  0.954028  0.784824  1
  Sn  Sn12  1  0.669216  0.453701  0.499857  1
  Sn  Sn13  1  0.045308  0.829758  0.498066  1
  Bi  Bi14  1  0.501489  0.501493  0.999974  1
  Sb  Sb15  1  0.998838  0.998815  0.000035  1
