# generated using pymatgen
data_RbYSiS4
_symmetry_space_group_name_H-M   'P 1'
_cell_length_a   6.68872400
_cell_length_b   6.43626352
_cell_length_c   9.08872506
_cell_angle_alpha   72.44631034
_cell_angle_beta   90.00000000
_cell_angle_gamma   90.00000000
_symmetry_Int_Tables_number   1
_chemical_formula_structural   RbYSiS4
_chemical_formula_sum   'Rb2 Y2 Si2 S8'
_cell_volume   373.05342940
_cell_formula_units_Z   2
loop_
 _symmetry_equiv_pos_site_id
 _symmetry_equiv_pos_as_xyz
  1  'x, y, z'
loop_
 _atom_site_type_symbol
 _atom_site_label
 _atom_site_symmetry_multiplicity
 _atom_site_fract_x
 _atom_site_fract_y
 _atom_site_fract_z
 _atom_site_occupancy
  Rb  Rb0  1  0.977096  0.728677  0.065904  1
  Rb  Rb1  1  0.477096  0.271323  0.934096  1
  Y  Y2  1  0.499750  0.229359  0.453102  1
  Y  Y3  1  0.999750  0.770641  0.546898  1
  Si  Si4  1  0.462208  0.779877  0.332478  1
  Si  Si5  1  0.962208  0.220123  0.667522  1
  S  S6  1  0.467754  0.582593  0.184129  1
  S  S7  1  0.231171  0.021230  0.288922  1
  S  S8  1  0.726037  0.976067  0.309866  1
  S  S9  1  0.902985  0.421829  0.438574  1
  S  S10  1  0.402985  0.578171  0.561426  1
  S  S11  1  0.226037  0.023933  0.690134  1
  S  S12  1  0.731171  0.978770  0.711078  1
  S  S13  1  0.967754  0.417407  0.815871  1
