# generated using pymatgen
data_Nb12VNi8W3N4
_symmetry_space_group_name_H-M   'P 1'
_cell_length_a   8.17096949
_cell_length_b   8.14243805
_cell_length_c   8.17096900
_cell_angle_alpha   59.88401734
_cell_angle_beta   59.99999792
_cell_angle_gamma   59.88401568
_symmetry_Int_Tables_number   1
_chemical_formula_structural   Nb12VNi8W3N4
_chemical_formula_sum   'Nb12 V1 Ni8 W3 N4'
_cell_volume   383.72758829
_cell_formula_units_Z   1
loop_
 _symmetry_equiv_pos_site_id
 _symmetry_equiv_pos_as_xyz
  1  'x, y, z'
loop_
 _atom_site_type_symbol
 _atom_site_label
 _atom_site_symmetry_multiplicity
 _atom_site_fract_x
 _atom_site_fract_y
 _atom_site_fract_z
 _atom_site_occupancy
  Nb  Nb0  1  0.812124  0.812076  0.187899  1
  Nb  Nb1  1  0.185697  0.187424  0.813440  1
  Nb  Nb2  1  0.813440  0.187424  0.813440  1
  Nb  Nb3  1  0.187899  0.812076  0.187899  1
  Nb  Nb4  1  0.187899  0.812076  0.812124  1
  Nb  Nb5  1  0.813440  0.187424  0.185697  1
  Nb  Nb6  1  0.437876  0.437924  0.062101  1
  Nb  Nb7  1  0.064303  0.062576  0.436560  1
  Nb  Nb8  1  0.436560  0.062576  0.436560  1
  Nb  Nb9  1  0.062101  0.437924  0.062101  1
  Nb  Nb10  1  0.062101  0.437924  0.437876  1
  Nb  Nb11  1  0.436560  0.062576  0.064303  1
  V  V12  1  0.625000  0.125000  0.625000  1
  Ni  Ni13  1  0.736618  0.414309  0.424537  1
  Ni  Ni14  1  0.421434  0.735697  0.421434  1
  Ni  Ni15  1  0.424537  0.414309  0.736618  1
  Ni  Ni16  1  0.424537  0.414309  0.424537  1
  Ni  Ni17  1  0.513382  0.835691  0.825463  1
  Ni  Ni18  1  0.828566  0.514303  0.828566  1
  Ni  Ni19  1  0.825463  0.835691  0.513382  1
  Ni  Ni20  1  0.825463  0.835691  0.825463  1
  W  W21  1  0.125000  0.625000  0.625000  1
  W  W22  1  0.625000  0.625000  0.125000  1
  W  W23  1  0.625000  0.625000  0.625000  1
  N  N24  1  0.625000  0.125000  0.125000  1
  N  N25  1  0.125000  0.625000  0.125000  1
  N  N26  1  0.125000  0.125000  0.625000  1
  N  N27  1  0.125000  0.125000  0.125000  1
