# generated using pymatgen
data_Ba3TiV2(Ga2O5)4
_symmetry_space_group_name_H-M   'P 1'
_cell_length_a   10.08247381
_cell_length_b   10.08247265
_cell_length_c   5.22087137
_cell_angle_alpha   75.71388276
_cell_angle_beta   75.71387561
_cell_angle_gamma   72.42555020
_symmetry_Int_Tables_number   1
_chemical_formula_structural   Ba3TiV2(Ga2O5)4
_chemical_formula_sum   'Ba3 Ti1 V2 Ga8 O20'
_cell_volume   481.71747518
_cell_formula_units_Z   1
loop_
 _symmetry_equiv_pos_site_id
 _symmetry_equiv_pos_as_xyz
  1  'x, y, z'
loop_
 _atom_site_type_symbol
 _atom_site_label
 _atom_site_symmetry_multiplicity
 _atom_site_fract_x
 _atom_site_fract_y
 _atom_site_fract_z
 _atom_site_occupancy
  Ba  Ba0  1  0.219846  0.219846  0.264805  1
  Ba  Ba1  1  0.780154  0.780154  0.735195  1
  Ba  Ba2  1  0.500000  0.500000  0.000000  1
  Ti  Ti3  1  0.000000  0.000000  0.000000  1
  V  V4  1  0.134666  0.865334  0.500000  1
  V  V5  1  0.865334  0.134666  0.500000  1
  Ga  Ga6  1  0.353832  0.924777  0.835738  1
  Ga  Ga7  1  0.646168  0.075223  0.164262  1
  Ga  Ga8  1  0.075223  0.646168  0.164262  1
  Ga  Ga9  1  0.924777  0.353832  0.835738  1
  Ga  Ga10  1  0.489883  0.215372  0.659241  1
  Ga  Ga11  1  0.510117  0.784628  0.340759  1
  Ga  Ga12  1  0.784628  0.510117  0.340759  1
  Ga  Ga13  1  0.215372  0.489883  0.659241  1
  O  O14  1  0.496512  0.787005  0.990086  1
  O  O15  1  0.503488  0.212995  0.009914  1
  O  O16  1  0.212995  0.503488  0.009914  1
  O  O17  1  0.787005  0.496512  0.990086  1
  O  O18  1  0.373572  0.102806  0.669777  1
  O  O19  1  0.626428  0.897194  0.330223  1
  O  O20  1  0.897194  0.626428  0.330223  1
  O  O21  1  0.102806  0.373572  0.669777  1
  O  O22  1  0.062218  0.062218  0.617424  1
  O  O23  1  0.937782  0.937782  0.382576  1
  O  O24  1  0.667160  0.159167  0.434522  1
  O  O25  1  0.332840  0.840833  0.565478  1
  O  O26  1  0.840833  0.332840  0.565478  1
  O  O27  1  0.159167  0.667160  0.434522  1
  O  O28  1  0.190347  0.954163  0.101045  1
  O  O29  1  0.809653  0.045837  0.898955  1
  O  O30  1  0.045837  0.809653  0.898955  1
  O  O31  1  0.954163  0.190347  0.101045  1
  O  O32  1  0.399974  0.399974  0.520073  1
  O  O33  1  0.600026  0.600026  0.479927  1
