# generated using pymatgen
data_Sm4NiI5
_symmetry_space_group_name_H-M   'P 1'
_cell_length_a   4.14088600
_cell_length_b   8.98916100
_cell_length_c   18.97455100
_cell_angle_alpha   90.00000000
_cell_angle_beta   90.00000000
_cell_angle_gamma   90.00000000
_symmetry_Int_Tables_number   1
_chemical_formula_structural   Sm4NiI5
_chemical_formula_sum   'Sm8 Ni2 I10'
_cell_volume   706.29143736
_cell_formula_units_Z   2
loop_
 _symmetry_equiv_pos_site_id
 _symmetry_equiv_pos_as_xyz
  1  'x, y, z'
loop_
 _atom_site_type_symbol
 _atom_site_label
 _atom_site_symmetry_multiplicity
 _atom_site_fract_x
 _atom_site_fract_y
 _atom_site_fract_z
 _atom_site_occupancy
  Sm  Sm0  1  0.000000  0.370490  0.855675  1
  Sm  Sm1  1  0.500000  0.574597  0.000000  1
  Sm  Sm2  1  0.000000  0.370490  0.144325  1
  Sm  Sm3  1  0.000000  0.829939  0.500000  1
  Sm  Sm4  1  0.500000  0.629510  0.355675  1
  Sm  Sm5  1  0.000000  0.425403  0.500000  1
  Sm  Sm6  1  0.500000  0.629510  0.644325  1
  Sm  Sm7  1  0.500000  0.170061  0.000000  1
  Ni  Ni8  1  0.500000  0.625862  0.500000  1
  Ni  Ni9  1  0.000000  0.374138  0.000000  1
  I  I10  1  0.500000  0.108264  0.168660  1
  I  I11  1  0.000000  0.361853  0.674671  1
  I  I12  1  0.000000  0.870298  0.000000  1
  I  I13  1  0.000000  0.891736  0.331340  1
  I  I14  1  0.500000  0.108264  0.831340  1
  I  I15  1  0.500000  0.638147  0.825329  1
  I  I16  1  0.000000  0.891736  0.668660  1
  I  I17  1  0.000000  0.361853  0.325329  1
  I  I18  1  0.500000  0.638147  0.174671  1
  I  I19  1  0.500000  0.129702  0.500000  1
