# generated using pymatgen
data_Tb2YbAl3Ge2Pt
_symmetry_space_group_name_H-M   'P 1'
_cell_length_a   7.06639300
_cell_length_b   6.98328793
_cell_length_c   4.24840200
_cell_angle_alpha   90.00000000
_cell_angle_beta   90.00000000
_cell_angle_gamma   120.39445930
_symmetry_Int_Tables_number   1
_chemical_formula_structural   Tb2YbAl3Ge2Pt
_chemical_formula_sum   'Tb2 Yb1 Al3 Ge2 Pt1'
_cell_volume   180.83145004
_cell_formula_units_Z   1
loop_
 _symmetry_equiv_pos_site_id
 _symmetry_equiv_pos_as_xyz
  1  'x, y, z'
loop_
 _atom_site_type_symbol
 _atom_site_label
 _atom_site_symmetry_multiplicity
 _atom_site_fract_x
 _atom_site_fract_y
 _atom_site_fract_z
 _atom_site_occupancy
  Tb  Tb0  1  0.000545  0.417081  0.000000  1
  Tb  Tb1  1  0.583464  0.582919  0.000000  1
  Yb  Yb2  1  0.416610  0.000000  0.000000  1
  Al  Al3  1  0.768534  0.000000  0.500000  1
  Al  Al4  1  0.230307  0.235576  0.500000  1
  Al  Al5  1  0.994730  0.764424  0.500000  1
  Ge  Ge6  1  0.670760  0.336460  0.500000  1
  Ge  Ge7  1  0.334299  0.663540  0.500000  1
  Pt  Pt8  1  0.000751  0.000000  0.000000  1
