# generated using pymatgen
data_Tb2Tm3RuRh
_symmetry_space_group_name_H-M   'P 1'
_cell_length_a   6.35534450
_cell_length_b   7.21773670
_cell_length_c   8.46430536
_cell_angle_alpha   96.90854222
_cell_angle_beta   112.05029683
_cell_angle_gamma   89.99999787
_symmetry_Int_Tables_number   1
_chemical_formula_structural   Tb2Tm3RuRh
_chemical_formula_sum   'Tb4 Tm6 Ru2 Rh2'
_cell_volume   356.82453238
_cell_formula_units_Z   2
loop_
 _symmetry_equiv_pos_site_id
 _symmetry_equiv_pos_as_xyz
  1  'x, y, z'
loop_
 _atom_site_type_symbol
 _atom_site_label
 _atom_site_symmetry_multiplicity
 _atom_site_fract_x
 _atom_site_fract_y
 _atom_site_fract_z
 _atom_site_occupancy
  Tb  Tb0  1  0.789240  0.081247  0.809565  1
  Tb  Tb1  1  0.979673  0.418753  0.190435  1
  Tb  Tb2  1  0.213395  0.915881  0.187914  1
  Tb  Tb3  1  0.025480  0.584119  0.812086  1
  Tm  Tm4  1  0.207509  0.183484  0.565829  1
  Tm  Tm5  1  0.641680  0.316516  0.434171  1
  Tm  Tm6  1  0.792521  0.812897  0.436334  1
  Tm  Tm7  1  0.356186  0.687103  0.563666  1
  Tm  Tm8  1  0.421445  0.250000  0.000000  1
  Tm  Tm9  1  0.576404  0.750000  0.000000  1
  Ru  Ru10  1  0.400742  0.573866  0.221549  1
  Ru  Ru11  1  0.179195  0.926134  0.778451  1
  Rh  Rh12  1  0.596995  0.425007  0.777461  1
  Rh  Rh13  1  0.819533  0.074993  0.222539  1
