# generated using pymatgen
data_Mg4TaNb(SbPt)6
_symmetry_space_group_name_H-M   'P 1'
_cell_length_a   7.75842381
_cell_length_b   7.76711161
_cell_length_c   7.76499653
_cell_angle_alpha   119.98776423
_cell_angle_beta   99.60626687
_cell_angle_gamma   99.65105525
_symmetry_Int_Tables_number   1
_chemical_formula_structural   Mg4TaNb(SbPt)6
_chemical_formula_sum   'Mg4 Ta1 Nb1 Sb6 Pt6'
_cell_volume   381.94247621
_cell_formula_units_Z   1
loop_
 _symmetry_equiv_pos_site_id
 _symmetry_equiv_pos_as_xyz
  1  'x, y, z'
loop_
 _atom_site_type_symbol
 _atom_site_label
 _atom_site_symmetry_multiplicity
 _atom_site_fract_x
 _atom_site_fract_y
 _atom_site_fract_z
 _atom_site_occupancy
  Mg  Mg0  1  0.999746  0.502321  0.999977  1
  Mg  Mg1  1  0.499203  0.330376  0.163812  1
  Mg  Mg2  1  0.999457  0.163941  0.330552  1
  Mg  Mg3  1  0.499557  0.999729  0.502479  1
  Ta  Ta4  1  0.000183  0.833884  0.667670  1
  Nb  Nb5  1  0.500000  0.667783  0.833817  1
  Sb  Sb6  1  0.247867  0.919362  0.094983  1
  Sb  Sb7  1  0.748266  0.748660  0.254416  1
  Sb  Sb8  1  0.253896  0.574931  0.406107  1
  Sb  Sb9  1  0.752347  0.405394  0.575195  1
  Sb  Sb10  1  0.249114  0.256534  0.748852  1
  Sb  Sb11  1  0.746844  0.094831  0.919856  1
  Pt  Pt12  1  0.120337  0.193396  0.025577  1
  Pt  Pt13  1  0.621910  0.029525  0.197378  1
  Pt  Pt14  1  0.121264  0.872845  0.388762  1
  Pt  Pt15  1  0.636509  0.711135  0.558038  1
  Pt  Pt16  1  0.130843  0.559500  0.709218  1
  Pt  Pt17  1  0.622741  0.385833  0.873288  1
