# generated using pymatgen
data_Ca3TmAs3
_symmetry_space_group_name_H-M   'P 1'
_cell_length_a   7.64323334
_cell_length_b   7.71517744
_cell_length_c   7.64327465
_cell_angle_alpha   109.58106500
_cell_angle_beta   109.07494366
_cell_angle_gamma   109.58083437
_symmetry_Int_Tables_number   1
_chemical_formula_structural   Ca3TmAs3
_chemical_formula_sum   'Ca6 Tm2 As6'
_cell_volume   347.70925660
_cell_formula_units_Z   2
loop_
 _symmetry_equiv_pos_site_id
 _symmetry_equiv_pos_as_xyz
  1  'x, y, z'
loop_
 _atom_site_type_symbol
 _atom_site_label
 _atom_site_symmetry_multiplicity
 _atom_site_fract_x
 _atom_site_fract_y
 _atom_site_fract_z
 _atom_site_occupancy
  Ca  Ca0  1  0.364015  0.360095  0.364984  1
  Ca  Ca1  1  0.998792  0.134622  0.495165  1
  Ca  Ca2  1  0.864959  0.860065  0.863988  1
  Ca  Ca3  1  0.995167  0.634631  0.498800  1
  Ca  Ca4  1  0.636313  0.505408  0.003838  1
  Ca  Ca5  1  0.503843  0.005408  0.136317  1
  Tm  Tm6  1  0.136005  0.500244  0.000581  1
  Tm  Tm7  1  0.500580  0.000246  0.636009  1
  As  As8  1  0.876477  0.250460  0.112225  1
  As  As9  1  0.134578  0.868764  0.253578  1
  As  As10  1  0.371351  0.630418  0.752108  1
  As  As11  1  0.252114  0.130421  0.871351  1
  As  As12  1  0.753582  0.368763  0.634580  1
  As  As13  1  0.612223  0.750456  0.376476  1
