# generated using pymatgen
data_YHo3B8OsRu3
_symmetry_space_group_name_H-M   'P 1'
_cell_length_a   5.31524600
_cell_length_b   5.90620013
_cell_length_c   6.35537509
_cell_angle_alpha   89.73844124
_cell_angle_beta   90.00000000
_cell_angle_gamma   90.00000000
_symmetry_Int_Tables_number   1
_chemical_formula_structural   YHo3B8OsRu3
_chemical_formula_sum   'Y1 Ho3 B8 Os1 Ru3'
_cell_volume   199.51161765
_cell_formula_units_Z   1
loop_
 _symmetry_equiv_pos_site_id
 _symmetry_equiv_pos_as_xyz
  1  'x, y, z'
loop_
 _atom_site_type_symbol
 _atom_site_label
 _atom_site_symmetry_multiplicity
 _atom_site_fract_x
 _atom_site_fract_y
 _atom_site_fract_z
 _atom_site_occupancy
  Y  Y0  1  0.250000  0.510813  0.836155  1
  Ho  Ho1  1  0.250000  0.011243  0.664623  1
  Ho  Ho2  1  0.750000  0.489218  0.162707  1
  Ho  Ho3  1  0.750000  0.988912  0.336081  1
  B  B4  1  0.082851  0.867382  0.039883  1
  B  B5  1  0.416054  0.368224  0.462158  1
  B  B6  1  0.584755  0.131457  0.962425  1
  B  B7  1  0.916221  0.632769  0.537137  1
  B  B8  1  0.915245  0.131457  0.962425  1
  B  B9  1  0.583779  0.632769  0.537137  1
  B  B10  1  0.417149  0.867382  0.039883  1
  B  B11  1  0.083946  0.368224  0.462158  1
  Os  Os12  1  0.250000  0.681162  0.317532  1
  Ru  Ru13  1  0.250000  0.180767  0.182030  1
  Ru  Ru14  1  0.750000  0.318764  0.680117  1
  Ru  Ru15  1  0.750000  0.819456  0.817551  1
