# generated using pymatgen
data_Nd2(YAu2)5
_symmetry_space_group_name_H-M   'P 1'
_cell_length_a   8.81207503
_cell_length_b   8.81207516
_cell_length_c   10.49571900
_cell_angle_alpha   90.00000000
_cell_angle_beta   90.00000000
_cell_angle_gamma   107.12560188
_symmetry_Int_Tables_number   1
_chemical_formula_structural   Nd2(YAu2)5
_chemical_formula_sum   'Nd4 Y10 Au20'
_cell_volume   778.88381301
_cell_formula_units_Z   2
loop_
 _symmetry_equiv_pos_site_id
 _symmetry_equiv_pos_as_xyz
  1  'x, y, z'
loop_
 _atom_site_type_symbol
 _atom_site_label
 _atom_site_symmetry_multiplicity
 _atom_site_fract_x
 _atom_site_fract_y
 _atom_site_fract_z
 _atom_site_occupancy
  Nd  Nd0  1  0.309977  0.309977  0.192759  1
  Nd  Nd1  1  0.690023  0.690023  0.807241  1
  Nd  Nd2  1  0.190023  0.190023  0.692759  1
  Nd  Nd3  1  0.809977  0.809977  0.307241  1
  Y  Y4  1  0.695898  0.304102  0.000000  1
  Y  Y5  1  0.304102  0.695898  0.000000  1
  Y  Y6  1  0.804102  0.195898  0.500000  1
  Y  Y7  1  0.195898  0.804102  0.500000  1
  Y  Y8  1  0.000000  0.000000  0.000000  1
  Y  Y9  1  0.500000  0.500000  0.500000  1
  Y  Y10  1  0.004165  0.504165  0.250000  1
  Y  Y11  1  0.995835  0.495835  0.750000  1
  Y  Y12  1  0.495835  0.995835  0.750000  1
  Y  Y13  1  0.504165  0.004165  0.250000  1
  Au  Au14  1  0.863121  0.154332  0.209725  1
  Au  Au15  1  0.136879  0.845668  0.790275  1
  Au  Au16  1  0.636879  0.345668  0.709725  1
  Au  Au17  1  0.654332  0.363121  0.290275  1
  Au  Au18  1  0.363121  0.654332  0.290275  1
  Au  Au19  1  0.345668  0.636879  0.709725  1
  Au  Au20  1  0.845668  0.136879  0.790275  1
  Au  Au21  1  0.154332  0.863121  0.209725  1
  Au  Au22  1  0.940125  0.644960  0.005130  1
  Au  Au23  1  0.059875  0.355040  0.994870  1
  Au  Au24  1  0.559875  0.855040  0.505130  1
  Au  Au25  1  0.144960  0.440125  0.494870  1
  Au  Au26  1  0.440125  0.144960  0.494870  1
  Au  Au27  1  0.855040  0.559875  0.505130  1
  Au  Au28  1  0.355040  0.059875  0.994870  1
  Au  Au29  1  0.644960  0.940125  0.005130  1
  Au  Au30  1  0.103637  0.103637  0.402753  1
  Au  Au31  1  0.896363  0.896363  0.597247  1
  Au  Au32  1  0.396363  0.396363  0.902753  1
  Au  Au33  1  0.603637  0.603637  0.097247  1
