# generated using pymatgen
data_Dy3TmLuIn4
_symmetry_space_group_name_H-M   'P 1'
_cell_length_a   9.23911400
_cell_length_b   9.23911449
_cell_length_c   6.63971900
_cell_angle_alpha   90.00000000
_cell_angle_beta   90.00000000
_cell_angle_gamma   119.99999824
_symmetry_Int_Tables_number   1
_chemical_formula_structural   Dy3TmLuIn4
_chemical_formula_sum   'Dy6 Tm2 Lu2 In8'
_cell_volume   490.84120557
_cell_formula_units_Z   2
loop_
 _symmetry_equiv_pos_site_id
 _symmetry_equiv_pos_as_xyz
  1  'x, y, z'
loop_
 _atom_site_type_symbol
 _atom_site_label
 _atom_site_symmetry_multiplicity
 _atom_site_fract_x
 _atom_site_fract_y
 _atom_site_fract_z
 _atom_site_occupancy
  Dy  Dy0  1  0.289519  0.000000  0.750065  1
  Dy  Dy1  1  0.710481  0.000000  0.249935  1
  Dy  Dy2  1  0.000000  0.289519  0.750065  1
  Dy  Dy3  1  0.000000  0.710481  0.249935  1
  Dy  Dy4  1  0.710481  0.710481  0.750065  1
  Dy  Dy5  1  0.289519  0.289519  0.249935  1
  Tm  Tm6  1  0.333333  0.666667  0.500000  1
  Tm  Tm7  1  0.666667  0.333333  0.500000  1
  Lu  Lu8  1  0.666667  0.333333  0.000000  1
  Lu  Lu9  1  0.333333  0.666667  0.000000  1
  In  In10  1  0.000000  0.000000  0.500000  1
  In  In11  1  0.000000  0.000000  0.000000  1
  In  In12  1  0.627021  0.000000  0.750059  1
  In  In13  1  0.372979  0.000000  0.249941  1
  In  In14  1  0.000000  0.627021  0.750059  1
  In  In15  1  0.000000  0.372979  0.249941  1
  In  In16  1  0.372979  0.372979  0.750059  1
  In  In17  1  0.627021  0.627021  0.249941  1
