# generated using pymatgen
data_Ho8Ti8ReSi16Mo3
_symmetry_space_group_name_H-M   'P 1'
_cell_length_a   6.96807259
_cell_length_b   6.96807259
_cell_length_c   12.81115294
_cell_angle_alpha   89.95545864
_cell_angle_beta   90.04454136
_cell_angle_gamma   89.98504349
_symmetry_Int_Tables_number   1
_chemical_formula_structural   Ho8Ti8ReSi16Mo3
_chemical_formula_sum   'Ho8 Ti8 Re1 Si16 Mo3'
_cell_volume   622.03277803
_cell_formula_units_Z   1
loop_
 _symmetry_equiv_pos_site_id
 _symmetry_equiv_pos_as_xyz
  1  'x, y, z'
loop_
 _atom_site_type_symbol
 _atom_site_label
 _atom_site_symmetry_multiplicity
 _atom_site_fract_x
 _atom_site_fract_y
 _atom_site_fract_z
 _atom_site_occupancy
  Ho  Ho0  1  0.341589  0.000227  0.468299  1
  Ho  Ho1  1  0.499916  0.841704  0.717553  1
  Ho  Ho2  1  0.500708  0.158317  0.218095  1
  Ho  Ho3  1  0.841704  0.499916  0.282447  1
  Ho  Ho4  1  0.158317  0.500708  0.781905  1
  Ho  Ho5  1  0.658510  0.999399  0.967710  1
  Ho  Ho6  1  0.000227  0.341589  0.531701  1
  Ho  Ho7  1  0.999399  0.658510  0.032290  1
  Ti  Ti8  1  0.152651  0.008072  0.876451  1
  Ti  Ti9  1  0.492361  0.651899  0.127397  1
  Ti  Ti10  1  0.507975  0.346230  0.625875  1
  Ti  Ti11  1  0.651899  0.492361  0.872603  1
  Ti  Ti12  1  0.346230  0.507975  0.374125  1
  Ti  Ti13  1  0.848376  0.993359  0.376204  1
  Ti  Ti14  1  0.008072  0.152651  0.123549  1
  Ti  Ti15  1  0.993359  0.848376  0.623796  1
  Re  Re16  1  0.672820  0.672820  0.500000  1
  Si  Si17  1  0.201559  0.130759  0.683797  1
  Si  Si18  1  0.369329  0.701133  0.934245  1
  Si  Si19  1  0.629536  0.300478  0.433342  1
  Si  Si20  1  0.701133  0.369329  0.065755  1
  Si  Si21  1  0.300478  0.629536  0.566658  1
  Si  Si22  1  0.798970  0.869294  0.183997  1
  Si  Si23  1  0.130759  0.201559  0.316203  1
  Si  Si24  1  0.869294  0.798970  0.816003  1
  Si  Si25  1  0.291559  0.951875  0.065738  1
  Si  Si26  1  0.548637  0.790958  0.316956  1
  Si  Si27  1  0.452089  0.208135  0.815588  1
  Si  Si28  1  0.790958  0.548637  0.683044  1
  Si  Si29  1  0.208135  0.452089  0.184412  1
  Si  Si30  1  0.709425  0.046274  0.565180  1
  Si  Si31  1  0.951875  0.291559  0.934262  1
  Si  Si32  1  0.046274  0.709425  0.434820  1
  Mo  Mo33  1  0.326558  0.326558  0.000000  1
  Mo  Mo34  1  0.173075  0.826242  0.250735  1
  Mo  Mo35  1  0.826242  0.173075  0.749265  1
