# generated using pymatgen
data_Ac(CoO2)3
_symmetry_space_group_name_H-M   'P 1'
_cell_length_a   4.95139500
_cell_length_b   5.81512592
_cell_length_c   8.57905000
_cell_angle_alpha   90.00037441
_cell_angle_beta   90.00004629
_cell_angle_gamma   73.32826188
_symmetry_Int_Tables_number   1
_chemical_formula_structural   Ac(CoO2)3
_chemical_formula_sum   'Ac2 Co6 O12'
_cell_volume   236.63290776
_cell_formula_units_Z   2
loop_
 _symmetry_equiv_pos_site_id
 _symmetry_equiv_pos_as_xyz
  1  'x, y, z'
loop_
 _atom_site_type_symbol
 _atom_site_label
 _atom_site_symmetry_multiplicity
 _atom_site_fract_x
 _atom_site_fract_y
 _atom_site_fract_z
 _atom_site_occupancy
  Ac  Ac0  1  0.000005  0.499999  0.166678  1
  Ac  Ac1  1  0.500001  0.500000  0.666682  1
  Co  Co2  1  0.500001  0.000000  0.166661  1
  Co  Co3  1  0.500000  0.999998  0.834260  1
  Co  Co4  1  0.500000  0.000001  0.499064  1
  Co  Co5  1  0.999999  0.000001  0.666659  1
  Co  Co6  1  0.000000  0.000001  0.334257  1
  Co  Co7  1  0.999999  0.999999  0.999070  1
  O  O8  1  0.769476  0.177600  0.166672  1
  O  O9  1  0.269474  0.177602  0.666675  1
  O  O10  1  0.230525  0.822402  0.166673  1
  O  O11  1  0.730525  0.822399  0.666672  1
  O  O12  1  0.275576  0.178118  0.997787  1
  O  O13  1  0.775574  0.178124  0.497790  1
  O  O14  1  0.275589  0.178120  0.335540  1
  O  O15  1  0.775586  0.178121  0.835541  1
  O  O16  1  0.724412  0.821883  0.335538  1
  O  O17  1  0.224409  0.821878  0.835539  1
  O  O18  1  0.724425  0.821878  0.997787  1
  O  O19  1  0.224426  0.821878  0.497790  1
