# generated using pymatgen
data_Ho20CoIr8Os3
_symmetry_space_group_name_H-M   'P 1'
_cell_length_a   10.78714900
_cell_length_b   10.78714900
_cell_length_c   6.37226800
_cell_angle_alpha   90.00000000
_cell_angle_beta   90.00000000
_cell_angle_gamma   90.00000000
_symmetry_Int_Tables_number   1
_chemical_formula_structural   Ho20CoIr8Os3
_chemical_formula_sum   'Ho20 Co1 Ir8 Os3'
_cell_volume   741.49356754
_cell_formula_units_Z   1
loop_
 _symmetry_equiv_pos_site_id
 _symmetry_equiv_pos_as_xyz
  1  'x, y, z'
loop_
 _atom_site_type_symbol
 _atom_site_label
 _atom_site_symmetry_multiplicity
 _atom_site_fract_x
 _atom_site_fract_y
 _atom_site_fract_z
 _atom_site_occupancy
  Ho  Ho0  1  0.293536  0.086094  0.377564  1
  Ho  Ho1  1  0.293493  0.913961  0.877592  1
  Ho  Ho2  1  0.706507  0.086039  0.877592  1
  Ho  Ho3  1  0.706464  0.913906  0.377564  1
  Ho  Ho4  1  0.586039  0.793493  0.877592  1
  Ho  Ho5  1  0.586094  0.206464  0.377564  1
  Ho  Ho6  1  0.413906  0.793536  0.377564  1
  Ho  Ho7  1  0.413961  0.206507  0.877592  1
  Ho  Ho8  1  0.206587  0.413725  0.623508  1
  Ho  Ho9  1  0.206491  0.586371  0.123234  1
  Ho  Ho10  1  0.793509  0.413629  0.123234  1
  Ho  Ho11  1  0.793413  0.586275  0.623508  1
  Ho  Ho12  1  0.913629  0.706491  0.123234  1
  Ho  Ho13  1  0.913725  0.293413  0.623508  1
  Ho  Ho14  1  0.086275  0.706587  0.623508  1
  Ho  Ho15  1  0.086371  0.293509  0.123234  1
  Ho  Ho16  1  0.000000  0.000000  0.499873  1
  Ho  Ho17  1  0.000000  0.000000  0.999838  1
  Ho  Ho18  1  0.500000  0.500000  0.999838  1
  Ho  Ho19  1  0.500000  0.500000  0.499873  1
  Co  Co20  1  0.500000  0.000000  0.120969  1
  Ir  Ir21  1  0.846111  0.151530  0.249383  1
  Ir  Ir22  1  0.846540  0.847971  0.749609  1
  Ir  Ir23  1  0.153460  0.152029  0.749609  1
  Ir  Ir24  1  0.153889  0.848470  0.249383  1
  Ir  Ir25  1  0.652029  0.346540  0.749609  1
  Ir  Ir26  1  0.651530  0.653889  0.249383  1
  Ir  Ir27  1  0.348470  0.346111  0.249383  1
  Ir  Ir28  1  0.347971  0.653460  0.749609  1
  Os  Os29  1  0.500000  0.000000  0.622988  1
  Os  Os30  1  0.000000  0.500000  0.876644  1
  Os  Os31  1  0.000000  0.500000  0.376416  1
