# generated using pymatgen
data_Pr15NdCd4Ru3Rh
_symmetry_space_group_name_H-M   'P 1'
_cell_length_a   10.01364393
_cell_length_b   10.02393781
_cell_length_c   10.02391000
_cell_angle_alpha   59.85650067
_cell_angle_beta   59.79234420
_cell_angle_gamma   59.79252368
_symmetry_Int_Tables_number   1
_chemical_formula_structural   Pr15NdCd4Ru3Rh
_chemical_formula_sum   'Pr15 Nd1 Cd4 Ru3 Rh1'
_cell_volume   708.45578172
_cell_formula_units_Z   1
loop_
 _symmetry_equiv_pos_site_id
 _symmetry_equiv_pos_as_xyz
  1  'x, y, z'
loop_
 _atom_site_type_symbol
 _atom_site_label
 _atom_site_symmetry_multiplicity
 _atom_site_fract_x
 _atom_site_fract_y
 _atom_site_fract_z
 _atom_site_occupancy
  Pr  Pr0  1  0.344204  0.346868  0.959301  1
  Pr  Pr1  1  0.344299  0.959245  0.346797  1
  Pr  Pr2  1  0.961497  0.345456  0.345225  1
  Pr  Pr3  1  0.811030  0.191081  0.191038  1
  Pr  Pr4  1  0.190846  0.809872  0.810129  1
  Pr  Pr5  1  0.191219  0.809046  0.190443  1
  Pr  Pr6  1  0.811669  0.191183  0.807923  1
  Pr  Pr7  1  0.191226  0.190485  0.809170  1
  Pr  Pr8  1  0.811732  0.807858  0.191167  1
  Pr  Pr9  1  0.938252  0.561984  0.561872  1
  Pr  Pr10  1  0.560082  0.938996  0.939080  1
  Pr  Pr11  1  0.560941  0.937927  0.563590  1
  Pr  Pr12  1  0.939111  0.560624  0.940202  1
  Pr  Pr13  1  0.560839  0.563593  0.938003  1
  Pr  Pr14  1  0.939072  0.940082  0.560656  1
  Nd  Nd15  1  0.344657  0.347398  0.347218  1
  Cd  Cd16  1  0.579579  0.579360  0.579344  1
  Cd  Cd17  1  0.579159  0.579335  0.260798  1
  Cd  Cd18  1  0.579152  0.260796  0.579333  1
  Cd  Cd19  1  0.261156  0.579028  0.579038  1
  Ru  Ru20  1  0.139554  0.137872  0.137870  1
  Ru  Ru21  1  0.140411  0.138296  0.583308  1
  Ru  Ru22  1  0.140377  0.583390  0.138271  1
  Rh  Rh23  1  0.579934  0.140228  0.140225  1
