# generated using pymatgen
data_Hg3Te(SeCl3)2
_symmetry_space_group_name_H-M   'P 1'
_cell_length_a   7.76989600
_cell_length_b   6.85395074
_cell_length_c   13.61464906
_cell_angle_alpha   88.35866727
_cell_angle_beta   90.00000000
_cell_angle_gamma   90.00000000
_symmetry_Int_Tables_number   1
_chemical_formula_structural   Hg3Te(SeCl3)2
_chemical_formula_sum   'Hg6 Te2 Se4 Cl12'
_cell_volume   724.74364122
_cell_formula_units_Z   2
loop_
 _symmetry_equiv_pos_site_id
 _symmetry_equiv_pos_as_xyz
  1  'x, y, z'
loop_
 _atom_site_type_symbol
 _atom_site_label
 _atom_site_symmetry_multiplicity
 _atom_site_fract_x
 _atom_site_fract_y
 _atom_site_fract_z
 _atom_site_occupancy
  Hg  Hg0  1  0.293064  0.007018  0.739996  1
  Hg  Hg1  1  0.793064  0.992982  0.760004  1
  Hg  Hg2  1  0.206936  0.007018  0.239996  1
  Hg  Hg3  1  0.500000  0.000000  0.000000  1
  Hg  Hg4  1  0.706936  0.992982  0.260004  1
  Hg  Hg5  1  0.000000  0.000000  0.500000  1
  Te  Te6  1  0.500000  0.500000  0.500000  1
  Te  Te7  1  0.000000  0.500000  0.000000  1
  Se  Se8  1  0.463387  0.826282  0.168571  1
  Se  Se9  1  0.963387  0.173718  0.331429  1
  Se  Se10  1  0.036613  0.826282  0.668571  1
  Se  Se11  1  0.536613  0.173718  0.831429  1
  Cl  Cl12  1  0.346196  0.814805  0.440236  1
  Cl  Cl13  1  0.215818  0.358500  0.567415  1
  Cl  Cl14  1  0.050907  0.346913  0.832078  1
  Cl  Cl15  1  0.284182  0.358500  0.067415  1
  Cl  Cl16  1  0.784182  0.641500  0.432585  1
  Cl  Cl17  1  0.153804  0.814805  0.940236  1
  Cl  Cl18  1  0.449093  0.346913  0.332078  1
  Cl  Cl19  1  0.846196  0.185195  0.059764  1
  Cl  Cl20  1  0.949093  0.653087  0.167922  1
  Cl  Cl21  1  0.550907  0.653087  0.667922  1
  Cl  Cl22  1  0.653804  0.185195  0.559764  1
  Cl  Cl23  1  0.715818  0.641500  0.932585  1
