# generated using pymatgen
data_TbNp5O12
_symmetry_space_group_name_H-M   'P 1'
_cell_length_a   6.59191238
_cell_length_b   6.59191241
_cell_length_c   7.62159305
_cell_angle_alpha   73.19298309
_cell_angle_beta   73.19298650
_cell_angle_gamma   48.19377209
_symmetry_Int_Tables_number   1
_chemical_formula_structural   TbNp5O12
_chemical_formula_sum   'Tb1 Np5 O12'
_cell_volume   234.15382373
_cell_formula_units_Z   1
loop_
 _symmetry_equiv_pos_site_id
 _symmetry_equiv_pos_as_xyz
  1  'x, y, z'
loop_
 _atom_site_type_symbol
 _atom_site_label
 _atom_site_symmetry_multiplicity
 _atom_site_fract_x
 _atom_site_fract_y
 _atom_site_fract_z
 _atom_site_occupancy
  Tb  Tb0  1  0.999877  0.000123  0.500000  1
  Np  Np1  1  0.000135  0.999865  0.000000  1
  Np  Np2  1  0.667371  0.667303  0.665729  1
  Np  Np3  1  0.334800  0.334556  0.831923  1
  Np  Np4  1  0.332697  0.332629  0.334271  1
  Np  Np5  1  0.665444  0.665200  0.168077  1
  O  O6  1  0.417553  0.917993  0.917849  1
  O  O7  1  0.916710  0.416739  0.917623  1
  O  O8  1  0.083069  0.578599  0.586418  1
  O  O9  1  0.257556  0.744764  0.756299  1
  O  O10  1  0.572781  0.086649  0.585926  1
  O  O11  1  0.749237  0.252484  0.754424  1
  O  O12  1  0.747516  0.250763  0.245576  1
  O  O13  1  0.913351  0.427219  0.414074  1
  O  O14  1  0.421401  0.916931  0.413582  1
  O  O15  1  0.255236  0.742444  0.243701  1
  O  O16  1  0.583261  0.083290  0.082377  1
  O  O17  1  0.082007  0.582447  0.082151  1
