# generated using pymatgen
data_SmLu6Co6Sn23
_symmetry_space_group_name_H-M   'P 1'
_cell_length_a   9.65254100
_cell_length_b   9.65253963
_cell_length_c   9.95041600
_cell_angle_alpha   90.00000000
_cell_angle_beta   90.00000000
_cell_angle_gamma   119.99999442
_symmetry_Int_Tables_number   1
_chemical_formula_structural   SmLu6Co6Sn23
_chemical_formula_sum   'Sm1 Lu6 Co6 Sn23'
_cell_volume   802.88832403
_cell_formula_units_Z   1
loop_
 _symmetry_equiv_pos_site_id
 _symmetry_equiv_pos_as_xyz
  1  'x, y, z'
loop_
 _atom_site_type_symbol
 _atom_site_label
 _atom_site_symmetry_multiplicity
 _atom_site_fract_x
 _atom_site_fract_y
 _atom_site_fract_z
 _atom_site_occupancy
  Sm  Sm0  1  0.000000  0.000000  0.000000  1
  Lu  Lu1  1  0.520403  0.479597  0.693411  1
  Lu  Lu2  1  0.520403  0.040806  0.693411  1
  Lu  Lu3  1  0.959194  0.479597  0.693411  1
  Lu  Lu4  1  0.040806  0.520403  0.306589  1
  Lu  Lu5  1  0.479597  0.959194  0.306589  1
  Lu  Lu6  1  0.479597  0.520403  0.306589  1
  Co  Co7  1  0.168668  0.831332  0.802247  1
  Co  Co8  1  0.168668  0.337334  0.802247  1
  Co  Co9  1  0.662666  0.831332  0.802247  1
  Co  Co10  1  0.337334  0.168668  0.197753  1
  Co  Co11  1  0.831332  0.662666  0.197753  1
  Co  Co12  1  0.831332  0.168668  0.197753  1
  Sn  Sn13  1  0.666667  0.333333  0.182431  1
  Sn  Sn14  1  0.666667  0.333333  0.877028  1
  Sn  Sn15  1  0.333333  0.666667  0.122972  1
  Sn  Sn16  1  0.347169  0.347169  0.000000  1
  Sn  Sn17  1  0.000000  0.652831  0.000000  1
  Sn  Sn18  1  0.652831  0.000000  0.000000  1
  Sn  Sn19  1  0.652831  0.652831  0.000000  1
  Sn  Sn20  1  0.333333  0.666667  0.817569  1
  Sn  Sn21  1  0.438131  0.219066  0.451778  1
  Sn  Sn22  1  0.219066  0.780934  0.548222  1
  Sn  Sn23  1  0.219066  0.438131  0.548222  1
  Sn  Sn24  1  0.561869  0.780934  0.548222  1
  Sn  Sn25  1  0.119309  0.880691  0.274899  1
  Sn  Sn26  1  0.780934  0.561869  0.451778  1
  Sn  Sn27  1  0.780934  0.219066  0.451778  1
  Sn  Sn28  1  0.347169  0.000000  0.000000  1
  Sn  Sn29  1  0.119309  0.238618  0.274899  1
  Sn  Sn30  1  0.761382  0.880691  0.274899  1
  Sn  Sn31  1  0.238618  0.119309  0.725101  1
  Sn  Sn32  1  0.880691  0.761382  0.725101  1
  Sn  Sn33  1  0.880691  0.119309  0.725101  1
  Sn  Sn34  1  0.000000  0.000000  0.500000  1
  Sn  Sn35  1  0.000000  0.347169  0.000000  1
