# generated using pymatgen
data_V4FeCo3P4
_symmetry_space_group_name_H-M   'P 1'
_cell_length_a   3.50056800
_cell_length_b   5.86951510
_cell_length_c   6.68488469
_cell_angle_alpha   89.86439220
_cell_angle_beta   90.00000000
_cell_angle_gamma   90.00000000
_symmetry_Int_Tables_number   1
_chemical_formula_structural   V4FeCo3P4
_chemical_formula_sum   'V4 Fe1 Co3 P4'
_cell_volume   137.35151268
_cell_formula_units_Z   1
loop_
 _symmetry_equiv_pos_site_id
 _symmetry_equiv_pos_as_xyz
  1  'x, y, z'
loop_
 _atom_site_type_symbol
 _atom_site_label
 _atom_site_symmetry_multiplicity
 _atom_site_fract_x
 _atom_site_fract_y
 _atom_site_fract_z
 _atom_site_occupancy
  V  V0  1  0.750000  0.470836  0.668740  1
  V  V1  1  0.750000  0.973919  0.827785  1
  V  V2  1  0.250000  0.529182  0.331879  1
  V  V3  1  0.250000  0.028319  0.172993  1
  Fe  Fe4  1  0.250000  0.141159  0.559799  1
  Co  Co5  1  0.750000  0.356609  0.062140  1
  Co  Co6  1  0.750000  0.856523  0.437781  1
  Co  Co7  1  0.250000  0.642414  0.938829  1
  P  P8  1  0.750000  0.734425  0.124029  1
  P  P9  1  0.750000  0.233503  0.376637  1
  P  P10  1  0.250000  0.265409  0.874623  1
  P  P11  1  0.250000  0.767702  0.624766  1
