# generated using pymatgen
data_Pr2Nd2C5
_symmetry_space_group_name_H-M   'P 1'
_cell_length_a   3.86988100
_cell_length_b   6.92592800
_cell_length_c   12.55216000
_cell_angle_alpha   90.00000000
_cell_angle_beta   90.00000000
_cell_angle_gamma   90.00000000
_symmetry_Int_Tables_number   1
_chemical_formula_structural   Pr2Nd2C5
_chemical_formula_sum   'Pr4 Nd4 C10'
_cell_volume   336.42948398
_cell_formula_units_Z   2
loop_
 _symmetry_equiv_pos_site_id
 _symmetry_equiv_pos_as_xyz
  1  'x, y, z'
loop_
 _atom_site_type_symbol
 _atom_site_label
 _atom_site_symmetry_multiplicity
 _atom_site_fract_x
 _atom_site_fract_y
 _atom_site_fract_z
 _atom_site_occupancy
  Pr  Pr0  1  0.000000  0.252702  0.541862  1
  Pr  Pr1  1  0.000000  0.747298  0.458138  1
  Pr  Pr2  1  0.000000  0.752702  0.958138  1
  Pr  Pr3  1  0.000000  0.247298  0.041862  1
  Nd  Nd4  1  0.500000  0.106593  0.803267  1
  Nd  Nd5  1  0.500000  0.893407  0.196733  1
  Nd  Nd6  1  0.500000  0.606593  0.696733  1
  Nd  Nd7  1  0.500000  0.393407  0.303267  1
  C  C8  1  0.500000  0.500000  0.500000  1
  C  C9  1  0.500000  0.000000  0.000000  1
  C  C10  1  0.000000  0.361454  0.737501  1
  C  C11  1  0.000000  0.638546  0.262499  1
  C  C12  1  0.000000  0.861454  0.762499  1
  C  C13  1  0.000000  0.138546  0.237501  1
  C  C14  1  0.000000  0.401447  0.839978  1
  C  C15  1  0.000000  0.598553  0.160022  1
  C  C16  1  0.000000  0.098553  0.339978  1
  C  C17  1  0.000000  0.901447  0.660022  1
