# generated using pymatgen
data_Ti4Zn2GaMo
_symmetry_space_group_name_H-M   'P 1'
_cell_length_a   6.34503367
_cell_length_b   6.34459767
_cell_length_c   6.24882500
_cell_angle_alpha   90.00091824
_cell_angle_beta   90.00073289
_cell_angle_gamma   90.12321888
_symmetry_Int_Tables_number   1
_chemical_formula_structural   Ti4Zn2GaMo
_chemical_formula_sum   'Ti8 Zn4 Ga2 Mo2'
_cell_volume   251.55640300
_cell_formula_units_Z   2
loop_
 _symmetry_equiv_pos_site_id
 _symmetry_equiv_pos_as_xyz
  1  'x, y, z'
loop_
 _atom_site_type_symbol
 _atom_site_label
 _atom_site_symmetry_multiplicity
 _atom_site_fract_x
 _atom_site_fract_y
 _atom_site_fract_z
 _atom_site_occupancy
  Ti  Ti0  1  0.000059  0.000050  0.256298  1
  Ti  Ti1  1  0.000060  0.499945  0.256230  1
  Ti  Ti2  1  0.500070  0.999967  0.256814  1
  Ti  Ti3  1  0.500069  0.500031  0.256847  1
  Ti  Ti4  1  0.499931  0.000033  0.743186  1
  Ti  Ti5  1  0.499932  0.499968  0.743153  1
  Ti  Ti6  1  0.999941  0.999950  0.743702  1
  Ti  Ti7  1  0.999940  0.500054  0.743770  1
  Zn  Zn8  1  0.749462  0.249890  0.999985  1
  Zn  Zn9  1  0.250538  0.750111  0.000015  1
  Zn  Zn10  1  0.249639  0.750086  0.499982  1
  Zn  Zn11  1  0.750361  0.249915  0.500017  1
  Ga  Ga12  1  0.250323  0.249852  0.999996  1
  Ga  Ga13  1  0.749677  0.750149  0.000004  1
  Mo  Mo14  1  0.750198  0.750342  0.500002  1
  Mo  Mo15  1  0.249801  0.249659  0.499997  1
