# generated using pymatgen
data_TbDy11Co4NiSn
_symmetry_space_group_name_H-M   'P 1'
_cell_length_a   8.27918775
_cell_length_b   8.28210507
_cell_length_c   8.28210474
_cell_angle_alpha   107.05230496
_cell_angle_beta   110.60053425
_cell_angle_gamma   110.80288356
_symmetry_Int_Tables_number   1
_chemical_formula_structural   TbDy11Co4NiSn
_chemical_formula_sum   'Tb1 Dy11 Co4 Ni1 Sn1'
_cell_volume   436.50012341
_cell_formula_units_Z   1
loop_
 _symmetry_equiv_pos_site_id
 _symmetry_equiv_pos_as_xyz
  1  'x, y, z'
loop_
 _atom_site_type_symbol
 _atom_site_label
 _atom_site_symmetry_multiplicity
 _atom_site_fract_x
 _atom_site_fract_y
 _atom_site_fract_z
 _atom_site_occupancy
  Tb  Tb0  1  0.478181  0.292327  0.185855  1
  Dy  Dy1  1  0.106456  0.292478  0.813977  1
  Dy  Dy2  1  0.893450  0.707721  0.185730  1
  Dy  Dy3  1  0.521757  0.707450  0.814306  1
  Dy  Dy4  1  0.304968  0.619996  0.314764  1
  Dy  Dy5  1  0.304968  0.990205  0.684972  1
  Dy  Dy6  1  0.695009  0.380257  0.685529  1
  Dy  Dy7  1  0.695009  0.009479  0.314751  1
  Dy  Dy8  1  0.195710  0.210377  0.406510  1
  Dy  Dy9  1  0.804392  0.789758  0.593854  1
  Dy  Dy10  1  0.195710  0.789200  0.985332  1
  Dy  Dy11  1  0.804392  0.210538  0.014635  1
  Co  Co12  1  0.500130  0.613160  0.112745  1
  Co  Co13  1  0.500130  0.387386  0.886971  1
  Co  Co14  1  0.376354  0.999844  0.376511  1
  Co  Co15  1  0.623537  0.999955  0.623582  1
  Ni  Ni16  1  0.999828  0.999880  0.999948  1
  Sn  Sn17  1  0.000020  0.499991  0.500029  1
