# generated using pymatgen
data_Ac3ErAu5
_symmetry_space_group_name_H-M   'P 1'
_cell_length_a   8.50304289
_cell_length_b   8.50304343
_cell_length_c   8.50304292
_cell_angle_alpha   66.04468656
_cell_angle_beta   66.04468217
_cell_angle_gamma   66.04466157
_symmetry_Int_Tables_number   1
_chemical_formula_structural   Ac3ErAu5
_chemical_formula_sum   'Ac6 Er2 Au10'
_cell_volume   491.56029642
_cell_formula_units_Z   2
loop_
 _symmetry_equiv_pos_site_id
 _symmetry_equiv_pos_as_xyz
  1  'x, y, z'
loop_
 _atom_site_type_symbol
 _atom_site_label
 _atom_site_symmetry_multiplicity
 _atom_site_fract_x
 _atom_site_fract_y
 _atom_site_fract_z
 _atom_site_occupancy
  Ac  Ac0  1  0.891363  0.186567  0.623428  1
  Ac  Ac1  1  0.623428  0.891363  0.186567  1
  Ac  Ac2  1  0.186567  0.623428  0.891363  1
  Ac  Ac3  1  0.108637  0.813433  0.376572  1
  Ac  Ac4  1  0.376572  0.108637  0.813433  1
  Ac  Ac5  1  0.813433  0.376572  0.108637  1
  Er  Er6  1  0.657175  0.657175  0.657175  1
  Er  Er7  1  0.342825  0.342825  0.342825  1
  Au  Au8  1  0.000000  0.000000  0.000000  1
  Au  Au9  1  0.500000  0.500000  0.500000  1
  Au  Au10  1  0.802406  0.802406  0.802406  1
  Au  Au11  1  0.197594  0.197594  0.197594  1
  Au  Au12  1  0.940842  0.547406  0.324412  1
  Au  Au13  1  0.324412  0.940842  0.547406  1
  Au  Au14  1  0.547406  0.324412  0.940842  1
  Au  Au15  1  0.059158  0.452594  0.675588  1
  Au  Au16  1  0.675588  0.059158  0.452594  1
  Au  Au17  1  0.452594  0.675588  0.059158  1
