# generated using pymatgen
data_TbPr9InSi5
_symmetry_space_group_name_H-M   'P 1'
_cell_length_a   7.78693853
_cell_length_b   7.78693871
_cell_length_c   9.25903008
_cell_angle_alpha   114.86648903
_cell_angle_beta   114.86648806
_cell_angle_gamma   89.99999621
_symmetry_Int_Tables_number   1
_chemical_formula_structural   TbPr9InSi5
_chemical_formula_sum   'Tb1 Pr9 In1 Si5'
_cell_volume   451.37044801
_cell_formula_units_Z   1
loop_
 _symmetry_equiv_pos_site_id
 _symmetry_equiv_pos_as_xyz
  1  'x, y, z'
loop_
 _atom_site_type_symbol
 _atom_site_label
 _atom_site_symmetry_multiplicity
 _atom_site_fract_x
 _atom_site_fract_y
 _atom_site_fract_z
 _atom_site_occupancy
  Tb  Tb0  1  0.522816  0.522816  0.045633  1
  Pr  Pr1  1  0.973321  0.973321  0.946641  1
  Pr  Pr2  1  0.976194  0.829401  0.279788  1
  Pr  Pr3  1  0.303593  0.450387  0.279788  1
  Pr  Pr4  1  0.829401  0.303593  0.279788  1
  Pr  Pr5  1  0.450387  0.976194  0.279788  1
  Pr  Pr6  1  0.050581  0.198322  0.720792  1
  Pr  Pr7  1  0.670210  0.522469  0.720792  1
  Pr  Pr8  1  0.198322  0.670210  0.720792  1
  Pr  Pr9  1  0.522469  0.050581  0.720792  1
  In  In10  1  0.747535  0.747535  0.495070  1
  Si  Si11  1  0.250460  0.250460  0.500920  1
  Si  Si12  1  0.615206  0.882026  0.002354  1
  Si  Si13  1  0.387149  0.120328  0.002354  1
  Si  Si14  1  0.882026  0.387149  0.002354  1
  Si  Si15  1  0.120328  0.615206  0.002354  1
