# generated using pymatgen
data_Yb4Pr8Er8Si15Ge
_symmetry_space_group_name_H-M   'P 1'
_cell_length_a   7.56459591
_cell_length_b   7.93626812
_cell_length_c   15.04911700
_cell_angle_alpha   90.01111801
_cell_angle_beta   89.90267903
_cell_angle_gamma   90.02835533
_symmetry_Int_Tables_number   1
_chemical_formula_structural   Yb4Pr8Er8Si15Ge
_chemical_formula_sum   'Yb4 Pr8 Er8 Si15 Ge1'
_cell_volume   903.46721236
_cell_formula_units_Z   1
loop_
 _symmetry_equiv_pos_site_id
 _symmetry_equiv_pos_as_xyz
  1  'x, y, z'
loop_
 _atom_site_type_symbol
 _atom_site_label
 _atom_site_symmetry_multiplicity
 _atom_site_fract_x
 _atom_site_fract_y
 _atom_site_fract_z
 _atom_site_occupancy
  Yb  Yb0  1  0.657634  0.989676  0.750526  1
  Yb  Yb1  1  0.842344  0.489697  0.249833  1
  Yb  Yb2  1  0.342703  0.010408  0.249841  1
  Yb  Yb3  1  0.157627  0.510035  0.750305  1
  Pr  Pr4  1  0.021615  0.180551  0.400222  1
  Pr  Pr5  1  0.522468  0.318226  0.400184  1
  Pr  Pr6  1  0.477416  0.681051  0.900776  1
  Pr  Pr7  1  0.480086  0.682433  0.599492  1
  Pr  Pr8  1  0.976909  0.819808  0.599406  1
  Pr  Pr9  1  0.977459  0.818697  0.900822  1
  Pr  Pr10  1  0.522571  0.318971  0.099283  1
  Pr  Pr11  1  0.022651  0.181256  0.099146  1
  Er  Er12  1  0.325759  0.177941  0.624100  1
  Er  Er13  1  0.675354  0.820412  0.376354  1
  Er  Er14  1  0.174690  0.680628  0.376336  1
  Er  Er15  1  0.823938  0.319815  0.876837  1
  Er  Er16  1  0.823070  0.319950  0.623135  1
  Er  Er17  1  0.323610  0.180160  0.876888  1
  Er  Er18  1  0.176092  0.680287  0.123177  1
  Er  Er19  1  0.675992  0.819750  0.123131  1
  Si  Si20  1  0.269082  0.889824  0.750355  1
  Si  Si21  1  0.465028  0.611469  0.249789  1
  Si  Si22  1  0.034511  0.111421  0.750068  1
  Si  Si23  1  0.534591  0.388582  0.750281  1
  Si  Si24  1  0.965440  0.889009  0.249609  1
  Si  Si25  1  0.730831  0.109859  0.249581  1
  Si  Si26  1  0.851901  0.533083  0.035444  1
  Si  Si27  1  0.352042  0.966952  0.035518  1
  Si  Si28  1  0.148075  0.467040  0.964548  1
  Si  Si29  1  0.648572  0.033475  0.535308  1
  Si  Si30  1  0.351169  0.966627  0.464633  1
  Si  Si31  1  0.846317  0.534393  0.463932  1
  Si  Si32  1  0.769628  0.609673  0.750092  1
  Si  Si33  1  0.230567  0.390281  0.249961  1
  Si  Si34  1  0.648073  0.033141  0.964561  1
  Ge  Ge35  1  0.154185  0.465418  0.536524  1
