# generated using pymatgen
data_Zr2TaBe2Ru5
_symmetry_space_group_name_H-M   'P 1'
_cell_length_a   9.48473100
_cell_length_b   9.48473100
_cell_length_c   3.24824700
_cell_angle_alpha   90.00000000
_cell_angle_beta   90.00000000
_cell_angle_gamma   90.00000000
_symmetry_Int_Tables_number   1
_chemical_formula_structural   Zr2TaBe2Ru5
_chemical_formula_sum   'Zr4 Ta2 Be4 Ru10'
_cell_volume   292.21269687
_cell_formula_units_Z   2
loop_
 _symmetry_equiv_pos_site_id
 _symmetry_equiv_pos_as_xyz
  1  'x, y, z'
loop_
 _atom_site_type_symbol
 _atom_site_label
 _atom_site_symmetry_multiplicity
 _atom_site_fract_x
 _atom_site_fract_y
 _atom_site_fract_z
 _atom_site_occupancy
  Zr  Zr0  1  0.827733  0.672267  0.000000  1
  Zr  Zr1  1  0.172267  0.327733  0.000000  1
  Zr  Zr2  1  0.327733  0.827733  0.000000  1
  Zr  Zr3  1  0.672267  0.172267  0.000000  1
  Ta  Ta4  1  0.500000  0.500000  0.000000  1
  Ta  Ta5  1  0.000000  0.000000  0.000000  1
  Be  Be6  1  0.622391  0.877609  0.000000  1
  Be  Be7  1  0.377609  0.122391  0.000000  1
  Be  Be8  1  0.122391  0.622391  0.000000  1
  Be  Be9  1  0.877609  0.377609  0.000000  1
  Ru  Ru10  1  0.572805  0.710228  0.500000  1
  Ru  Ru11  1  0.427195  0.289772  0.500000  1
  Ru  Ru12  1  0.072805  0.789772  0.500000  1
  Ru  Ru13  1  0.927195  0.210228  0.500000  1
  Ru  Ru14  1  0.289772  0.572805  0.500000  1
  Ru  Ru15  1  0.710228  0.427195  0.500000  1
  Ru  Ru16  1  0.210228  0.072805  0.500000  1
  Ru  Ru17  1  0.789772  0.927195  0.500000  1
  Ru  Ru18  1  0.500000  0.000000  0.500000  1
  Ru  Ru19  1  0.000000  0.500000  0.500000  1
