# generated using pymatgen
data_BaPtCl6
_symmetry_space_group_name_H-M   'P 1'
_cell_length_a   6.69572363
_cell_length_b   6.69572416
_cell_length_c   11.40842485
_cell_angle_alpha   83.30790954
_cell_angle_beta   83.30791027
_cell_angle_gamma   59.69876294
_symmetry_Int_Tables_number   1
_chemical_formula_structural   BaPtCl6
_chemical_formula_sum   'Ba2 Pt2 Cl12'
_cell_volume   437.59194187
_cell_formula_units_Z   2
loop_
 _symmetry_equiv_pos_site_id
 _symmetry_equiv_pos_as_xyz
  1  'x, y, z'
loop_
 _atom_site_type_symbol
 _atom_site_label
 _atom_site_symmetry_multiplicity
 _atom_site_fract_x
 _atom_site_fract_y
 _atom_site_fract_z
 _atom_site_occupancy
  Ba  Ba0  1  0.970529  0.029471  0.750000  1
  Ba  Ba1  1  0.029471  0.970529  0.250000  1
  Pt  Pt2  1  0.500000  0.000000  0.500000  1
  Pt  Pt3  1  0.000000  0.500000  0.000000  1
  Cl  Cl4  1  0.456737  0.703250  0.609768  1
  Cl  Cl5  1  0.543263  0.296750  0.390232  1
  Cl  Cl6  1  0.296750  0.543263  0.890232  1
  Cl  Cl7  1  0.703250  0.456737  0.109768  1
  Cl  Cl8  1  0.440234  0.179258  0.676604  1
  Cl  Cl9  1  0.559766  0.820742  0.323396  1
  Cl  Cl10  1  0.820742  0.559766  0.823396  1
  Cl  Cl11  1  0.179258  0.440234  0.176604  1
  Cl  Cl12  1  0.798765  0.902088  0.020086  1
  Cl  Cl13  1  0.201235  0.097912  0.979914  1
  Cl  Cl14  1  0.097912  0.201235  0.479914  1
  Cl  Cl15  1  0.902088  0.798765  0.520086  1
