# generated using pymatgen
data_Ca3Ho(Si4Tc3)2
_symmetry_space_group_name_H-M   'P 1'
_cell_length_a   6.81631545
_cell_length_b   6.70041368
_cell_length_c   6.79708335
_cell_angle_alpha   70.48792542
_cell_angle_beta   90.02946542
_cell_angle_gamma   89.85251624
_symmetry_Int_Tables_number   1
_chemical_formula_structural   Ca3Ho(Si4Tc3)2
_chemical_formula_sum   'Ca3 Ho1 Si8 Tc6'
_cell_volume   292.60795116
_cell_formula_units_Z   1
loop_
 _symmetry_equiv_pos_site_id
 _symmetry_equiv_pos_as_xyz
  1  'x, y, z'
loop_
 _atom_site_type_symbol
 _atom_site_label
 _atom_site_symmetry_multiplicity
 _atom_site_fract_x
 _atom_site_fract_y
 _atom_site_fract_z
 _atom_site_occupancy
  Ca  Ca0  1  0.664709  0.444231  0.184250  1
  Ca  Ca1  1  0.166833  0.056901  0.812827  1
  Ca  Ca2  1  0.334563  0.555783  0.815105  1
  Ho  Ho3  1  0.832884  0.941820  0.192455  1
  Si  Si4  1  0.451105  0.119328  0.102243  1
  Si  Si5  1  0.952775  0.380795  0.895678  1
  Si  Si6  1  0.547686  0.880732  0.897153  1
  Si  Si7  1  0.047101  0.620404  0.102011  1
  Si  Si8  1  0.861473  0.135017  0.508110  1
  Si  Si9  1  0.361167  0.368241  0.491500  1
  Si  Si10  1  0.140877  0.866547  0.494081  1
  Si  Si11  1  0.637225  0.629513  0.509969  1
  Tc  Tc12  1  0.503076  0.000410  0.496463  1
  Tc  Tc13  1  0.999118  0.502206  0.497979  1
  Tc  Tc14  1  0.155475  0.242679  0.243536  1
  Tc  Tc15  1  0.659844  0.252923  0.758596  1
  Tc  Tc16  1  0.842535  0.757832  0.755474  1
  Tc  Tc17  1  0.341553  0.744637  0.242567  1
