# generated using pymatgen
data_DyHo2Sc3SiBi2
_symmetry_space_group_name_H-M   'P 1'
_cell_length_a   7.99119600
_cell_length_b   7.99487658
_cell_length_c   4.11095900
_cell_angle_alpha   90.00000000
_cell_angle_beta   90.00000000
_cell_angle_gamma   120.01525003
_symmetry_Int_Tables_number   1
_chemical_formula_structural   DyHo2Sc3SiBi2
_chemical_formula_sum   'Dy1 Ho2 Sc3 Si1 Bi2'
_cell_volume   227.42100019
_cell_formula_units_Z   1
loop_
 _symmetry_equiv_pos_site_id
 _symmetry_equiv_pos_as_xyz
  1  'x, y, z'
loop_
 _atom_site_type_symbol
 _atom_site_label
 _atom_site_symmetry_multiplicity
 _atom_site_fract_x
 _atom_site_fract_y
 _atom_site_fract_z
 _atom_site_occupancy
  Dy  Dy0  1  0.000000  0.612009  0.500000  1
  Ho  Ho1  1  0.387771  0.387567  0.500000  1
  Ho  Ho2  1  0.612229  0.999796  0.500000  1
  Sc  Sc3  1  0.231846  0.000059  0.000000  1
  Sc  Sc4  1  0.768154  0.768214  0.000000  1
  Sc  Sc5  1  0.000000  0.232445  0.000000  1
  Si  Si6  1  0.000000  0.000754  0.500000  1
  Bi  Bi7  1  0.334034  0.666594  0.000000  1
  Bi  Bi8  1  0.665966  0.332559  0.000000  1
