# generated using pymatgen
data_CeNb9S16
_symmetry_space_group_name_H-M   'P 1'
_cell_length_a   6.65533000
_cell_length_b   6.65533113
_cell_length_c   13.39067900
_cell_angle_alpha   90.00000000
_cell_angle_beta   90.00000000
_cell_angle_gamma   120.00001427
_symmetry_Int_Tables_number   1
_chemical_formula_structural   CeNb9S16
_chemical_formula_sum   'Ce1 Nb9 S16'
_cell_volume   513.65607792
_cell_formula_units_Z   1
loop_
 _symmetry_equiv_pos_site_id
 _symmetry_equiv_pos_as_xyz
  1  'x, y, z'
loop_
 _atom_site_type_symbol
 _atom_site_label
 _atom_site_symmetry_multiplicity
 _atom_site_fract_x
 _atom_site_fract_y
 _atom_site_fract_z
 _atom_site_occupancy
  Ce  Ce0  1  0.000000  0.000000  0.000000  1
  Nb  Nb1  1  0.000000  0.000000  0.263792  1
  Nb  Nb2  1  0.000000  0.000000  0.736208  1
  Nb  Nb3  1  0.504907  0.009815  0.265407  1
  Nb  Nb4  1  0.495093  0.990185  0.734593  1
  Nb  Nb5  1  0.990185  0.495093  0.265407  1
  Nb  Nb6  1  0.009815  0.504907  0.734593  1
  Nb  Nb7  1  0.504907  0.495093  0.265407  1
  Nb  Nb8  1  0.495093  0.504907  0.734593  1
  Nb  Nb9  1  0.000000  0.000000  0.500000  1
  S  S10  1  0.333333  0.666667  0.614474  1
  S  S11  1  0.666667  0.333333  0.385526  1
  S  S12  1  0.666667  0.333333  0.143974  1
  S  S13  1  0.333333  0.666667  0.856026  1
  S  S14  1  0.169298  0.338595  0.147085  1
  S  S15  1  0.830702  0.661405  0.852915  1
  S  S16  1  0.661405  0.830702  0.147085  1
  S  S17  1  0.831928  0.663856  0.616925  1
  S  S18  1  0.338595  0.169298  0.852915  1
  S  S19  1  0.168072  0.336144  0.383075  1
  S  S20  1  0.169298  0.830702  0.147085  1
  S  S21  1  0.336144  0.168072  0.616925  1
  S  S22  1  0.830702  0.169298  0.852915  1
  S  S23  1  0.663856  0.831928  0.383075  1
  S  S24  1  0.831928  0.168072  0.616925  1
  S  S25  1  0.168072  0.831928  0.383075  1
