# generated using pymatgen
data_Y5Ho5Si5Bi
_symmetry_space_group_name_H-M   'P 1'
_cell_length_a   8.51594618
_cell_length_b   8.56136837
_cell_length_c   6.35217600
_cell_angle_alpha   90.00000000
_cell_angle_beta   90.00000000
_cell_angle_gamma   119.80091815
_symmetry_Int_Tables_number   1
_chemical_formula_structural   Y5Ho5Si5Bi
_chemical_formula_sum   'Y5 Ho5 Si5 Bi1'
_cell_volume   401.88054752
_cell_formula_units_Z   1
loop_
 _symmetry_equiv_pos_site_id
 _symmetry_equiv_pos_as_xyz
  1  'x, y, z'
loop_
 _atom_site_type_symbol
 _atom_site_label
 _atom_site_symmetry_multiplicity
 _atom_site_fract_x
 _atom_site_fract_y
 _atom_site_fract_z
 _atom_site_occupancy
  Y  Y0  1  0.985155  0.745069  0.750000  1
  Y  Y1  1  0.998437  0.243502  0.250000  1
  Y  Y2  1  0.754691  0.756406  0.250000  1
  Y  Y3  1  0.767575  0.000082  0.750000  1
  Y  Y4  1  0.240549  0.000137  0.250000  1
  Ho  Ho5  1  0.240151  0.255443  0.750000  1
  Ho  Ho6  1  0.330664  0.653768  0.495091  1
  Ho  Ho7  1  0.676711  0.346062  0.004966  1
  Ho  Ho8  1  0.676711  0.346062  0.495034  1
  Ho  Ho9  1  0.330664  0.653768  0.004909  1
  Si  Si10  1  0.393360  0.390820  0.250000  1
  Si  Si11  1  0.002492  0.609146  0.250000  1
  Si  Si12  1  0.998946  0.394496  0.750000  1
  Si  Si13  1  0.603686  0.605011  0.750000  1
  Si  Si14  1  0.606770  0.999977  0.250000  1
  Bi  Bi15  1  0.393438  0.000252  0.750000  1
