# generated using pymatgen
data_Dy3Si2Ag3Sn
_symmetry_space_group_name_H-M   'P 1'
_cell_length_a   7.18606900
_cell_length_b   7.18606762
_cell_length_c   4.30427700
_cell_angle_alpha   90.00000000
_cell_angle_beta   90.00000000
_cell_angle_gamma   120.00000176
_symmetry_Int_Tables_number   1
_chemical_formula_structural   Dy3Si2Ag3Sn
_chemical_formula_sum   'Dy3 Si2 Ag3 Sn1'
_cell_volume   192.49236960
_cell_formula_units_Z   1
loop_
 _symmetry_equiv_pos_site_id
 _symmetry_equiv_pos_as_xyz
  1  'x, y, z'
loop_
 _atom_site_type_symbol
 _atom_site_label
 _atom_site_symmetry_multiplicity
 _atom_site_fract_x
 _atom_site_fract_y
 _atom_site_fract_z
 _atom_site_occupancy
  Dy  Dy0  1  0.433002  0.433002  0.500000  1
  Dy  Dy1  1  0.566998  0.000000  0.500000  1
  Dy  Dy2  1  0.000000  0.566998  0.500000  1
  Si  Si3  1  0.666667  0.333333  0.000000  1
  Si  Si4  1  0.333333  0.666667  0.000000  1
  Ag  Ag5  1  0.734543  0.734543  0.000000  1
  Ag  Ag6  1  0.265457  0.000000  0.000000  1
  Ag  Ag7  1  0.000000  0.265457  0.000000  1
  Sn  Sn8  1  0.000000  0.000000  0.500000  1
