# generated using pymatgen
data_TbTmAl20Ru3Rh
_symmetry_space_group_name_H-M   'P 1'
_cell_length_a   6.84072520
_cell_length_b   6.84934797
_cell_length_c   9.13600510
_cell_angle_alpha   90.14201390
_cell_angle_beta   90.16047917
_cell_angle_gamma   96.78594924
_symmetry_Int_Tables_number   1
_chemical_formula_structural   TbTmAl20Ru3Rh
_chemical_formula_sum   'Tb1 Tm1 Al20 Ru3 Rh1'
_cell_volume   425.06085939
_cell_formula_units_Z   1
loop_
 _symmetry_equiv_pos_site_id
 _symmetry_equiv_pos_as_xyz
  1  'x, y, z'
loop_
 _atom_site_type_symbol
 _atom_site_label
 _atom_site_symmetry_multiplicity
 _atom_site_fract_x
 _atom_site_fract_y
 _atom_site_fract_z
 _atom_site_occupancy
  Tb  Tb0  1  0.128078  0.873556  0.249484  1
  Tm  Tm1  1  0.871016  0.127039  0.750700  1
  Al  Al2  1  0.621032  0.376037  0.551426  1
  Al  Al3  1  0.379381  0.623638  0.448830  1
  Al  Al4  1  0.377503  0.623075  0.049859  1
  Al  Al5  1  0.622849  0.376570  0.949877  1
  Al  Al6  1  0.226902  0.225470  0.499636  1
  Al  Al7  1  0.772931  0.774730  0.501131  1
  Al  Al8  1  0.774123  0.774769  0.999447  1
  Al  Al9  1  0.225717  0.225377  0.999817  1
  Al  Al10  1  0.843958  0.156607  0.099573  1
  Al  Al11  1  0.155601  0.843766  0.900055  1
  Al  Al12  1  0.157243  0.844903  0.601419  1
  Al  Al13  1  0.842350  0.155607  0.398927  1
  Al  Al14  1  0.857853  0.586718  0.750819  1
  Al  Al15  1  0.141779  0.412345  0.249138  1
  Al  Al16  1  0.413191  0.141270  0.750468  1
  Al  Al17  1  0.587722  0.859069  0.249524  1
  Al  Al18  1  0.222299  0.480120  0.752450  1
  Al  Al19  1  0.777243  0.519052  0.247527  1
  Al  Al20  1  0.519708  0.779556  0.749825  1
  Al  Al21  1  0.481129  0.220856  0.250185  1
  Ru  Ru22  1  0.999915  0.499730  0.999487  1
  Ru  Ru23  1  0.500191  0.000036  0.999435  1
  Ru  Ru24  1  0.500256  0.000095  0.500581  1
  Rh  Rh25  1  0.000030  0.500012  0.500379  1
