# generated using pymatgen
data_Tb3Er5Ti9Si16Tc3
_symmetry_space_group_name_H-M   'P 1'
_cell_length_a   6.97030024
_cell_length_b   6.97113152
_cell_length_c   12.79543217
_cell_angle_alpha   90.08290800
_cell_angle_beta   89.91039282
_cell_angle_gamma   90.05721013
_symmetry_Int_Tables_number   1
_chemical_formula_structural   Tb3Er5Ti9Si16Tc3
_chemical_formula_sum   'Tb3 Er5 Ti9 Si16 Tc3'
_cell_volume   621.73958584
_cell_formula_units_Z   1
loop_
 _symmetry_equiv_pos_site_id
 _symmetry_equiv_pos_as_xyz
  1  'x, y, z'
loop_
 _atom_site_type_symbol
 _atom_site_label
 _atom_site_symmetry_multiplicity
 _atom_site_fract_x
 _atom_site_fract_y
 _atom_site_fract_z
 _atom_site_occupancy
  Tb  Tb0  1  0.339960  0.001963  0.467390  1
  Tb  Tb1  1  0.498421  0.841040  0.719637  1
  Tb  Tb2  1  0.500899  0.159181  0.217793  1
  Er  Er3  1  0.841813  0.499377  0.280521  1
  Er  Er4  1  0.158503  0.499953  0.782324  1
  Er  Er5  1  0.659093  0.999882  0.968494  1
  Er  Er6  1  0.001095  0.340947  0.532599  1
  Er  Er7  1  0.999655  0.658875  0.031349  1
  Ti  Ti8  1  0.674583  0.673444  0.500000  1
  Ti  Ti9  1  0.151469  0.006510  0.877529  1
  Ti  Ti10  1  0.494232  0.653445  0.124064  1
  Ti  Ti11  1  0.505679  0.347918  0.627682  1
  Ti  Ti12  1  0.653727  0.494512  0.876152  1
  Ti  Ti13  1  0.347679  0.504921  0.372558  1
  Ti  Ti14  1  0.847520  0.991170  0.375892  1
  Ti  Ti15  1  0.005697  0.151625  0.122661  1
  Ti  Ti16  1  0.991684  0.847012  0.624166  1
  Si  Si17  1  0.198776  0.130820  0.684246  1
  Si  Si18  1  0.369647  0.700507  0.933072  1
  Si  Si19  1  0.632825  0.298251  0.434481  1
  Si  Si20  1  0.702154  0.370966  0.066716  1
  Si  Si21  1  0.295708  0.629148  0.565634  1
  Si  Si22  1  0.799977  0.868601  0.182999  1
  Si  Si23  1  0.127321  0.201708  0.315931  1
  Si  Si24  1  0.871061  0.798622  0.817248  1
  Si  Si25  1  0.290591  0.950944  0.066233  1
  Si  Si26  1  0.548387  0.788569  0.315525  1
  Si  Si27  1  0.451763  0.211447  0.817099  1
  Si  Si28  1  0.791643  0.546207  0.684515  1
  Si  Si29  1  0.208915  0.453410  0.183141  1
  Si  Si30  1  0.709625  0.050583  0.567414  1
  Si  Si31  1  0.952230  0.291607  0.933321  1
  Si  Si32  1  0.048188  0.706340  0.432405  1
  Tc  Tc33  1  0.327538  0.328311  0.999567  1
  Tc  Tc34  1  0.173166  0.827513  0.248249  1
  Tc  Tc35  1  0.828779  0.174672  0.751393  1
