# generated using pymatgen
data_Y11In(Hg2Pt)4
_symmetry_space_group_name_H-M   'P 1'
_cell_length_a   3.71180400
_cell_length_b   13.07029336
_cell_length_c   13.07029300
_cell_angle_alpha   112.23147976
_cell_angle_beta   90.00000000
_cell_angle_gamma   90.00000000
_symmetry_Int_Tables_number   1
_chemical_formula_structural   Y11In(Hg2Pt)4
_chemical_formula_sum   'Y11 In1 Hg8 Pt4'
_cell_volume   586.96003026
_cell_formula_units_Z   1
loop_
 _symmetry_equiv_pos_site_id
 _symmetry_equiv_pos_as_xyz
  1  'x, y, z'
loop_
 _atom_site_type_symbol
 _atom_site_label
 _atom_site_symmetry_multiplicity
 _atom_site_fract_x
 _atom_site_fract_y
 _atom_site_fract_z
 _atom_site_occupancy
  Y  Y0  1  0.000000  0.922896  0.585353  1
  Y  Y1  1  0.000000  0.077104  0.414647  1
  Y  Y2  1  0.000000  0.585353  0.922896  1
  Y  Y3  1  0.000000  0.414647  0.077104  1
  Y  Y4  1  0.000000  0.166304  0.833696  1
  Y  Y5  1  0.000000  0.833696  0.166304  1
  Y  Y6  1  0.000000  0.371732  0.628268  1
  Y  Y7  1  0.000000  0.628268  0.371732  1
  Y  Y8  1  0.000000  0.699746  0.699746  1
  Y  Y9  1  0.000000  0.300254  0.300254  1
  Y  Y10  1  0.000000  0.000000  0.000000  1
  In  In11  1  0.500000  0.500000  0.500000  1
  Hg  Hg12  1  0.500000  0.152630  0.632720  1
  Hg  Hg13  1  0.500000  0.847370  0.367280  1
  Hg  Hg14  1  0.500000  0.632720  0.152630  1
  Hg  Hg15  1  0.500000  0.367280  0.847370  1
  Hg  Hg16  1  0.500000  0.937922  0.788576  1
  Hg  Hg17  1  0.500000  0.062078  0.211424  1
  Hg  Hg18  1  0.500000  0.788576  0.937922  1
  Hg  Hg19  1  0.500000  0.211424  0.062078  1
  Pt  Pt20  1  0.500000  0.749020  0.551015  1
  Pt  Pt21  1  0.500000  0.250980  0.448985  1
  Pt  Pt22  1  0.500000  0.551015  0.749020  1
  Pt  Pt23  1  0.500000  0.448985  0.250980  1
