# generated using pymatgen
data_DyY3(SiNi2)4
_symmetry_space_group_name_H-M   'P 1'
_cell_length_a   5.41412233
_cell_length_b   6.38797700
_cell_length_c   7.07553393
_cell_angle_alpha   90.00000000
_cell_angle_beta   89.93040854
_cell_angle_gamma   90.00000000
_symmetry_Int_Tables_number   1
_chemical_formula_structural   DyY3(SiNi2)4
_chemical_formula_sum   'Dy1 Y3 Si4 Ni8'
_cell_volume   244.70920483
_cell_formula_units_Z   1
loop_
 _symmetry_equiv_pos_site_id
 _symmetry_equiv_pos_as_xyz
  1  'x, y, z'
loop_
 _atom_site_type_symbol
 _atom_site_label
 _atom_site_symmetry_multiplicity
 _atom_site_fract_x
 _atom_site_fract_y
 _atom_site_fract_z
 _atom_site_occupancy
  Dy  Dy0  1  0.349458  0.750000  0.031863  1
  Y  Y1  1  0.148347  0.750000  0.531549  1
  Y  Y2  1  0.649227  0.250000  0.968021  1
  Y  Y3  1  0.851144  0.250000  0.468337  1
  Si  Si4  1  0.649861  0.750000  0.376043  1
  Si  Si5  1  0.849045  0.750000  0.876723  1
  Si  Si6  1  0.349886  0.250000  0.623529  1
  Si  Si7  1  0.150161  0.250000  0.123432  1
  Ni  Ni8  1  0.910660  0.557345  0.171188  1
  Ni  Ni9  1  0.589402  0.942413  0.671490  1
  Ni  Ni10  1  0.091604  0.056677  0.829667  1
  Ni  Ni11  1  0.409770  0.442772  0.327907  1
  Ni  Ni12  1  0.091604  0.443323  0.829667  1
  Ni  Ni13  1  0.409770  0.057228  0.327907  1
  Ni  Ni14  1  0.910660  0.942655  0.171188  1
  Ni  Ni15  1  0.589402  0.557587  0.671490  1
