# generated using pymatgen
data_Li4HoPaS6
_symmetry_space_group_name_H-M   'P 1'
_cell_length_a   6.68564158
_cell_length_b   6.68564146
_cell_length_c   6.53534083
_cell_angle_alpha   100.08076124
_cell_angle_beta   100.08076197
_cell_angle_gamma   119.83265575
_symmetry_Int_Tables_number   1
_chemical_formula_structural   Li4HoPaS6
_chemical_formula_sum   'Li4 Ho1 Pa1 S6'
_cell_volume   237.45355864
_cell_formula_units_Z   1
loop_
 _symmetry_equiv_pos_site_id
 _symmetry_equiv_pos_as_xyz
  1  'x, y, z'
loop_
 _atom_site_type_symbol
 _atom_site_label
 _atom_site_symmetry_multiplicity
 _atom_site_fract_x
 _atom_site_fract_y
 _atom_site_fract_z
 _atom_site_occupancy
  Li  Li0  1  0.500405  0.499595  0.000000  1
  Li  Li1  1  0.002755  0.997243  0.499999  1
  Li  Li2  1  0.667945  0.332055  0.500001  1
  Li  Li3  1  0.330545  0.669455  0.500001  1
  Ho  Ho4  1  0.833625  0.166374  0.000000  1
  Pa  Pa5  1  0.166677  0.833322  0.000000  1
  S  S6  1  0.926482  0.590571  0.245323  1
  S  S7  1  0.576782  0.921280  0.248015  1
  S  S8  1  0.245742  0.239106  0.251479  1
  S  S9  1  0.760896  0.754260  0.748522  1
  S  S10  1  0.078721  0.423219  0.751985  1
  S  S11  1  0.409430  0.073520  0.754678  1
