# generated using pymatgen
data_PrNd5Al24Ru3Rh5
_symmetry_space_group_name_H-M   'P 1'
_cell_length_a   8.88783400
_cell_length_b   8.92766811
_cell_length_c   9.67154145
_cell_angle_alpha   90.13026409
_cell_angle_beta   90.00000000
_cell_angle_gamma   119.85251930
_symmetry_Int_Tables_number   1
_chemical_formula_structural   PrNd5Al24Ru3Rh5
_chemical_formula_sum   'Pr1 Nd5 Al24 Ru3 Rh5'
_cell_volume   665.58312557
_cell_formula_units_Z   1
loop_
 _symmetry_equiv_pos_site_id
 _symmetry_equiv_pos_as_xyz
  1  'x, y, z'
loop_
 _atom_site_type_symbol
 _atom_site_label
 _atom_site_symmetry_multiplicity
 _atom_site_fract_x
 _atom_site_fract_y
 _atom_site_fract_z
 _atom_site_occupancy
  Pr  Pr0  1  0.190637  0.381272  0.250470  1
  Nd  Nd1  1  0.809271  0.618542  0.749541  1
  Nd  Nd2  1  0.618373  0.810931  0.250218  1
  Nd  Nd3  1  0.381759  0.189208  0.749765  1
  Nd  Nd4  1  0.192560  0.810931  0.250218  1
  Nd  Nd5  1  0.807448  0.189208  0.749765  1
  Al  Al6  1  0.333716  0.667435  0.020785  1
  Al  Al7  1  0.666531  0.333060  0.978701  1
  Al  Al8  1  0.665436  0.330870  0.520728  1
  Al  Al9  1  0.334819  0.669640  0.479748  1
  Al  Al10  1  0.162842  0.325683  0.575117  1
  Al  Al11  1  0.837136  0.674273  0.425351  1
  Al  Al12  1  0.673163  0.837843  0.574904  1
  Al  Al13  1  0.837298  0.674596  0.074809  1
  Al  Al14  1  0.327011  0.161934  0.425316  1
  Al  Al15  1  0.162678  0.325355  0.924723  1
  Al  Al16  1  0.164680  0.837843  0.574904  1
  Al  Al17  1  0.326618  0.163699  0.075085  1
  Al  Al18  1  0.834923  0.161934  0.425316  1
  Al  Al19  1  0.673548  0.836056  0.924677  1
  Al  Al20  1  0.837083  0.163699  0.075085  1
  Al  Al21  1  0.162508  0.836056  0.924677  1
  Al  Al22  1  0.563402  0.126804  0.251039  1
  Al  Al23  1  0.436595  0.873190  0.749011  1
  Al  Al24  1  0.873613  0.437869  0.249572  1
  Al  Al25  1  0.125907  0.562224  0.750412  1
  Al  Al26  1  0.564256  0.437869  0.249572  1
  Al  Al27  1  0.436317  0.562224  0.750412  1
  Al  Al28  1  0.000650  0.001302  0.250127  1
  Al  Al29  1  0.999071  0.998141  0.749861  1
  Ru  Ru30  1  0.500090  0.000179  0.500152  1
  Ru  Ru31  1  0.999931  0.999862  0.999912  1
  Ru  Ru32  1  0.999932  0.999863  0.500075  1
  Rh  Rh33  1  0.500042  0.000083  0.999957  1
  Rh  Rh34  1  0.999927  0.500070  0.999889  1
  Rh  Rh35  1  0.500143  0.500070  0.999889  1
  Rh  Rh36  1  0.999943  0.500089  0.500107  1
  Rh  Rh37  1  0.500147  0.500089  0.500107  1
