# generated using pymatgen
data_Pr2MnFe3O10
_symmetry_space_group_name_H-M   'P 1'
_cell_length_a   5.88741700
_cell_length_b   7.65846800
_cell_length_c   8.75838500
_cell_angle_alpha   90.00000000
_cell_angle_beta   90.00000000
_cell_angle_gamma   90.00000000
_symmetry_Int_Tables_number   1
_chemical_formula_structural   Pr2MnFe3O10
_chemical_formula_sum   'Pr4 Mn2 Fe6 O20'
_cell_volume   394.90327147
_cell_formula_units_Z   2
loop_
 _symmetry_equiv_pos_site_id
 _symmetry_equiv_pos_as_xyz
  1  'x, y, z'
loop_
 _atom_site_type_symbol
 _atom_site_label
 _atom_site_symmetry_multiplicity
 _atom_site_fract_x
 _atom_site_fract_y
 _atom_site_fract_z
 _atom_site_occupancy
  Pr  Pr0  1  0.999241  0.359737  0.671767  1
  Pr  Pr1  1  0.999241  0.640263  0.328233  1
  Pr  Pr2  1  0.000759  0.859737  0.828233  1
  Pr  Pr3  1  0.000759  0.140263  0.171767  1
  Mn  Mn4  1  0.746991  0.500000  0.000000  1
  Mn  Mn5  1  0.253009  0.000000  0.500000  1
  Fe  Fe6  1  0.500378  0.109540  0.856658  1
  Fe  Fe7  1  0.500378  0.890460  0.143342  1
  Fe  Fe8  1  0.499622  0.609540  0.643342  1
  Fe  Fe9  1  0.499622  0.390460  0.356658  1
  Fe  Fe10  1  0.254507  0.500000  0.000000  1
  Fe  Fe11  1  0.745493  0.000000  0.500000  1
  O  O12  1  0.249278  0.902489  0.292881  1
  O  O13  1  0.249278  0.097511  0.707119  1
  O  O14  1  0.750722  0.402489  0.207119  1
  O  O15  1  0.750722  0.597511  0.792881  1
  O  O16  1  0.749937  0.095775  0.708424  1
  O  O17  1  0.749937  0.904225  0.291576  1
  O  O18  1  0.250063  0.595775  0.791576  1
  O  O19  1  0.250063  0.404225  0.208424  1
  O  O20  1  0.508464  0.343131  0.932797  1
  O  O21  1  0.508464  0.656869  0.067203  1
  O  O22  1  0.491536  0.843131  0.567203  1
  O  O23  1  0.491536  0.156869  0.432797  1
  O  O24  1  0.277682  0.000000  0.000000  1
  O  O25  1  0.722318  0.500000  0.500000  1
  O  O26  1  0.722123  0.000000  0.000000  1
  O  O27  1  0.277877  0.500000  0.500000  1
  O  O28  1  0.009821  0.159023  0.447791  1
  O  O29  1  0.009821  0.840977  0.552209  1
  O  O30  1  0.990179  0.659023  0.052209  1
  O  O31  1  0.990179  0.340977  0.947791  1
