# generated using pymatgen
data_Ga2Ni4Mo6C
_symmetry_space_group_name_H-M   'P 1'
_cell_length_a   7.82308582
_cell_length_b   7.82308509
_cell_length_c   7.82308500
_cell_angle_alpha   59.99999615
_cell_angle_beta   59.99999922
_cell_angle_gamma   59.99999885
_symmetry_Int_Tables_number   1
_chemical_formula_structural   Ga2Ni4Mo6C
_chemical_formula_sum   'Ga4 Ni8 Mo12 C2'
_cell_volume   338.54716439
_cell_formula_units_Z   2
loop_
 _symmetry_equiv_pos_site_id
 _symmetry_equiv_pos_as_xyz
  1  'x, y, z'
loop_
 _atom_site_type_symbol
 _atom_site_label
 _atom_site_symmetry_multiplicity
 _atom_site_fract_x
 _atom_site_fract_y
 _atom_site_fract_z
 _atom_site_occupancy
  Ga  Ga0  1  0.125000  0.625000  0.125000  1
  Ga  Ga1  1  0.125000  0.125000  0.625000  1
  Ga  Ga2  1  0.625000  0.125000  0.125000  1
  Ga  Ga3  1  0.125000  0.125000  0.125000  1
  Ni  Ni4  1  0.334082  0.334082  0.997754  1
  Ni  Ni5  1  0.334082  0.334082  0.334082  1
  Ni  Ni6  1  0.252246  0.915918  0.915918  1
  Ni  Ni7  1  0.915918  0.915918  0.915918  1
  Ni  Ni8  1  0.997754  0.334082  0.334082  1
  Ni  Ni9  1  0.334082  0.997754  0.334082  1
  Ni  Ni10  1  0.915918  0.915918  0.252246  1
  Ni  Ni11  1  0.915918  0.252246  0.915918  1
  Mo  Mo12  1  0.306382  0.693618  0.693618  1
  Mo  Mo13  1  0.693618  0.693618  0.306382  1
  Mo  Mo14  1  0.693618  0.306382  0.693618  1
  Mo  Mo15  1  0.306382  0.693618  0.306382  1
  Mo  Mo16  1  0.556382  0.943618  0.556382  1
  Mo  Mo17  1  0.556382  0.943618  0.943618  1
  Mo  Mo18  1  0.943618  0.556382  0.556382  1
  Mo  Mo19  1  0.943618  0.556382  0.943618  1
  Mo  Mo20  1  0.306382  0.306382  0.693618  1
  Mo  Mo21  1  0.556382  0.556382  0.943618  1
  Mo  Mo22  1  0.943618  0.943618  0.556382  1
  Mo  Mo23  1  0.693618  0.306382  0.306382  1
  C  C24  1  0.500000  0.500000  0.500000  1
  C  C25  1  0.750000  0.750000  0.750000  1
