# generated using pymatgen
data_Sc8Ti11Si16Hg
_symmetry_space_group_name_H-M   'P 1'
_cell_length_a   6.90355628
_cell_length_b   6.90355596
_cell_length_c   12.58082902
_cell_angle_alpha   90.12165297
_cell_angle_beta   89.87834824
_cell_angle_gamma   89.88500447
_symmetry_Int_Tables_number   1
_chemical_formula_structural   Sc8Ti11Si16Hg
_chemical_formula_sum   'Sc8 Ti11 Si16 Hg1'
_cell_volume   599.58690993
_cell_formula_units_Z   1
loop_
 _symmetry_equiv_pos_site_id
 _symmetry_equiv_pos_as_xyz
  1  'x, y, z'
loop_
 _atom_site_type_symbol
 _atom_site_label
 _atom_site_symmetry_multiplicity
 _atom_site_fract_x
 _atom_site_fract_y
 _atom_site_fract_z
 _atom_site_occupancy
  Sc  Sc0  1  0.341718  0.000635  0.466567  1
  Sc  Sc1  1  0.499285  0.841396  0.715726  1
  Sc  Sc2  1  0.501716  0.155182  0.215930  1
  Sc  Sc3  1  0.841396  0.499285  0.284274  1
  Sc  Sc4  1  0.155182  0.501716  0.784070  1
  Sc  Sc5  1  0.658007  0.000414  0.968618  1
  Sc  Sc6  1  0.000635  0.341718  0.533433  1
  Sc  Sc7  1  0.000414  0.658007  0.031382  1
  Ti  Ti8  1  0.173015  0.826898  0.250724  1
  Ti  Ti9  1  0.826898  0.173015  0.749276  1
  Ti  Ti10  1  0.671876  0.671876  0.500000  1
  Ti  Ti11  1  0.145412  0.007093  0.875638  1
  Ti  Ti12  1  0.497764  0.649054  0.122742  1
  Ti  Ti13  1  0.504228  0.352721  0.623548  1
  Ti  Ti14  1  0.649054  0.497764  0.877258  1
  Ti  Ti15  1  0.352721  0.504228  0.376452  1
  Ti  Ti16  1  0.851785  0.992942  0.374070  1
  Ti  Ti17  1  0.007093  0.145412  0.124362  1
  Ti  Ti18  1  0.992942  0.851785  0.625930  1
  Si  Si19  1  0.202813  0.138344  0.679966  1
  Si  Si20  1  0.372503  0.726626  0.922179  1
  Si  Si21  1  0.637277  0.292823  0.428749  1
  Si  Si22  1  0.726626  0.372503  0.077821  1
  Si  Si23  1  0.292823  0.637277  0.571251  1
  Si  Si24  1  0.796860  0.861064  0.179511  1
  Si  Si25  1  0.138344  0.202813  0.320034  1
  Si  Si26  1  0.861064  0.796860  0.820489  1
  Si  Si27  1  0.289228  0.934258  0.066571  1
  Si  Si28  1  0.546125  0.795802  0.314827  1
  Si  Si29  1  0.458173  0.199290  0.806622  1
  Si  Si30  1  0.795802  0.546125  0.685173  1
  Si  Si31  1  0.199290  0.458173  0.193378  1
  Si  Si32  1  0.703284  0.046672  0.563900  1
  Si  Si33  1  0.934258  0.289228  0.933429  1
  Si  Si34  1  0.046672  0.703284  0.436100  1
  Hg  Hg35  1  0.327720  0.327720  0.000000  1
