# generated using pymatgen
data_Tb7Ho3RuRh3
_symmetry_space_group_name_H-M   'P 1'
_cell_length_a   6.43139524
_cell_length_b   7.21976357
_cell_length_c   8.64383723
_cell_angle_alpha   96.80628929
_cell_angle_beta   112.22756964
_cell_angle_gamma   89.96734144
_symmetry_Int_Tables_number   1
_chemical_formula_structural   Tb7Ho3RuRh3
_chemical_formula_sum   'Tb7 Ho3 Ru1 Rh3'
_cell_volume   368.48860568
_cell_formula_units_Z   1
loop_
 _symmetry_equiv_pos_site_id
 _symmetry_equiv_pos_as_xyz
  1  'x, y, z'
loop_
 _atom_site_type_symbol
 _atom_site_label
 _atom_site_symmetry_multiplicity
 _atom_site_fract_x
 _atom_site_fract_y
 _atom_site_fract_z
 _atom_site_occupancy
  Tb  Tb0  1  0.982217  0.918406  0.188449  1
  Tb  Tb1  1  0.792092  0.582352  0.811448  1
  Tb  Tb2  1  0.020966  0.082763  0.814568  1
  Tb  Tb3  1  0.210444  0.414756  0.189585  1
  Tb  Tb4  1  0.643440  0.814079  0.433669  1
  Tb  Tb5  1  0.207991  0.686643  0.564263  1
  Tb  Tb6  1  0.356989  0.187762  0.562748  1
  Ho  Ho7  1  0.788192  0.312250  0.433673  1
  Ho  Ho8  1  0.423895  0.751592  0.001022  1
  Ho  Ho9  1  0.575627  0.249845  0.001351  1
  Ru  Ru10  1  0.399722  0.074761  0.218721  1
  Rh  Rh11  1  0.820005  0.574428  0.221518  1
  Rh  Rh12  1  0.598543  0.924739  0.781656  1
  Rh  Rh13  1  0.179877  0.425624  0.777327  1
