# generated using pymatgen
data_Dy2Al16Pt8Rh
_symmetry_space_group_name_H-M   'P 1'
_cell_length_a   11.12073696
_cell_length_b   11.12073688
_cell_length_c   11.12073788
_cell_angle_alpha   158.50746905
_cell_angle_beta   115.71748003
_cell_angle_gamma   68.62937997
_symmetry_Int_Tables_number   1
_chemical_formula_structural   Dy2Al16Pt8Rh
_chemical_formula_sum   'Dy2 Al16 Pt8 Rh1'
_cell_volume   450.73440174
_cell_formula_units_Z   1
loop_
 _symmetry_equiv_pos_site_id
 _symmetry_equiv_pos_as_xyz
  1  'x, y, z'
loop_
 _atom_site_type_symbol
 _atom_site_label
 _atom_site_symmetry_multiplicity
 _atom_site_fract_x
 _atom_site_fract_y
 _atom_site_fract_z
 _atom_site_occupancy
  Dy  Dy0  1  0.229693  0.229186  0.000506  1
  Dy  Dy1  1  0.771320  0.770814  0.000506  1
  Al  Al2  1  0.272407  0.390853  0.881554  1
  Al  Al3  1  0.090832  0.921739  0.169093  1
  Al  Al4  1  0.510464  0.203591  0.306875  1
  Al  Al5  1  0.247354  0.078261  0.169093  1
  Al  Al6  1  0.910955  0.414162  0.496793  1
  Al  Al7  1  0.726629  0.604554  0.122075  1
  Al  Al8  1  0.896937  0.205792  0.691145  1
  Al  Al9  1  0.485355  0.794208  0.691145  1
  Al  Al10  1  0.388159  0.000000  0.388159  1
  Al  Al11  1  0.621707  0.000000  0.621707  1
  Al  Al12  1  0.490701  0.609147  0.881554  1
  Al  Al13  1  0.103284  0.796409  0.306875  1
  Al  Al14  1  0.905757  0.081749  0.824008  1
  Al  Al15  1  0.742260  0.918251  0.824008  1
  Al  Al16  1  0.517521  0.395446  0.122075  1
  Al  Al17  1  0.082630  0.585838  0.496793  1
  Pt  Pt18  1  0.022847  0.340802  0.682045  1
  Pt  Pt19  1  0.628031  0.127071  0.500960  1
  Pt  Pt20  1  0.253787  0.500000  0.753787  1
  Pt  Pt21  1  0.373889  0.872929  0.500960  1
  Pt  Pt22  1  0.992512  0.000000  0.992512  1
  Pt  Pt23  1  0.653148  0.338060  0.315089  1
  Pt  Pt24  1  0.341243  0.659198  0.682045  1
  Pt  Pt25  1  0.977029  0.661940  0.315089  1
  Rh  Rh26  1  0.763548  0.500000  0.263548  1
