# generated using pymatgen
data_Y12TlCo4Ag
_symmetry_space_group_name_H-M   'P 1'
_cell_length_a   8.38346504
_cell_length_b   8.38346509
_cell_length_c   8.38346600
_cell_angle_alpha   111.03602033
_cell_angle_beta   110.30717123
_cell_angle_gamma   107.09711574
_symmetry_Int_Tables_number   1
_chemical_formula_structural   Y12TlCo4Ag
_chemical_formula_sum   'Y12 Tl1 Co4 Ag1'
_cell_volume   452.97449613
_cell_formula_units_Z   1
loop_
 _symmetry_equiv_pos_site_id
 _symmetry_equiv_pos_as_xyz
  1  'x, y, z'
loop_
 _atom_site_type_symbol
 _atom_site_label
 _atom_site_symmetry_multiplicity
 _atom_site_fract_x
 _atom_site_fract_y
 _atom_site_fract_z
 _atom_site_occupancy
  Y  Y0  1  0.426999  0.221673  0.205326  1
  Y  Y1  1  0.573001  0.778327  0.794674  1
  Y  Y2  1  0.016347  0.221673  0.794674  1
  Y  Y3  1  0.983653  0.778327  0.205326  1
  Y  Y4  1  0.187111  0.291643  0.478754  1
  Y  Y5  1  0.812889  0.708357  0.521246  1
  Y  Y6  1  0.187111  0.708357  0.895466  1
  Y  Y7  1  0.812889  0.291643  0.104534  1
  Y  Y8  1  0.314703  0.617647  0.302944  1
  Y  Y9  1  0.685297  0.382353  0.697056  1
  Y  Y10  1  0.314703  0.011760  0.697056  1
  Y  Y11  1  0.685297  0.988240  0.302944  1
  Tl  Tl12  1  0.500000  0.500000  0.000000  1
  Co  Co13  1  0.381389  0.000000  0.381389  1
  Co  Co14  1  0.618611  0.000000  0.618611  1
  Co  Co15  1  0.110917  0.610917  0.500000  1
  Co  Co16  1  0.889083  0.389083  0.500000  1
  Ag  Ag17  1  0.000000  0.000000  0.000000  1
