# generated using pymatgen
data_CaScMnH6
_symmetry_space_group_name_H-M   'P 1'
_cell_length_a   6.68412700
_cell_length_b   6.68412700
_cell_length_c   6.68412700
_cell_angle_alpha   90.00000000
_cell_angle_beta   90.00000000
_cell_angle_gamma   90.00000000
_symmetry_Int_Tables_number   1
_chemical_formula_structural   CaScMnH6
_chemical_formula_sum   'Ca4 Sc4 Mn4 H24'
_cell_volume   298.63044333
_cell_formula_units_Z   4
loop_
 _symmetry_equiv_pos_site_id
 _symmetry_equiv_pos_as_xyz
  1  'x, y, z'
loop_
 _atom_site_type_symbol
 _atom_site_label
 _atom_site_symmetry_multiplicity
 _atom_site_fract_x
 _atom_site_fract_y
 _atom_site_fract_z
 _atom_site_occupancy
  Ca  Ca0  1  0.000000  0.000000  0.500000  1
  Ca  Ca1  1  0.000000  0.500000  0.000000  1
  Ca  Ca2  1  0.500000  0.000000  0.000000  1
  Ca  Ca3  1  0.000000  0.000000  0.000000  1
  Sc  Sc4  1  0.500000  0.500000  0.500000  1
  Sc  Sc5  1  0.000000  0.500000  0.500000  1
  Sc  Sc6  1  0.500000  0.000000  0.500000  1
  Sc  Sc7  1  0.500000  0.500000  0.000000  1
  Mn  Mn8  1  0.265002  0.734998  0.734998  1
  Mn  Mn9  1  0.734998  0.265002  0.734998  1
  Mn  Mn10  1  0.734998  0.734998  0.265002  1
  Mn  Mn11  1  0.265002  0.265002  0.265002  1
  H  H12  1  0.739369  0.739369  0.507986  1
  H  H13  1  0.260631  0.260631  0.507986  1
  H  H14  1  0.017418  0.736230  0.736230  1
  H  H15  1  0.263770  0.982582  0.736230  1
  H  H16  1  0.736230  0.017418  0.736230  1
  H  H17  1  0.982582  0.263770  0.736230  1
  H  H18  1  0.739369  0.507986  0.739369  1
  H  H19  1  0.507986  0.739369  0.739369  1
  H  H20  1  0.492014  0.260631  0.739369  1
  H  H21  1  0.260631  0.492014  0.739369  1
  H  H22  1  0.263770  0.736230  0.982582  1
  H  H23  1  0.736230  0.263770  0.982582  1
  H  H24  1  0.736230  0.736230  0.017418  1
  H  H25  1  0.263770  0.263770  0.017418  1
  H  H26  1  0.260631  0.507986  0.260631  1
  H  H27  1  0.492014  0.739369  0.260631  1
  H  H28  1  0.507986  0.260631  0.260631  1
  H  H29  1  0.739369  0.492014  0.260631  1
  H  H30  1  0.982582  0.736230  0.263770  1
  H  H31  1  0.736230  0.982582  0.263770  1
  H  H32  1  0.263770  0.017418  0.263770  1
  H  H33  1  0.017418  0.263770  0.263770  1
  H  H34  1  0.260631  0.739369  0.492014  1
  H  H35  1  0.739369  0.260631  0.492014  1
