# generated using pymatgen
data_Dy8Mg2Si3GeB16
_symmetry_space_group_name_H-M   'P 1'
_cell_length_a   7.17546809
_cell_length_b   7.17546809
_cell_length_c   7.87032000
_cell_angle_alpha   90.00000000
_cell_angle_beta   90.00000000
_cell_angle_gamma   89.93698274
_symmetry_Int_Tables_number   1
_chemical_formula_structural   Dy8Mg2Si3GeB16
_chemical_formula_sum   'Dy8 Mg2 Si3 Ge1 B16'
_cell_volume   405.22161427
_cell_formula_units_Z   1
loop_
 _symmetry_equiv_pos_site_id
 _symmetry_equiv_pos_as_xyz
  1  'x, y, z'
loop_
 _atom_site_type_symbol
 _atom_site_label
 _atom_site_symmetry_multiplicity
 _atom_site_fract_x
 _atom_site_fract_y
 _atom_site_fract_z
 _atom_site_occupancy
  Dy  Dy0  1  0.682849  0.182849  0.233013  1
  Dy  Dy1  1  0.317657  0.817657  0.767691  1
  Dy  Dy2  1  0.317657  0.817657  0.232309  1
  Dy  Dy3  1  0.816432  0.682941  0.232331  1
  Dy  Dy4  1  0.816432  0.682941  0.767669  1
  Dy  Dy5  1  0.682849  0.182849  0.766987  1
  Dy  Dy6  1  0.182941  0.316432  0.767669  1
  Dy  Dy7  1  0.182941  0.316432  0.232331  1
  Mg  Mg8  1  0.999653  0.001022  0.500000  1
  Mg  Mg9  1  0.501022  0.499653  0.500000  1
  Si  Si10  1  0.882124  0.382124  0.500000  1
  Si  Si11  1  0.384601  0.115319  0.500000  1
  Si  Si12  1  0.615319  0.884601  0.500000  1
  Ge  Ge13  1  0.117751  0.617751  0.500000  1
  B  B14  1  0.173403  0.039930  0.000000  1
  B  B15  1  0.826578  0.960006  0.000000  1
  B  B16  1  0.960041  0.173513  0.000000  1
  B  B17  1  0.326398  0.539947  0.000000  1
  B  B18  1  0.039947  0.826398  0.000000  1
  B  B19  1  0.673513  0.460041  0.000000  1
  B  B20  1  0.539930  0.673403  0.000000  1
  B  B21  1  0.460006  0.326578  0.000000  1
  B  B22  1  0.089465  0.589465  0.000000  1
  B  B23  1  0.910537  0.410537  0.000000  1
  B  B24  1  0.410331  0.089717  0.000000  1
  B  B25  1  0.589717  0.910331  0.000000  1
  B  B26  1  0.000016  0.999935  0.161817  1
  B  B27  1  0.000016  0.999935  0.838183  1
  B  B28  1  0.499935  0.500016  0.838183  1
  B  B29  1  0.499935  0.500016  0.161817  1
