# generated using pymatgen
data_Tb3Y4Co2Sn23Rh4
_symmetry_space_group_name_H-M   'P 1'
_cell_length_a   9.82813568
_cell_length_b   9.82941015
_cell_length_c   10.06672897
_cell_angle_alpha   90.00000033
_cell_angle_beta   90.02284980
_cell_angle_gamma   120.00429617
_symmetry_Int_Tables_number   1
_chemical_formula_structural   Tb3Y4Co2Sn23Rh4
_chemical_formula_sum   'Tb3 Y4 Co2 Sn23 Rh4'
_cell_volume   842.16804639
_cell_formula_units_Z   1
loop_
 _symmetry_equiv_pos_site_id
 _symmetry_equiv_pos_as_xyz
  1  'x, y, z'
loop_
 _atom_site_type_symbol
 _atom_site_label
 _atom_site_symmetry_multiplicity
 _atom_site_fract_x
 _atom_site_fract_y
 _atom_site_fract_z
 _atom_site_occupancy
  Tb  Tb0  1  0.000000  0.000000  0.000000  1
  Tb  Tb1  1  0.043357  0.521679  0.306894  1
  Tb  Tb2  1  0.956643  0.478321  0.693106  1
  Y  Y3  1  0.478763  0.521458  0.306937  1
  Y  Y4  1  0.521237  0.478542  0.693063  1
  Y  Y5  1  0.478763  0.957305  0.306937  1
  Y  Y6  1  0.521237  0.042695  0.693063  1
  Co  Co7  1  0.336569  0.168285  0.198390  1
  Co  Co8  1  0.663431  0.831715  0.801610  1
  Sn  Sn9  1  0.350689  0.004729  0.004750  1
  Sn  Sn10  1  0.649311  0.995271  0.995250  1
  Sn  Sn11  1  0.000000  0.351239  0.000000  1
  Sn  Sn12  1  0.000000  0.648761  0.000000  1
  Sn  Sn13  1  0.649311  0.654040  0.995250  1
  Sn  Sn14  1  0.350689  0.345960  0.004750  1
  Sn  Sn15  1  0.338283  0.669142  0.818896  1
  Sn  Sn16  1  0.661717  0.330858  0.181104  1
  Sn  Sn17  1  0.000000  0.000000  0.500000  1
  Sn  Sn18  1  0.778740  0.221352  0.455817  1
  Sn  Sn19  1  0.221260  0.778648  0.544183  1
  Sn  Sn20  1  0.778740  0.557388  0.455817  1
  Sn  Sn21  1  0.221260  0.442612  0.544183  1
  Sn  Sn22  1  0.438736  0.219368  0.450266  1
  Sn  Sn23  1  0.561264  0.780632  0.549734  1
  Sn  Sn24  1  0.333480  0.666741  0.117793  1
  Sn  Sn25  1  0.666520  0.333259  0.882207  1
  Sn  Sn26  1  0.123327  0.887352  0.276543  1
  Sn  Sn27  1  0.876673  0.112648  0.723457  1
  Sn  Sn28  1  0.123327  0.235976  0.276543  1
  Sn  Sn29  1  0.876673  0.764024  0.723457  1
  Sn  Sn30  1  0.759378  0.879690  0.281683  1
  Sn  Sn31  1  0.240622  0.120310  0.718317  1
  Rh  Rh32  1  0.831431  0.167262  0.197434  1
  Rh  Rh33  1  0.168569  0.832738  0.802566  1
  Rh  Rh34  1  0.831431  0.664169  0.197434  1
  Rh  Rh35  1  0.168569  0.335831  0.802566  1
