# generated using pymatgen
data_Ac8Si13P
_symmetry_space_group_name_H-M   'P 1'
_cell_length_a   7.82304558
_cell_length_b   7.82304574
_cell_length_c   12.47014001
_cell_angle_alpha   89.73973316
_cell_angle_beta   89.73973699
_cell_angle_gamma   133.16247498
_symmetry_Int_Tables_number   1
_chemical_formula_structural   Ac8Si13P
_chemical_formula_sum   'Ac8 Si13 P1'
_cell_volume   556.63493292
_cell_formula_units_Z   1
loop_
 _symmetry_equiv_pos_site_id
 _symmetry_equiv_pos_as_xyz
  1  'x, y, z'
loop_
 _atom_site_type_symbol
 _atom_site_label
 _atom_site_symmetry_multiplicity
 _atom_site_fract_x
 _atom_site_fract_y
 _atom_site_fract_z
 _atom_site_occupancy
  Ac  Ac0  1  0.490997  0.991975  0.126955  1
  Ac  Ac1  1  0.994688  0.496064  0.872618  1
  Ac  Ac2  1  0.503936  0.005312  0.627382  1
  Ac  Ac3  1  0.008025  0.509003  0.373045  1
  Ac  Ac4  1  0.497050  0.502950  0.250000  1
  Ac  Ac5  1  0.502108  0.497892  0.750000  1
  Ac  Ac6  1  0.010868  0.011693  0.501573  1
  Ac  Ac7  1  0.988307  0.989132  0.998427  1
  Si  Si8  1  0.591770  0.422719  0.495834  1
  Si  Si9  1  0.428235  0.597543  0.503289  1
  Si  Si10  1  0.402457  0.571765  0.996711  1
  Si  Si11  1  0.577281  0.408230  0.004166  1
  Si  Si12  1  0.596846  0.931802  0.374392  1
  Si  Si13  1  0.918817  0.587326  0.621702  1
  Si  Si14  1  0.412674  0.081183  0.878298  1
  Si  Si15  1  0.068198  0.403154  0.125608  1
  Si  Si16  1  0.416132  0.084494  0.374826  1
  Si  Si17  1  0.082956  0.417209  0.625060  1
  Si  Si18  1  0.582791  0.917044  0.874940  1
  Si  Si19  1  0.915506  0.583868  0.125174  1
  Si  Si20  1  0.917461  0.082539  0.250000  1
  P  P21  1  0.092897  0.907103  0.750000  1
