# generated using pymatgen
data_Ce5Fe19
_symmetry_space_group_name_H-M   'P 1'
_cell_length_a   5.02074239
_cell_length_b   5.02074198
_cell_length_c   16.64097027
_cell_angle_alpha   81.32352858
_cell_angle_beta   81.32352976
_cell_angle_gamma   60.00001254
_symmetry_Int_Tables_number   1
_chemical_formula_structural   Ce5Fe19
_chemical_formula_sum   'Ce5 Fe19'
_cell_volume   357.72909022
_cell_formula_units_Z   1
loop_
 _symmetry_equiv_pos_site_id
 _symmetry_equiv_pos_as_xyz
  1  'x, y, z'
loop_
 _atom_site_type_symbol
 _atom_site_label
 _atom_site_symmetry_multiplicity
 _atom_site_fract_x
 _atom_site_fract_y
 _atom_site_fract_z
 _atom_site_occupancy
  Ce  Ce0  1  0.000000  0.000000  0.000000  1
  Ce  Ce1  1  0.080296  0.080296  0.759112  1
  Ce  Ce2  1  0.919704  0.919704  0.240888  1
  Ce  Ce3  1  0.153850  0.153850  0.538449  1
  Ce  Ce4  1  0.846150  0.846150  0.461551  1
  Fe  Fe5  1  0.500000  0.500000  0.500000  1
  Fe  Fe6  1  0.250354  0.250354  0.248938  1
  Fe  Fe7  1  0.749646  0.749646  0.751062  1
  Fe  Fe8  1  0.333372  0.333372  0.999883  1
  Fe  Fe9  1  0.666628  0.666628  0.000117  1
  Fe  Fe10  1  0.415967  0.415967  0.752099  1
  Fe  Fe11  1  0.584033  0.584033  0.247901  1
  Fe  Fe12  1  0.124383  0.623667  0.628283  1
  Fe  Fe13  1  0.623667  0.623667  0.628283  1
  Fe  Fe14  1  0.623667  0.124383  0.628283  1
  Fe  Fe15  1  0.875617  0.376333  0.371717  1
  Fe  Fe16  1  0.376333  0.376333  0.371717  1
  Fe  Fe17  1  0.376333  0.875617  0.371717  1
  Fe  Fe18  1  0.040796  0.541505  0.876192  1
  Fe  Fe19  1  0.541505  0.541505  0.876192  1
  Fe  Fe20  1  0.541505  0.040796  0.876192  1
  Fe  Fe21  1  0.959204  0.458495  0.123808  1
  Fe  Fe22  1  0.458495  0.458495  0.123808  1
  Fe  Fe23  1  0.458495  0.959204  0.123808  1
