# generated using pymatgen
data_KSm6AuI12
_symmetry_space_group_name_H-M   'P 1'
_cell_length_a   9.98477524
_cell_length_b   9.98477461
_cell_length_c   9.98477300
_cell_angle_alpha   105.37627672
_cell_angle_beta   105.37627573
_cell_angle_gamma   105.37626354
_symmetry_Int_Tables_number   1
_chemical_formula_structural   KSm6AuI12
_chemical_formula_sum   'K1 Sm6 Au1 I12'
_cell_volume   863.10390750
_cell_formula_units_Z   1
loop_
 _symmetry_equiv_pos_site_id
 _symmetry_equiv_pos_as_xyz
  1  'x, y, z'
loop_
 _atom_site_type_symbol
 _atom_site_label
 _atom_site_symmetry_multiplicity
 _atom_site_fract_x
 _atom_site_fract_y
 _atom_site_fract_z
 _atom_site_occupancy
  K  K0  1  0.500000  0.500000  0.500000  1
  Sm  Sm1  1  0.902972  0.692897  0.979859  1
  Sm  Sm2  1  0.979859  0.902972  0.692897  1
  Sm  Sm3  1  0.692897  0.979859  0.902972  1
  Sm  Sm4  1  0.097028  0.307103  0.020141  1
  Sm  Sm5  1  0.020141  0.097028  0.307103  1
  Sm  Sm6  1  0.307103  0.020141  0.097028  1
  Au  Au7  1  0.000000  0.000000  0.000000  1
  I  I8  1  0.648159  0.883089  0.565293  1
  I  I9  1  0.565293  0.648159  0.883089  1
  I  I10  1  0.883089  0.565293  0.648159  1
  I  I11  1  0.351841  0.116911  0.434707  1
  I  I12  1  0.434707  0.351841  0.116911  1
  I  I13  1  0.116911  0.434707  0.351841  1
  I  I14  1  0.675683  0.077391  0.223809  1
  I  I15  1  0.223809  0.675683  0.077391  1
  I  I16  1  0.077391  0.223809  0.675683  1
  I  I17  1  0.324317  0.922609  0.776191  1
  I  I18  1  0.776191  0.324317  0.922609  1
  I  I19  1  0.922609  0.776191  0.324317  1
