# generated using pymatgen
data_La20Si11Ge
_symmetry_space_group_name_H-M   'P 1'
_cell_length_a   7.88508800
_cell_length_b   7.88508800
_cell_length_c   14.52894600
_cell_angle_alpha   90.00000000
_cell_angle_beta   90.00000000
_cell_angle_gamma   90.00000000
_symmetry_Int_Tables_number   1
_chemical_formula_structural   La20Si11Ge
_chemical_formula_sum   'La20 Si11 Ge1'
_cell_volume   903.33159147
_cell_formula_units_Z   1
loop_
 _symmetry_equiv_pos_site_id
 _symmetry_equiv_pos_as_xyz
  1  'x, y, z'
loop_
 _atom_site_type_symbol
 _atom_site_label
 _atom_site_symmetry_multiplicity
 _atom_site_fract_x
 _atom_site_fract_y
 _atom_site_fract_z
 _atom_site_occupancy
  La  La0  1  0.500000  0.000000  0.777297  1
  La  La1  1  0.328397  0.314551  0.105743  1
  La  La2  1  0.828617  0.814452  0.894431  1
  La  La3  1  0.000000  0.500000  0.223586  1
  La  La4  1  0.827835  0.183658  0.393591  1
  La  La5  1  0.171383  0.185548  0.894431  1
  La  La6  1  0.671603  0.685449  0.105743  1
  La  La7  1  0.000000  0.500000  0.721645  1
  La  La8  1  0.813910  0.832039  0.606691  1
  La  La9  1  0.316342  0.327835  0.393591  1
  La  La10  1  0.185449  0.828397  0.105743  1
  La  La11  1  0.186090  0.167961  0.606691  1
  La  La12  1  0.814551  0.171603  0.105743  1
  La  La13  1  0.332039  0.686090  0.606691  1
  La  La14  1  0.500000  0.000000  0.275983  1
  La  La15  1  0.685548  0.328617  0.894431  1
  La  La16  1  0.667961  0.313910  0.606691  1
  La  La17  1  0.314452  0.671383  0.894431  1
  La  La18  1  0.172165  0.816342  0.393591  1
  La  La19  1  0.683658  0.672165  0.393591  1
  Si  Si20  1  0.613298  0.386789  0.249696  1
  Si  Si21  1  0.886927  0.113948  0.750856  1
  Si  Si22  1  0.500000  0.000000  0.494503  1
  Si  Si23  1  0.886789  0.886702  0.249696  1
  Si  Si24  1  0.000000  0.500000  0.005380  1
  Si  Si25  1  0.113073  0.886052  0.750856  1
  Si  Si26  1  0.386052  0.386927  0.750856  1
  Si  Si27  1  0.113211  0.113298  0.249696  1
  Si  Si28  1  0.386702  0.613211  0.249696  1
  Si  Si29  1  0.613948  0.613073  0.750856  1
  Si  Si30  1  0.500000  0.000000  0.994913  1
  Ge  Ge31  1  0.000000  0.500000  0.502653  1
