# generated using pymatgen
data_Er3Zr(B4Ir)4
_symmetry_space_group_name_H-M   'P 1'
_cell_length_a   5.93956958
_cell_length_b   11.54719011
_cell_length_c   3.53188900
_cell_angle_alpha   90.00000000
_cell_angle_beta   90.00000000
_cell_angle_gamma   90.05052222
_symmetry_Int_Tables_number   1
_chemical_formula_structural   Er3Zr(B4Ir)4
_chemical_formula_sum   'Er3 Zr1 B16 Ir4'
_cell_volume   242.23571074
_cell_formula_units_Z   1
loop_
 _symmetry_equiv_pos_site_id
 _symmetry_equiv_pos_as_xyz
  1  'x, y, z'
loop_
 _atom_site_type_symbol
 _atom_site_label
 _atom_site_symmetry_multiplicity
 _atom_site_fract_x
 _atom_site_fract_y
 _atom_site_fract_z
 _atom_site_occupancy
  Er  Er0  1  0.869024  0.147252  0.000000  1
  Er  Er1  1  0.368983  0.351161  0.000000  1
  Er  Er2  1  0.633014  0.649318  0.000000  1
  Zr  Zr3  1  0.130051  0.853307  0.000000  1
  B  B4  1  0.132583  0.032005  0.500001  1
  B  B5  1  0.613323  0.045963  0.500001  1
  B  B6  1  0.206028  0.187346  0.500001  1
  B  B7  1  0.525993  0.191205  0.500001  1
  B  B8  1  0.024099  0.307309  0.500001  1
  B  B9  1  0.707722  0.312002  0.500001  1
  B  B10  1  0.112568  0.453113  0.500001  1
  B  B11  1  0.634976  0.468921  0.500001  1
  B  B12  1  0.363880  0.530330  0.500001  1
  B  B13  1  0.886777  0.546592  0.500001  1
  B  B14  1  0.294241  0.688983  0.500001  1
  B  B15  1  0.972584  0.693057  0.500001  1
  B  B16  1  0.468800  0.808116  0.500001  1
  B  B17  1  0.800466  0.813028  0.500001  1
  B  B18  1  0.383360  0.953117  0.500001  1
  B  B19  1  0.867904  0.967220  0.500001  1
  Ir  Ir20  1  0.356813  0.095535  0.000000  1
  Ir  Ir21  1  0.857951  0.403886  0.000000  1
  Ir  Ir22  1  0.145039  0.600750  0.000000  1
  Ir  Ir23  1  0.643823  0.900492  0.000000  1
