# generated using pymatgen
data_Hf5Sc(SnIr)6
_symmetry_space_group_name_H-M   'P 1'
_cell_length_a   7.44449210
_cell_length_b   7.42192230
_cell_length_c   7.23823900
_cell_angle_alpha   90.00000000
_cell_angle_beta   90.00000000
_cell_angle_gamma   120.07257554
_symmetry_Int_Tables_number   1
_chemical_formula_structural   Hf5Sc(SnIr)6
_chemical_formula_sum   'Hf5 Sc1 Sn6 Ir6'
_cell_volume   346.09629885
_cell_formula_units_Z   1
loop_
 _symmetry_equiv_pos_site_id
 _symmetry_equiv_pos_as_xyz
  1  'x, y, z'
loop_
 _atom_site_type_symbol
 _atom_site_label
 _atom_site_symmetry_multiplicity
 _atom_site_fract_x
 _atom_site_fract_y
 _atom_site_fract_z
 _atom_site_occupancy
  Hf  Hf0  1  0.599978  0.611777  0.750000  1
  Hf  Hf1  1  0.387850  0.986826  0.750000  1
  Hf  Hf2  1  0.989498  0.386503  0.250000  1
  Hf  Hf3  1  0.613293  0.602083  0.250000  1
  Hf  Hf4  1  0.400050  0.015778  0.250000  1
  Sc  Sc5  1  0.011753  0.400235  0.750000  1
  Sn  Sn6  1  0.267359  0.272181  0.503348  1
  Sn  Sn7  1  0.001335  0.725640  0.497627  1
  Sn  Sn8  1  0.001335  0.725640  0.002373  1
  Sn  Sn9  1  0.731179  0.002131  0.502384  1
  Sn  Sn10  1  0.731179  0.002131  0.997616  1
  Sn  Sn11  1  0.267359  0.272181  0.996652  1
  Ir  Ir12  1  0.338183  0.670830  0.467200  1
  Ir  Ir13  1  0.660832  0.332141  0.519002  1
  Ir  Ir14  1  0.338183  0.670830  0.032800  1
  Ir  Ir15  1  0.999190  0.990354  0.750000  1
  Ir  Ir16  1  0.000612  0.000596  0.250000  1
  Ir  Ir17  1  0.660832  0.332141  0.980998  1
