# generated using pymatgen
data_Tb9Ho(In2Ir)4
_symmetry_space_group_name_H-M   'P 1'
_cell_length_a   3.67914400
_cell_length_b   8.02892880
_cell_length_c   18.30994926
_cell_angle_alpha   90.07387698
_cell_angle_beta   90.00000000
_cell_angle_gamma   90.00000000
_symmetry_Int_Tables_number   1
_chemical_formula_structural   Tb9Ho(In2Ir)4
_chemical_formula_sum   'Tb9 Ho1 In8 Ir4'
_cell_volume   540.86785699
_cell_formula_units_Z   1
loop_
 _symmetry_equiv_pos_site_id
 _symmetry_equiv_pos_as_xyz
  1  'x, y, z'
loop_
 _atom_site_type_symbol
 _atom_site_label
 _atom_site_symmetry_multiplicity
 _atom_site_fract_x
 _atom_site_fract_y
 _atom_site_fract_z
 _atom_site_occupancy
  Tb  Tb0  1  0.000000  0.115507  0.410804  1
  Tb  Tb1  1  0.000000  0.883928  0.588731  1
  Tb  Tb2  1  0.000000  0.384130  0.911208  1
  Tb  Tb3  1  0.000000  0.616222  0.089096  1
  Tb  Tb4  1  0.000000  0.244286  0.221281  1
  Tb  Tb5  1  0.000000  0.756041  0.778849  1
  Tb  Tb6  1  0.000000  0.255950  0.721211  1
  Tb  Tb7  1  0.000000  0.999980  0.000094  1
  Tb  Tb8  1  0.000000  0.499858  0.499963  1
  Ho  Ho9  1  0.000000  0.744249  0.278549  1
  In  In10  1  0.500000  0.427513  0.350194  1
  In  In11  1  0.500000  0.573733  0.649756  1
  In  In12  1  0.500000  0.073789  0.850247  1
  In  In13  1  0.500000  0.925709  0.150049  1
  In  In14  1  0.500000  0.293164  0.068116  1
  In  In15  1  0.500000  0.707053  0.932075  1
  In  In16  1  0.500000  0.207007  0.567893  1
  In  In17  1  0.500000  0.792398  0.431483  1
  Ir  Ir18  1  0.500000  0.018048  0.304321  1
  Ir  Ir19  1  0.500000  0.979456  0.695477  1
  Ir  Ir20  1  0.500000  0.479494  0.804453  1
  Ir  Ir21  1  0.500000  0.522483  0.196148  1
