# generated using pymatgen
data_Dy4Si4Ir3Os
_symmetry_space_group_name_H-M   'P 1'
_cell_length_a   4.28108000
_cell_length_b   6.91945407
_cell_length_c   7.33639445
_cell_angle_alpha   90.12526505
_cell_angle_beta   90.00000000
_cell_angle_gamma   90.00000000
_symmetry_Int_Tables_number   1
_chemical_formula_structural   Dy4Si4Ir3Os
_chemical_formula_sum   'Dy4 Si4 Ir3 Os1'
_cell_volume   217.32355981
_cell_formula_units_Z   1
loop_
 _symmetry_equiv_pos_site_id
 _symmetry_equiv_pos_as_xyz
  1  'x, y, z'
loop_
 _atom_site_type_symbol
 _atom_site_label
 _atom_site_symmetry_multiplicity
 _atom_site_fract_x
 _atom_site_fract_y
 _atom_site_fract_z
 _atom_site_occupancy
  Dy  Dy0  1  0.750000  0.504093  0.815275  1
  Dy  Dy1  1  0.250000  0.991800  0.313924  1
  Dy  Dy2  1  0.750000  0.005466  0.686751  1
  Dy  Dy3  1  0.250000  0.497545  0.184747  1
  Si  Si4  1  0.250000  0.800243  0.883660  1
  Si  Si5  1  0.250000  0.302533  0.608396  1
  Si  Si6  1  0.750000  0.199047  0.111985  1
  Si  Si7  1  0.750000  0.699238  0.396641  1
  Ir  Ir8  1  0.250000  0.158417  0.933414  1
  Ir  Ir9  1  0.750000  0.843341  0.066798  1
  Ir  Ir10  1  0.750000  0.342603  0.432164  1
  Os  Os11  1  0.250000  0.655673  0.566244  1
