# generated using pymatgen
data_Y16Er4Ir11Os
_symmetry_space_group_name_H-M   'P 1'
_cell_length_a   10.89779100
_cell_length_b   10.89779100
_cell_length_c   6.39957300
_cell_angle_alpha   90.00000000
_cell_angle_beta   90.00000000
_cell_angle_gamma   90.00000000
_symmetry_Int_Tables_number   1
_chemical_formula_structural   Y16Er4Ir11Os
_chemical_formula_sum   'Y16 Er4 Ir11 Os1'
_cell_volume   760.02512024
_cell_formula_units_Z   1
loop_
 _symmetry_equiv_pos_site_id
 _symmetry_equiv_pos_as_xyz
  1  'x, y, z'
loop_
 _atom_site_type_symbol
 _atom_site_label
 _atom_site_symmetry_multiplicity
 _atom_site_fract_x
 _atom_site_fract_y
 _atom_site_fract_z
 _atom_site_occupancy
  Y  Y0  1  0.292014  0.086901  0.375791  1
  Y  Y1  1  0.292473  0.913156  0.879572  1
  Y  Y2  1  0.707527  0.086844  0.879572  1
  Y  Y3  1  0.707986  0.913099  0.375791  1
  Y  Y4  1  0.586844  0.792473  0.879572  1
  Y  Y5  1  0.586901  0.207986  0.375791  1
  Y  Y6  1  0.413099  0.792014  0.375791  1
  Y  Y7  1  0.413156  0.207527  0.879572  1
  Y  Y8  1  0.209529  0.412113  0.622134  1
  Y  Y9  1  0.209448  0.587668  0.121805  1
  Y  Y10  1  0.790552  0.412332  0.121805  1
  Y  Y11  1  0.790471  0.587887  0.622134  1
  Y  Y12  1  0.912332  0.709448  0.121805  1
  Y  Y13  1  0.912113  0.290471  0.622134  1
  Y  Y14  1  0.087887  0.709529  0.622134  1
  Y  Y15  1  0.087668  0.290552  0.121805  1
  Er  Er16  1  0.000000  0.000000  0.499595  1
  Er  Er17  1  0.000000  0.000000  0.999489  1
  Er  Er18  1  0.500000  0.500000  0.999489  1
  Er  Er19  1  0.500000  0.500000  0.499595  1
  Ir  Ir20  1  0.849331  0.152072  0.250292  1
  Ir  Ir21  1  0.849304  0.848193  0.749878  1
  Ir  Ir22  1  0.150696  0.151807  0.749878  1
  Ir  Ir23  1  0.150669  0.847928  0.250292  1
  Ir  Ir24  1  0.651807  0.349304  0.749878  1
  Ir  Ir25  1  0.652072  0.650669  0.250292  1
  Ir  Ir26  1  0.347928  0.349331  0.250292  1
  Ir  Ir27  1  0.348193  0.650696  0.749878  1
  Ir  Ir28  1  0.500000  0.000000  0.623175  1
  Ir  Ir29  1  0.000000  0.500000  0.877871  1
  Ir  Ir30  1  0.000000  0.500000  0.378043  1
  Os  Os31  1  0.500000  0.000000  0.124852  1
