# generated using pymatgen
data_Er16Tl2In2Pd3Rh
_symmetry_space_group_name_H-M   'P 1'
_cell_length_a   9.64575849
_cell_length_b   9.64456760
_cell_length_c   9.64456766
_cell_angle_alpha   59.81177055
_cell_angle_beta   59.81361271
_cell_angle_gamma   59.81361832
_symmetry_Int_Tables_number   1
_chemical_formula_structural   Er16Tl2In2Pd3Rh
_chemical_formula_sum   'Er16 Tl2 In2 Pd3 Rh1'
_cell_volume   631.74168596
_cell_formula_units_Z   1
loop_
 _symmetry_equiv_pos_site_id
 _symmetry_equiv_pos_as_xyz
  1  'x, y, z'
loop_
 _atom_site_type_symbol
 _atom_site_label
 _atom_site_symmetry_multiplicity
 _atom_site_fract_x
 _atom_site_fract_y
 _atom_site_fract_z
 _atom_site_occupancy
  Er  Er0  1  0.189727  0.189504  0.809561  1
  Er  Er1  1  0.440329  0.062088  0.062088  1
  Er  Er2  1  0.436151  0.065843  0.436026  1
  Er  Er3  1  0.061997  0.439874  0.062946  1
  Er  Er4  1  0.650308  0.055470  0.649793  1
  Er  Er5  1  0.183607  0.811784  0.811784  1
  Er  Er6  1  0.061997  0.062946  0.439874  1
  Er  Er7  1  0.809836  0.190045  0.190045  1
  Er  Er8  1  0.812055  0.810923  0.183816  1
  Er  Er9  1  0.650308  0.649793  0.055470  1
  Er  Er10  1  0.647729  0.647299  0.647299  1
  Er  Er11  1  0.065571  0.435826  0.435826  1
  Er  Er12  1  0.055435  0.650008  0.650008  1
  Er  Er13  1  0.812055  0.183816  0.810923  1
  Er  Er14  1  0.436151  0.436026  0.065843  1
  Er  Er15  1  0.189727  0.809561  0.189504  1
  Tl  Tl16  1  0.414925  0.755619  0.413770  1
  Tl  Tl17  1  0.414925  0.413770  0.755619  1
  In  In18  1  0.751644  0.415587  0.415587  1
  In  In19  1  0.415860  0.414690  0.414690  1
  Pd  Pd20  1  0.856048  0.431046  0.856011  1
  Pd  Pd21  1  0.856048  0.856011  0.431046  1
  Pd  Pd22  1  0.431021  0.856029  0.856029  1
  Rh  Rh23  1  0.856546  0.856445  0.856445  1
