# generated using pymatgen
data_Dy2GaSiNi2
_symmetry_space_group_name_H-M   'P 1'
_cell_length_a   4.20855400
_cell_length_b   6.86694521
_cell_length_c   7.22033117
_cell_angle_alpha   91.12608915
_cell_angle_beta   90.00000000
_cell_angle_gamma   90.00000000
_symmetry_Int_Tables_number   1
_chemical_formula_structural   Dy2GaSiNi2
_chemical_formula_sum   'Dy4 Ga2 Si2 Ni4'
_cell_volume   208.62661851
_cell_formula_units_Z   2
loop_
 _symmetry_equiv_pos_site_id
 _symmetry_equiv_pos_as_xyz
  1  'x, y, z'
loop_
 _atom_site_type_symbol
 _atom_site_label
 _atom_site_symmetry_multiplicity
 _atom_site_fract_x
 _atom_site_fract_y
 _atom_site_fract_z
 _atom_site_occupancy
  Dy  Dy0  1  0.750000  0.014671  0.297335  1
  Dy  Dy1  1  0.250000  0.985329  0.702665  1
  Dy  Dy2  1  0.250000  0.487517  0.804199  1
  Dy  Dy3  1  0.750000  0.512483  0.195801  1
  Ga  Ga4  1  0.750000  0.683409  0.582503  1
  Ga  Ga5  1  0.250000  0.316591  0.417497  1
  Si  Si6  1  0.250000  0.813228  0.085195  1
  Si  Si7  1  0.750000  0.186772  0.914805  1
  Ni  Ni8  1  0.750000  0.812772  0.922937  1
  Ni  Ni9  1  0.250000  0.187228  0.077063  1
  Ni  Ni10  1  0.250000  0.707540  0.400281  1
  Ni  Ni11  1  0.750000  0.292460  0.599719  1
