# generated using pymatgen
data_Ti13Al9ZnIr7
_symmetry_space_group_name_H-M   'P 1'
_cell_length_a   8.73252661
_cell_length_b   8.73252674
_cell_length_c   8.73252600
_cell_angle_alpha   59.94080737
_cell_angle_beta   59.94080687
_cell_angle_gamma   59.94082105
_symmetry_Int_Tables_number   1
_chemical_formula_structural   Ti13Al9ZnIr7
_chemical_formula_sum   'Ti13 Al9 Zn1 Ir7'
_cell_volume   470.24190068
_cell_formula_units_Z   1
loop_
 _symmetry_equiv_pos_site_id
 _symmetry_equiv_pos_as_xyz
  1  'x, y, z'
loop_
 _atom_site_type_symbol
 _atom_site_label
 _atom_site_symmetry_multiplicity
 _atom_site_fract_x
 _atom_site_fract_y
 _atom_site_fract_z
 _atom_site_occupancy
  Ti  Ti0  1  0.212625  0.212625  0.786520  1
  Ti  Ti1  1  0.786520  0.212625  0.212625  1
  Ti  Ti2  1  0.212625  0.786520  0.212625  1
  Ti  Ti3  1  0.793430  0.793430  0.194945  1
  Ti  Ti4  1  0.194945  0.793430  0.793430  1
  Ti  Ti5  1  0.793430  0.194945  0.793430  1
  Ti  Ti6  1  0.377981  0.377981  0.377981  1
  Ti  Ti7  1  0.378509  0.867436  0.378509  1
  Ti  Ti8  1  0.867436  0.378509  0.378509  1
  Ti  Ti9  1  0.378509  0.378509  0.867436  1
  Ti  Ti10  1  0.841575  0.477070  0.841575  1
  Ti  Ti11  1  0.477070  0.841575  0.841575  1
  Ti  Ti12  1  0.841575  0.841575  0.477070  1
  Al  Al13  1  0.153063  0.153063  0.153063  1
  Al  Al14  1  0.156205  0.535021  0.156205  1
  Al  Al15  1  0.535021  0.156205  0.156205  1
  Al  Al16  1  0.156205  0.156205  0.535021  1
  Al  Al17  1  0.619041  0.619041  0.619041  1
  Al  Al18  1  0.619988  0.142810  0.619988  1
  Al  Al19  1  0.142810  0.619988  0.619988  1
  Al  Al20  1  0.619988  0.619988  0.142810  1
  Al  Al21  1  0.831531  0.831531  0.831531  1
  Zn  Zn22  1  0.003851  0.003851  0.003851  1
  Ir  Ir23  1  0.003348  0.003348  0.498308  1
  Ir  Ir24  1  0.498308  0.003348  0.003348  1
  Ir  Ir25  1  0.003348  0.498308  0.003348  1
  Ir  Ir26  1  0.499604  0.499604  0.001488  1
  Ir  Ir27  1  0.001488  0.499604  0.499604  1
  Ir  Ir28  1  0.499604  0.001488  0.499604  1
  Ir  Ir29  1  0.500369  0.500369  0.500369  1
