# generated using pymatgen
data_TbCdGa3Ni
_symmetry_space_group_name_H-M   'P 1'
_cell_length_a   4.20519540
_cell_length_b   6.55611000
_cell_length_c   8.13431915
_cell_angle_alpha   90.00000000
_cell_angle_beta   104.98018352
_cell_angle_gamma   90.00000000
_symmetry_Int_Tables_number   1
_chemical_formula_structural   TbCdGa3Ni
_chemical_formula_sum   'Tb2 Cd2 Ga6 Ni2'
_cell_volume   216.63948708
_cell_formula_units_Z   2
loop_
 _symmetry_equiv_pos_site_id
 _symmetry_equiv_pos_as_xyz
  1  'x, y, z'
loop_
 _atom_site_type_symbol
 _atom_site_label
 _atom_site_symmetry_multiplicity
 _atom_site_fract_x
 _atom_site_fract_y
 _atom_site_fract_z
 _atom_site_occupancy
  Tb  Tb0  1  0.873247  0.750000  0.746493  1
  Tb  Tb1  1  0.126753  0.250000  0.253507  1
  Cd  Cd2  1  0.500000  0.500000  0.000000  1
  Cd  Cd3  1  0.500000  0.000000  0.000000  1
  Ga  Ga4  1  0.072090  0.750000  0.144181  1
  Ga  Ga5  1  0.927910  0.250000  0.855819  1
  Ga  Ga6  1  0.687440  0.550375  0.374880  1
  Ga  Ga7  1  0.312560  0.449625  0.625120  1
  Ga  Ga8  1  0.687440  0.949625  0.374880  1
  Ga  Ga9  1  0.312560  0.050375  0.625120  1
  Ni  Ni10  1  0.221916  0.750000  0.443832  1
  Ni  Ni11  1  0.778084  0.250000  0.556168  1
