# generated using pymatgen
data_Ag6AsS5I
_symmetry_space_group_name_H-M   'P 1'
_cell_length_a   7.60540818
_cell_length_b   7.60540878
_cell_length_c   13.18843718
_cell_angle_alpha   73.16851883
_cell_angle_beta   73.16851529
_cell_angle_gamma   60.07499225
_symmetry_Int_Tables_number   1
_chemical_formula_structural   Ag6AsS5I
_chemical_formula_sum   'Ag12 As2 S10 I2'
_cell_volume   623.06520901
_cell_formula_units_Z   2
loop_
 _symmetry_equiv_pos_site_id
 _symmetry_equiv_pos_as_xyz
  1  'x, y, z'
loop_
 _atom_site_type_symbol
 _atom_site_label
 _atom_site_symmetry_multiplicity
 _atom_site_fract_x
 _atom_site_fract_y
 _atom_site_fract_z
 _atom_site_occupancy
  Ag  Ag0  1  0.481025  0.531628  0.506387  1
  Ag  Ag1  1  0.531628  0.481025  0.006387  1
  Ag  Ag2  1  0.048683  0.530334  0.490456  1
  Ag  Ag3  1  0.530334  0.048683  0.990456  1
  Ag  Ag4  1  0.368252  0.655220  0.726329  1
  Ag  Ag5  1  0.655220  0.368252  0.226329  1
  Ag  Ag6  1  0.135690  0.290267  0.724679  1
  Ag  Ag7  1  0.290267  0.135690  0.224679  1
  Ag  Ag8  1  0.976677  0.022946  0.999499  1
  Ag  Ag9  1  0.022946  0.976677  0.499499  1
  Ag  Ag10  1  0.784333  0.877552  0.725957  1
  Ag  Ag11  1  0.877552  0.784333  0.225957  1
  As  As12  1  0.015867  0.515163  0.989473  1
  As  As13  1  0.515163  0.015867  0.489473  1
  S  S14  1  0.201713  0.687335  0.928082  1
  S  S15  1  0.687335  0.201713  0.428082  1
  S  S16  1  0.187594  0.221978  0.925727  1
  S  S17  1  0.221978  0.187594  0.425727  1
  S  S18  1  0.452247  0.960109  0.668851  1
  S  S19  1  0.960109  0.452247  0.168851  1
  S  S20  1  0.133936  0.637263  0.626760  1
  S  S21  1  0.637263  0.133936  0.126760  1
  S  S22  1  0.720326  0.700922  0.928140  1
  S  S23  1  0.700922  0.720326  0.428140  1
  I  I24  1  0.756918  0.266023  0.745661  1
  I  I25  1  0.266023  0.756918  0.245661  1
