# generated using pymatgen
data_Nd10GaGeBi6
_symmetry_space_group_name_H-M   'P 1'
_cell_length_a   9.69382100
_cell_length_b   9.69382140
_cell_length_c   6.64313400
_cell_angle_alpha   90.00000000
_cell_angle_beta   90.00000000
_cell_angle_gamma   119.99999521
_symmetry_Int_Tables_number   1
_chemical_formula_structural   Nd10GaGeBi6
_chemical_formula_sum   'Nd10 Ga1 Ge1 Bi6'
_cell_volume   540.62195114
_cell_formula_units_Z   1
loop_
 _symmetry_equiv_pos_site_id
 _symmetry_equiv_pos_as_xyz
  1  'x, y, z'
loop_
 _atom_site_type_symbol
 _atom_site_label
 _atom_site_symmetry_multiplicity
 _atom_site_fract_x
 _atom_site_fract_y
 _atom_site_fract_z
 _atom_site_occupancy
  Nd  Nd0  1  0.666667  0.333333  0.000000  1
  Nd  Nd1  1  0.333333  0.666667  0.000000  1
  Nd  Nd2  1  0.333333  0.666667  0.500000  1
  Nd  Nd3  1  0.666667  0.333333  0.500000  1
  Nd  Nd4  1  0.744853  0.744853  0.752010  1
  Nd  Nd5  1  0.255147  0.000000  0.752010  1
  Nd  Nd6  1  0.000000  0.255147  0.752010  1
  Nd  Nd7  1  0.255147  0.255147  0.247990  1
  Nd  Nd8  1  0.744853  0.000000  0.247990  1
  Nd  Nd9  1  0.000000  0.744853  0.247990  1
  Ga  Ga10  1  0.000000  0.000000  0.500000  1
  Ge  Ge11  1  0.000000  0.000000  0.000000  1
  Bi  Bi12  1  0.387622  0.387622  0.749066  1
  Bi  Bi13  1  0.612378  0.000000  0.749066  1
  Bi  Bi14  1  0.000000  0.612378  0.749066  1
  Bi  Bi15  1  0.612378  0.612378  0.250934  1
  Bi  Bi16  1  0.387622  0.000000  0.250934  1
  Bi  Bi17  1  0.000000  0.387622  0.250934  1
