# generated using pymatgen
data_Tb7Dy2Tm3Ru4
_symmetry_space_group_name_H-M   'P 1'
_cell_length_a   6.30595507
_cell_length_b   7.30321498
_cell_length_c   9.17927649
_cell_angle_alpha   89.88972855
_cell_angle_beta   89.90045795
_cell_angle_gamma   89.94427641
_symmetry_Int_Tables_number   1
_chemical_formula_structural   Tb7Dy2Tm3Ru4
_chemical_formula_sum   'Tb7 Dy2 Tm3 Ru4'
_cell_volume   422.73844368
_cell_formula_units_Z   1
loop_
 _symmetry_equiv_pos_site_id
 _symmetry_equiv_pos_as_xyz
  1  'x, y, z'
loop_
 _atom_site_type_symbol
 _atom_site_label
 _atom_site_symmetry_multiplicity
 _atom_site_fract_x
 _atom_site_fract_y
 _atom_site_fract_z
 _atom_site_occupancy
  Tb  Tb0  1  0.633022  0.040262  0.252721  1
  Tb  Tb1  1  0.365686  0.959635  0.747497  1
  Tb  Tb2  1  0.134020  0.459554  0.747453  1
  Tb  Tb3  1  0.867112  0.540665  0.252331  1
  Tb  Tb4  1  0.170484  0.177421  0.066207  1
  Tb  Tb5  1  0.829969  0.822683  0.934551  1
  Tb  Tb6  1  0.669268  0.323063  0.934474  1
  Dy  Dy7  1  0.830384  0.823444  0.563373  1
  Dy  Dy8  1  0.330711  0.676813  0.066386  1
  Tm  Tm9  1  0.169347  0.175972  0.436216  1
  Tm  Tm10  1  0.331184  0.676139  0.435439  1
  Tm  Tm11  1  0.668497  0.324297  0.563839  1
  Ru  Ru12  1  0.459380  0.385975  0.253055  1
  Ru  Ru13  1  0.539590  0.614023  0.747999  1
  Ru  Ru14  1  0.959093  0.114486  0.745693  1
  Ru  Ru15  1  0.042253  0.885571  0.252764  1
