# generated using pymatgen
data_RbZn4BiO7
_symmetry_space_group_name_H-M   'P 1'
_cell_length_a   6.37594500
_cell_length_b   6.37595183
_cell_length_c   10.36693800
_cell_angle_alpha   90.00000000
_cell_angle_beta   90.00000000
_cell_angle_gamma   120.00059771
_symmetry_Int_Tables_number   1
_chemical_formula_structural   RbZn4BiO7
_chemical_formula_sum   'Rb2 Zn8 Bi2 O14'
_cell_volume   364.97919295
_cell_formula_units_Z   2
loop_
 _symmetry_equiv_pos_site_id
 _symmetry_equiv_pos_as_xyz
  1  'x, y, z'
loop_
 _atom_site_type_symbol
 _atom_site_label
 _atom_site_symmetry_multiplicity
 _atom_site_fract_x
 _atom_site_fract_y
 _atom_site_fract_z
 _atom_site_occupancy
  Rb  Rb0  1  0.666683  0.333366  0.178044  1
  Rb  Rb1  1  0.333315  0.666633  0.678043  1
  Zn  Zn2  1  0.000001  0.999998  0.248299  1
  Zn  Zn3  1  0.829638  0.659276  0.493148  1
  Zn  Zn4  1  0.340722  0.170355  0.493148  1
  Zn  Zn5  1  0.829635  0.170354  0.493150  1
  Zn  Zn6  1  0.999999  0.000002  0.748300  1
  Zn  Zn7  1  0.170362  0.340723  0.993147  1
  Zn  Zn8  1  0.170365  0.829647  0.993149  1
  Zn  Zn9  1  0.659278  0.829644  0.993147  1
  Bi  Bi10  1  0.333330  0.666663  0.304881  1
  Bi  Bi11  1  0.666669  0.333338  0.804881  1
  O  O12  1  0.170785  0.341505  0.184287  1
  O  O13  1  0.170718  0.829209  0.184289  1
  O  O14  1  0.658492  0.829274  0.184288  1
  O  O15  1  0.495528  0.991057  0.425667  1
  O  O16  1  0.495528  0.504463  0.425665  1
  O  O17  1  0.008931  0.504464  0.425665  1
  O  O18  1  0.999998  0.999999  0.439139  1
  O  O19  1  0.829215  0.658494  0.684287  1
  O  O20  1  0.341508  0.170725  0.684288  1
  O  O21  1  0.829283  0.170792  0.684289  1
  O  O22  1  0.504473  0.008944  0.925666  1
  O  O23  1  0.991068  0.495536  0.925665  1
  O  O24  1  0.504470  0.495535  0.925665  1
  O  O25  1  0.000002  0.000001  0.939140  1
