# generated using pymatgen
data_YbEr6Sn23Rh6
_symmetry_space_group_name_H-M   'P 1'
_cell_length_a   9.83706500
_cell_length_b   9.83706422
_cell_length_c   10.08977800
_cell_angle_alpha   90.00000000
_cell_angle_beta   90.00000000
_cell_angle_gamma   120.00000598
_symmetry_Int_Tables_number   1
_chemical_formula_structural   YbEr6Sn23Rh6
_chemical_formula_sum   'Yb1 Er6 Sn23 Rh6'
_cell_volume   845.55772973
_cell_formula_units_Z   1
loop_
 _symmetry_equiv_pos_site_id
 _symmetry_equiv_pos_as_xyz
  1  'x, y, z'
loop_
 _atom_site_type_symbol
 _atom_site_label
 _atom_site_symmetry_multiplicity
 _atom_site_fract_x
 _atom_site_fract_y
 _atom_site_fract_z
 _atom_site_occupancy
  Yb  Yb0  1  0.000000  0.000000  0.000000  1
  Er  Er1  1  0.480384  0.519616  0.307440  1
  Er  Er2  1  0.519616  0.480384  0.692560  1
  Er  Er3  1  0.480384  0.960771  0.307440  1
  Er  Er4  1  0.519616  0.039229  0.692560  1
  Er  Er5  1  0.039229  0.519616  0.307440  1
  Er  Er6  1  0.960771  0.480384  0.692560  1
  Sn  Sn7  1  0.119742  0.880258  0.281637  1
  Sn  Sn8  1  0.880258  0.119742  0.718363  1
  Sn  Sn9  1  0.119742  0.239482  0.281637  1
  Sn  Sn10  1  0.880258  0.760518  0.718363  1
  Sn  Sn11  1  0.760518  0.880258  0.281637  1
  Sn  Sn12  1  0.239482  0.119742  0.718363  1
  Sn  Sn13  1  0.777488  0.222512  0.456368  1
  Sn  Sn14  1  0.222512  0.777488  0.543632  1
  Sn  Sn15  1  0.777488  0.554973  0.456368  1
  Sn  Sn16  1  0.222512  0.445027  0.543632  1
  Sn  Sn17  1  0.445027  0.222512  0.456368  1
  Sn  Sn18  1  0.554973  0.777488  0.543632  1
  Sn  Sn19  1  0.350945  0.000000  0.000000  1
  Sn  Sn20  1  0.649055  0.000000  0.000000  1
  Sn  Sn21  1  0.000000  0.350945  0.000000  1
  Sn  Sn22  1  0.000000  0.649055  0.000000  1
  Sn  Sn23  1  0.649055  0.649055  0.000000  1
  Sn  Sn24  1  0.350945  0.350945  0.000000  1
  Sn  Sn25  1  0.333333  0.666667  0.124949  1
  Sn  Sn26  1  0.666667  0.333333  0.875051  1
  Sn  Sn27  1  0.333333  0.666667  0.820566  1
  Sn  Sn28  1  0.666667  0.333333  0.179434  1
  Sn  Sn29  1  0.000000  0.000000  0.500000  1
  Rh  Rh30  1  0.830640  0.169360  0.199957  1
  Rh  Rh31  1  0.169360  0.830640  0.800043  1
  Rh  Rh32  1  0.830640  0.661282  0.199957  1
  Rh  Rh33  1  0.169360  0.338718  0.800043  1
  Rh  Rh34  1  0.338718  0.169360  0.199957  1
  Rh  Rh35  1  0.661282  0.830640  0.800043  1
