# generated using pymatgen
data_Eu3VO6
_symmetry_space_group_name_H-M   'P 1'
_cell_length_a   7.53521297
_cell_length_b   7.53521218
_cell_length_c   5.71367600
_cell_angle_alpha   90.00000000
_cell_angle_beta   90.00000000
_cell_angle_gamma   103.58336073
_symmetry_Int_Tables_number   1
_chemical_formula_structural   Eu3VO6
_chemical_formula_sum   'Eu6 V2 O12'
_cell_volume   315.34500732
_cell_formula_units_Z   2
loop_
 _symmetry_equiv_pos_site_id
 _symmetry_equiv_pos_as_xyz
  1  'x, y, z'
loop_
 _atom_site_type_symbol
 _atom_site_label
 _atom_site_symmetry_multiplicity
 _atom_site_fract_x
 _atom_site_fract_y
 _atom_site_fract_z
 _atom_site_occupancy
  Eu  Eu0  1  0.300321  0.098737  0.763767  1
  Eu  Eu1  1  0.699679  0.901263  0.263767  1
  Eu  Eu2  1  0.098737  0.300321  0.263767  1
  Eu  Eu3  1  0.901263  0.699679  0.763767  1
  Eu  Eu4  1  0.402881  0.597119  0.734139  1
  Eu  Eu5  1  0.597119  0.402881  0.234139  1
  V  V6  1  0.192156  0.807844  0.303936  1
  V  V7  1  0.807844  0.192156  0.803936  1
  O  O8  1  0.649498  0.670551  0.000227  1
  O  O9  1  0.207113  0.792887  0.993967  1
  O  O10  1  0.402984  0.893509  0.446470  1
  O  O11  1  0.597016  0.106491  0.946470  1
  O  O12  1  0.670551  0.649498  0.500227  1
  O  O13  1  0.049239  0.950761  0.399028  1
  O  O14  1  0.329449  0.350502  0.000227  1
  O  O15  1  0.350502  0.329449  0.500227  1
  O  O16  1  0.950761  0.049239  0.899028  1
  O  O17  1  0.792887  0.207113  0.493967  1
  O  O18  1  0.893509  0.402984  0.946470  1
  O  O19  1  0.106491  0.597016  0.446470  1
