# generated using pymatgen
data_YHo7Sc12Si15Ge
_symmetry_space_group_name_H-M   'P 1'
_cell_length_a   7.09307734
_cell_length_b   7.37868342
_cell_length_c   13.98614006
_cell_angle_alpha   90.02686422
_cell_angle_beta   89.82972256
_cell_angle_gamma   90.05147540
_symmetry_Int_Tables_number   1
_chemical_formula_structural   YHo7Sc12Si15Ge
_chemical_formula_sum   'Y1 Ho7 Sc12 Si15 Ge1'
_cell_volume   731.99700752
_cell_formula_units_Z   1
loop_
 _symmetry_equiv_pos_site_id
 _symmetry_equiv_pos_as_xyz
  1  'x, y, z'
loop_
 _atom_site_type_symbol
 _atom_site_label
 _atom_site_symmetry_multiplicity
 _atom_site_fract_x
 _atom_site_fract_y
 _atom_site_fract_z
 _atom_site_occupancy
  Y  Y0  1  0.011344  0.175449  0.096429  1
  Ho  Ho1  1  0.988569  0.824494  0.903426  1
  Ho  Ho2  1  0.489084  0.675672  0.903416  1
  Ho  Ho3  1  0.988713  0.824742  0.596790  1
  Ho  Ho4  1  0.511105  0.324574  0.096793  1
  Ho  Ho5  1  0.009802  0.175291  0.402753  1
  Ho  Ho6  1  0.511275  0.323081  0.402388  1
  Ho  Ho7  1  0.492072  0.677230  0.597145  1
  Sc  Sc8  1  0.162407  0.502644  0.751325  1
  Sc  Sc9  1  0.837308  0.497563  0.250188  1
  Sc  Sc10  1  0.337835  0.002545  0.250048  1
  Sc  Sc11  1  0.662408  0.997321  0.750035  1
  Sc  Sc12  1  0.334713  0.173858  0.626440  1
  Sc  Sc13  1  0.666506  0.824001  0.374032  1
  Sc  Sc14  1  0.165947  0.677225  0.374257  1
  Sc  Sc15  1  0.667626  0.822760  0.125212  1
  Sc  Sc16  1  0.831536  0.323965  0.625177  1
  Sc  Sc17  1  0.332004  0.176654  0.874752  1
  Sc  Sc18  1  0.831894  0.323203  0.874815  1
  Sc  Sc19  1  0.167809  0.677049  0.125220  1
  Si  Si20  1  0.034617  0.116187  0.750143  1
  Si  Si21  1  0.965077  0.884449  0.249631  1
  Si  Si22  1  0.464422  0.615911  0.249614  1
  Si  Si23  1  0.534815  0.384306  0.750419  1
  Si  Si24  1  0.286513  0.871899  0.750400  1
  Si  Si25  1  0.713232  0.127293  0.249620  1
  Si  Si26  1  0.213250  0.373001  0.250084  1
  Si  Si27  1  0.787300  0.627533  0.750196  1
  Si  Si28  1  0.834796  0.536848  0.459736  1
  Si  Si29  1  0.339936  0.964428  0.460684  1
  Si  Si30  1  0.841011  0.535449  0.039400  1
  Si  Si31  1  0.660102  0.035850  0.539107  1
  Si  Si32  1  0.158852  0.465216  0.960645  1
  Si  Si33  1  0.658431  0.035222  0.960677  1
  Si  Si34  1  0.341827  0.964522  0.039313  1
  Ge  Ge35  1  0.165861  0.462561  0.539692  1
