# generated using pymatgen
data_UNi(BRu)2
_symmetry_space_group_name_H-M   'P 1'
_cell_length_a   5.25084736
_cell_length_b   5.25084753
_cell_length_c   2.99431200
_cell_angle_alpha   90.00000000
_cell_angle_beta   90.00000000
_cell_angle_gamma   116.08297591
_symmetry_Int_Tables_number   1
_chemical_formula_structural   UNi(BRu)2
_chemical_formula_sum   'U1 Ni1 B2 Ru2'
_cell_volume   74.14958375
_cell_formula_units_Z   1
loop_
 _symmetry_equiv_pos_site_id
 _symmetry_equiv_pos_as_xyz
  1  'x, y, z'
loop_
 _atom_site_type_symbol
 _atom_site_label
 _atom_site_symmetry_multiplicity
 _atom_site_fract_x
 _atom_site_fract_y
 _atom_site_fract_z
 _atom_site_occupancy
  U  U0  1  0.000000  0.000000  0.000000  1
  Ni  Ni1  1  0.500000  0.500000  0.500000  1
  B  B2  1  0.341750  0.658250  0.000000  1
  B  B3  1  0.658250  0.341750  0.000000  1
  Ru  Ru4  1  0.000000  0.500000  0.500000  1
  Ru  Ru5  1  0.500000  0.000000  0.500000  1
