# generated using pymatgen
data_Ca2SnB2Rh5
_symmetry_space_group_name_H-M   'P 1'
_cell_length_a   9.87768100
_cell_length_b   9.87768100
_cell_length_c   3.05875200
_cell_angle_alpha   90.00000000
_cell_angle_beta   90.00000000
_cell_angle_gamma   90.00000000
_symmetry_Int_Tables_number   1
_chemical_formula_structural   Ca2SnB2Rh5
_chemical_formula_sum   'Ca4 Sn2 B4 Rh10'
_cell_volume   298.43809514
_cell_formula_units_Z   2
loop_
 _symmetry_equiv_pos_site_id
 _symmetry_equiv_pos_as_xyz
  1  'x, y, z'
loop_
 _atom_site_type_symbol
 _atom_site_label
 _atom_site_symmetry_multiplicity
 _atom_site_fract_x
 _atom_site_fract_y
 _atom_site_fract_z
 _atom_site_occupancy
  Ca  Ca0  1  0.823231  0.323231  0.000000  1
  Ca  Ca1  1  0.323231  0.176769  0.000000  1
  Ca  Ca2  1  0.676769  0.823231  0.000000  1
  Ca  Ca3  1  0.176769  0.676769  0.000000  1
  Sn  Sn4  1  0.000000  0.000000  0.000000  1
  Sn  Sn5  1  0.500000  0.500000  0.000000  1
  B  B6  1  0.621129  0.121129  0.000000  1
  B  B7  1  0.121129  0.378871  0.000000  1
  B  B8  1  0.878871  0.621129  0.000000  1
  B  B9  1  0.378871  0.878871  0.000000  1
  Rh  Rh10  1  0.069861  0.226687  0.500000  1
  Rh  Rh11  1  0.226687  0.930139  0.500000  1
  Rh  Rh12  1  0.773313  0.069861  0.500000  1
  Rh  Rh13  1  0.930139  0.773313  0.500000  1
  Rh  Rh14  1  0.430139  0.726687  0.500000  1
  Rh  Rh15  1  0.569861  0.273313  0.500000  1
  Rh  Rh16  1  0.726687  0.569861  0.500000  1
  Rh  Rh17  1  0.273313  0.430139  0.500000  1
  Rh  Rh18  1  0.500000  0.000000  0.500000  1
  Rh  Rh19  1  0.000000  0.500000  0.500000  1
