# generated using pymatgen
data_Ti12Tc6Ir5Os
_symmetry_space_group_name_H-M   'P 1'
_cell_length_a   4.38682200
_cell_length_b   6.20404300
_cell_length_c   13.18848200
_cell_angle_alpha   90.00000000
_cell_angle_beta   90.00020875
_cell_angle_gamma   90.00000000
_symmetry_Int_Tables_number   1
_chemical_formula_structural   Ti12Tc6Ir5Os
_chemical_formula_sum   'Ti12 Tc6 Ir5 Os1'
_cell_volume   358.93815238
_cell_formula_units_Z   1
loop_
 _symmetry_equiv_pos_site_id
 _symmetry_equiv_pos_as_xyz
  1  'x, y, z'
loop_
 _atom_site_type_symbol
 _atom_site_label
 _atom_site_symmetry_multiplicity
 _atom_site_fract_x
 _atom_site_fract_y
 _atom_site_fract_z
 _atom_site_occupancy
  Ti  Ti0  1  0.499998  0.248734  0.998288  1
  Ti  Ti1  1  0.499998  0.751267  0.998288  1
  Ti  Ti2  1  0.000047  0.249625  0.166322  1
  Ti  Ti3  1  0.000047  0.750374  0.166322  1
  Ti  Ti4  1  0.500037  0.250394  0.333332  1
  Ti  Ti5  1  0.500037  0.749606  0.333332  1
  Ti  Ti6  1  0.000000  0.249627  0.500344  1
  Ti  Ti7  1  0.000000  0.750373  0.500344  1
  Ti  Ti8  1  0.499958  0.248733  0.668379  1
  Ti  Ti9  1  0.499958  0.751267  0.668379  1
  Ti  Ti10  1  0.999954  0.246787  0.833334  1
  Ti  Ti11  1  0.999954  0.753212  0.833334  1
  Tc  Tc12  1  0.999998  0.000000  0.001273  1
  Tc  Tc13  1  0.500056  0.499999  0.167239  1
  Tc  Tc14  1  0.000050  0.000000  0.333321  1
  Tc  Tc15  1  0.500003  0.499999  0.499407  1
  Tc  Tc16  1  0.999953  0.000000  0.665415  1
  Tc  Tc17  1  0.499944  0.499999  0.833347  1
  Ir  Ir18  1  0.000001  0.499999  0.000441  1
  Ir  Ir19  1  0.500055  0.000000  0.167155  1
  Ir  Ir20  1  0.000049  0.499999  0.333333  1
  Ir  Ir21  1  0.500000  0.000000  0.499505  1
  Ir  Ir22  1  0.999957  0.499999  0.666229  1
  Os  Os23  1  0.499947  0.000000  0.833341  1
