# generated using pymatgen
data_Ti3Al3(FeCu2)2
_symmetry_space_group_name_H-M   'P 1'
_cell_length_a   4.22874900
_cell_length_b   5.91398900
_cell_length_c   12.65266701
_cell_angle_alpha   90.00000000
_cell_angle_beta   90.00438668
_cell_angle_gamma   90.00000000
_symmetry_Int_Tables_number   1
_chemical_formula_structural   Ti3Al3(FeCu2)2
_chemical_formula_sum   'Ti6 Al6 Fe4 Cu8'
_cell_volume   316.42770257
_cell_formula_units_Z   2
loop_
 _symmetry_equiv_pos_site_id
 _symmetry_equiv_pos_as_xyz
  1  'x, y, z'
loop_
 _atom_site_type_symbol
 _atom_site_label
 _atom_site_symmetry_multiplicity
 _atom_site_fract_x
 _atom_site_fract_y
 _atom_site_fract_z
 _atom_site_occupancy
  Ti  Ti0  1  0.000031  0.500000  0.008978  1
  Ti  Ti1  1  0.500086  0.000000  0.157665  1
  Ti  Ti2  1  0.000129  0.500000  0.321204  1
  Ti  Ti3  1  0.499991  0.000000  0.502258  1
  Ti  Ti4  1  0.999858  0.500000  0.664382  1
  Ti  Ti5  1  0.499920  0.000000  0.845516  1
  Al  Al6  1  0.000020  0.000000  0.004804  1
  Al  Al7  1  0.500085  0.500000  0.161851  1
  Al  Al8  1  0.000128  0.000000  0.325999  1
  Al  Al9  1  0.499995  0.500000  0.495441  1
  Al  Al10  1  0.999837  0.000000  0.671289  1
  Al  Al11  1  0.499926  0.500000  0.840629  1
  Fe  Fe12  1  0.500021  0.244559  0.000570  1
  Fe  Fe13  1  0.500021  0.755441  0.000570  1
  Fe  Fe14  1  0.000096  0.255447  0.166128  1
  Fe  Fe15  1  0.000096  0.744553  0.166128  1
  Cu  Cu16  1  0.500159  0.243876  0.327311  1
  Cu  Cu17  1  0.500159  0.756125  0.327311  1
  Cu  Cu18  1  0.999996  0.247703  0.497283  1
  Cu  Cu19  1  0.999996  0.752297  0.497283  1
  Cu  Cu20  1  0.499821  0.252342  0.669369  1
  Cu  Cu21  1  0.499821  0.747659  0.669369  1
  Cu  Cu22  1  0.999906  0.256189  0.839329  1
  Cu  Cu23  1  0.999906  0.743811  0.839329  1
