# generated using pymatgen
data_Eu2GaSn2Se
_symmetry_space_group_name_H-M   'P 1'
_cell_length_a   4.58029300
_cell_length_b   4.58029267
_cell_length_c   17.92949200
_cell_angle_alpha   90.00000000
_cell_angle_beta   90.00000000
_cell_angle_gamma   119.99999518
_symmetry_Int_Tables_number   1
_chemical_formula_structural   Eu2GaSn2Se
_chemical_formula_sum   'Eu4 Ga2 Sn4 Se2'
_cell_volume   325.75052721
_cell_formula_units_Z   2
loop_
 _symmetry_equiv_pos_site_id
 _symmetry_equiv_pos_as_xyz
  1  'x, y, z'
loop_
 _atom_site_type_symbol
 _atom_site_label
 _atom_site_symmetry_multiplicity
 _atom_site_fract_x
 _atom_site_fract_y
 _atom_site_fract_z
 _atom_site_occupancy
  Eu  Eu0  1  0.000000  0.000000  0.499977  1
  Eu  Eu1  1  0.000000  0.000000  0.000353  1
  Eu  Eu2  1  0.000000  0.000000  0.247970  1
  Eu  Eu3  1  0.000000  0.000000  0.752176  1
  Ga  Ga4  1  0.333333  0.666667  0.839483  1
  Ga  Ga5  1  0.666667  0.333333  0.160181  1
  Sn  Sn6  1  0.333333  0.666667  0.383628  1
  Sn  Sn7  1  0.666667  0.333333  0.616801  1
  Sn  Sn8  1  0.666667  0.333333  0.885976  1
  Sn  Sn9  1  0.333333  0.666667  0.113925  1
  Se  Se10  1  0.666667  0.333333  0.336362  1
  Se  Se11  1  0.333333  0.666667  0.663168  1
