# generated using pymatgen
data_Tb2PrTm(Mo2O7)2
_symmetry_space_group_name_H-M   'P 1'
_cell_length_a   7.37568936
_cell_length_b   7.45939228
_cell_length_c   7.37568934
_cell_angle_alpha   60.34701847
_cell_angle_beta   59.71271934
_cell_angle_gamma   60.34700895
_symmetry_Int_Tables_number   1
_chemical_formula_structural   Tb2PrTm(Mo2O7)2
_chemical_formula_sum   'Tb2 Pr1 Tm1 Mo4 O14'
_cell_volume   287.79968745
_cell_formula_units_Z   1
loop_
 _symmetry_equiv_pos_site_id
 _symmetry_equiv_pos_as_xyz
  1  'x, y, z'
loop_
 _atom_site_type_symbol
 _atom_site_label
 _atom_site_symmetry_multiplicity
 _atom_site_fract_x
 _atom_site_fract_y
 _atom_site_fract_z
 _atom_site_occupancy
  Tb  Tb0  1  0.625000  0.125000  0.125000  1
  Tb  Tb1  1  0.125000  0.125000  0.625000  1
  Pr  Pr2  1  0.125000  0.625000  0.125000  1
  Tm  Tm3  1  0.125000  0.125000  0.125000  1
  Mo  Mo4  1  0.625000  0.625000  0.625000  1
  Mo  Mo5  1  0.125000  0.625000  0.625000  1
  Mo  Mo6  1  0.625000  0.625000  0.125000  1
  Mo  Mo7  1  0.625000  0.125000  0.625000  1
  O  O8  1  0.000452  0.008971  0.000452  1
  O  O9  1  0.249548  0.241029  0.249548  1
  O  O10  1  0.288409  0.286460  0.710578  1
  O  O11  1  0.543699  0.534375  0.962289  1
  O  O12  1  0.717420  0.285610  0.717420  1
  O  O13  1  0.710578  0.286460  0.288409  1
  O  O14  1  0.287711  0.715625  0.706301  1
  O  O15  1  0.286648  0.726977  0.286648  1
  O  O16  1  0.706301  0.715625  0.287711  1
  O  O17  1  0.962289  0.534375  0.543699  1
  O  O18  1  0.539422  0.963540  0.961591  1
  O  O19  1  0.961591  0.963540  0.539422  1
  O  O20  1  0.963352  0.523023  0.963352  1
  O  O21  1  0.532580  0.964390  0.532580  1
