# generated using pymatgen
data_Ba6Yb2UAsS12
_symmetry_space_group_name_H-M   'P 1'
_cell_length_a   8.41733598
_cell_length_b   8.41733624
_cell_length_c   8.41733600
_cell_angle_alpha   91.95489937
_cell_angle_beta   91.95489943
_cell_angle_gamma   91.95491272
_symmetry_Int_Tables_number   1
_chemical_formula_structural   Ba6Yb2UAsS12
_chemical_formula_sum   'Ba6 Yb2 U1 As1 S12'
_cell_volume   595.31564930
_cell_formula_units_Z   1
loop_
 _symmetry_equiv_pos_site_id
 _symmetry_equiv_pos_as_xyz
  1  'x, y, z'
loop_
 _atom_site_type_symbol
 _atom_site_label
 _atom_site_symmetry_multiplicity
 _atom_site_fract_x
 _atom_site_fract_y
 _atom_site_fract_z
 _atom_site_occupancy
  Ba  Ba0  1  0.868154  0.622833  0.260661  1
  Ba  Ba1  1  0.260661  0.868154  0.622833  1
  Ba  Ba2  1  0.622833  0.260661  0.868154  1
  Ba  Ba3  1  0.739339  0.131846  0.377167  1
  Ba  Ba4  1  0.377167  0.739339  0.131846  1
  Ba  Ba5  1  0.131846  0.377167  0.739339  1
  Yb  Yb6  1  0.257900  0.257900  0.257900  1
  Yb  Yb7  1  0.742100  0.742100  0.742100  1
  U  U8  1  0.000000  0.000000  0.000000  1
  As  As9  1  0.500000  0.500000  0.500000  1
  S  S10  1  0.204095  0.545849  0.411602  1
  S  S11  1  0.411602  0.204095  0.545849  1
  S  S12  1  0.545849  0.411602  0.204095  1
  S  S13  1  0.916733  0.042763  0.703633  1
  S  S14  1  0.703633  0.916733  0.042763  1
  S  S15  1  0.042763  0.703633  0.916733  1
  S  S16  1  0.795905  0.454151  0.588398  1
  S  S17  1  0.588398  0.795905  0.454151  1
  S  S18  1  0.454151  0.588398  0.795905  1
  S  S19  1  0.083267  0.957237  0.296367  1
  S  S20  1  0.296367  0.083267  0.957237  1
  S  S21  1  0.957237  0.296367  0.083267  1
