# generated using pymatgen
data_TbY2(CrC3)2
_symmetry_space_group_name_H-M   'P 1'
_cell_length_a   8.14321300
_cell_length_b   8.14202013
_cell_length_c   5.02459600
_cell_angle_alpha   90.00000000
_cell_angle_beta   90.00000000
_cell_angle_gamma   120.00413426
_symmetry_Int_Tables_number   1
_chemical_formula_structural   TbY2(CrC3)2
_chemical_formula_sum   'Tb2 Y4 Cr4 C12'
_cell_volume   288.49723304
_cell_formula_units_Z   2
loop_
 _symmetry_equiv_pos_site_id
 _symmetry_equiv_pos_as_xyz
  1  'x, y, z'
loop_
 _atom_site_type_symbol
 _atom_site_label
 _atom_site_symmetry_multiplicity
 _atom_site_fract_x
 _atom_site_fract_y
 _atom_site_fract_z
 _atom_site_occupancy
  Tb  Tb0  1  0.065325  0.379916  0.750000  1
  Tb  Tb1  1  0.379957  0.314529  0.250000  1
  Y  Y2  1  0.620286  0.685669  0.750000  1
  Y  Y3  1  0.934633  0.620189  0.250000  1
  Y  Y4  1  0.685616  0.065391  0.250000  1
  Y  Y5  1  0.314573  0.934702  0.750000  1
  Cr  Cr6  1  0.000017  0.000021  0.499983  1
  Cr  Cr7  1  0.000017  0.000021  0.000017  1
  Cr  Cr8  1  0.666642  0.333288  0.750000  1
  Cr  Cr9  1  0.333352  0.666700  0.250000  1
  C  C10  1  0.964385  0.775094  0.750000  1
  C  C11  1  0.188871  0.964146  0.250000  1
  C  C12  1  0.775149  0.810763  0.250000  1
  C  C13  1  0.224814  0.188982  0.750000  1
  C  C14  1  0.810863  0.035679  0.750000  1
  C  C15  1  0.035619  0.224699  0.250000  1
  C  C16  1  0.865249  0.579924  0.750000  1
  C  C17  1  0.285571  0.865644  0.250000  1
  C  C18  1  0.579994  0.714649  0.250000  1
  C  C19  1  0.420112  0.285442  0.750000  1
  C  C20  1  0.134626  0.420132  0.250000  1
  C  C21  1  0.714330  0.134420  0.750000  1
