# generated using pymatgen
data_Tb2Yb5Sm(Si3Pd)4
_symmetry_space_group_name_H-M   'P 1'
_cell_length_a   8.24695402
_cell_length_b   8.24695340
_cell_length_c   8.18180000
_cell_angle_alpha   90.00000000
_cell_angle_beta   90.00000000
_cell_angle_gamma   120.20265442
_symmetry_Int_Tables_number   1
_chemical_formula_structural   Tb2Yb5Sm(Si3Pd)4
_chemical_formula_sum   'Tb2 Yb5 Sm1 Si12 Pd4'
_cell_volume   480.92362671
_cell_formula_units_Z   1
loop_
 _symmetry_equiv_pos_site_id
 _symmetry_equiv_pos_as_xyz
  1  'x, y, z'
loop_
 _atom_site_type_symbol
 _atom_site_label
 _atom_site_symmetry_multiplicity
 _atom_site_fract_x
 _atom_site_fract_y
 _atom_site_fract_z
 _atom_site_occupancy
  Tb  Tb0  1  0.498923  0.501077  0.750000  1
  Tb  Tb1  1  0.000085  0.999915  0.750000  1
  Yb  Yb2  1  0.501372  0.002509  0.250000  1
  Yb  Yb3  1  0.498525  0.997514  0.750000  1
  Yb  Yb4  1  0.997491  0.498628  0.250000  1
  Yb  Yb5  1  0.002486  0.501475  0.750000  1
  Yb  Yb6  1  0.501278  0.498722  0.250000  1
  Sm  Sm7  1  0.999896  0.000104  0.250000  1
  Si  Si8  1  0.165036  0.329190  0.997488  1
  Si  Si9  1  0.835095  0.670911  0.996057  1
  Si  Si10  1  0.670810  0.834964  0.997488  1
  Si  Si11  1  0.835095  0.670911  0.503943  1
  Si  Si12  1  0.329089  0.164905  0.996057  1
  Si  Si13  1  0.165036  0.329190  0.502512  1
  Si  Si14  1  0.164738  0.835262  0.998312  1
  Si  Si15  1  0.329089  0.164905  0.503943  1
  Si  Si16  1  0.835286  0.164714  0.995899  1
  Si  Si17  1  0.670810  0.834964  0.502512  1
  Si  Si18  1  0.835286  0.164714  0.504101  1
  Si  Si19  1  0.164738  0.835262  0.501688  1
  Pd  Pd20  1  0.333412  0.666588  0.000879  1
  Pd  Pd21  1  0.666506  0.333494  0.995694  1
  Pd  Pd22  1  0.666506  0.333494  0.504306  1
  Pd  Pd23  1  0.333412  0.666588  0.499121  1
