# generated using pymatgen
data_YbPr2Y3Se8
_symmetry_space_group_name_H-M   'P 1'
_cell_length_a   4.07940300
_cell_length_b   13.67372200
_cell_length_c   13.81017400
_cell_angle_alpha   90.00000000
_cell_angle_beta   90.00000000
_cell_angle_gamma   90.00000000
_symmetry_Int_Tables_number   1
_chemical_formula_structural   YbPr2Y3Se8
_chemical_formula_sum   'Yb2 Pr4 Y6 Se16'
_cell_volume   770.34010322
_cell_formula_units_Z   2
loop_
 _symmetry_equiv_pos_site_id
 _symmetry_equiv_pos_as_xyz
  1  'x, y, z'
loop_
 _atom_site_type_symbol
 _atom_site_label
 _atom_site_symmetry_multiplicity
 _atom_site_fract_x
 _atom_site_fract_y
 _atom_site_fract_z
 _atom_site_occupancy
  Yb  Yb0  1  0.250000  0.106932  0.423158  1
  Yb  Yb1  1  0.250000  0.606932  0.076842  1
  Pr  Pr2  1  0.250000  0.369103  0.588524  1
  Pr  Pr3  1  0.250000  0.869103  0.911476  1
  Pr  Pr4  1  0.750000  0.632450  0.409267  1
  Pr  Pr5  1  0.750000  0.132450  0.090733  1
  Y  Y6  1  0.750000  0.894051  0.570707  1
  Y  Y7  1  0.750000  0.394051  0.929293  1
  Y  Y8  1  0.250000  0.146750  0.796355  1
  Y  Y9  1  0.250000  0.646750  0.703645  1
  Y  Y10  1  0.750000  0.852556  0.204849  1
  Y  Y11  1  0.750000  0.352556  0.295151  1
  Se  Se12  1  0.250000  0.215311  0.235676  1
  Se  Se13  1  0.250000  0.715311  0.264324  1
  Se  Se14  1  0.750000  0.786914  0.760301  1
  Se  Se15  1  0.750000  0.286914  0.739699  1
  Se  Se16  1  0.250000  0.252208  0.975817  1
  Se  Se17  1  0.250000  0.752208  0.524183  1
  Se  Se18  1  0.750000  0.751068  0.022833  1
  Se  Se19  1  0.750000  0.251068  0.477167  1
  Se  Se20  1  0.250000  0.469618  0.386009  1
  Se  Se21  1  0.250000  0.969618  0.113991  1
  Se  Se22  1  0.750000  0.532293  0.611960  1
  Se  Se23  1  0.750000  0.032293  0.888040  1
  Se  Se24  1  0.250000  0.027625  0.627122  1
  Se  Se25  1  0.250000  0.527625  0.872878  1
  Se  Se26  1  0.750000  0.963121  0.378420  1
  Se  Se27  1  0.750000  0.463121  0.121580  1
