# generated using pymatgen
data_Pr6SnOsI6
_symmetry_space_group_name_H-M   'P 1'
_cell_length_a   11.32117196
_cell_length_b   11.30889363
_cell_length_c   10.97935002
_cell_angle_alpha   109.57075656
_cell_angle_beta   109.61825695
_cell_angle_gamma   110.43793809
_symmetry_Int_Tables_number   1
_chemical_formula_structural   Pr6SnOsI6
_chemical_formula_sum   'Pr12 Sn2 Os2 I12'
_cell_volume   1065.52869200
_cell_formula_units_Z   2
loop_
 _symmetry_equiv_pos_site_id
 _symmetry_equiv_pos_as_xyz
  1  'x, y, z'
loop_
 _atom_site_type_symbol
 _atom_site_label
 _atom_site_symmetry_multiplicity
 _atom_site_fract_x
 _atom_site_fract_y
 _atom_site_fract_z
 _atom_site_occupancy
  Pr  Pr0  1  0.457132  0.492581  0.212118  1
  Pr  Pr1  1  0.780403  0.245034  0.287772  1
  Pr  Pr2  1  0.777754  0.035133  0.503897  1
  Pr  Pr3  1  0.226136  0.468759  0.503898  1
  Pr  Pr4  1  0.254979  0.719535  0.212118  1
  Pr  Pr5  1  0.031284  0.273884  0.996095  1
  Pr  Pr6  1  0.007379  0.042735  0.287776  1
  Pr  Pr7  1  0.464812  0.722212  0.996095  1
  Pr  Pr8  1  0.490885  0.240888  0.481769  1
  Pr  Pr9  1  0.020520  0.479648  0.750152  1
  Pr  Pr10  1  0.259108  0.009112  0.018214  1
  Pr  Pr11  1  0.229631  0.270501  0.750148  1
  Sn  Sn12  1  0.247747  0.252280  0.249962  1
  Sn  Sn13  1  0.502198  0.997684  0.249970  1
  Os  Os14  1  0.004539  0.254536  0.509081  1
  Os  Os15  1  0.245451  0.495451  0.990900  1
  I  I16  1  0.249019  0.763741  0.742579  1
  I  I17  1  0.521167  0.506439  0.757415  1
  I  I18  1  0.996271  0.751378  0.999504  1
  I  I19  1  0.736250  0.250977  0.757415  1
  I  I20  1  0.993565  0.978834  0.742572  1
  I  I21  1  0.251887  0.996762  0.500509  1
  I  I22  1  0.748631  0.503750  0.500509  1
  I  I23  1  0.503234  0.248126  0.999501  1
  I  I24  1  0.752439  0.747564  0.250004  1
  I  I25  1  0.747553  0.997549  0.995096  1
  I  I26  1  0.997563  0.502444  0.250006  1
  I  I27  1  0.502463  0.752464  0.504924  1
