# generated using pymatgen
data_Ho10InSb5
_symmetry_space_group_name_H-M   'P 1'
_cell_length_a   8.94215400
_cell_length_b   8.94916233
_cell_length_c   6.35155100
_cell_angle_alpha   90.00000000
_cell_angle_beta   90.00000000
_cell_angle_gamma   119.97409773
_symmetry_Int_Tables_number   1
_chemical_formula_structural   Ho10InSb5
_chemical_formula_sum   'Ho10 In1 Sb5'
_cell_volume   440.29955617
_cell_formula_units_Z   1
loop_
 _symmetry_equiv_pos_site_id
 _symmetry_equiv_pos_as_xyz
  1  'x, y, z'
loop_
 _atom_site_type_symbol
 _atom_site_label
 _atom_site_symmetry_multiplicity
 _atom_site_fract_x
 _atom_site_fract_y
 _atom_site_fract_z
 _atom_site_occupancy
  Ho  Ho0  1  0.333937  0.669201  0.000996  1
  Ho  Ho1  1  0.664737  0.330799  0.499004  1
  Ho  Ho2  1  0.664737  0.330799  0.000996  1
  Ho  Ho3  1  0.333937  0.669201  0.499004  1
  Ho  Ho4  1  0.756725  0.000000  0.750000  1
  Ho  Ho5  1  0.753950  0.756053  0.250000  1
  Ho  Ho6  1  0.997897  0.243947  0.250000  1
  Ho  Ho7  1  0.004055  0.758111  0.750000  1
  Ho  Ho8  1  0.245944  0.241889  0.750000  1
  Ho  Ho9  1  0.242334  0.000000  0.250000  1
  In  In10  1  0.393985  0.000000  0.750000  1
  Sb  Sb11  1  0.388639  0.390140  0.250000  1
  Sb  Sb12  1  0.998500  0.609860  0.250000  1
  Sb  Sb13  1  0.000870  0.389478  0.750000  1
  Sb  Sb14  1  0.611393  0.610522  0.750000  1
  Sb  Sb15  1  0.608361  0.000000  0.250000  1
