# generated using pymatgen
data_Dy19Lu(Bi2Ru)4
_symmetry_space_group_name_H-M   'P 1'
_cell_length_a   7.98050011
_cell_length_b   9.02357450
_cell_length_c   12.47204492
_cell_angle_alpha   89.95131298
_cell_angle_beta   90.04073998
_cell_angle_gamma   89.95546918
_symmetry_Int_Tables_number   1
_chemical_formula_structural   Dy19Lu(Bi2Ru)4
_chemical_formula_sum   'Dy19 Lu1 Bi8 Ru4'
_cell_volume   898.14402305
_cell_formula_units_Z   1
loop_
 _symmetry_equiv_pos_site_id
 _symmetry_equiv_pos_as_xyz
  1  'x, y, z'
loop_
 _atom_site_type_symbol
 _atom_site_label
 _atom_site_symmetry_multiplicity
 _atom_site_fract_x
 _atom_site_fract_y
 _atom_site_fract_z
 _atom_site_occupancy
  Dy  Dy0  1  0.842297  0.750167  0.793074  1
  Dy  Dy1  1  0.157603  0.249879  0.206737  1
  Dy  Dy2  1  0.343019  0.249658  0.706445  1
  Dy  Dy3  1  0.657564  0.750077  0.293545  1
  Dy  Dy4  1  0.376217  0.750305  0.691648  1
  Dy  Dy5  1  0.624576  0.249451  0.308625  1
  Dy  Dy6  1  0.875451  0.249846  0.807941  1
  Dy  Dy7  1  0.124501  0.750091  0.191974  1
  Dy  Dy8  1  0.945740  0.750547  0.504474  1
  Dy  Dy9  1  0.053080  0.249648  0.495716  1
  Dy  Dy10  1  0.446507  0.249950  0.995693  1
  Dy  Dy11  1  0.553778  0.749977  0.004216  1
  Dy  Dy12  1  0.325678  0.959012  0.436246  1
  Dy  Dy13  1  0.175519  0.958597  0.935745  1
  Dy  Dy14  1  0.324088  0.541352  0.435680  1
  Dy  Dy15  1  0.824406  0.041347  0.064209  1
  Dy  Dy16  1  0.675304  0.458387  0.564163  1
  Dy  Dy17  1  0.824366  0.458665  0.064175  1
  Dy  Dy18  1  0.175481  0.541355  0.935760  1
  Lu  Lu19  1  0.672579  0.041743  0.563803  1
  Bi  Bi20  1  0.569065  0.493181  0.827307  1
  Bi  Bi21  1  0.430922  0.506764  0.172709  1
  Bi  Bi22  1  0.069180  0.506788  0.672634  1
  Bi  Bi23  1  0.430852  0.993244  0.172720  1
  Bi  Bi24  1  0.930810  0.493106  0.327398  1
  Bi  Bi25  1  0.569309  0.006793  0.827118  1
  Bi  Bi26  1  0.931075  0.006819  0.327395  1
  Bi  Bi27  1  0.068399  0.993295  0.672301  1
  Ru  Ru28  1  0.574054  0.751178  0.510996  1
  Ru  Ru29  1  0.428613  0.248712  0.489504  1
  Ru  Ru30  1  0.073333  0.250114  0.989093  1
  Ru  Ru31  1  0.926634  0.749950  0.010955  1
