# generated using pymatgen
data_Dy2Fe2NiP7Ru9
_symmetry_space_group_name_H-M   'P 1'
_cell_length_a   9.37758361
_cell_length_b   9.31793035
_cell_length_c   3.83995600
_cell_angle_alpha   90.00000000
_cell_angle_beta   90.00000000
_cell_angle_gamma   120.45309084
_symmetry_Int_Tables_number   1
_chemical_formula_structural   Dy2Fe2NiP7Ru9
_chemical_formula_sum   'Dy2 Fe2 Ni1 P7 Ru9'
_cell_volume   289.24528570
_cell_formula_units_Z   1
loop_
 _symmetry_equiv_pos_site_id
 _symmetry_equiv_pos_as_xyz
  1  'x, y, z'
loop_
 _atom_site_type_symbol
 _atom_site_label
 _atom_site_symmetry_multiplicity
 _atom_site_fract_x
 _atom_site_fract_y
 _atom_site_fract_z
 _atom_site_occupancy
  Dy  Dy0  1  0.337662  0.668646  0.000000  1
  Dy  Dy1  1  0.999180  0.000113  0.500000  1
  Fe  Fe2  1  0.508356  0.444765  0.000000  1
  Fe  Fe3  1  0.555080  0.063976  0.000000  1
  Ni  Ni4  1  0.934788  0.493098  0.000000  1
  P  P5  1  0.970043  0.749978  0.000000  1
  P  P6  1  0.253608  0.224195  0.000000  1
  P  P7  1  0.773232  0.030124  0.000000  1
  P  P8  1  0.068892  0.446571  0.500000  1
  P  P9  1  0.551098  0.615565  0.500000  1
  P  P10  1  0.385814  0.934563  0.500000  1
  P  P11  1  0.661206  0.331885  0.000000  1
  Ru  Ru12  1  0.729791  0.757968  0.000000  1
  Ru  Ru13  1  0.243481  0.970829  0.000000  1
  Ru  Ru14  1  0.028095  0.272243  0.000000  1
  Ru  Ru15  1  0.102992  0.715729  0.500000  1
  Ru  Ru16  1  0.281967  0.383855  0.500000  1
  Ru  Ru17  1  0.614006  0.895139  0.500000  1
  Ru  Ru18  1  0.751550  0.538311  0.500000  1
  Ru  Ru19  1  0.463814  0.215795  0.500000  1
  Ru  Ru20  1  0.785343  0.246654  0.500000  1
