# generated using pymatgen
data_Dy4GaRu7
_symmetry_space_group_name_H-M   'P 1'
_cell_length_a   5.36235638
_cell_length_b   5.36235641
_cell_length_c   8.64884918
_cell_angle_alpha   90.10634701
_cell_angle_beta   89.89365467
_cell_angle_gamma   119.81577826
_symmetry_Int_Tables_number   1
_chemical_formula_structural   Dy4GaRu7
_chemical_formula_sum   'Dy4 Ga1 Ru7'
_cell_volume   215.77569062
_cell_formula_units_Z   1
loop_
 _symmetry_equiv_pos_site_id
 _symmetry_equiv_pos_as_xyz
  1  'x, y, z'
loop_
 _atom_site_type_symbol
 _atom_site_label
 _atom_site_symmetry_multiplicity
 _atom_site_fract_x
 _atom_site_fract_y
 _atom_site_fract_z
 _atom_site_occupancy
  Dy  Dy0  1  0.666580  0.333420  0.570144  1
  Dy  Dy1  1  0.333420  0.666580  0.429856  1
  Dy  Dy2  1  0.333325  0.666675  0.065066  1
  Dy  Dy3  1  0.666675  0.333325  0.934934  1
  Ga  Ga4  1  0.000000  0.000000  0.500000  1
  Ru  Ru5  1  0.000000  0.000000  0.000000  1
  Ru  Ru6  1  0.171272  0.342890  0.749431  1
  Ru  Ru7  1  0.171090  0.828910  0.748889  1
  Ru  Ru8  1  0.657110  0.828728  0.749431  1
  Ru  Ru9  1  0.828728  0.657110  0.250569  1
  Ru  Ru10  1  0.828910  0.171090  0.251111  1
  Ru  Ru11  1  0.342890  0.171272  0.250569  1
