# generated using pymatgen
data_Tm4Os4Ru3W
_symmetry_space_group_name_H-M   'P 1'
_cell_length_a   5.42842155
_cell_length_b   5.17725772
_cell_length_c   8.98804700
_cell_angle_alpha   90.00000000
_cell_angle_beta   90.00000000
_cell_angle_gamma   121.28044611
_symmetry_Int_Tables_number   1
_chemical_formula_structural   Tm4Os4Ru3W
_chemical_formula_sum   'Tm4 Os4 Ru3 W1'
_cell_volume   215.88372791
_cell_formula_units_Z   1
loop_
 _symmetry_equiv_pos_site_id
 _symmetry_equiv_pos_as_xyz
  1  'x, y, z'
loop_
 _atom_site_type_symbol
 _atom_site_label
 _atom_site_symmetry_multiplicity
 _atom_site_fract_x
 _atom_site_fract_y
 _atom_site_fract_z
 _atom_site_occupancy
  Tm  Tm0  1  0.671967  0.343376  0.563579  1
  Tm  Tm1  1  0.333200  0.667545  0.433028  1
  Tm  Tm2  1  0.333200  0.667545  0.066972  1
  Tm  Tm3  1  0.671967  0.343376  0.936421  1
  Os  Os4  1  0.168267  0.820342  0.750000  1
  Os  Os5  1  0.826137  0.653265  0.250000  1
  Os  Os6  1  0.828664  0.165787  0.250000  1
  Os  Os7  1  0.338138  0.167615  0.250000  1
  Ru  Ru8  1  0.012067  0.015436  0.498747  1
  Ru  Ru9  1  0.012067  0.015436  0.001253  1
  Ru  Ru10  1  0.647348  0.820911  0.750000  1
  W  W11  1  0.156978  0.319369  0.750000  1
