# generated using pymatgen
data_Yb(NiO2)2
_symmetry_space_group_name_H-M   'P 1'
_cell_length_a   3.01100500
_cell_length_b   8.85375600
_cell_length_c   10.44002700
_cell_angle_alpha   90.00000000
_cell_angle_beta   90.00000000
_cell_angle_gamma   90.00000000
_symmetry_Int_Tables_number   1
_chemical_formula_structural   Yb(NiO2)2
_chemical_formula_sum   'Yb4 Ni8 O16'
_cell_volume   278.31758521
_cell_formula_units_Z   4
loop_
 _symmetry_equiv_pos_site_id
 _symmetry_equiv_pos_as_xyz
  1  'x, y, z'
loop_
 _atom_site_type_symbol
 _atom_site_label
 _atom_site_symmetry_multiplicity
 _atom_site_fract_x
 _atom_site_fract_y
 _atom_site_fract_z
 _atom_site_occupancy
  Yb  Yb0  1  0.250000  0.241798  0.338662  1
  Yb  Yb1  1  0.750000  0.758202  0.661338  1
  Yb  Yb2  1  0.250000  0.741798  0.161338  1
  Yb  Yb3  1  0.750000  0.258202  0.838662  1
  Ni  Ni4  1  0.750000  0.416348  0.100563  1
  Ni  Ni5  1  0.250000  0.083652  0.600563  1
  Ni  Ni6  1  0.750000  0.916348  0.399437  1
  Ni  Ni7  1  0.250000  0.583652  0.899437  1
  Ni  Ni8  1  0.250000  0.560431  0.387753  1
  Ni  Ni9  1  0.750000  0.439569  0.612247  1
  Ni  Ni10  1  0.250000  0.060431  0.112247  1
  Ni  Ni11  1  0.750000  0.939569  0.887753  1
  O  O12  1  0.750000  0.913853  0.074214  1
  O  O13  1  0.250000  0.086147  0.925786  1
  O  O14  1  0.750000  0.413853  0.425786  1
  O  O15  1  0.250000  0.586147  0.574214  1
  O  O16  1  0.750000  0.025533  0.715137  1
  O  O17  1  0.250000  0.974467  0.284863  1
  O  O18  1  0.750000  0.525533  0.784863  1
  O  O19  1  0.250000  0.474467  0.215137  1
  O  O20  1  0.750000  0.617743  0.025993  1
  O  O21  1  0.250000  0.382257  0.974007  1
  O  O22  1  0.750000  0.117743  0.474007  1
  O  O23  1  0.250000  0.882257  0.525993  1
  O  O24  1  0.250000  0.792220  0.837165  1
  O  O25  1  0.750000  0.207780  0.162835  1
  O  O26  1  0.750000  0.707780  0.337165  1
  O  O27  1  0.250000  0.292220  0.662835  1
