# generated using pymatgen
data_Th6Cd23Sn
_symmetry_space_group_name_H-M   'P 1'
_cell_length_a   10.12835412
_cell_length_b   10.12835368
_cell_length_c   10.12835400
_cell_angle_alpha   59.99999895
_cell_angle_beta   60.00000039
_cell_angle_gamma   59.99999882
_symmetry_Int_Tables_number   1
_chemical_formula_structural   Th6Cd23Sn
_chemical_formula_sum   'Th6 Cd23 Sn1'
_cell_volume   734.68572875
_cell_formula_units_Z   1
loop_
 _symmetry_equiv_pos_site_id
 _symmetry_equiv_pos_as_xyz
  1  'x, y, z'
loop_
 _atom_site_type_symbol
 _atom_site_label
 _atom_site_symmetry_multiplicity
 _atom_site_fract_x
 _atom_site_fract_y
 _atom_site_fract_z
 _atom_site_occupancy
  Th  Th0  1  0.780718  0.780718  0.219282  1
  Th  Th1  1  0.219282  0.780718  0.219282  1
  Th  Th2  1  0.780718  0.219282  0.219282  1
  Th  Th3  1  0.219282  0.219282  0.780718  1
  Th  Th4  1  0.780718  0.219282  0.780718  1
  Th  Th5  1  0.219282  0.780718  0.780718  1
  Cd  Cd6  1  0.840550  0.840550  0.478351  1
  Cd  Cd7  1  0.840550  0.478351  0.840550  1
  Cd  Cd8  1  0.478351  0.840550  0.840550  1
  Cd  Cd9  1  0.840550  0.840550  0.840550  1
  Cd  Cd10  1  0.159450  0.159450  0.521649  1
  Cd  Cd11  1  0.159450  0.521649  0.159450  1
  Cd  Cd12  1  0.521649  0.159450  0.159450  1
  Cd  Cd13  1  0.159450  0.159450  0.159450  1
  Cd  Cd14  1  0.624382  0.624382  0.126854  1
  Cd  Cd15  1  0.624382  0.126854  0.624382  1
  Cd  Cd16  1  0.126854  0.624382  0.624382  1
  Cd  Cd17  1  0.624382  0.624382  0.624382  1
  Cd  Cd18  1  0.375618  0.375618  0.873146  1
  Cd  Cd19  1  0.375618  0.873146  0.375618  1
  Cd  Cd20  1  0.873146  0.375618  0.375618  1
  Cd  Cd21  1  0.375618  0.375618  0.375618  1
  Cd  Cd22  1  0.000000  0.000000  0.500000  1
  Cd  Cd23  1  0.500000  0.000000  0.500000  1
  Cd  Cd24  1  0.000000  0.500000  0.500000  1
  Cd  Cd25  1  0.500000  0.500000  0.000000  1
  Cd  Cd26  1  0.000000  0.500000  0.000000  1
  Cd  Cd27  1  0.500000  0.000000  0.000000  1
  Cd  Cd28  1  0.500000  0.500000  0.500000  1
  Sn  Sn29  1  0.000000  0.000000  0.000000  1
