# generated using pymatgen
data_Ho2Er6B24MoOs3
_symmetry_space_group_name_H-M   'P 1'
_cell_length_a   3.63711900
_cell_length_b   9.13832418
_cell_length_c   11.52243100
_cell_angle_alpha   89.90622897
_cell_angle_beta   90.00000000
_cell_angle_gamma   90.00000000
_symmetry_Int_Tables_number   1
_chemical_formula_structural   Ho2Er6B24MoOs3
_chemical_formula_sum   'Ho2 Er6 B24 Mo1 Os3'
_cell_volume   382.97251397
_cell_formula_units_Z   1
loop_
 _symmetry_equiv_pos_site_id
 _symmetry_equiv_pos_as_xyz
  1  'x, y, z'
loop_
 _atom_site_type_symbol
 _atom_site_label
 _atom_site_symmetry_multiplicity
 _atom_site_fract_x
 _atom_site_fract_y
 _atom_site_fract_z
 _atom_site_occupancy
  Ho  Ho0  1  0.000000  0.322160  0.413155  1
  Ho  Ho1  1  0.000000  0.677248  0.584900  1
  Er  Er2  1  0.000000  0.820549  0.087439  1
  Er  Er3  1  0.000000  0.177533  0.914615  1
  Er  Er4  1  0.000000  0.945043  0.372738  1
  Er  Er5  1  0.000000  0.057408  0.628390  1
  Er  Er6  1  0.000000  0.443419  0.126706  1
  Er  Er7  1  0.000000  0.556776  0.871473  1
  B  B8  1  0.500000  0.551152  0.435423  1
  B  B9  1  0.500000  0.446159  0.568022  1
  B  B10  1  0.500000  0.053361  0.066778  1
  B  B11  1  0.500000  0.946465  0.933358  1
  B  B12  1  0.500000  0.750799  0.421595  1
  B  B13  1  0.500000  0.251923  0.581166  1
  B  B14  1  0.500000  0.248339  0.080091  1
  B  B15  1  0.500000  0.751432  0.919215  1
  B  B16  1  0.500000  0.794484  0.264570  1
  B  B17  1  0.500000  0.208483  0.734510  1
  B  B18  1  0.500000  0.290946  0.232713  1
  B  B19  1  0.500000  0.709262  0.766063  1
  B  B20  1  0.500000  0.631955  0.183100  1
  B  B21  1  0.500000  0.367974  0.815035  1
  B  B22  1  0.500000  0.131344  0.313684  1
  B  B23  1  0.500000  0.869372  0.685800  1
  B  B24  1  0.500000  0.983043  0.212601  1
  B  B25  1  0.500000  0.017467  0.788119  1
  B  B26  1  0.500000  0.478571  0.286400  1
  B  B27  1  0.500000  0.516456  0.713150  1
  B  B28  1  0.500000  0.605862  0.027919  1
  B  B29  1  0.500000  0.393618  0.969837  1
  B  B30  1  0.500000  0.106454  0.471093  1
  B  B31  1  0.500000  0.896228  0.530214  1
  Mo  Mo32  1  0.000000  0.637721  0.321132  1
  Os  Os33  1  0.000000  0.360871  0.680482  1
  Os  Os34  1  0.000000  0.137468  0.177161  1
  Os  Os35  1  0.000000  0.862655  0.821354  1
