# generated using pymatgen
data_Tb8Sc2Ir5Rh
_symmetry_space_group_name_H-M   'P 1'
_cell_length_a   10.82345300
_cell_length_b   10.82345300
_cell_length_c   6.30038100
_cell_angle_alpha   90.00000000
_cell_angle_beta   90.00000000
_cell_angle_gamma   90.00000000
_symmetry_Int_Tables_number   1
_chemical_formula_structural   Tb8Sc2Ir5Rh
_chemical_formula_sum   'Tb16 Sc4 Ir10 Rh2'
_cell_volume   738.07158257
_cell_formula_units_Z   2
loop_
 _symmetry_equiv_pos_site_id
 _symmetry_equiv_pos_as_xyz
  1  'x, y, z'
loop_
 _atom_site_type_symbol
 _atom_site_label
 _atom_site_symmetry_multiplicity
 _atom_site_fract_x
 _atom_site_fract_y
 _atom_site_fract_z
 _atom_site_occupancy
  Tb  Tb0  1  0.286840  0.086528  0.378805  1
  Tb  Tb1  1  0.286840  0.913472  0.878805  1
  Tb  Tb2  1  0.713160  0.086528  0.878805  1
  Tb  Tb3  1  0.713160  0.913472  0.378805  1
  Tb  Tb4  1  0.586528  0.786840  0.878805  1
  Tb  Tb5  1  0.586528  0.213160  0.378805  1
  Tb  Tb6  1  0.413472  0.786840  0.378805  1
  Tb  Tb7  1  0.413472  0.213160  0.878805  1
  Tb  Tb8  1  0.212523  0.413592  0.621550  1
  Tb  Tb9  1  0.212523  0.586408  0.121550  1
  Tb  Tb10  1  0.787477  0.413592  0.121550  1
  Tb  Tb11  1  0.787477  0.586408  0.621550  1
  Tb  Tb12  1  0.913592  0.712523  0.121550  1
  Tb  Tb13  1  0.913592  0.287477  0.621550  1
  Tb  Tb14  1  0.086408  0.712523  0.621550  1
  Tb  Tb15  1  0.086408  0.287477  0.121550  1
  Sc  Sc16  1  0.000000  0.000000  0.500136  1
  Sc  Sc17  1  0.000000  0.000000  0.000136  1
  Sc  Sc18  1  0.500000  0.500000  0.000136  1
  Sc  Sc19  1  0.500000  0.500000  0.500136  1
  Ir  Ir20  1  0.852708  0.146500  0.249567  1
  Ir  Ir21  1  0.852708  0.853500  0.749567  1
  Ir  Ir22  1  0.147292  0.146500  0.749567  1
  Ir  Ir23  1  0.147292  0.853500  0.249567  1
  Ir  Ir24  1  0.646500  0.352708  0.749567  1
  Ir  Ir25  1  0.646500  0.647292  0.249567  1
  Ir  Ir26  1  0.353500  0.352708  0.249567  1
  Ir  Ir27  1  0.353500  0.647292  0.749567  1
  Ir  Ir28  1  0.000000  0.500000  0.877689  1
  Ir  Ir29  1  0.000000  0.500000  0.377689  1
  Rh  Rh30  1  0.500000  0.000000  0.122349  1
  Rh  Rh31  1  0.500000  0.000000  0.622349  1
