# generated using pymatgen
data_TiNb9(GaSb2)2
_symmetry_space_group_name_H-M   'P 1'
_cell_length_a   7.96521813
_cell_length_b   7.96523458
_cell_length_c   7.96521890
_cell_angle_alpha   96.08725852
_cell_angle_beta   96.08332799
_cell_angle_gamma   141.99719450
_symmetry_Int_Tables_number   1
_chemical_formula_structural   TiNb9(GaSb2)2
_chemical_formula_sum   'Ti1 Nb9 Ga2 Sb4'
_cell_volume   294.19140137
_cell_formula_units_Z   1
loop_
 _symmetry_equiv_pos_site_id
 _symmetry_equiv_pos_as_xyz
  1  'x, y, z'
loop_
 _atom_site_type_symbol
 _atom_site_label
 _atom_site_symmetry_multiplicity
 _atom_site_fract_x
 _atom_site_fract_y
 _atom_site_fract_z
 _atom_site_occupancy
  Ti  Ti0  1  0.249999  0.750000  0.499999  1
  Nb  Nb1  1  0.750005  0.250000  0.500005  1
  Nb  Nb2  1  0.782747  0.926753  0.707578  1
  Nb  Nb3  1  0.924894  0.217310  0.144038  1
  Nb  Nb4  1  0.073291  0.780868  0.855964  1
  Nb  Nb5  1  0.219085  0.075083  0.292411  1
  Nb  Nb6  1  0.575097  0.719132  0.292423  1
  Nb  Nb7  1  0.426728  0.282690  0.707585  1
  Nb  Nb8  1  0.280825  0.573247  0.855994  1
  Nb  Nb9  1  0.717329  0.424917  0.144003  1
  Ga  Ga10  1  0.749991  0.750000  0.999991  1
  Ga  Ga11  1  0.250000  0.250000  0.000000  1
  Sb  Sb12  1  0.329132  0.829145  0.168180  1
  Sb  Sb13  1  0.839034  0.670855  0.499987  1
  Sb  Sb14  1  0.170900  0.339074  0.500018  1
  Sb  Sb15  1  0.660943  0.160926  0.831824  1
