# generated using pymatgen
data_Nd(Sn2Ir)2
_symmetry_space_group_name_H-M   'P 1'
_cell_length_a   4.52315100
_cell_length_b   7.29264300
_cell_length_c   18.63200900
_cell_angle_alpha   90.00000000
_cell_angle_beta   90.00000000
_cell_angle_gamma   90.00000000
_symmetry_Int_Tables_number   1
_chemical_formula_structural   Nd(Sn2Ir)2
_chemical_formula_sum   'Nd4 Sn16 Ir8'
_cell_volume   614.59033398
_cell_formula_units_Z   4
loop_
 _symmetry_equiv_pos_site_id
 _symmetry_equiv_pos_as_xyz
  1  'x, y, z'
loop_
 _atom_site_type_symbol
 _atom_site_label
 _atom_site_symmetry_multiplicity
 _atom_site_fract_x
 _atom_site_fract_y
 _atom_site_fract_z
 _atom_site_occupancy
  Nd  Nd0  1  0.250000  0.002342  0.857643  1
  Nd  Nd1  1  0.750000  0.997658  0.142357  1
  Nd  Nd2  1  0.750000  0.502342  0.642357  1
  Nd  Nd3  1  0.250000  0.497658  0.357643  1
  Sn  Sn4  1  0.250000  0.276538  0.194114  1
  Sn  Sn5  1  0.750000  0.980081  0.567711  1
  Sn  Sn6  1  0.750000  0.301848  0.817812  1
  Sn  Sn7  1  0.250000  0.133899  0.032215  1
  Sn  Sn8  1  0.750000  0.198152  0.317812  1
  Sn  Sn9  1  0.250000  0.480081  0.932289  1
  Sn  Sn10  1  0.750000  0.866101  0.967785  1
  Sn  Sn11  1  0.250000  0.366101  0.532215  1
  Sn  Sn12  1  0.250000  0.698152  0.182188  1
  Sn  Sn13  1  0.750000  0.519919  0.067711  1
  Sn  Sn14  1  0.750000  0.723462  0.805886  1
  Sn  Sn15  1  0.250000  0.019919  0.432289  1
  Sn  Sn16  1  0.750000  0.776538  0.305886  1
  Sn  Sn17  1  0.750000  0.633899  0.467785  1
  Sn  Sn18  1  0.250000  0.223462  0.694114  1
  Sn  Sn19  1  0.250000  0.801848  0.682188  1
  Ir  Ir20  1  0.250000  0.517750  0.786000  1
  Ir  Ir21  1  0.250000  0.749363  0.035153  1
  Ir  Ir22  1  0.750000  0.249363  0.464847  1
  Ir  Ir23  1  0.250000  0.982250  0.286000  1
  Ir  Ir24  1  0.250000  0.750637  0.535153  1
  Ir  Ir25  1  0.750000  0.250637  0.964847  1
  Ir  Ir26  1  0.750000  0.017750  0.714000  1
  Ir  Ir27  1  0.750000  0.482250  0.214000  1
