# generated using pymatgen
data_LuHf11(OsRu)6
_symmetry_space_group_name_H-M   'P 1'
_cell_length_a   4.60997700
_cell_length_b   6.50936900
_cell_length_c   13.88226500
_cell_angle_alpha   90.00000000
_cell_angle_beta   89.99921019
_cell_angle_gamma   90.00000000
_symmetry_Int_Tables_number   1
_chemical_formula_structural   LuHf11(OsRu)6
_chemical_formula_sum   'Lu1 Hf11 Os6 Ru6'
_cell_volume   416.57958247
_cell_formula_units_Z   1
loop_
 _symmetry_equiv_pos_site_id
 _symmetry_equiv_pos_as_xyz
  1  'x, y, z'
loop_
 _atom_site_type_symbol
 _atom_site_label
 _atom_site_symmetry_multiplicity
 _atom_site_fract_x
 _atom_site_fract_y
 _atom_site_fract_z
 _atom_site_occupancy
  Lu  Lu0  1  0.500000  0.249954  0.000000  1
  Hf  Hf1  1  0.500000  0.750152  0.000000  1
  Hf  Hf2  1  0.999964  0.250003  0.166753  1
  Hf  Hf3  1  0.999955  0.749994  0.166305  1
  Hf  Hf4  1  0.499978  0.249976  0.333500  1
  Hf  Hf5  1  0.499961  0.749858  0.333140  1
  Hf  Hf6  1  0.000000  0.249955  0.500000  1
  Hf  Hf7  1  0.000000  0.750117  0.500000  1
  Hf  Hf8  1  0.500022  0.249976  0.666500  1
  Hf  Hf9  1  0.500039  0.749858  0.666860  1
  Hf  Hf10  1  0.000036  0.250003  0.833247  1
  Hf  Hf11  1  0.000045  0.749994  0.833695  1
  Os  Os12  1  0.000000  0.506974  0.000000  1
  Os  Os13  1  0.499991  0.996766  0.169333  1
  Os  Os14  1  0.999983  0.499825  0.333564  1
  Os  Os15  1  0.500000  0.000381  0.500000  1
  Os  Os16  1  0.000017  0.499825  0.666436  1
  Os  Os17  1  0.500010  0.996766  0.830666  1
  Ru  Ru18  1  0.000000  0.995079  0.000000  1
  Ru  Ru19  1  0.499977  0.502173  0.169191  1
  Ru  Ru20  1  0.999966  0.000302  0.333681  1
  Ru  Ru21  1  0.500000  0.499600  0.500000  1
  Ru  Ru22  1  0.000034  0.000302  0.666319  1
  Ru  Ru23  1  0.500021  0.502173  0.830809  1
