# generated using pymatgen
data_Rb6DyInAs4
_symmetry_space_group_name_H-M   'P 1'
_cell_length_a   9.68286974
_cell_length_b   9.68287061
_cell_length_c   9.68286914
_cell_angle_alpha   129.11783235
_cell_angle_beta   68.61098560
_cell_angle_gamma   137.20430967
_symmetry_Int_Tables_number   1
_chemical_formula_structural   Rb6DyInAs4
_chemical_formula_sum   'Rb6 Dy1 In1 As4'
_cell_volume   470.13976539
_cell_formula_units_Z   1
loop_
 _symmetry_equiv_pos_site_id
 _symmetry_equiv_pos_as_xyz
  1  'x, y, z'
loop_
 _atom_site_type_symbol
 _atom_site_label
 _atom_site_symmetry_multiplicity
 _atom_site_fract_x
 _atom_site_fract_y
 _atom_site_fract_z
 _atom_site_occupancy
  Rb  Rb0  1  0.801063  0.186125  0.009928  1
  Rb  Rb1  1  0.698937  0.708866  0.385065  1
  Rb  Rb2  1  0.750000  0.250000  0.500000  1
  Rb  Rb3  1  0.250000  0.750000  0.500001  1
  Rb  Rb4  1  0.323803  0.313874  0.614936  1
  Rb  Rb5  1  0.176197  0.791134  0.990071  1
  Dy  Dy6  1  0.250000  0.250000  0.000000  1
  In  In7  1  0.750000  0.750000  0.000000  1
  As  As8  1  0.408423  0.693023  0.089335  1
  As  As9  1  0.091577  0.180913  0.284602  1
  As  As10  1  0.896310  0.806977  0.715398  1
  As  As11  1  0.603689  0.319088  0.910665  1
