# generated using pymatgen
data_Ho2Tm2Os7W
_symmetry_space_group_name_H-M   'P 1'
_cell_length_a   5.46237128
_cell_length_b   5.26848079
_cell_length_c   8.85509702
_cell_angle_alpha   90.00621658
_cell_angle_beta   89.99968332
_cell_angle_gamma   121.13941701
_symmetry_Int_Tables_number   1
_chemical_formula_structural   Ho2Tm2Os7W
_chemical_formula_sum   'Ho2 Tm2 Os7 W1'
_cell_volume   218.11664759
_cell_formula_units_Z   1
loop_
 _symmetry_equiv_pos_site_id
 _symmetry_equiv_pos_as_xyz
  1  'x, y, z'
loop_
 _atom_site_type_symbol
 _atom_site_label
 _atom_site_symmetry_multiplicity
 _atom_site_fract_x
 _atom_site_fract_y
 _atom_site_fract_z
 _atom_site_occupancy
  Ho  Ho0  1  0.670922  0.341611  0.563075  1
  Ho  Ho1  1  0.334334  0.668843  0.433698  1
  Tm  Tm2  1  0.334176  0.668533  0.065996  1
  Tm  Tm3  1  0.671108  0.342057  0.937158  1
  Os  Os4  1  0.006713  0.013748  0.497000  1
  Os  Os5  1  0.006677  0.013701  0.003005  1
  Os  Os6  1  0.173347  0.823428  0.751150  1
  Os  Os7  1  0.649725  0.823679  0.751130  1
  Os  Os8  1  0.822720  0.645372  0.248883  1
  Os  Os9  1  0.827899  0.166226  0.249007  1
  Os  Os10  1  0.339182  0.166654  0.248967  1
  W  W11  1  0.163199  0.326149  0.750932  1
