# generated using pymatgen
data_Y2Tm2CrOsC4
_symmetry_space_group_name_H-M   'P 1'
_cell_length_a   5.03340200
_cell_length_b   6.48502116
_cell_length_c   9.69823963
_cell_angle_alpha   90.25125932
_cell_angle_beta   90.00000000
_cell_angle_gamma   90.00000000
_symmetry_Int_Tables_number   1
_chemical_formula_structural   Y2Tm2CrOsC4
_chemical_formula_sum   'Y4 Tm4 Cr2 Os2 C8'
_cell_volume   316.56416379
_cell_formula_units_Z   2
loop_
 _symmetry_equiv_pos_site_id
 _symmetry_equiv_pos_as_xyz
  1  'x, y, z'
loop_
 _atom_site_type_symbol
 _atom_site_label
 _atom_site_symmetry_multiplicity
 _atom_site_fract_x
 _atom_site_fract_y
 _atom_site_fract_z
 _atom_site_occupancy
  Y  Y0  1  0.250000  0.532529  0.212683  1
  Y  Y1  1  0.750000  0.467471  0.787317  1
  Y  Y2  1  0.750000  0.970714  0.714467  1
  Y  Y3  1  0.250000  0.029286  0.285533  1
  Tm  Tm4  1  0.250000  0.678315  0.559757  1
  Tm  Tm5  1  0.750000  0.321685  0.440243  1
  Tm  Tm6  1  0.750000  0.826138  0.055537  1
  Tm  Tm7  1  0.250000  0.173862  0.944463  1
  Cr  Cr8  1  0.250000  0.725474  0.862684  1
  Cr  Cr9  1  0.750000  0.274526  0.137316  1
  Os  Os10  1  0.750000  0.775459  0.362949  1
  Os  Os11  1  0.250000  0.224541  0.637051  1
  C  C12  1  0.250000  0.462525  0.765010  1
  C  C13  1  0.750000  0.537475  0.234990  1
  C  C14  1  0.750000  0.048052  0.256959  1
  C  C15  1  0.250000  0.951948  0.743041  1
  C  C16  1  0.250000  0.818896  0.040323  1
  C  C17  1  0.750000  0.181104  0.959677  1
  C  C18  1  0.750000  0.674032  0.548413  1
  C  C19  1  0.250000  0.325968  0.451587  1
