# generated using pymatgen
data_HoEr6Co4Tc2Sn23
_symmetry_space_group_name_H-M   'P 1'
_cell_length_a   9.72479861
_cell_length_b   9.72479901
_cell_length_c   9.97226532
_cell_angle_alpha   89.80277501
_cell_angle_beta   90.19722417
_cell_angle_gamma   119.45132493
_symmetry_Int_Tables_number   1
_chemical_formula_structural   HoEr6Co4Tc2Sn23
_chemical_formula_sum   'Ho1 Er6 Co4 Tc2 Sn23'
_cell_volume   821.21511931
_cell_formula_units_Z   1
loop_
 _symmetry_equiv_pos_site_id
 _symmetry_equiv_pos_as_xyz
  1  'x, y, z'
loop_
 _atom_site_type_symbol
 _atom_site_label
 _atom_site_symmetry_multiplicity
 _atom_site_fract_x
 _atom_site_fract_y
 _atom_site_fract_z
 _atom_site_occupancy
  Ho  Ho0  1  0.000000  0.000000  0.000000  1
  Er  Er1  1  0.481777  0.518223  0.307270  1
  Er  Er2  1  0.518223  0.481777  0.692730  1
  Er  Er3  1  0.484079  0.962354  0.305429  1
  Er  Er4  1  0.515921  0.037646  0.694571  1
  Er  Er5  1  0.037646  0.515921  0.305429  1
  Er  Er6  1  0.962354  0.484079  0.694571  1
  Co  Co7  1  0.829733  0.658268  0.198577  1
  Co  Co8  1  0.170267  0.341732  0.801423  1
  Co  Co9  1  0.341732  0.170267  0.198577  1
  Co  Co10  1  0.658268  0.829733  0.801423  1
  Tc  Tc11  1  0.835797  0.164203  0.203363  1
  Tc  Tc12  1  0.164203  0.835797  0.796637  1
  Sn  Sn13  1  0.118151  0.881849  0.272097  1
  Sn  Sn14  1  0.881849  0.118151  0.727903  1
  Sn  Sn15  1  0.130342  0.240301  0.270267  1
  Sn  Sn16  1  0.869658  0.759699  0.729733  1
  Sn  Sn17  1  0.759699  0.869658  0.270267  1
  Sn  Sn18  1  0.240301  0.130342  0.729733  1
  Sn  Sn19  1  0.779762  0.220238  0.461175  1
  Sn  Sn20  1  0.220238  0.779762  0.538825  1
  Sn  Sn21  1  0.781908  0.563376  0.453973  1
  Sn  Sn22  1  0.218092  0.436624  0.546027  1
  Sn  Sn23  1  0.436624  0.218092  0.453973  1
  Sn  Sn24  1  0.563376  0.781908  0.546027  1
  Sn  Sn25  1  0.347605  0.001268  0.003866  1
  Sn  Sn26  1  0.652395  0.998732  0.996134  1
  Sn  Sn27  1  0.001268  0.347605  0.996134  1
  Sn  Sn28  1  0.998732  0.652395  0.003866  1
  Sn  Sn29  1  0.651489  0.651489  0.000000  1
  Sn  Sn30  1  0.348511  0.348511  0.000000  1
  Sn  Sn31  1  0.333419  0.666581  0.123055  1
  Sn  Sn32  1  0.666581  0.333419  0.876945  1
  Sn  Sn33  1  0.333055  0.666945  0.817909  1
  Sn  Sn34  1  0.666945  0.333055  0.182091  1
  Sn  Sn35  1  0.000000  0.000000  0.500000  1
