# generated using pymatgen
data_SmNiSbAsPd
_symmetry_space_group_name_H-M   'P 1'
_cell_length_a   4.42775100
_cell_length_b   4.42775100
_cell_length_c   9.90435900
_cell_angle_alpha   90.00000000
_cell_angle_beta   90.00000000
_cell_angle_gamma   90.00000000
_symmetry_Int_Tables_number   1
_chemical_formula_structural   SmNiSbAsPd
_chemical_formula_sum   'Sm2 Ni2 Sb2 As2 Pd2'
_cell_volume   194.17474939
_cell_formula_units_Z   2
loop_
 _symmetry_equiv_pos_site_id
 _symmetry_equiv_pos_as_xyz
  1  'x, y, z'
loop_
 _atom_site_type_symbol
 _atom_site_label
 _atom_site_symmetry_multiplicity
 _atom_site_fract_x
 _atom_site_fract_y
 _atom_site_fract_z
 _atom_site_occupancy
  Sm  Sm0  1  0.000000  0.500000  0.270241  1
  Sm  Sm1  1  0.500000  0.000000  0.729759  1
  Ni  Ni2  1  0.000000  0.500000  0.597361  1
  Ni  Ni3  1  0.500000  0.000000  0.402639  1
  Sb  Sb4  1  0.000000  0.500000  0.848743  1
  Sb  Sb5  1  0.500000  0.000000  0.151257  1
  As  As6  1  0.000000  0.000000  0.500000  1
  As  As7  1  0.500000  0.500000  0.500000  1
  Pd  Pd8  1  0.000000  0.000000  0.000000  1
  Pd  Pd9  1  0.500000  0.500000  0.000000  1
