# generated using pymatgen
data_Pr3DyTh4(ZnRh)8
_symmetry_space_group_name_H-M   'P 1'
_cell_length_a   3.98773600
_cell_length_b   7.39960523
_cell_length_c   16.60558004
_cell_angle_alpha   90.34962639
_cell_angle_beta   90.00000000
_cell_angle_gamma   90.00000000
_symmetry_Int_Tables_number   1
_chemical_formula_structural   Pr3DyTh4(ZnRh)8
_chemical_formula_sum   'Pr3 Dy1 Th4 Zn8 Rh8'
_cell_volume   489.98288926
_cell_formula_units_Z   1
loop_
 _symmetry_equiv_pos_site_id
 _symmetry_equiv_pos_as_xyz
  1  'x, y, z'
loop_
 _atom_site_type_symbol
 _atom_site_label
 _atom_site_symmetry_multiplicity
 _atom_site_fract_x
 _atom_site_fract_y
 _atom_site_fract_z
 _atom_site_occupancy
  Pr  Pr0  1  0.250000  0.555508  0.785930  1
  Pr  Pr1  1  0.750000  0.329748  0.440919  1
  Pr  Pr2  1  0.250000  0.676622  0.560108  1
  Dy  Dy3  1  0.250000  0.169380  0.940162  1
  Th  Th4  1  0.750000  0.439534  0.213524  1
  Th  Th5  1  0.750000  0.943998  0.285363  1
  Th  Th6  1  0.750000  0.825923  0.057755  1
  Th  Th7  1  0.250000  0.057618  0.716469  1
  Zn  Zn8  1  0.250000  0.002896  0.441663  1
  Zn  Zn9  1  0.750000  0.488791  0.939732  1
  Zn  Zn10  1  0.750000  0.004929  0.558113  1
  Zn  Zn11  1  0.250000  0.613637  0.349031  1
  Zn  Zn12  1  0.750000  0.388081  0.652282  1
  Zn  Zn13  1  0.750000  0.886454  0.852692  1
  Zn  Zn14  1  0.250000  0.488511  0.057568  1
  Zn  Zn15  1  0.250000  0.113057  0.149907  1
  Rh  Rh16  1  0.250000  0.245464  0.570337  1
  Rh  Rh17  1  0.750000  0.247253  0.066029  1
  Rh  Rh18  1  0.250000  0.239754  0.307831  1
  Rh  Rh19  1  0.750000  0.245610  0.811879  1
  Rh  Rh20  1  0.250000  0.754069  0.942012  1
  Rh  Rh21  1  0.750000  0.779733  0.688690  1
  Rh  Rh22  1  0.750000  0.765418  0.427353  1
  Rh  Rh23  1  0.250000  0.738012  0.184654  1
