# generated using pymatgen
data_Li2SmYSi4
_symmetry_space_group_name_H-M   'P 1'
_cell_length_a   3.82626300
_cell_length_b   7.63857563
_cell_length_c   10.27849172
_cell_angle_alpha   90.29227403
_cell_angle_beta   90.00000000
_cell_angle_gamma   90.00000000
_symmetry_Int_Tables_number   1
_chemical_formula_structural   Li2SmYSi4
_chemical_formula_sum   'Li4 Sm2 Y2 Si8'
_cell_volume   300.40761761
_cell_formula_units_Z   2
loop_
 _symmetry_equiv_pos_site_id
 _symmetry_equiv_pos_as_xyz
  1  'x, y, z'
loop_
 _atom_site_type_symbol
 _atom_site_label
 _atom_site_symmetry_multiplicity
 _atom_site_fract_x
 _atom_site_fract_y
 _atom_site_fract_z
 _atom_site_occupancy
  Li  Li0  1  0.250000  0.990772  0.391904  1
  Li  Li1  1  0.750000  0.009228  0.608096  1
  Li  Li2  1  0.250000  0.490800  0.108792  1
  Li  Li3  1  0.750000  0.509200  0.891208  1
  Sm  Sm4  1  0.250000  0.140761  0.863481  1
  Sm  Sm5  1  0.750000  0.859239  0.136519  1
  Y  Y6  1  0.250000  0.637907  0.635854  1
  Y  Y7  1  0.750000  0.362093  0.364146  1
  Si  Si8  1  0.750000  0.271787  0.071643  1
  Si  Si9  1  0.250000  0.728213  0.928357  1
  Si  Si10  1  0.750000  0.766788  0.433164  1
  Si  Si11  1  0.250000  0.233212  0.566836  1
  Si  Si12  1  0.750000  0.839018  0.818981  1
  Si  Si13  1  0.250000  0.160982  0.181019  1
  Si  Si14  1  0.750000  0.344442  0.676687  1
  Si  Si15  1  0.250000  0.655558  0.323313  1
