# generated using pymatgen
data_TbY6(LuSn2)3
_symmetry_space_group_name_H-M   'P 1'
_cell_length_a   8.94548800
_cell_length_b   8.94548862
_cell_length_c   6.50061100
_cell_angle_alpha   90.00000000
_cell_angle_beta   90.00000000
_cell_angle_gamma   120.00000509
_symmetry_Int_Tables_number   1
_chemical_formula_structural   TbY6(LuSn2)3
_chemical_formula_sum   'Tb1 Y6 Lu3 Sn6'
_cell_volume   450.49802673
_cell_formula_units_Z   1
loop_
 _symmetry_equiv_pos_site_id
 _symmetry_equiv_pos_as_xyz
  1  'x, y, z'
loop_
 _atom_site_type_symbol
 _atom_site_label
 _atom_site_symmetry_multiplicity
 _atom_site_fract_x
 _atom_site_fract_y
 _atom_site_fract_z
 _atom_site_occupancy
  Tb  Tb0  1  0.666667  0.333333  0.000000  1
  Y  Y1  1  0.759903  0.760251  0.749654  1
  Y  Y2  1  0.239749  0.999652  0.749654  1
  Y  Y3  1  0.000348  0.240097  0.749654  1
  Y  Y4  1  0.239749  0.240097  0.250346  1
  Y  Y5  1  0.759903  0.999652  0.250346  1
  Y  Y6  1  0.000348  0.760251  0.250346  1
  Lu  Lu7  1  0.333333  0.666667  0.000000  1
  Lu  Lu8  1  0.333333  0.666667  0.500000  1
  Lu  Lu9  1  0.666667  0.333333  0.500000  1
  Sn  Sn10  1  0.395352  0.396724  0.748866  1
  Sn  Sn11  1  0.603276  0.998628  0.748866  1
  Sn  Sn12  1  0.001372  0.604648  0.748866  1
  Sn  Sn13  1  0.603276  0.604648  0.251134  1
  Sn  Sn14  1  0.395352  0.998628  0.251134  1
  Sn  Sn15  1  0.001372  0.396724  0.251134  1
