# generated using pymatgen
data_Dy3In3SnRh2
_symmetry_space_group_name_H-M   'P 1'
_cell_length_a   7.81278500
_cell_length_b   7.81278624
_cell_length_c   3.91196900
_cell_angle_alpha   90.00000000
_cell_angle_beta   90.00000000
_cell_angle_gamma   119.99999053
_symmetry_Int_Tables_number   1
_chemical_formula_structural   Dy3In3SnRh2
_chemical_formula_sum   'Dy3 In3 Sn1 Rh2'
_cell_volume   206.79398041
_cell_formula_units_Z   1
loop_
 _symmetry_equiv_pos_site_id
 _symmetry_equiv_pos_as_xyz
  1  'x, y, z'
loop_
 _atom_site_type_symbol
 _atom_site_label
 _atom_site_symmetry_multiplicity
 _atom_site_fract_x
 _atom_site_fract_y
 _atom_site_fract_z
 _atom_site_occupancy
  Dy  Dy0  1  0.028351  0.608804  0.500000  1
  Dy  Dy1  1  0.580452  0.971649  0.500000  1
  Dy  Dy2  1  0.391196  0.419548  0.500000  1
  In  In3  1  0.012868  0.257189  0.000000  1
  In  In4  1  0.244321  0.987132  0.000000  1
  In  In5  1  0.742811  0.755679  0.000000  1
  Sn  Sn6  1  0.666667  0.333333  0.000000  1
  Rh  Rh7  1  0.000000  0.000000  0.500000  1
  Rh  Rh8  1  0.333333  0.666667  0.000000  1
