# generated using pymatgen
data_Tb3HfZn2Ir3
_symmetry_space_group_name_H-M   'P 1'
_cell_length_a   7.21050999
_cell_length_b   7.10186591
_cell_length_c   4.10810100
_cell_angle_alpha   90.00000000
_cell_angle_beta   90.00000000
_cell_angle_gamma   119.50281099
_symmetry_Int_Tables_number   1
_chemical_formula_structural   Tb3HfZn2Ir3
_chemical_formula_sum   'Tb3 Hf1 Zn2 Ir3'
_cell_volume   183.08985638
_cell_formula_units_Z   1
loop_
 _symmetry_equiv_pos_site_id
 _symmetry_equiv_pos_as_xyz
  1  'x, y, z'
loop_
 _atom_site_type_symbol
 _atom_site_label
 _atom_site_symmetry_multiplicity
 _atom_site_fract_x
 _atom_site_fract_y
 _atom_site_fract_z
 _atom_site_occupancy
  Tb  Tb0  1  0.431172  0.417166  0.000000  1
  Tb  Tb1  1  0.568828  0.985994  0.000000  1
  Tb  Tb2  1  0.000000  0.612908  0.000000  1
  Hf  Hf3  1  0.000000  0.238921  0.500000  1
  Zn  Zn4  1  0.748166  0.752228  0.500000  1
  Zn  Zn5  1  0.251834  0.004062  0.500000  1
  Ir  Ir6  1  0.000000  0.013028  0.000000  1
  Ir  Ir7  1  0.323062  0.649378  0.500000  1
  Ir  Ir8  1  0.676938  0.326314  0.500000  1
