# generated using pymatgen
data_Tb19YSn9Sb7
_symmetry_space_group_name_H-M   'P 1'
_cell_length_a   8.13775127
_cell_length_b   8.17860702
_cell_length_c   15.49081415
_cell_angle_alpha   90.14069530
_cell_angle_beta   89.68151019
_cell_angle_gamma   89.79880378
_symmetry_Int_Tables_number   1
_chemical_formula_structural   Tb19YSn9Sb7
_chemical_formula_sum   'Tb19 Y1 Sn9 Sb7'
_cell_volume   1030.97296737
_cell_formula_units_Z   1
loop_
 _symmetry_equiv_pos_site_id
 _symmetry_equiv_pos_as_xyz
  1  'x, y, z'
loop_
 _atom_site_type_symbol
 _atom_site_label
 _atom_site_symmetry_multiplicity
 _atom_site_fract_x
 _atom_site_fract_y
 _atom_site_fract_z
 _atom_site_occupancy
  Tb  Tb0  1  0.387948  0.838838  0.880525  1
  Tb  Tb1  1  0.890846  0.662878  0.619058  1
  Tb  Tb2  1  0.610018  0.161278  0.381119  1
  Tb  Tb3  1  0.113164  0.337651  0.120384  1
  Tb  Tb4  1  0.612098  0.162265  0.119382  1
  Tb  Tb5  1  0.109986  0.337761  0.380914  1
  Tb  Tb6  1  0.388818  0.839312  0.619400  1
  Tb  Tb7  1  0.887172  0.662955  0.879935  1
  Tb  Tb8  1  0.553502  0.331776  0.892588  1
  Tb  Tb9  1  0.054681  0.170152  0.607495  1
  Tb  Tb10  1  0.445387  0.669312  0.392383  1
  Tb  Tb11  1  0.948187  0.824989  0.106394  1
  Tb  Tb12  1  0.451918  0.667527  0.106074  1
  Tb  Tb13  1  0.945254  0.829331  0.392222  1
  Tb  Tb14  1  0.554866  0.330087  0.608250  1
  Tb  Tb15  1  0.045770  0.177393  0.895998  1
  Tb  Tb16  1  0.219816  0.500533  0.750512  1
  Tb  Tb17  1  0.719497  0.002644  0.750531  1
  Tb  Tb18  1  0.780713  0.499546  0.247957  1
  Y  Y19  1  0.279959  0.997936  0.249443  1
  Sn  Sn20  1  0.774796  0.473696  0.043448  1
  Sn  Sn21  1  0.585813  0.628040  0.748914  1
  Sn  Sn22  1  0.085274  0.875624  0.750402  1
  Sn  Sn23  1  0.414569  0.372595  0.251161  1
  Sn  Sn24  1  0.914130  0.125282  0.250516  1
  Sn  Sn25  1  0.355493  0.143473  0.750853  1
  Sn  Sn26  1  0.857938  0.358768  0.749503  1
  Sn  Sn27  1  0.643169  0.856920  0.249897  1
  Sn  Sn28  1  0.143821  0.641557  0.250226  1
  Sb  Sb29  1  0.268732  0.018819  0.046203  1
  Sb  Sb30  1  0.768523  0.481284  0.453613  1
  Sb  Sb31  1  0.731107  0.982193  0.546628  1
  Sb  Sb32  1  0.228876  0.522815  0.954479  1
  Sb  Sb33  1  0.727618  0.979160  0.953886  1
  Sb  Sb34  1  0.232350  0.518364  0.546556  1
  Sb  Sb35  1  0.268188  0.017244  0.453153  1
