# generated using pymatgen
data_Cr2(InCl3)3
_symmetry_space_group_name_H-M   'P 1'
_cell_length_a   7.08826100
_cell_length_b   7.08824262
_cell_length_c   17.63806900
_cell_angle_alpha   90.00000000
_cell_angle_beta   90.00000000
_cell_angle_gamma   120.00010788
_symmetry_Int_Tables_number   1
_chemical_formula_structural   Cr2(InCl3)3
_chemical_formula_sum   'Cr4 In6 Cl18'
_cell_volume   767.46657754
_cell_formula_units_Z   2
loop_
 _symmetry_equiv_pos_site_id
 _symmetry_equiv_pos_as_xyz
  1  'x, y, z'
loop_
 _atom_site_type_symbol
 _atom_site_label
 _atom_site_symmetry_multiplicity
 _atom_site_fract_x
 _atom_site_fract_y
 _atom_site_fract_z
 _atom_site_occupancy
  Cr  Cr0  1  0.333352  0.666655  0.837141  1
  Cr  Cr1  1  0.333337  0.666666  0.659813  1
  Cr  Cr2  1  0.666648  0.333345  0.337141  1
  Cr  Cr3  1  0.666663  0.333334  0.159813  1
  In  In4  1  0.333333  0.666667  0.058524  1
  In  In5  1  0.333333  0.666667  0.448500  1
  In  In6  1  0.000000  0.999999  0.271833  1
  In  In7  1  0.000000  0.000001  0.771833  1
  In  In8  1  0.666667  0.333333  0.948500  1
  In  In9  1  0.666667  0.333333  0.558524  1
  Cl  Cl10  1  0.177544  0.822456  0.587693  1
  Cl  Cl11  1  0.176940  0.823059  0.909661  1
  Cl  Cl12  1  0.032558  0.516280  0.749176  1
  Cl  Cl13  1  0.483722  0.967441  0.749176  1
  Cl  Cl14  1  0.176940  0.353879  0.909661  1
  Cl  Cl15  1  0.177545  0.355089  0.587694  1
  Cl  Cl16  1  0.483723  0.516281  0.749176  1
  Cl  Cl17  1  0.646121  0.823060  0.909660  1
  Cl  Cl18  1  0.644909  0.822454  0.587694  1
  Cl  Cl19  1  0.353879  0.176940  0.409660  1
  Cl  Cl20  1  0.355091  0.177546  0.087694  1
  Cl  Cl21  1  0.516277  0.483719  0.249176  1
  Cl  Cl22  1  0.822455  0.644911  0.087694  1
  Cl  Cl23  1  0.823060  0.646121  0.409661  1
  Cl  Cl24  1  0.516278  0.032559  0.249176  1
  Cl  Cl25  1  0.967442  0.483720  0.249176  1
  Cl  Cl26  1  0.822456  0.177544  0.087693  1
  Cl  Cl27  1  0.823060  0.176941  0.409661  1
