# generated using pymatgen
data_YbEr3TcOs7
_symmetry_space_group_name_H-M   'P 1'
_cell_length_a   5.27108965
_cell_length_b   5.27108984
_cell_length_c   8.81190265
_cell_angle_alpha   90.06064011
_cell_angle_beta   89.93936011
_cell_angle_gamma   118.87749369
_symmetry_Int_Tables_number   1
_chemical_formula_structural   YbEr3TcOs7
_chemical_formula_sum   'Yb1 Er3 Tc1 Os7'
_cell_volume   214.38918221
_cell_formula_units_Z   1
loop_
 _symmetry_equiv_pos_site_id
 _symmetry_equiv_pos_as_xyz
  1  'x, y, z'
loop_
 _atom_site_type_symbol
 _atom_site_label
 _atom_site_symmetry_multiplicity
 _atom_site_fract_x
 _atom_site_fract_y
 _atom_site_fract_z
 _atom_site_occupancy
  Yb  Yb0  1  0.332092  0.667908  0.437945  1
  Er  Er1  1  0.666073  0.333927  0.561193  1
  Er  Er2  1  0.666291  0.333709  0.934858  1
  Er  Er3  1  0.331458  0.668542  0.067846  1
  Tc  Tc4  1  0.830038  0.169962  0.249973  1
  Os  Os5  1  0.996217  0.003783  0.499692  1
  Os  Os6  1  0.994869  0.005131  0.999182  1
  Os  Os7  1  0.827927  0.653962  0.249157  1
  Os  Os8  1  0.346038  0.172073  0.249157  1
  Os  Os9  1  0.177286  0.822714  0.751158  1
  Os  Os10  1  0.172703  0.340992  0.749919  1
  Os  Os11  1  0.659008  0.827297  0.749919  1
