# generated using pymatgen
data_Lu2GaNi2Ru
_symmetry_space_group_name_H-M   'P 1'
_cell_length_a   5.37650794
_cell_length_b   4.98953580
_cell_length_c   4.98953509
_cell_angle_alpha   117.41810515
_cell_angle_beta   120.95895650
_cell_angle_gamma   89.21296990
_symmetry_Int_Tables_number   1
_chemical_formula_structural   Lu2GaNi2Ru
_chemical_formula_sum   'Lu2 Ga1 Ni2 Ru1'
_cell_volume   97.41209199
_cell_formula_units_Z   1
loop_
 _symmetry_equiv_pos_site_id
 _symmetry_equiv_pos_as_xyz
  1  'x, y, z'
loop_
 _atom_site_type_symbol
 _atom_site_label
 _atom_site_symmetry_multiplicity
 _atom_site_fract_x
 _atom_site_fract_y
 _atom_site_fract_z
 _atom_site_occupancy
  Lu  Lu0  1  0.124662  0.872325  0.252337  1
  Lu  Lu1  1  0.875338  0.127675  0.747663  1
  Ga  Ga2  1  0.500000  0.500000  0.000000  1
  Ni  Ni3  1  0.500000  0.000000  0.000000  1
  Ni  Ni4  1  0.500000  0.500000  0.500000  1
  Ru  Ru5  1  0.000000  0.500000  0.500000  1
