# generated using pymatgen
data_YbY5(CoSn6)2
_symmetry_space_group_name_H-M   'P 1'
_cell_length_a   8.47678237
_cell_length_b   8.47678212
_cell_length_c   13.13459901
_cell_angle_alpha   89.99377460
_cell_angle_beta   90.00622546
_cell_angle_gamma   148.57048352
_symmetry_Int_Tables_number   1
_chemical_formula_structural   YbY5(CoSn6)2
_chemical_formula_sum   'Yb1 Y5 Co2 Sn12'
_cell_volume   492.14257836
_cell_formula_units_Z   1
loop_
 _symmetry_equiv_pos_site_id
 _symmetry_equiv_pos_as_xyz
  1  'x, y, z'
loop_
 _atom_site_type_symbol
 _atom_site_label
 _atom_site_symmetry_multiplicity
 _atom_site_fract_x
 _atom_site_fract_y
 _atom_site_fract_z
 _atom_site_occupancy
  Yb  Yb0  1  0.899290  0.100710  0.403759  1
  Y  Y1  1  0.898696  0.101304  0.093949  1
  Y  Y2  1  0.100975  0.899025  0.594183  1
  Y  Y3  1  0.901107  0.098893  0.751753  1
  Y  Y4  1  0.100564  0.899436  0.906645  1
  Y  Y5  1  0.099345  0.900655  0.249527  1
  Co  Co6  1  0.298683  0.701317  0.250095  1
  Co  Co7  1  0.700540  0.299460  0.749761  1
  Sn  Sn8  1  0.757409  0.242591  0.571960  1
  Sn  Sn9  1  0.428288  0.571712  0.576506  1
  Sn  Sn10  1  0.572424  0.427576  0.423850  1
  Sn  Sn11  1  0.734260  0.265740  0.249229  1
  Sn  Sn12  1  0.265327  0.734673  0.750284  1
  Sn  Sn13  1  0.243406  0.756594  0.071277  1
  Sn  Sn14  1  0.244288  0.755712  0.429060  1
  Sn  Sn15  1  0.571705  0.428295  0.075587  1
  Sn  Sn16  1  0.453780  0.546220  0.248735  1
  Sn  Sn17  1  0.546435  0.453565  0.750430  1
  Sn  Sn18  1  0.756266  0.243734  0.928297  1
  Sn  Sn19  1  0.427214  0.572786  0.925114  1
