# generated using pymatgen
data_Ba4Sr2Al3GaAs8
_symmetry_space_group_name_H-M   'P 1'
_cell_length_a   8.82137745
_cell_length_b   8.82609398
_cell_length_c   7.04961875
_cell_angle_alpha   92.00950590
_cell_angle_beta   91.67702189
_cell_angle_gamma   76.29921610
_symmetry_Int_Tables_number   1
_chemical_formula_structural   Ba4Sr2Al3GaAs8
_chemical_formula_sum   'Ba4 Sr2 Al3 Ga1 As8'
_cell_volume   532.80159698
_cell_formula_units_Z   1
loop_
 _symmetry_equiv_pos_site_id
 _symmetry_equiv_pos_as_xyz
  1  'x, y, z'
loop_
 _atom_site_type_symbol
 _atom_site_label
 _atom_site_symmetry_multiplicity
 _atom_site_fract_x
 _atom_site_fract_y
 _atom_site_fract_z
 _atom_site_occupancy
  Ba  Ba0  1  0.743441  0.999596  0.949609  1
  Ba  Ba1  1  0.994226  0.259250  0.554952  1
  Ba  Ba2  1  0.255309  0.997122  0.050159  1
  Ba  Ba3  1  0.006959  0.742973  0.449830  1
  Sr  Sr4  1  0.599037  0.399522  0.246624  1
  Sr  Sr5  1  0.403216  0.597253  0.748284  1
  Al  Al6  1  0.577904  0.830319  0.427251  1
  Al  Al7  1  0.175006  0.420005  0.074730  1
  Al  Al8  1  0.421280  0.172878  0.573685  1
  Ga  Ga9  1  0.824002  0.580155  0.923917  1
  As  As10  1  0.699262  0.062797  0.465987  1
  As  As11  1  0.939084  0.301494  0.036243  1
  As  As12  1  0.300497  0.939287  0.535688  1
  As  As13  1  0.063987  0.696965  0.967089  1
  As  As14  1  0.577536  0.730419  0.089427  1
  As  As15  1  0.270682  0.415715  0.413636  1
  As  As16  1  0.418854  0.269080  0.912415  1
  As  As17  1  0.729718  0.585169  0.580472  1
