# generated using pymatgen
data_Ce12Mn4Al6RuAu
_symmetry_space_group_name_H-M   'P 1'
_cell_length_a   7.79184961
_cell_length_b   7.84005980
_cell_length_c   9.64148467
_cell_angle_alpha   88.81477996
_cell_angle_beta   90.38136791
_cell_angle_gamma   120.05423939
_symmetry_Int_Tables_number   1
_chemical_formula_structural   Ce12Mn4Al6RuAu
_chemical_formula_sum   'Ce12 Mn4 Al6 Ru1 Au1'
_cell_volume   509.68277531
_cell_formula_units_Z   1
loop_
 _symmetry_equiv_pos_site_id
 _symmetry_equiv_pos_as_xyz
  1  'x, y, z'
loop_
 _atom_site_type_symbol
 _atom_site_label
 _atom_site_symmetry_multiplicity
 _atom_site_fract_x
 _atom_site_fract_y
 _atom_site_fract_z
 _atom_site_occupancy
  Ce  Ce0  1  0.999481  0.621095  0.526973  1
  Ce  Ce1  1  0.551885  0.991164  0.497364  1
  Ce  Ce2  1  0.448657  0.441410  0.499330  1
  Ce  Ce3  1  0.996307  0.435921  0.993570  1
  Ce  Ce4  1  0.436244  0.992941  0.991422  1
  Ce  Ce5  1  0.591696  0.589952  0.002202  1
  Ce  Ce6  1  0.001775  0.743961  0.180504  1
  Ce  Ce7  1  0.723484  0.974735  0.166744  1
  Ce  Ce8  1  0.281705  0.257508  0.164086  1
  Ce  Ce9  1  0.992528  0.262555  0.678023  1
  Ce  Ce10  1  0.256579  0.995372  0.676838  1
  Ce  Ce11  1  0.741493  0.746073  0.679628  1
  Mn  Mn12  1  0.352636  0.998644  0.342127  1
  Mn  Mn13  1  0.647718  0.646403  0.344784  1
  Mn  Mn14  1  0.998047  0.645220  0.845658  1
  Mn  Mn15  1  0.646817  0.998630  0.839956  1
  Al  Al16  1  0.671355  0.334080  0.273699  1
  Al  Al17  1  0.330404  0.662878  0.273642  1
  Al  Al18  1  0.332976  0.666004  0.768573  1
  Al  Al19  1  0.662799  0.335032  0.768746  1
  Al  Al20  1  0.999964  0.997025  0.418527  1
  Al  Al21  1  0.999028  0.996993  0.922255  1
  Ru  Ru22  1  0.336145  0.337340  0.834432  1
  Au  Au23  1  0.000280  0.329064  0.340163  1
