# generated using pymatgen
data_La7Ir2Pd
_symmetry_space_group_name_H-M   'P 1'
_cell_length_a   6.60066291
_cell_length_b   10.31546191
_cell_length_c   10.30067745
_cell_angle_alpha   120.23467214
_cell_angle_beta   90.37145434
_cell_angle_gamma   90.21527355
_symmetry_Int_Tables_number   1
_chemical_formula_structural   La7Ir2Pd
_chemical_formula_sum   'La14 Ir4 Pd2'
_cell_volume   605.92285862
_cell_formula_units_Z   2
loop_
 _symmetry_equiv_pos_site_id
 _symmetry_equiv_pos_as_xyz
  1  'x, y, z'
loop_
 _atom_site_type_symbol
 _atom_site_label
 _atom_site_symmetry_multiplicity
 _atom_site_fract_x
 _atom_site_fract_y
 _atom_site_fract_z
 _atom_site_occupancy
  La  La0  1  0.472853  0.333700  0.666331  1
  La  La1  1  0.960299  0.670512  0.340069  1
  La  La2  1  0.250789  0.120257  0.864935  1
  La  La3  1  0.250486  0.747225  0.866336  1
  La  La4  1  0.252871  0.130138  0.259073  1
  La  La5  1  0.740339  0.876688  0.124552  1
  La  La6  1  0.738809  0.247773  0.123264  1
  La  La7  1  0.748615  0.874814  0.751093  1
  La  La8  1  0.438100  0.542756  0.467886  1
  La  La9  1  0.438592  0.925221  0.466956  1
  La  La10  1  0.445218  0.533845  0.067625  1
  La  La11  1  0.929263  0.462106  0.540094  1
  La  La12  1  0.932564  0.077843  0.541565  1
  La  La13  1  0.937082  0.459790  0.923743  1
  Ir  Ir14  1  0.196266  0.809998  0.622355  1
  Ir  Ir15  1  0.693770  0.189744  0.814255  1
  Ir  Ir16  1  0.692558  0.624815  0.813231  1
  Ir  Ir17  1  0.693702  0.187339  0.372575  1
  Pd  Pd18  1  0.194186  0.809294  0.186662  1
  Pd  Pd19  1  0.195634  0.376143  0.187400  1
