# generated using pymatgen
data_SrAsRuF
_symmetry_space_group_name_H-M   'P 1'
_cell_length_a   4.17484117
_cell_length_b   4.17484117
_cell_length_c   8.65636300
_cell_angle_alpha   90.00006055
_cell_angle_beta   90.00006055
_cell_angle_gamma   89.96736418
_symmetry_Int_Tables_number   1
_chemical_formula_structural   SrAsRuF
_chemical_formula_sum   'Sr2 As2 Ru2 F2'
_cell_volume   150.87431268
_cell_formula_units_Z   2
loop_
 _symmetry_equiv_pos_site_id
 _symmetry_equiv_pos_as_xyz
  1  'x, y, z'
loop_
 _atom_site_type_symbol
 _atom_site_label
 _atom_site_symmetry_multiplicity
 _atom_site_fract_x
 _atom_site_fract_y
 _atom_site_fract_z
 _atom_site_occupancy
  Sr  Sr0  1  0.250001  0.250001  0.160703  1
  Sr  Sr1  1  0.750000  0.750000  0.839310  1
  As  As2  1  0.750000  0.750000  0.351572  1
  As  As3  1  0.250001  0.250001  0.648405  1
  Ru  Ru4  1  0.750001  0.250001  0.499999  1
  Ru  Ru5  1  0.250001  0.750001  0.499999  1
  F  F6  1  0.750001  0.250001  0.000005  1
  F  F7  1  0.250001  0.750001  0.000005  1
