# generated using pymatgen
data_Lu4FeTc3B8
_symmetry_space_group_name_H-M   'P 1'
_cell_length_a   5.20144700
_cell_length_b   5.84064454
_cell_length_c   6.31844988
_cell_angle_alpha   90.70625817
_cell_angle_beta   90.00000000
_cell_angle_gamma   90.00000000
_symmetry_Int_Tables_number   1
_chemical_formula_structural   Lu4FeTc3B8
_chemical_formula_sum   'Lu4 Fe1 Tc3 B8'
_cell_volume   191.93868002
_cell_formula_units_Z   1
loop_
 _symmetry_equiv_pos_site_id
 _symmetry_equiv_pos_as_xyz
  1  'x, y, z'
loop_
 _atom_site_type_symbol
 _atom_site_label
 _atom_site_symmetry_multiplicity
 _atom_site_fract_x
 _atom_site_fract_y
 _atom_site_fract_z
 _atom_site_occupancy
  Lu  Lu0  1  0.250000  0.512109  0.662017  1
  Lu  Lu1  1  0.750000  0.486903  0.335542  1
  Lu  Lu2  1  0.250000  0.013208  0.838917  1
  Lu  Lu3  1  0.750000  0.985542  0.161764  1
  Fe  Fe4  1  0.250000  0.680001  0.185465  1
  Tc  Tc5  1  0.750000  0.815896  0.683079  1
  Tc  Tc6  1  0.750000  0.319268  0.816215  1
  Tc  Tc7  1  0.250000  0.181115  0.312240  1
  B  B8  1  0.923935  0.130121  0.534366  1
  B  B9  1  0.419854  0.861155  0.459160  1
  B  B10  1  0.576221  0.636188  0.969781  1
  B  B11  1  0.080218  0.375514  0.039073  1
  B  B12  1  0.080146  0.861155  0.459160  1
  B  B13  1  0.923779  0.636188  0.969781  1
  B  B14  1  0.419782  0.375514  0.039073  1
  B  B15  1  0.576065  0.130121  0.534366  1
