# generated using pymatgen
data_Sr4CaAc(Sn4Bi)2
_symmetry_space_group_name_H-M   'P 1'
_cell_length_a   9.04472177
_cell_length_b   9.04472142
_cell_length_c   9.04472221
_cell_angle_alpha   120.24808203
_cell_angle_beta   120.24807829
_cell_angle_gamma   89.57084100
_symmetry_Int_Tables_number   1
_chemical_formula_structural   Sr4CaAc(Sn4Bi)2
_chemical_formula_sum   'Sr4 Ca1 Ac1 Sn8 Bi2'
_cell_volume   521.22581041
_cell_formula_units_Z   1
loop_
 _symmetry_equiv_pos_site_id
 _symmetry_equiv_pos_as_xyz
  1  'x, y, z'
loop_
 _atom_site_type_symbol
 _atom_site_label
 _atom_site_symmetry_multiplicity
 _atom_site_fract_x
 _atom_site_fract_y
 _atom_site_fract_z
 _atom_site_occupancy
  Sr  Sr0  1  0.161377  0.661377  0.822756  1
  Sr  Sr1  1  0.838623  0.338623  0.177244  1
  Sr  Sr2  1  0.661377  0.838623  0.500000  1
  Sr  Sr3  1  0.338623  0.161377  0.500000  1
  Ca  Ca4  1  0.250000  0.250000  0.000000  1
  Ac  Ac5  1  0.750000  0.750000  0.000000  1
  Sn  Sn6  1  0.833734  0.329785  0.786801  1
  Sn  Sn7  1  0.170215  0.666266  0.213199  1
  Sn  Sn8  1  0.542985  0.046934  0.213199  1
  Sn  Sn9  1  0.329785  0.542985  0.496052  1
  Sn  Sn10  1  0.957015  0.170215  0.503948  1
  Sn  Sn11  1  0.453066  0.957015  0.786801  1
  Sn  Sn12  1  0.666266  0.453066  0.496052  1
  Sn  Sn13  1  0.046934  0.833734  0.503948  1
  Bi  Bi14  1  0.007247  0.007247  0.000000  1
  Bi  Bi15  1  0.492753  0.492753  0.000000  1
