# generated using pymatgen
data_Sc2HgRh4Pb
_symmetry_space_group_name_H-M   'P 1'
_cell_length_a   6.18407753
_cell_length_b   6.18440213
_cell_length_c   7.19532300
_cell_angle_alpha   90.00007672
_cell_angle_beta   90.00032729
_cell_angle_gamma   90.11885830
_symmetry_Int_Tables_number   1
_chemical_formula_structural   Sc2HgRh4Pb
_chemical_formula_sum   'Sc4 Hg2 Rh8 Pb2'
_cell_volume   275.18325700
_cell_formula_units_Z   2
loop_
 _symmetry_equiv_pos_site_id
 _symmetry_equiv_pos_as_xyz
  1  'x, y, z'
loop_
 _atom_site_type_symbol
 _atom_site_label
 _atom_site_symmetry_multiplicity
 _atom_site_fract_x
 _atom_site_fract_y
 _atom_site_fract_z
 _atom_site_occupancy
  Sc  Sc0  1  0.250020  0.249992  0.999993  1
  Sc  Sc1  1  0.749980  0.750008  0.000007  1
  Sc  Sc2  1  0.250132  0.250003  0.500001  1
  Sc  Sc3  1  0.749868  0.749997  0.499998  1
  Hg  Hg4  1  0.749949  0.250007  0.000007  1
  Hg  Hg5  1  0.250050  0.749993  0.999993  1
  Rh  Rh6  1  0.999998  0.499999  0.254538  1
  Rh  Rh7  1  0.000001  0.999990  0.254621  1
  Rh  Rh8  1  0.500007  0.500006  0.254755  1
  Rh  Rh9  1  0.500010  0.999998  0.254678  1
  Rh  Rh10  1  0.499993  0.499994  0.745244  1
  Rh  Rh11  1  0.499990  0.000002  0.745321  1
  Rh  Rh12  1  0.000002  0.500001  0.745462  1
  Rh  Rh13  1  0.999999  0.000010  0.745379  1
  Pb  Pb14  1  0.750251  0.249999  0.499991  1
  Pb  Pb15  1  0.249749  0.750001  0.500010  1
