# generated using pymatgen
data_Nd2Sn5Pd3
_symmetry_space_group_name_H-M   'P 1'
_cell_length_a   4.46019372
_cell_length_b   7.59039300
_cell_length_c   13.92041700
_cell_angle_alpha   90.00000000
_cell_angle_beta   80.78130011
_cell_angle_gamma   90.00000000
_symmetry_Int_Tables_number   1
_chemical_formula_structural   Nd2Sn5Pd3
_chemical_formula_sum   'Nd4 Sn10 Pd6'
_cell_volume   465.18355779
_cell_formula_units_Z   2
loop_
 _symmetry_equiv_pos_site_id
 _symmetry_equiv_pos_as_xyz
  1  'x, y, z'
loop_
 _atom_site_type_symbol
 _atom_site_label
 _atom_site_symmetry_multiplicity
 _atom_site_fract_x
 _atom_site_fract_y
 _atom_site_fract_z
 _atom_site_occupancy
  Nd  Nd0  1  0.474988  0.231789  0.049538  1
  Nd  Nd1  1  0.828439  0.755402  0.348889  1
  Nd  Nd2  1  0.171560  0.255402  0.651112  1
  Nd  Nd3  1  0.525011  0.731789  0.950462  1
  Sn  Sn4  1  0.951026  0.896719  0.098594  1
  Sn  Sn5  1  0.404476  0.613035  0.190928  1
  Sn  Sn6  1  0.877334  0.231987  0.240039  1
  Sn  Sn7  1  0.297736  0.054839  0.409328  1
  Sn  Sn8  1  0.292977  0.477377  0.422779  1
  Sn  Sn9  1  0.707022  0.977377  0.577221  1
  Sn  Sn10  1  0.702263  0.554839  0.590672  1
  Sn  Sn11  1  0.122665  0.731987  0.759961  1
  Sn  Sn12  1  0.595523  0.113035  0.809072  1
  Sn  Sn13  1  0.048973  0.396720  0.901406  1
  Pd  Pd14  1  0.949872  0.511116  0.098017  1
  Pd  Pd15  1  0.392304  0.978983  0.215466  1
  Pd  Pd16  1  0.782980  0.269465  0.442624  1
  Pd  Pd17  1  0.217019  0.769465  0.557376  1
  Pd  Pd18  1  0.607696  0.478982  0.784533  1
  Pd  Pd19  1  0.050127  0.011116  0.901984  1
