# generated using pymatgen
data_Er3Co8NiP6
_symmetry_space_group_name_H-M   'P 1'
_cell_length_a   3.69590900
_cell_length_b   10.46592500
_cell_length_c   12.17857500
_cell_angle_alpha   90.00000000
_cell_angle_beta   90.00000000
_cell_angle_gamma   90.00000000
_symmetry_Int_Tables_number   1
_chemical_formula_structural   Er3Co8NiP6
_chemical_formula_sum   'Er6 Co16 Ni2 P12'
_cell_volume   471.08075539
_cell_formula_units_Z   2
loop_
 _symmetry_equiv_pos_site_id
 _symmetry_equiv_pos_as_xyz
  1  'x, y, z'
loop_
 _atom_site_type_symbol
 _atom_site_label
 _atom_site_symmetry_multiplicity
 _atom_site_fract_x
 _atom_site_fract_y
 _atom_site_fract_z
 _atom_site_occupancy
  Er  Er0  1  0.750000  0.250000  0.480194  1
  Er  Er1  1  0.250000  0.750000  0.519806  1
  Er  Er2  1  0.250000  0.934847  0.794513  1
  Er  Er3  1  0.250000  0.565153  0.794513  1
  Er  Er4  1  0.750000  0.065153  0.205487  1
  Er  Er5  1  0.750000  0.434847  0.205487  1
  Co  Co6  1  0.250000  0.250000  0.839982  1
  Co  Co7  1  0.750000  0.750000  0.160018  1
  Co  Co8  1  0.750000  0.250000  0.014134  1
  Co  Co9  1  0.250000  0.750000  0.985866  1
  Co  Co10  1  0.250000  0.416790  0.005433  1
  Co  Co11  1  0.250000  0.083210  0.005433  1
  Co  Co12  1  0.750000  0.583210  0.994567  1
  Co  Co13  1  0.750000  0.916790  0.994567  1
  Co  Co14  1  0.250000  0.451546  0.569237  1
  Co  Co15  1  0.250000  0.048454  0.569237  1
  Co  Co16  1  0.750000  0.548454  0.430763  1
  Co  Co17  1  0.750000  0.951546  0.430763  1
  Co  Co18  1  0.250000  0.871343  0.289846  1
  Co  Co19  1  0.250000  0.628657  0.289846  1
  Co  Co20  1  0.750000  0.128657  0.710154  1
  Co  Co21  1  0.750000  0.371343  0.710154  1
  Ni  Ni22  1  0.250000  0.250000  0.296785  1
  Ni  Ni23  1  0.750000  0.750000  0.703215  1
  P  P24  1  0.250000  0.250000  0.117310  1
  P  P25  1  0.750000  0.750000  0.882690  1
  P  P26  1  0.250000  0.250000  0.655577  1
  P  P27  1  0.750000  0.750000  0.344423  1
  P  P28  1  0.250000  0.439317  0.384336  1
  P  P29  1  0.250000  0.060683  0.384336  1
  P  P30  1  0.750000  0.560683  0.615664  1
  P  P31  1  0.750000  0.939317  0.615664  1
  P  P32  1  0.250000  0.902732  0.106893  1
  P  P33  1  0.250000  0.597268  0.106893  1
  P  P34  1  0.750000  0.097268  0.893107  1
  P  P35  1  0.750000  0.402732  0.893107  1
