# generated using pymatgen
data_Dy2Si7(PdPt3)3
_symmetry_space_group_name_H-M   'P 1'
_cell_length_a   9.92553700
_cell_length_b   9.92553709
_cell_length_c   3.90820400
_cell_angle_alpha   90.00000000
_cell_angle_beta   90.00000000
_cell_angle_gamma   120.00000304
_symmetry_Int_Tables_number   1
_chemical_formula_structural   Dy2Si7(PdPt3)3
_chemical_formula_sum   'Dy2 Si7 Pd3 Pt9'
_cell_volume   333.43859889
_cell_formula_units_Z   1
loop_
 _symmetry_equiv_pos_site_id
 _symmetry_equiv_pos_as_xyz
  1  'x, y, z'
loop_
 _atom_site_type_symbol
 _atom_site_label
 _atom_site_symmetry_multiplicity
 _atom_site_fract_x
 _atom_site_fract_y
 _atom_site_fract_z
 _atom_site_occupancy
  Dy  Dy0  1  0.333333  0.666667  0.739962  1
  Dy  Dy1  1  0.666667  0.333333  0.238561  1
  Si  Si2  1  0.000000  0.000000  0.715196  1
  Si  Si3  1  0.410024  0.294110  0.738832  1
  Si  Si4  1  0.705890  0.115917  0.738832  1
  Si  Si5  1  0.884083  0.589976  0.738832  1
  Si  Si6  1  0.596619  0.712077  0.239410  1
  Si  Si7  1  0.287923  0.884541  0.239410  1
  Si  Si8  1  0.115459  0.403381  0.239410  1
  Pd  Pd9  1  0.867932  0.768662  0.239207  1
  Pd  Pd10  1  0.231338  0.099269  0.239207  1
  Pd  Pd11  1  0.900731  0.132068  0.239207  1
  Pt  Pt12  1  0.445932  0.075797  0.738908  1
  Pt  Pt13  1  0.924203  0.370136  0.738908  1
  Pt  Pt14  1  0.629864  0.554068  0.738908  1
  Pt  Pt15  1  0.550054  0.935576  0.239011  1
  Pt  Pt16  1  0.064424  0.614478  0.239011  1
  Pt  Pt17  1  0.385522  0.449946  0.239011  1
  Pt  Pt18  1  0.156469  0.274170  0.740060  1
  Pt  Pt19  1  0.725830  0.882300  0.740060  1
  Pt  Pt20  1  0.117700  0.843531  0.740060  1
