# generated using pymatgen
data_Sc6NiCl10
_symmetry_space_group_name_H-M   'P 1'
_cell_length_a   6.58093368
_cell_length_b   8.26725396
_cell_length_c   8.31352117
_cell_angle_alpha   107.92694522
_cell_angle_beta   96.84109860
_cell_angle_gamma   105.09827936
_symmetry_Int_Tables_number   1
_chemical_formula_structural   Sc6NiCl10
_chemical_formula_sum   'Sc6 Ni1 Cl10'
_cell_volume   405.59655314
_cell_formula_units_Z   1
loop_
 _symmetry_equiv_pos_site_id
 _symmetry_equiv_pos_as_xyz
  1  'x, y, z'
loop_
 _atom_site_type_symbol
 _atom_site_label
 _atom_site_symmetry_multiplicity
 _atom_site_fract_x
 _atom_site_fract_y
 _atom_site_fract_z
 _atom_site_occupancy
  Sc  Sc0  1  0.874150  0.954523  0.250945  1
  Sc  Sc1  1  0.125850  0.045477  0.749055  1
  Sc  Sc2  1  0.028057  0.696771  0.904829  1
  Sc  Sc3  1  0.971943  0.303229  0.095171  1
  Sc  Sc4  1  0.634719  0.862568  0.819068  1
  Sc  Sc5  1  0.365281  0.137432  0.180932  1
  Ni  Ni6  1  0.000000  0.000000  0.000000  1
  Cl  Cl7  1  0.649299  0.550253  0.729726  1
  Cl  Cl8  1  0.350701  0.449747  0.270274  1
  Cl  Cl9  1  0.748620  0.915438  0.543970  1
  Cl  Cl10  1  0.251380  0.084562  0.456030  1
  Cl  Cl11  1  0.914437  0.631916  0.172150  1
  Cl  Cl12  1  0.085563  0.368084  0.827850  1
  Cl  Cl13  1  0.545567  0.175506  0.913981  1
  Cl  Cl14  1  0.454433  0.824494  0.086019  1
  Cl  Cl15  1  0.211408  0.742539  0.653894  1
  Cl  Cl16  1  0.788592  0.257461  0.346106  1
