# generated using pymatgen
data_Ho4ZnRu6W
_symmetry_space_group_name_H-M   'P 1'
_cell_length_a   5.50744444
_cell_length_b   5.22386199
_cell_length_c   8.91646200
_cell_angle_alpha   90.00000000
_cell_angle_beta   90.00000000
_cell_angle_gamma   121.90114834
_symmetry_Int_Tables_number   1
_chemical_formula_structural   Ho4ZnRu6W
_chemical_formula_sum   'Ho4 Zn1 Ru6 W1'
_cell_volume   217.78209545
_cell_formula_units_Z   1
loop_
 _symmetry_equiv_pos_site_id
 _symmetry_equiv_pos_as_xyz
  1  'x, y, z'
loop_
 _atom_site_type_symbol
 _atom_site_label
 _atom_site_symmetry_multiplicity
 _atom_site_fract_x
 _atom_site_fract_y
 _atom_site_fract_z
 _atom_site_occupancy
  Ho  Ho0  1  0.674887  0.349707  0.563861  1
  Ho  Ho1  1  0.332724  0.665205  0.433443  1
  Ho  Ho2  1  0.332724  0.665205  0.066557  1
  Ho  Ho3  1  0.674887  0.349707  0.936139  1
  Zn  Zn4  1  0.832892  0.665171  0.250000  1
  Ru  Ru5  1  0.012135  0.025401  0.497971  1
  Ru  Ru6  1  0.012135  0.025401  0.002029  1
  Ru  Ru7  1  0.174617  0.815704  0.750000  1
  Ru  Ru8  1  0.641153  0.815313  0.750000  1
  Ru  Ru9  1  0.814463  0.158159  0.250000  1
  Ru  Ru10  1  0.344030  0.158805  0.250000  1
  W  W11  1  0.153355  0.306220  0.750000  1
