# generated using pymatgen
data_Ac3BSbRh6
_symmetry_space_group_name_H-M   'P 1'
_cell_length_a   5.99881800
_cell_length_b   5.99881682
_cell_length_c   13.96820100
_cell_angle_alpha   90.00000000
_cell_angle_beta   90.00000000
_cell_angle_gamma   119.99999546
_symmetry_Int_Tables_number   1
_chemical_formula_structural   Ac3BSbRh6
_chemical_formula_sum   'Ac6 B2 Sb2 Rh12'
_cell_volume   435.31377904
_cell_formula_units_Z   2
loop_
 _symmetry_equiv_pos_site_id
 _symmetry_equiv_pos_as_xyz
  1  'x, y, z'
loop_
 _atom_site_type_symbol
 _atom_site_label
 _atom_site_symmetry_multiplicity
 _atom_site_fract_x
 _atom_site_fract_y
 _atom_site_fract_z
 _atom_site_occupancy
  Ac  Ac0  1  0.000000  0.000000  0.750000  1
  Ac  Ac1  1  0.000000  0.000000  0.250000  1
  Ac  Ac2  1  0.333333  0.666667  0.400964  1
  Ac  Ac3  1  0.666667  0.333333  0.900964  1
  Ac  Ac4  1  0.666667  0.333333  0.599036  1
  Ac  Ac5  1  0.333333  0.666667  0.099036  1
  B  B6  1  0.000000  0.000000  0.500000  1
  B  B7  1  0.000000  0.000000  0.000000  1
  Sb  Sb8  1  0.333333  0.666667  0.750000  1
  Sb  Sb9  1  0.666667  0.333333  0.250000  1
  Rh  Rh10  1  0.343303  0.171652  0.415342  1
  Rh  Rh11  1  0.828348  0.171652  0.415342  1
  Rh  Rh12  1  0.828348  0.656697  0.415342  1
  Rh  Rh13  1  0.171652  0.343303  0.915342  1
  Rh  Rh14  1  0.656697  0.828348  0.584658  1
  Rh  Rh15  1  0.656697  0.828348  0.915342  1
  Rh  Rh16  1  0.343303  0.171652  0.084658  1
  Rh  Rh17  1  0.171652  0.343303  0.584658  1
  Rh  Rh18  1  0.171652  0.828348  0.584658  1
  Rh  Rh19  1  0.828348  0.171652  0.084658  1
  Rh  Rh20  1  0.828348  0.656697  0.084658  1
  Rh  Rh21  1  0.171652  0.828348  0.915342  1
