# generated using pymatgen
data_HfFe4P3Ru
_symmetry_space_group_name_H-M   'P 1'
_cell_length_a   3.65974800
_cell_length_b   10.15965900
_cell_length_c   11.67517800
_cell_angle_alpha   90.00000000
_cell_angle_beta   90.00000000
_cell_angle_gamma   90.00000000
_symmetry_Int_Tables_number   1
_chemical_formula_structural   HfFe4P3Ru
_chemical_formula_sum   'Hf4 Fe16 P12 Ru4'
_cell_volume   434.10403653
_cell_formula_units_Z   4
loop_
 _symmetry_equiv_pos_site_id
 _symmetry_equiv_pos_as_xyz
  1  'x, y, z'
loop_
 _atom_site_type_symbol
 _atom_site_label
 _atom_site_symmetry_multiplicity
 _atom_site_fract_x
 _atom_site_fract_y
 _atom_site_fract_z
 _atom_site_occupancy
  Hf  Hf0  1  0.250000  0.579018  0.703446  1
  Hf  Hf1  1  0.250000  0.920982  0.203446  1
  Hf  Hf2  1  0.750000  0.420982  0.296554  1
  Hf  Hf3  1  0.750000  0.079018  0.796554  1
  Fe  Fe4  1  0.250000  0.406919  0.484825  1
  Fe  Fe5  1  0.250000  0.093081  0.984825  1
  Fe  Fe6  1  0.750000  0.593081  0.515175  1
  Fe  Fe7  1  0.750000  0.906919  0.015175  1
  Fe  Fe8  1  0.250000  0.225209  0.174825  1
  Fe  Fe9  1  0.250000  0.274791  0.674825  1
  Fe  Fe10  1  0.750000  0.774791  0.825175  1
  Fe  Fe11  1  0.750000  0.725209  0.325175  1
  Fe  Fe12  1  0.250000  0.882131  0.704107  1
  Fe  Fe13  1  0.250000  0.617869  0.204107  1
  Fe  Fe14  1  0.750000  0.117869  0.295893  1
  Fe  Fe15  1  0.750000  0.382131  0.795893  1
  Fe  Fe16  1  0.250000  0.462837  0.932054  1
  Fe  Fe17  1  0.250000  0.037163  0.432054  1
  Fe  Fe18  1  0.750000  0.537163  0.067946  1
  Fe  Fe19  1  0.750000  0.962837  0.567946  1
  P  P20  1  0.250000  0.424849  0.117536  1
  P  P21  1  0.250000  0.075151  0.617536  1
  P  P22  1  0.750000  0.575151  0.882464  1
  P  P23  1  0.750000  0.924849  0.382464  1
  P  P24  1  0.250000  0.263883  0.862578  1
  P  P25  1  0.250000  0.236117  0.362578  1
  P  P26  1  0.750000  0.736117  0.137422  1
  P  P27  1  0.750000  0.763883  0.637422  1
  P  P28  1  0.250000  0.595798  0.390535  1
  P  P29  1  0.250000  0.904202  0.890535  1
  P  P30  1  0.750000  0.404202  0.609465  1
  P  P31  1  0.750000  0.095798  0.109465  1
  Ru  Ru32  1  0.250000  0.709784  0.990531  1
  Ru  Ru33  1  0.250000  0.790216  0.490531  1
  Ru  Ru34  1  0.750000  0.290216  0.009469  1
  Ru  Ru35  1  0.750000  0.209784  0.509469  1
