# generated using pymatgen
data_Tb7DyHf11Si16W
_symmetry_space_group_name_H-M   'P 1'
_cell_length_a   7.26176343
_cell_length_b   7.26134822
_cell_length_c   13.32989604
_cell_angle_alpha   89.94672016
_cell_angle_beta   90.06115450
_cell_angle_gamma   90.07906074
_symmetry_Int_Tables_number   1
_chemical_formula_structural   Tb7DyHf11Si16W
_chemical_formula_sum   'Tb7 Dy1 Hf11 Si16 W1'
_cell_volume   702.88661707
_cell_formula_units_Z   1
loop_
 _symmetry_equiv_pos_site_id
 _symmetry_equiv_pos_as_xyz
  1  'x, y, z'
loop_
 _atom_site_type_symbol
 _atom_site_label
 _atom_site_symmetry_multiplicity
 _atom_site_fract_x
 _atom_site_fract_y
 _atom_site_fract_z
 _atom_site_occupancy
  Tb  Tb0  1  0.004324  0.656766  0.716677  1
  Tb  Tb1  1  0.156685  0.495295  0.465377  1
  Tb  Tb2  1  0.501788  0.845253  0.034268  1
  Tb  Tb3  1  0.845240  0.501766  0.965877  1
  Tb  Tb4  1  0.495310  0.156766  0.534471  1
  Tb  Tb5  1  0.343143  0.998384  0.787413  1
  Tb  Tb6  1  0.656753  0.004355  0.283293  1
  Dy  Dy7  1  0.998606  0.343249  0.212531  1
  Hf  Hf8  1  0.825670  0.825607  0.499965  1
  Hf  Hf9  1  0.324343  0.674344  0.248820  1
  Hf  Hf10  1  0.674428  0.324440  0.751169  1
  Hf  Hf11  1  0.148371  0.997059  0.373451  1
  Hf  Hf12  1  0.853043  0.005006  0.877552  1
  Hf  Hf13  1  0.504116  0.648693  0.624659  1
  Hf  Hf14  1  0.348883  0.493197  0.877377  1
  Hf  Hf15  1  0.493214  0.348912  0.122684  1
  Hf  Hf16  1  0.648756  0.504037  0.375281  1
  Hf  Hf17  1  0.997073  0.148423  0.626476  1
  Hf  Hf18  1  0.004992  0.853119  0.122502  1
  Si  Si19  1  0.362540  0.295375  0.316025  1
  Si  Si20  1  0.636481  0.704874  0.817530  1
  Si  Si21  1  0.204865  0.862918  0.567024  1
  Si  Si22  1  0.137853  0.797652  0.933246  1
  Si  Si23  1  0.797833  0.138081  0.066943  1
  Si  Si24  1  0.862900  0.204930  0.432862  1
  Si  Si25  1  0.295266  0.362770  0.683905  1
  Si  Si26  1  0.704957  0.636323  0.182491  1
  Si  Si27  1  0.293909  0.051228  0.182378  1
  Si  Si28  1  0.704270  0.951775  0.686082  1
  Si  Si29  1  0.450676  0.795600  0.434973  1
  Si  Si30  1  0.203638  0.545853  0.064225  1
  Si  Si31  1  0.546055  0.203798  0.935943  1
  Si  Si32  1  0.795608  0.450663  0.564945  1
  Si  Si33  1  0.051140  0.294016  0.817653  1
  Si  Si34  1  0.951878  0.704023  0.313837  1
  W  W35  1  0.175393  0.175452  0.000093  1
