# generated using pymatgen
data_Ca5La5Ir4
_symmetry_space_group_name_H-M   'P 1'
_cell_length_a   8.82326411
_cell_length_b   8.96130466
_cell_length_c   7.51707148
_cell_angle_alpha   83.43912111
_cell_angle_beta   82.96847742
_cell_angle_gamma   44.67444393
_symmetry_Int_Tables_number   1
_chemical_formula_structural   Ca5La5Ir4
_chemical_formula_sum   'Ca5 La5 Ir4'
_cell_volume   414.42255030
_cell_formula_units_Z   1
loop_
 _symmetry_equiv_pos_site_id
 _symmetry_equiv_pos_as_xyz
  1  'x, y, z'
loop_
 _atom_site_type_symbol
 _atom_site_label
 _atom_site_symmetry_multiplicity
 _atom_site_fract_x
 _atom_site_fract_y
 _atom_site_fract_z
 _atom_site_occupancy
  Ca  Ca0  1  0.010121  0.807895  0.912532  1
  Ca  Ca1  1  0.195637  0.988308  0.588277  1
  Ca  Ca2  1  0.990318  0.190958  0.085293  1
  Ca  Ca3  1  0.804804  0.011725  0.414163  1
  Ca  Ca4  1  0.353689  0.208222  0.816934  1
  La  La5  1  0.788915  0.647596  0.678914  1
  La  La6  1  0.640777  0.794850  0.178305  1
  La  La7  1  0.213989  0.352387  0.318112  1
  La  La8  1  0.563971  0.428150  0.752081  1
  La  La9  1  0.433487  0.565416  0.252505  1
  Ir  Ir10  1  0.181015  0.590811  0.568148  1
  Ir  Ir11  1  0.420153  0.800782  0.928230  1
  Ir  Ir12  1  0.813656  0.422383  0.426655  1
  Ir  Ir13  1  0.589468  0.190516  0.079850  1
