# generated using pymatgen
data_TmZrMn4Ni8P7
_symmetry_space_group_name_H-M   'P 1'
_cell_length_a   9.09501321
_cell_length_b   9.05439560
_cell_length_c   3.61137300
_cell_angle_alpha   90.00000000
_cell_angle_beta   90.00000000
_cell_angle_gamma   120.02525352
_symmetry_Int_Tables_number   1
_chemical_formula_structural   TmZrMn4Ni8P7
_chemical_formula_sum   'Tm1 Zr1 Mn4 Ni8 P7'
_cell_volume   257.48694032
_cell_formula_units_Z   1
loop_
 _symmetry_equiv_pos_site_id
 _symmetry_equiv_pos_as_xyz
  1  'x, y, z'
loop_
 _atom_site_type_symbol
 _atom_site_label
 _atom_site_symmetry_multiplicity
 _atom_site_fract_x
 _atom_site_fract_y
 _atom_site_fract_z
 _atom_site_occupancy
  Tm  Tm0  1  0.665461  0.332023  0.500000  1
  Zr  Zr1  1  0.000351  0.998755  0.000000  1
  Mn  Mn2  1  0.175487  0.788778  0.000000  1
  Mn  Mn3  1  0.456864  0.570501  0.500000  1
  Mn  Mn4  1  0.431659  0.889293  0.500000  1
  Mn  Mn5  1  0.109086  0.539772  0.500000  1
  Ni  Ni6  1  0.710605  0.607317  0.000000  1
  Ni  Ni7  1  0.397127  0.105276  0.000000  1
  Ni  Ni8  1  0.897875  0.292466  0.000000  1
  Ni  Ni9  1  0.210370  0.386943  0.000000  1
  Ni  Ni10  1  0.613645  0.822579  0.000000  1
  Ni  Ni11  1  0.277540  0.226230  0.500000  1
  Ni  Ni12  1  0.772980  0.052703  0.500000  1
  Ni  Ni13  1  0.947304  0.719502  0.500000  1
  P  P14  1  0.450071  0.375135  0.000000  1
  P  P15  1  0.625577  0.074363  0.000000  1
  P  P16  1  0.925812  0.552256  0.000000  1
  P  P17  1  0.042254  0.254969  0.500000  1
  P  P18  1  0.743752  0.787073  0.500000  1
  P  P19  1  0.214071  0.954567  0.500000  1
  P  P20  1  0.332108  0.669501  0.000000  1
