# generated using pymatgen
data_Zr4ZnGeH2
_symmetry_space_group_name_H-M   'P 1'
_cell_length_a   5.52130186
_cell_length_b   5.52129854
_cell_length_c   5.52130032
_cell_angle_alpha   104.62990948
_cell_angle_beta   104.62999629
_cell_angle_gamma   119.65987083
_symmetry_Int_Tables_number   1
_chemical_formula_structural   Zr4ZnGeH2
_chemical_formula_sum   'Zr4 Zn1 Ge1 H2'
_cell_volume   126.44937543
_cell_formula_units_Z   1
loop_
 _symmetry_equiv_pos_site_id
 _symmetry_equiv_pos_as_xyz
  1  'x, y, z'
loop_
 _atom_site_type_symbol
 _atom_site_label
 _atom_site_symmetry_multiplicity
 _atom_site_fract_x
 _atom_site_fract_y
 _atom_site_fract_z
 _atom_site_occupancy
  Zr  Zr0  1  0.161859  0.661859  0.823718  1
  Zr  Zr1  1  0.838141  0.338141  0.176282  1
  Zr  Zr2  1  0.338141  0.161859  0.500000  1
  Zr  Zr3  1  0.661858  0.838141  0.500000  1
  Zn  Zn4  1  0.250000  0.250000  0.000000  1
  Ge  Ge5  1  0.750000  0.750000  0.000000  1
  H  H6  1  0.750000  0.250000  0.500000  1
  H  H7  1  0.250000  0.750000  0.500000  1
