# generated using pymatgen
data_ErTm2Cd3Ga2Ag
_symmetry_space_group_name_H-M   'P 1'
_cell_length_a   7.30956600
_cell_length_b   7.30934449
_cell_length_c   4.31298900
_cell_angle_alpha   90.00000000
_cell_angle_beta   90.00000000
_cell_angle_gamma   119.99901256
_symmetry_Int_Tables_number   1
_chemical_formula_structural   ErTm2Cd3Ga2Ag
_chemical_formula_sum   'Er1 Tm2 Cd3 Ga2 Ag1'
_cell_volume   199.56451729
_cell_formula_units_Z   1
loop_
 _symmetry_equiv_pos_site_id
 _symmetry_equiv_pos_as_xyz
  1  'x, y, z'
loop_
 _atom_site_type_symbol
 _atom_site_label
 _atom_site_symmetry_multiplicity
 _atom_site_fract_x
 _atom_site_fract_y
 _atom_site_fract_z
 _atom_site_occupancy
  Er  Er0  1  0.000000  0.578082  0.500000  1
  Tm  Tm1  1  0.421875  0.421825  0.500000  1
  Tm  Tm2  1  0.578125  0.999950  0.500000  1
  Cd  Cd3  1  0.748088  0.748122  0.000000  1
  Cd  Cd4  1  0.251912  0.000034  0.000000  1
  Cd  Cd5  1  0.000000  0.251727  0.000000  1
  Ga  Ga6  1  0.666411  0.333177  0.000000  1
  Ga  Ga7  1  0.333589  0.666766  0.000000  1
  Ag  Ag8  1  0.000000  0.000317  0.500000  1
