# generated using pymatgen
data_Y2Tm2ReOs7
_symmetry_space_group_name_H-M   'P 1'
_cell_length_a   5.41501330
_cell_length_b   5.28022233
_cell_length_c   8.83304472
_cell_angle_alpha   90.03427469
_cell_angle_beta   90.00869008
_cell_angle_gamma   120.67011544
_symmetry_Int_Tables_number   1
_chemical_formula_structural   Y2Tm2ReOs7
_chemical_formula_sum   'Y2 Tm2 Re1 Os7'
_cell_volume   217.23024343
_cell_formula_units_Z   1
loop_
 _symmetry_equiv_pos_site_id
 _symmetry_equiv_pos_as_xyz
  1  'x, y, z'
loop_
 _atom_site_type_symbol
 _atom_site_label
 _atom_site_symmetry_multiplicity
 _atom_site_fract_x
 _atom_site_fract_y
 _atom_site_fract_z
 _atom_site_occupancy
  Y  Y0  1  0.670535  0.340253  0.565033  1
  Y  Y1  1  0.334326  0.668941  0.433724  1
  Tm  Tm2  1  0.334354  0.669108  0.064877  1
  Tm  Tm3  1  0.670999  0.341234  0.936053  1
  Re  Re4  1  0.165026  0.328894  0.751659  1
  Os  Os5  1  0.005774  0.012897  0.498915  1
  Os  Os6  1  0.006020  0.013536  0.001305  1
  Os  Os7  1  0.172730  0.823043  0.752374  1
  Os  Os8  1  0.648013  0.821784  0.752396  1
  Os  Os9  1  0.822789  0.645642  0.247804  1
  Os  Os10  1  0.829042  0.166676  0.247950  1
  Os  Os11  1  0.340392  0.167991  0.247910  1
