# generated using pymatgen
data_LiNb2P2Rh
_symmetry_space_group_name_H-M   'P 1'
_cell_length_a   3.59788200
_cell_length_b   6.23157300
_cell_length_c   7.49603800
_cell_angle_alpha   90.00000000
_cell_angle_beta   90.00000000
_cell_angle_gamma   90.00000000
_symmetry_Int_Tables_number   1
_chemical_formula_structural   LiNb2P2Rh
_chemical_formula_sum   'Li2 Nb4 P4 Rh2'
_cell_volume   168.06465258
_cell_formula_units_Z   2
loop_
 _symmetry_equiv_pos_site_id
 _symmetry_equiv_pos_as_xyz
  1  'x, y, z'
loop_
 _atom_site_type_symbol
 _atom_site_label
 _atom_site_symmetry_multiplicity
 _atom_site_fract_x
 _atom_site_fract_y
 _atom_site_fract_z
 _atom_site_occupancy
  Li  Li0  1  0.250000  0.137365  0.439033  1
  Li  Li1  1  0.250000  0.637365  0.060967  1
  Nb  Nb2  1  0.250000  0.030076  0.832107  1
  Nb  Nb3  1  0.250000  0.530076  0.667893  1
  Nb  Nb4  1  0.750000  0.970927  0.165911  1
  Nb  Nb5  1  0.750000  0.470927  0.334089  1
  P  P6  1  0.250000  0.762231  0.361386  1
  P  P7  1  0.250000  0.262231  0.138614  1
  P  P8  1  0.750000  0.236706  0.628056  1
  P  P9  1  0.750000  0.736706  0.871944  1
  Rh  Rh10  1  0.750000  0.862695  0.555646  1
  Rh  Rh11  1  0.750000  0.362695  0.944354  1
