# generated using pymatgen
data_Ho3TmGa20Pt11
_symmetry_space_group_name_H-M   'P 1'
_cell_length_a   4.19864263
_cell_length_b   10.88740593
_cell_length_c   13.80377700
_cell_angle_alpha   82.04797485
_cell_angle_beta   81.17400888
_cell_angle_gamma   78.75392929
_symmetry_Int_Tables_number   1
_chemical_formula_structural   Ho3TmGa20Pt11
_chemical_formula_sum   'Ho3 Tm1 Ga20 Pt11'
_cell_volume   607.71965215
_cell_formula_units_Z   1
loop_
 _symmetry_equiv_pos_site_id
 _symmetry_equiv_pos_as_xyz
  1  'x, y, z'
loop_
 _atom_site_type_symbol
 _atom_site_label
 _atom_site_symmetry_multiplicity
 _atom_site_fract_x
 _atom_site_fract_y
 _atom_site_fract_z
 _atom_site_occupancy
  Ho  Ho0  1  0.123730  0.087109  0.665369  1
  Ho  Ho1  1  0.876320  0.912941  0.334566  1
  Ho  Ho2  1  0.774004  0.629124  0.822954  1
  Tm  Tm3  1  0.225984  0.371036  0.176826  1
  Ga  Ga4  1  0.010049  0.068840  0.910950  1
  Ga  Ga5  1  0.989869  0.931380  0.089073  1
  Ga  Ga6  1  0.064621  0.676423  0.194446  1
  Ga  Ga7  1  0.935449  0.323454  0.805488  1
  Ga  Ga8  1  0.102553  0.341650  0.454112  1
  Ga  Ga9  1  0.897465  0.658300  0.545849  1
  Ga  Ga10  1  0.199916  0.604743  0.992931  1
  Ga  Ga11  1  0.799931  0.395036  0.007378  1
  Ga  Ga12  1  0.258315  0.780799  0.700491  1
  Ga  Ga13  1  0.741407  0.219741  0.299301  1
  Ga  Ga14  1  0.303035  0.900345  0.494880  1
  Ga  Ga15  1  0.696939  0.099758  0.505036  1
  Ga  Ga16  1  0.385313  0.525619  0.700374  1
  Ga  Ga17  1  0.615166  0.473820  0.299305  1
  Ga  Ga18  1  0.397037  0.204443  0.000966  1
  Ga  Ga19  1  0.602927  0.795426  0.999354  1
  Ga  Ga20  1  0.544609  0.281998  0.629518  1
  Ga  Ga21  1  0.455511  0.717909  0.370427  1
  Ga  Ga22  1  0.638982  0.931956  0.792197  1
  Ga  Ga23  1  0.360902  0.068330  0.207812  1
  Pt  Pt24  1  0.500103  0.499937  0.499851  1
  Pt  Pt25  1  0.029075  0.576635  0.370005  1
  Pt  Pt26  1  0.971091  0.423257  0.629850  1
  Pt  Pt27  1  0.142478  0.831382  0.887311  1
  Pt  Pt28  1  0.856962  0.169512  0.113061  1
  Pt  Pt29  1  0.241298  0.127126  0.391458  1
  Pt  Pt30  1  0.758631  0.872956  0.608472  1
  Pt  Pt31  1  0.345553  0.420360  0.890222  1
  Pt  Pt32  1  0.654759  0.578673  0.110147  1
  Pt  Pt33  1  0.506987  0.167297  0.817347  1
  Pt  Pt34  1  0.493029  0.832686  0.182674  1
