# generated using pymatgen
data_SrS2O7
_symmetry_space_group_name_H-M   'P 1'
_cell_length_a   5.65506887
_cell_length_b   5.65460508
_cell_length_c   12.34653096
_cell_angle_alpha   106.07936561
_cell_angle_beta   106.10346137
_cell_angle_gamma   80.82494648
_symmetry_Int_Tables_number   1
_chemical_formula_structural   SrS2O7
_chemical_formula_sum   'Sr2 S4 O14'
_cell_volume   363.01389758
_cell_formula_units_Z   2
loop_
 _symmetry_equiv_pos_site_id
 _symmetry_equiv_pos_as_xyz
  1  'x, y, z'
loop_
 _atom_site_type_symbol
 _atom_site_label
 _atom_site_symmetry_multiplicity
 _atom_site_fract_x
 _atom_site_fract_y
 _atom_site_fract_z
 _atom_site_occupancy
  Sr  Sr0  1  0.137897  0.113696  0.349299  1
  Sr  Sr1  1  0.113713  0.137922  0.849344  1
  S  S2  1  0.304372  0.497437  0.163405  1
  S  S3  1  0.690054  0.677531  0.368839  1
  S  S4  1  0.497270  0.304415  0.663443  1
  S  S5  1  0.677602  0.689961  0.868805  1
  O  O6  1  0.859884  0.852218  0.876271  1
  O  O7  1  0.852614  0.859549  0.376335  1
  O  O8  1  0.323352  0.378493  0.045522  1
  O  O9  1  0.151830  0.731561  0.176640  1
  O  O10  1  0.259085  0.329116  0.225082  1
  O  O11  1  0.593602  0.569051  0.224602  1
  O  O12  1  0.470801  0.782614  0.411023  1
  O  O13  1  0.816403  0.461310  0.409203  1
  O  O14  1  0.378280  0.323362  0.545514  1
  O  O15  1  0.731399  0.151828  0.676735  1
  O  O16  1  0.328941  0.259134  0.725105  1
  O  O17  1  0.568900  0.593587  0.724593  1
  O  O18  1  0.782476  0.470618  0.911050  1
  O  O19  1  0.461533  0.816601  0.909190  1
