# generated using pymatgen
data_Hf18CoCu3P8
_symmetry_space_group_name_H-M   'P 1'
_cell_length_a   12.03769516
_cell_length_b   12.03769538
_cell_length_c   3.61367500
_cell_angle_alpha   90.00000000
_cell_angle_beta   90.00000000
_cell_angle_gamma   89.87361098
_symmetry_Int_Tables_number   1
_chemical_formula_structural   Hf18CoCu3P8
_chemical_formula_sum   'Hf18 Co1 Cu3 P8'
_cell_volume   523.64230339
_cell_formula_units_Z   1
loop_
 _symmetry_equiv_pos_site_id
 _symmetry_equiv_pos_as_xyz
  1  'x, y, z'
loop_
 _atom_site_type_symbol
 _atom_site_label
 _atom_site_symmetry_multiplicity
 _atom_site_fract_x
 _atom_site_fract_y
 _atom_site_fract_z
 _atom_site_occupancy
  Hf  Hf0  1  0.181712  0.101460  0.500000  1
  Hf  Hf1  1  0.816849  0.892074  0.500000  1
  Hf  Hf2  1  0.099566  0.817448  0.500000  1
  Hf  Hf3  1  0.682552  0.400434  0.500000  1
  Hf  Hf4  1  0.898985  0.182239  0.500000  1
  Hf  Hf5  1  0.317761  0.601015  0.500000  1
  Hf  Hf6  1  0.607926  0.683151  0.500000  1
  Hf  Hf7  1  0.398540  0.318288  0.500000  1
  Hf  Hf8  1  0.617869  0.117547  0.500000  1
  Hf  Hf9  1  0.382453  0.882131  0.500000  1
  Hf  Hf10  1  0.117763  0.382237  0.500000  1
  Hf  Hf11  1  0.880183  0.619817  0.500000  1
  Hf  Hf12  1  0.999898  0.000460  0.000000  1
  Hf  Hf13  1  0.499540  0.500102  0.000000  1
  Hf  Hf14  1  0.092141  0.593288  0.000000  1
  Hf  Hf15  1  0.906712  0.407859  0.000000  1
  Hf  Hf16  1  0.596239  0.903761  0.000000  1
  Hf  Hf17  1  0.406994  0.093006  0.000000  1
  Co  Co18  1  0.751776  0.748224  0.000000  1
  Cu  Cu19  1  0.745340  0.245474  0.000000  1
  Cu  Cu20  1  0.254526  0.754660  0.000000  1
  Cu  Cu21  1  0.245579  0.254421  0.000000  1
  P  P22  1  0.053867  0.223259  0.000000  1
  P  P23  1  0.944221  0.776070  0.000000  1
  P  P24  1  0.223460  0.946115  0.000000  1
  P  P25  1  0.553885  0.276540  0.000000  1
  P  P26  1  0.777038  0.054049  0.000000  1
  P  P27  1  0.445951  0.722962  0.000000  1
  P  P28  1  0.723930  0.555779  0.000000  1
  P  P29  1  0.276741  0.446133  0.000000  1
