# generated using pymatgen
data_Pr3Er3FeBr10
_symmetry_space_group_name_H-M   'P 1'
_cell_length_a   7.43318366
_cell_length_b   9.17761735
_cell_length_c   9.47284000
_cell_angle_alpha   108.18982481
_cell_angle_beta   95.79351502
_cell_angle_gamma   103.66395934
_symmetry_Int_Tables_number   1
_chemical_formula_structural   Pr3Er3FeBr10
_chemical_formula_sum   'Pr3 Er3 Fe1 Br10'
_cell_volume   585.77956487
_cell_formula_units_Z   1
loop_
 _symmetry_equiv_pos_site_id
 _symmetry_equiv_pos_as_xyz
  1  'x, y, z'
loop_
 _atom_site_type_symbol
 _atom_site_label
 _atom_site_symmetry_multiplicity
 _atom_site_fract_x
 _atom_site_fract_y
 _atom_site_fract_z
 _atom_site_occupancy
  Pr  Pr0  1  0.037360  0.725486  0.411807  1
  Pr  Pr1  1  0.962339  0.273699  0.582174  1
  Pr  Pr2  1  0.867018  0.948056  0.752815  1
  Er  Er3  1  0.128794  0.049602  0.258149  1
  Er  Er4  1  0.351746  0.126947  0.674053  1
  Er  Er5  1  0.648056  0.874386  0.327078  1
  Fe  Fe6  1  0.000057  0.999638  0.499906  1
  Br  Br7  1  0.451338  0.821710  0.579094  1
  Br  Br8  1  0.540231  0.176026  0.416241  1
  Br  Br9  1  0.912172  0.625119  0.669489  1
  Br  Br10  1  0.093580  0.360511  0.319879  1
  Br  Br11  1  0.250796  0.082149  0.951006  1
  Br  Br12  1  0.763590  0.922537  0.062278  1
  Br  Br13  1  0.345783  0.438275  0.768452  1
  Br  Br14  1  0.650772  0.562235  0.230490  1
  Br  Br15  1  0.755952  0.249509  0.841191  1
  Br  Br16  1  0.240418  0.764112  0.155900  1
