# generated using pymatgen
data_Tb5Nd3(Si3Au)4
_symmetry_space_group_name_H-M   'P 1'
_cell_length_a   8.22518300
_cell_length_b   8.24266148
_cell_length_c   8.42801800
_cell_angle_alpha   90.00000000
_cell_angle_beta   90.00000000
_cell_angle_gamma   119.92987550
_symmetry_Int_Tables_number   1
_chemical_formula_structural   Tb5Nd3(Si3Au)4
_chemical_formula_sum   'Tb5 Nd3 Si12 Au4'
_cell_volume   495.19422081
_cell_formula_units_Z   1
loop_
 _symmetry_equiv_pos_site_id
 _symmetry_equiv_pos_as_xyz
  1  'x, y, z'
loop_
 _atom_site_type_symbol
 _atom_site_label
 _atom_site_symmetry_multiplicity
 _atom_site_fract_x
 _atom_site_fract_y
 _atom_site_fract_z
 _atom_site_occupancy
  Tb  Tb0  1  0.499956  0.500107  0.750000  1
  Tb  Tb1  1  0.500117  0.499986  0.250000  1
  Tb  Tb2  1  0.000152  0.500107  0.750000  1
  Tb  Tb3  1  0.999869  0.499986  0.250000  1
  Tb  Tb4  1  0.499898  0.999796  0.750000  1
  Nd  Nd5  1  0.500083  0.000166  0.250000  1
  Nd  Nd6  1  0.999951  0.999900  0.750000  1
  Nd  Nd7  1  0.000030  0.000059  0.250000  1
  Si  Si8  1  0.835303  0.164807  0.997742  1
  Si  Si9  1  0.164708  0.835180  0.998898  1
  Si  Si10  1  0.329504  0.164807  0.997742  1
  Si  Si11  1  0.164708  0.835180  0.501102  1
  Si  Si12  1  0.670472  0.835180  0.998898  1
  Si  Si13  1  0.835303  0.164807  0.502258  1
  Si  Si14  1  0.835558  0.671117  0.999886  1
  Si  Si15  1  0.670472  0.835180  0.501102  1
  Si  Si16  1  0.164429  0.328859  0.000807  1
  Si  Si17  1  0.329504  0.164807  0.502258  1
  Si  Si18  1  0.164429  0.328859  0.499193  1
  Si  Si19  1  0.835558  0.671117  0.500114  1
  Au  Au20  1  0.667798  0.335594  0.995418  1
  Au  Au21  1  0.332200  0.664402  0.995074  1
  Au  Au22  1  0.332200  0.664402  0.504926  1
  Au  Au23  1  0.667798  0.335594  0.504582  1
