# generated using pymatgen
data_Ba4TmNbO8
_symmetry_space_group_name_H-M   'P 1'
_cell_length_a   7.44467010
_cell_length_b   7.44466939
_cell_length_c   6.00287700
_cell_angle_alpha   90.00000000
_cell_angle_beta   90.00000000
_cell_angle_gamma   132.63485718
_symmetry_Int_Tables_number   1
_chemical_formula_structural   Ba4TmNbO8
_chemical_formula_sum   'Ba4 Tm1 Nb1 O8'
_cell_volume   244.76105286
_cell_formula_units_Z   1
loop_
 _symmetry_equiv_pos_site_id
 _symmetry_equiv_pos_as_xyz
  1  'x, y, z'
loop_
 _atom_site_type_symbol
 _atom_site_label
 _atom_site_symmetry_multiplicity
 _atom_site_fract_x
 _atom_site_fract_y
 _atom_site_fract_z
 _atom_site_occupancy
  Ba  Ba0  1  0.353030  0.646970  0.000000  1
  Ba  Ba1  1  0.853405  0.146595  0.500000  1
  Ba  Ba2  1  0.146595  0.853405  0.500000  1
  Ba  Ba3  1  0.646970  0.353030  0.000000  1
  Tm  Tm4  1  0.000000  0.000000  0.000000  1
  Nb  Nb5  1  0.500000  0.500000  0.500000  1
  O  O6  1  0.259961  0.259961  0.735887  1
  O  O7  1  0.740039  0.740039  0.264113  1
  O  O8  1  0.740039  0.740039  0.735887  1
  O  O9  1  0.259961  0.259961  0.264113  1
  O  O10  1  0.163693  0.836307  0.000000  1
  O  O11  1  0.651220  0.348780  0.500000  1
  O  O12  1  0.348780  0.651220  0.500000  1
  O  O13  1  0.836307  0.163693  0.000000  1
