# generated using pymatgen
data_SmThCoSi4Pd
_symmetry_space_group_name_H-M   'P 1'
_cell_length_a   8.59622539
_cell_length_b   8.59622360
_cell_length_c   4.14037100
_cell_angle_alpha   90.00000000
_cell_angle_beta   90.00000000
_cell_angle_gamma   151.91540661
_symmetry_Int_Tables_number   1
_chemical_formula_structural   SmThCoSi4Pd
_chemical_formula_sum   'Sm1 Th1 Co1 Si4 Pd1'
_cell_volume   144.03493380
_cell_formula_units_Z   1
loop_
 _symmetry_equiv_pos_site_id
 _symmetry_equiv_pos_as_xyz
  1  'x, y, z'
loop_
 _atom_site_type_symbol
 _atom_site_label
 _atom_site_symmetry_multiplicity
 _atom_site_fract_x
 _atom_site_fract_y
 _atom_site_fract_z
 _atom_site_occupancy
  Sm  Sm0  1  0.396821  0.603179  0.250000  1
  Th  Th1  1  0.604842  0.395158  0.750000  1
  Co  Co2  1  0.179731  0.820269  0.250000  1
  Si  Si3  1  0.966227  0.033773  0.750000  1
  Si  Si4  1  0.042539  0.957461  0.250000  1
  Si  Si5  1  0.244897  0.755103  0.750000  1
  Si  Si6  1  0.743228  0.256772  0.250000  1
  Pd  Pd7  1  0.821712  0.178288  0.750000  1
