# generated using pymatgen
data_Tb7Y13FeCo3Sb8
_symmetry_space_group_name_H-M   'P 1'
_cell_length_a   7.93602480
_cell_length_b   8.75070715
_cell_length_c   12.24962208
_cell_angle_alpha   90.01535532
_cell_angle_beta   90.13844448
_cell_angle_gamma   89.98532618
_symmetry_Int_Tables_number   1
_chemical_formula_structural   Tb7Y13FeCo3Sb8
_chemical_formula_sum   'Tb7 Y13 Fe1 Co3 Sb8'
_cell_volume   850.68261794
_cell_formula_units_Z   1
loop_
 _symmetry_equiv_pos_site_id
 _symmetry_equiv_pos_as_xyz
  1  'x, y, z'
loop_
 _atom_site_type_symbol
 _atom_site_label
 _atom_site_symmetry_multiplicity
 _atom_site_fract_x
 _atom_site_fract_y
 _atom_site_fract_z
 _atom_site_occupancy
  Tb  Tb0  1  0.323205  0.032582  0.436729  1
  Tb  Tb1  1  0.178403  0.465724  0.935492  1
  Tb  Tb2  1  0.679507  0.536683  0.564256  1
  Tb  Tb3  1  0.178093  0.034620  0.935475  1
  Tb  Tb4  1  0.679480  0.963103  0.564345  1
  Tb  Tb5  1  0.820918  0.534834  0.064858  1
  Tb  Tb6  1  0.323152  0.467596  0.436743  1
  Y  Y7  1  0.156126  0.749922  0.205203  1
  Y  Y8  1  0.654527  0.250000  0.295560  1
  Y  Y9  1  0.845620  0.249923  0.796616  1
  Y  Y10  1  0.345862  0.749977  0.703582  1
  Y  Y11  1  0.456113  0.749703  0.997361  1
  Y  Y12  1  0.953995  0.249994  0.502634  1
  Y  Y13  1  0.543091  0.250336  0.002040  1
  Y  Y14  1  0.045233  0.750021  0.497415  1
  Y  Y15  1  0.622542  0.749848  0.304366  1
  Y  Y16  1  0.123388  0.249927  0.194570  1
  Y  Y17  1  0.376318  0.249962  0.695266  1
  Y  Y18  1  0.876937  0.750193  0.805341  1
  Y  Y19  1  0.820706  0.964615  0.065537  1
  Fe  Fe20  1  0.428650  0.749864  0.487262  1
  Co  Co21  1  0.935831  0.251042  0.010150  1
  Co  Co22  1  0.567376  0.250107  0.510551  1
  Co  Co23  1  0.065369  0.749716  0.990204  1
  Sb  Sb24  1  0.927449  0.992158  0.326741  1
  Sb  Sb25  1  0.428086  0.008148  0.172328  1
  Sb  Sb26  1  0.071963  0.491677  0.672921  1
  Sb  Sb27  1  0.572698  0.507847  0.826945  1
  Sb  Sb28  1  0.071909  0.008295  0.672915  1
  Sb  Sb29  1  0.572595  0.992137  0.827073  1
  Sb  Sb30  1  0.927413  0.507738  0.326943  1
  Sb  Sb31  1  0.427445  0.491707  0.172578  1
