# generated using pymatgen
data_Y7HoRe3TcB24
_symmetry_space_group_name_H-M   'P 1'
_cell_length_a   3.68674000
_cell_length_b   9.18254034
_cell_length_c   11.56851101
_cell_angle_alpha   90.03302878
_cell_angle_beta   90.00000000
_cell_angle_gamma   90.00000000
_symmetry_Int_Tables_number   1
_chemical_formula_structural   Y7HoRe3TcB24
_chemical_formula_sum   'Y7 Ho1 Re3 Tc1 B24'
_cell_volume   391.63612771
_cell_formula_units_Z   1
loop_
 _symmetry_equiv_pos_site_id
 _symmetry_equiv_pos_as_xyz
  1  'x, y, z'
loop_
 _atom_site_type_symbol
 _atom_site_label
 _atom_site_symmetry_multiplicity
 _atom_site_fract_x
 _atom_site_fract_y
 _atom_site_fract_z
 _atom_site_occupancy
  Y  Y0  1  0.000000  0.323951  0.413894  1
  Y  Y1  1  0.000000  0.676329  0.585928  1
  Y  Y2  1  0.000000  0.823587  0.085953  1
  Y  Y3  1  0.000000  0.176649  0.914010  1
  Y  Y4  1  0.000000  0.942128  0.369822  1
  Y  Y5  1  0.000000  0.056804  0.629704  1
  Y  Y6  1  0.000000  0.443786  0.130412  1
  Ho  Ho7  1  0.000000  0.556958  0.870049  1
  Re  Re8  1  0.000000  0.361663  0.679400  1
  Re  Re9  1  0.000000  0.138722  0.179207  1
  Re  Re10  1  0.000000  0.860896  0.820891  1
  Tc  Tc11  1  0.000000  0.638785  0.320753  1
  B  B12  1  0.500000  0.553600  0.432595  1
  B  B13  1  0.500000  0.446592  0.567212  1
  B  B14  1  0.500000  0.053545  0.067228  1
  B  B15  1  0.500000  0.946511  0.932711  1
  B  B16  1  0.500000  0.748479  0.418322  1
  B  B17  1  0.500000  0.251167  0.581523  1
  B  B18  1  0.500000  0.249056  0.081603  1
  B  B19  1  0.500000  0.750786  0.918343  1
  B  B20  1  0.500000  0.791475  0.265365  1
  B  B21  1  0.500000  0.208268  0.734474  1
  B  B22  1  0.500000  0.291819  0.234686  1
  B  B23  1  0.500000  0.707853  0.765704  1
  B  B24  1  0.500000  0.631229  0.185922  1
  B  B25  1  0.500000  0.369364  0.814258  1
  B  B26  1  0.500000  0.130864  0.314217  1
  B  B27  1  0.500000  0.868847  0.685824  1
  B  B28  1  0.500000  0.982512  0.211683  1
  B  B29  1  0.500000  0.017358  0.788200  1
  B  B30  1  0.500000  0.482877  0.288410  1
  B  B31  1  0.500000  0.517526  0.712130  1
  B  B32  1  0.500000  0.600362  0.027858  1
  B  B33  1  0.500000  0.400164  0.971943  1
  B  B34  1  0.500000  0.100085  0.471757  1
  B  B35  1  0.500000  0.899404  0.528005  1
