# generated using pymatgen
data_Hf5Ti(Ga2Sn)2
_symmetry_space_group_name_H-M   'P 1'
_cell_length_a   5.64322600
_cell_length_b   8.72888800
_cell_length_c   9.31113800
_cell_angle_alpha   90.00000000
_cell_angle_beta   90.00000000
_cell_angle_gamma   90.00000000
_symmetry_Int_Tables_number   1
_chemical_formula_structural   Hf5Ti(Ga2Sn)2
_chemical_formula_sum   'Hf10 Ti2 Ga8 Sn4'
_cell_volume   458.65816345
_cell_formula_units_Z   2
loop_
 _symmetry_equiv_pos_site_id
 _symmetry_equiv_pos_as_xyz
  1  'x, y, z'
loop_
 _atom_site_type_symbol
 _atom_site_label
 _atom_site_symmetry_multiplicity
 _atom_site_fract_x
 _atom_site_fract_y
 _atom_site_fract_z
 _atom_site_occupancy
  Hf  Hf0  1  0.000000  0.250000  0.878168  1
  Hf  Hf1  1  0.500000  0.750000  0.121832  1
  Hf  Hf2  1  0.753702  0.471029  0.609483  1
  Hf  Hf3  1  0.253702  0.528971  0.390517  1
  Hf  Hf4  1  0.746298  0.971029  0.390517  1
  Hf  Hf5  1  0.246298  0.028971  0.609483  1
  Hf  Hf6  1  0.750241  0.372503  0.198420  1
  Hf  Hf7  1  0.250241  0.627497  0.801580  1
  Hf  Hf8  1  0.749759  0.872503  0.801580  1
  Hf  Hf9  1  0.249759  0.127497  0.198420  1
  Ti  Ti10  1  0.000000  0.750000  0.118879  1
  Ti  Ti11  1  0.500000  0.250000  0.881121  1
  Ga  Ga12  1  0.000000  0.750000  0.570399  1
  Ga  Ga13  1  0.500000  0.250000  0.429601  1
  Ga  Ga14  1  0.000000  0.250000  0.431245  1
  Ga  Ga15  1  0.500000  0.750000  0.568755  1
  Ga  Ga16  1  0.739751  0.139312  0.650319  1
  Ga  Ga17  1  0.239751  0.860688  0.349681  1
  Ga  Ga18  1  0.760249  0.639312  0.349681  1
  Ga  Ga19  1  0.260249  0.360688  0.650319  1
  Sn  Sn20  1  0.749281  0.049855  0.082955  1
  Sn  Sn21  1  0.249281  0.950145  0.917045  1
  Sn  Sn22  1  0.750719  0.549855  0.917045  1
  Sn  Sn23  1  0.250719  0.450145  0.082955  1
