# generated using pymatgen
data_Tb3Dy(Al3Pt4)2
_symmetry_space_group_name_H-M   'P 1'
_cell_length_a   8.16017847
_cell_length_b   8.16017931
_cell_length_c   7.63651703
_cell_angle_alpha   89.99042460
_cell_angle_beta   90.00957647
_cell_angle_gamma   140.09382873
_symmetry_Int_Tables_number   1
_chemical_formula_structural   Tb3Dy(Al3Pt4)2
_chemical_formula_sum   'Tb3 Dy1 Al6 Pt8'
_cell_volume   326.22194771
_cell_formula_units_Z   1
loop_
 _symmetry_equiv_pos_site_id
 _symmetry_equiv_pos_as_xyz
  1  'x, y, z'
loop_
 _atom_site_type_symbol
 _atom_site_label
 _atom_site_symmetry_multiplicity
 _atom_site_fract_x
 _atom_site_fract_y
 _atom_site_fract_z
 _atom_site_occupancy
  Tb  Tb0  1  0.606827  0.393173  0.907849  1
  Tb  Tb1  1  0.393164  0.606836  0.092014  1
  Tb  Tb2  1  0.893225  0.106775  0.407953  1
  Dy  Dy3  1  0.106842  0.893158  0.591976  1
  Al  Al4  1  0.500109  0.499891  0.500060  1
  Al  Al5  1  0.000018  0.999982  0.000014  1
  Al  Al6  1  0.523069  0.976838  0.749912  1
  Al  Al7  1  0.976790  0.523280  0.250041  1
  Al  Al8  1  0.476720  0.023210  0.250041  1
  Al  Al9  1  0.023162  0.476931  0.749912  1
  Pt  Pt10  1  0.691038  0.809105  0.749905  1
  Pt  Pt11  1  0.809322  0.690962  0.250283  1
  Pt  Pt12  1  0.309038  0.190678  0.250283  1
  Pt  Pt13  1  0.190895  0.308962  0.749905  1
  Pt  Pt14  1  0.684104  0.315896  0.528223  1
  Pt  Pt15  1  0.315723  0.684277  0.471815  1
  Pt  Pt16  1  0.815763  0.184237  0.028174  1
  Pt  Pt17  1  0.184192  0.815808  0.971639  1
