# generated using pymatgen
data_La8SmU3Se20
_symmetry_space_group_name_H-M   'P 1'
_cell_length_a   7.92460593
_cell_length_b   8.56775200
_cell_length_c   12.52364653
_cell_angle_alpha   90.00000000
_cell_angle_beta   90.14077186
_cell_angle_gamma   90.00000000
_symmetry_Int_Tables_number   1
_chemical_formula_structural   La8SmU3Se20
_chemical_formula_sum   'La8 Sm1 U3 Se20'
_cell_volume   850.30366847
_cell_formula_units_Z   1
loop_
 _symmetry_equiv_pos_site_id
 _symmetry_equiv_pos_as_xyz
  1  'x, y, z'
loop_
 _atom_site_type_symbol
 _atom_site_label
 _atom_site_symmetry_multiplicity
 _atom_site_fract_x
 _atom_site_fract_y
 _atom_site_fract_z
 _atom_site_occupancy
  La  La0  1  0.530370  0.501242  0.324000  1
  La  La1  1  0.969958  0.999609  0.822690  1
  La  La2  1  0.471177  0.000439  0.675755  1
  La  La3  1  0.027821  0.500692  0.178235  1
  La  La4  1  0.471177  0.499561  0.675755  1
  La  La5  1  0.027821  0.999308  0.178235  1
  La  La6  1  0.530370  0.998758  0.324000  1
  La  La7  1  0.969958  0.500391  0.822690  1
  Sm  Sm8  1  0.074458  0.750000  0.492175  1
  U  U9  1  0.427967  0.750000  0.990115  1
  U  U10  1  0.935921  0.250000  0.506444  1
  U  U11  1  0.570237  0.250000  0.009297  1
  Se  Se12  1  0.831264  0.966043  0.594111  1
  Se  Se13  1  0.664163  0.542277  0.090313  1
  Se  Se14  1  0.165403  0.451066  0.407201  1
  Se  Se15  1  0.335116  0.043803  0.908723  1
  Se  Se16  1  0.165403  0.048934  0.407201  1
  Se  Se17  1  0.335116  0.456197  0.908723  1
  Se  Se18  1  0.831264  0.533957  0.594111  1
  Se  Se19  1  0.664163  0.957723  0.090313  1
  Se  Se20  1  0.831171  0.750000  0.309224  1
  Se  Se21  1  0.664416  0.750000  0.814117  1
  Se  Se22  1  0.164249  0.250000  0.686340  1
  Se  Se23  1  0.337118  0.250000  0.185196  1
  Se  Se24  1  0.458518  0.750000  0.497880  1
  Se  Se25  1  0.045527  0.750000  0.999402  1
  Se  Se26  1  0.547291  0.250000  0.500260  1
  Se  Se27  1  0.953334  0.250000  0.001524  1
  Se  Se28  1  0.192946  0.750000  0.718194  1
  Se  Se29  1  0.309662  0.750000  0.212908  1
  Se  Se30  1  0.807552  0.250000  0.286177  1
  Se  Se31  1  0.689091  0.250000  0.788693  1
