# generated using pymatgen
data_Er15ThIn4Ir3Rh
_symmetry_space_group_name_H-M   'P 1'
_cell_length_a   9.62362883
_cell_length_b   9.62362975
_cell_length_c   9.61790316
_cell_angle_alpha   60.29411016
_cell_angle_beta   60.29411043
_cell_angle_gamma   59.84456542
_symmetry_Int_Tables_number   1
_chemical_formula_structural   Er15ThIn4Ir3Rh
_chemical_formula_sum   'Er15 Th1 In4 Ir3 Rh1'
_cell_volume   631.89126233
_cell_formula_units_Z   1
loop_
 _symmetry_equiv_pos_site_id
 _symmetry_equiv_pos_as_xyz
  1  'x, y, z'
loop_
 _atom_site_type_symbol
 _atom_site_label
 _atom_site_symmetry_multiplicity
 _atom_site_fract_x
 _atom_site_fract_y
 _atom_site_fract_z
 _atom_site_occupancy
  Er  Er0  1  0.440994  0.057431  0.060065  1
  Er  Er1  1  0.441823  0.057467  0.439026  1
  Er  Er2  1  0.057431  0.440994  0.060065  1
  Er  Er3  1  0.655038  0.049128  0.646579  1
  Er  Er4  1  0.190599  0.805094  0.811324  1
  Er  Er5  1  0.063538  0.063538  0.435095  1
  Er  Er6  1  0.804869  0.189524  0.194444  1
  Er  Er7  1  0.809525  0.809525  0.191295  1
  Er  Er8  1  0.648467  0.648467  0.049885  1
  Er  Er9  1  0.652468  0.652468  0.653453  1
  Er  Er10  1  0.057467  0.441823  0.439026  1
  Er  Er11  1  0.049128  0.655038  0.646579  1
  Er  Er12  1  0.805094  0.190599  0.811324  1
  Er  Er13  1  0.435903  0.435903  0.063922  1
  Er  Er14  1  0.189524  0.804869  0.194444  1
  Th  Th15  1  0.186946  0.186946  0.811206  1
  In  In16  1  0.418033  0.749265  0.416015  1
  In  In17  1  0.418330  0.418330  0.749665  1
  In  In18  1  0.749265  0.418033  0.416015  1
  In  In19  1  0.417866  0.417866  0.413510  1
  Ir  Ir20  1  0.868651  0.422853  0.856271  1
  Ir  Ir21  1  0.858748  0.858748  0.424301  1
  Ir  Ir22  1  0.422853  0.868651  0.856271  1
  Rh  Rh23  1  0.857440  0.857440  0.860221  1
