# generated using pymatgen
data_Ho3Pa(InPd2)2
_symmetry_space_group_name_H-M   'P 1'
_cell_length_a   7.77246037
_cell_length_b   7.77246037
_cell_length_c   3.66695300
_cell_angle_alpha   90.00000000
_cell_angle_beta   90.00000000
_cell_angle_gamma   91.40639678
_symmetry_Int_Tables_number   1
_chemical_formula_structural   Ho3Pa(InPd2)2
_chemical_formula_sum   'Ho3 Pa1 In2 Pd4'
_cell_volume   221.45807898
_cell_formula_units_Z   1
loop_
 _symmetry_equiv_pos_site_id
 _symmetry_equiv_pos_as_xyz
  1  'x, y, z'
loop_
 _atom_site_type_symbol
 _atom_site_label
 _atom_site_symmetry_multiplicity
 _atom_site_fract_x
 _atom_site_fract_y
 _atom_site_fract_z
 _atom_site_occupancy
  Ho  Ho0  1  0.825629  0.669449  0.500000  1
  Ho  Ho1  1  0.169449  0.325629  0.500000  1
  Ho  Ho2  1  0.675585  0.175585  0.500000  1
  Pa  Pa3  1  0.331008  0.831008  0.500000  1
  In  In4  1  0.995184  0.999984  0.000000  1
  In  In5  1  0.499984  0.495184  0.000000  1
  Pd  Pd6  1  0.367781  0.119739  0.000000  1
  Pd  Pd7  1  0.877142  0.377142  0.000000  1
  Pd  Pd8  1  0.138500  0.638500  0.000000  1
  Pd  Pd9  1  0.619739  0.867781  0.000000  1
