# generated using pymatgen
data_La8Nd3Tm9Pb16
_symmetry_space_group_name_H-M   'P 1'
_cell_length_a   8.26708611
_cell_length_b   8.35446270
_cell_length_c   15.76139400
_cell_angle_alpha   90.00560993
_cell_angle_beta   90.00945332
_cell_angle_gamma   90.03607271
_symmetry_Int_Tables_number   1
_chemical_formula_structural   La8Nd3Tm9Pb16
_chemical_formula_sum   'La8 Nd3 Tm9 Pb16'
_cell_volume   1088.59294918
_cell_formula_units_Z   1
loop_
 _symmetry_equiv_pos_site_id
 _symmetry_equiv_pos_as_xyz
  1  'x, y, z'
loop_
 _atom_site_type_symbol
 _atom_site_label
 _atom_site_symmetry_multiplicity
 _atom_site_fract_x
 _atom_site_fract_y
 _atom_site_fract_z
 _atom_site_occupancy
  La  La0  1  0.478221  0.678406  0.595055  1
  La  La1  1  0.978255  0.822026  0.903707  1
  La  La2  1  0.521232  0.322000  0.097431  1
  La  La3  1  0.021864  0.177559  0.403719  1
  La  La4  1  0.520299  0.321906  0.403653  1
  La  La5  1  0.020841  0.177390  0.096884  1
  La  La6  1  0.479647  0.678093  0.903812  1
  La  La7  1  0.978972  0.821709  0.595682  1
  Nd  Nd8  1  0.864390  0.658955  0.122715  1
  Nd  Nd9  1  0.634626  0.158677  0.878654  1
  Nd  Nd10  1  0.135971  0.340717  0.619312  1
  Tm  Tm11  1  0.638420  0.157831  0.622884  1
  Tm  Tm12  1  0.138066  0.342445  0.877281  1
  Tm  Tm13  1  0.362166  0.842360  0.123331  1
  Tm  Tm14  1  0.862511  0.656002  0.377825  1
  Tm  Tm15  1  0.364005  0.843237  0.376397  1
  Tm  Tm16  1  0.802842  0.495199  0.748650  1
  Tm  Tm17  1  0.302521  0.004151  0.750247  1
  Tm  Tm18  1  0.198975  0.505668  0.249825  1
  Tm  Tm19  1  0.696787  0.994790  0.252196  1
  Pb  Pb20  1  0.701282  0.956686  0.456419  1
  Pb  Pb21  1  0.207963  0.541178  0.043060  1
  Pb  Pb22  1  0.291464  0.040730  0.957159  1
  Pb  Pb23  1  0.791677  0.459037  0.542862  1
  Pb  Pb24  1  0.303800  0.037153  0.543034  1
  Pb  Pb25  1  0.802786  0.459881  0.953839  1
  Pb  Pb26  1  0.697590  0.959987  0.047052  1
  Pb  Pb27  1  0.201683  0.546705  0.452437  1
  Pb  Pb28  1  0.440032  0.373549  0.749706  1
  Pb  Pb29  1  0.941105  0.127112  0.749670  1
  Pb  Pb30  1  0.557107  0.630011  0.252078  1
  Pb  Pb31  1  0.061510  0.872841  0.252014  1
  Pb  Pb32  1  0.667763  0.849371  0.748683  1
  Pb  Pb33  1  0.167368  0.649801  0.750906  1
  Pb  Pb34  1  0.333060  0.147708  0.250273  1
  Pb  Pb35  1  0.833193  0.349128  0.251550  1
