# generated using pymatgen
data_Ho3Tm3Al24Os7Au
_symmetry_space_group_name_H-M   'P 1'
_cell_length_a   8.84972220
_cell_length_b   8.84452166
_cell_length_c   9.54576511
_cell_angle_alpha   89.77746744
_cell_angle_beta   90.21334397
_cell_angle_gamma   120.01828906
_symmetry_Int_Tables_number   1
_chemical_formula_structural   Ho3Tm3Al24Os7Au
_chemical_formula_sum   'Ho3 Tm3 Al24 Os7 Au1'
_cell_volume   646.93567776
_cell_formula_units_Z   1
loop_
 _symmetry_equiv_pos_site_id
 _symmetry_equiv_pos_as_xyz
  1  'x, y, z'
loop_
 _atom_site_type_symbol
 _atom_site_label
 _atom_site_symmetry_multiplicity
 _atom_site_fract_x
 _atom_site_fract_y
 _atom_site_fract_z
 _atom_site_occupancy
  Ho  Ho0  1  0.190619  0.386703  0.251343  1
  Ho  Ho1  1  0.809239  0.613426  0.748656  1
  Ho  Ho2  1  0.613174  0.809202  0.251441  1
  Tm  Tm3  1  0.388935  0.191368  0.748042  1
  Tm  Tm4  1  0.195891  0.803627  0.254668  1
  Tm  Tm5  1  0.803824  0.196058  0.745334  1
  Al  Al6  1  0.328547  0.671424  0.024161  1
  Al  Al7  1  0.671211  0.328836  0.975229  1
  Al  Al8  1  0.666086  0.333931  0.519327  1
  Al  Al9  1  0.333794  0.665881  0.481069  1
  Al  Al10  1  0.162890  0.325701  0.576006  1
  Al  Al11  1  0.837166  0.673952  0.424408  1
  Al  Al12  1  0.674061  0.837225  0.576047  1
  Al  Al13  1  0.848478  0.677364  0.079940  1
  Al  Al14  1  0.325729  0.162624  0.424674  1
  Al  Al15  1  0.151494  0.322406  0.919768  1
  Al  Al16  1  0.163255  0.837029  0.575895  1
  Al  Al17  1  0.322325  0.151368  0.079478  1
  Al  Al18  1  0.836651  0.163157  0.424512  1
  Al  Al19  1  0.677457  0.848637  0.919685  1
  Al  Al20  1  0.836481  0.163355  0.075245  1
  Al  Al21  1  0.163388  0.837047  0.924209  1
  Al  Al22  1  0.560607  0.121249  0.249143  1
  Al  Al23  1  0.438938  0.878856  0.750715  1
  Al  Al24  1  0.878510  0.439017  0.249310  1
  Al  Al25  1  0.121289  0.560871  0.750781  1
  Al  Al26  1  0.563641  0.436028  0.255813  1
  Al  Al27  1  0.436021  0.563278  0.744531  1
  Al  Al28  1  0.000524  0.999246  0.250399  1
  Al  Al29  1  0.001392  0.001697  0.749714  1
  Os  Os30  1  0.499770  0.000307  0.999562  1
  Os  Os31  1  0.999907  0.499928  0.000088  1
  Os  Os32  1  0.499799  0.000074  0.500254  1
  Os  Os33  1  0.999902  0.499868  0.500060  1
  Os  Os34  1  0.499764  0.499552  0.500428  1
  Os  Os35  1  0.999684  0.999887  0.000010  1
  Os  Os36  1  0.999741  0.999857  0.500077  1
  Au  Au37  1  0.499812  0.499965  0.999977  1
