# generated using pymatgen
data_Tb3CdCoSn3Ir
_symmetry_space_group_name_H-M   'P 1'
_cell_length_a   7.69645700
_cell_length_b   7.69645787
_cell_length_c   3.87436300
_cell_angle_alpha   90.00000000
_cell_angle_beta   90.00000000
_cell_angle_gamma   120.00000055
_symmetry_Int_Tables_number   1
_chemical_formula_structural   Tb3CdCoSn3Ir
_chemical_formula_sum   'Tb3 Cd1 Co1 Sn3 Ir1'
_cell_volume   198.75253735
_cell_formula_units_Z   1
loop_
 _symmetry_equiv_pos_site_id
 _symmetry_equiv_pos_as_xyz
  1  'x, y, z'
loop_
 _atom_site_type_symbol
 _atom_site_label
 _atom_site_symmetry_multiplicity
 _atom_site_fract_x
 _atom_site_fract_y
 _atom_site_fract_z
 _atom_site_occupancy
  Tb  Tb0  1  0.616037  0.026763  0.000000  1
  Tb  Tb1  1  0.973237  0.589273  0.000000  1
  Tb  Tb2  1  0.410727  0.383963  0.000000  1
  Cd  Cd3  1  0.333333  0.666667  0.500000  1
  Co  Co4  1  0.000000  0.000000  0.000000  1
  Sn  Sn5  1  0.245176  0.999539  0.500000  1
  Sn  Sn6  1  0.000461  0.245637  0.500000  1
  Sn  Sn7  1  0.754363  0.754824  0.500000  1
  Ir  Ir8  1  0.666667  0.333333  0.500000  1
