# generated using pymatgen
data_Ho17Tm3Sn3Pb13
_symmetry_space_group_name_H-M   'P 1'
_cell_length_a   8.15296800
_cell_length_b   15.54564800
_cell_length_c   8.20149138
_cell_angle_alpha   90.00000000
_cell_angle_beta   89.86845831
_cell_angle_gamma   90.00000000
_symmetry_Int_Tables_number   1
_chemical_formula_structural   Ho17Tm3Sn3Pb13
_chemical_formula_sum   'Ho17 Tm3 Sn3 Pb13'
_cell_volume   1039.48028275
_cell_formula_units_Z   1
loop_
 _symmetry_equiv_pos_site_id
 _symmetry_equiv_pos_as_xyz
  1  'x, y, z'
loop_
 _atom_site_type_symbol
 _atom_site_label
 _atom_site_symmetry_multiplicity
 _atom_site_fract_x
 _atom_site_fract_y
 _atom_site_fract_z
 _atom_site_occupancy
  Ho  Ho0  1  0.620836  0.623142  0.161555  1
  Ho  Ho1  1  0.121369  0.877050  0.338353  1
  Ho  Ho2  1  0.381175  0.122240  0.838082  1
  Ho  Ho3  1  0.876768  0.378839  0.659379  1
  Ho  Ho4  1  0.381175  0.377760  0.838082  1
  Ho  Ho5  1  0.876768  0.121161  0.659379  1
  Ho  Ho6  1  0.620836  0.876858  0.161555  1
  Ho  Ho7  1  0.121369  0.622950  0.338353  1
  Ho  Ho8  1  0.462829  0.601551  0.672571  1
  Ho  Ho9  1  0.963103  0.898456  0.827667  1
  Ho  Ho10  1  0.537003  0.100768  0.327402  1
  Ho  Ho11  1  0.036689  0.400132  0.175888  1
  Ho  Ho12  1  0.537003  0.399232  0.327402  1
  Ho  Ho13  1  0.036689  0.099868  0.175888  1
  Ho  Ho14  1  0.462829  0.898449  0.672571  1
  Ho  Ho15  1  0.963103  0.601544  0.827667  1
  Ho  Ho16  1  0.288503  0.750000  0.007201  1
  Tm  Tm17  1  0.788677  0.750000  0.492669  1
  Tm  Tm18  1  0.212283  0.250000  0.505506  1
  Tm  Tm19  1  0.709151  0.250000  0.993407  1
  Sn  Sn20  1  0.425235  0.750000  0.376355  1
  Sn  Sn21  1  0.925014  0.750000  0.124604  1
  Sn  Sn22  1  0.575121  0.250000  0.623798  1
  Pb  Pb23  1  0.717964  0.458182  0.967940  1
  Pb  Pb24  1  0.218203  0.041798  0.532851  1
  Pb  Pb25  1  0.282543  0.957945  0.031894  1
  Pb  Pb26  1  0.781952  0.542485  0.466491  1
  Pb  Pb27  1  0.282543  0.542055  0.031894  1
  Pb  Pb28  1  0.781952  0.957515  0.466491  1
  Pb  Pb29  1  0.717964  0.041818  0.967940  1
  Pb  Pb30  1  0.218203  0.458202  0.532851  1
  Pb  Pb31  1  0.073212  0.250000  0.875413  1
  Pb  Pb32  1  0.652196  0.750000  0.847078  1
  Pb  Pb33  1  0.152237  0.750000  0.652744  1
  Pb  Pb34  1  0.349387  0.250000  0.154098  1
  Pb  Pb35  1  0.848119  0.250000  0.346979  1
