# generated using pymatgen
data_TbY7Cu3Si12Pd
_symmetry_space_group_name_H-M   'P 1'
_cell_length_a   8.05009200
_cell_length_b   8.05009098
_cell_length_c   8.15615400
_cell_angle_alpha   90.00000000
_cell_angle_beta   90.00000000
_cell_angle_gamma   120.00000418
_symmetry_Int_Tables_number   1
_chemical_formula_structural   TbY7Cu3Si12Pd
_chemical_formula_sum   'Tb1 Y7 Cu3 Si12 Pd1'
_cell_volume   457.73873304
_cell_formula_units_Z   1
loop_
 _symmetry_equiv_pos_site_id
 _symmetry_equiv_pos_as_xyz
  1  'x, y, z'
loop_
 _atom_site_type_symbol
 _atom_site_label
 _atom_site_symmetry_multiplicity
 _atom_site_fract_x
 _atom_site_fract_y
 _atom_site_fract_z
 _atom_site_occupancy
  Tb  Tb0  1  0.000000  0.000000  0.750663  1
  Y  Y1  1  0.500548  0.001095  0.249403  1
  Y  Y2  1  0.500916  0.001833  0.750747  1
  Y  Y3  1  0.998905  0.499452  0.249403  1
  Y  Y4  1  0.998167  0.499084  0.750747  1
  Y  Y5  1  0.500548  0.499452  0.249403  1
  Y  Y6  1  0.500916  0.499084  0.750747  1
  Y  Y7  1  0.000000  0.000000  0.249023  1
  Cu  Cu8  1  0.333333  0.666667  0.000622  1
  Cu  Cu9  1  0.666667  0.333333  0.999916  1
  Cu  Cu10  1  0.666667  0.333333  0.498641  1
  Si  Si11  1  0.169441  0.338882  0.999112  1
  Si  Si12  1  0.831066  0.662132  0.000878  1
  Si  Si13  1  0.661118  0.830559  0.999112  1
  Si  Si14  1  0.831218  0.662435  0.500591  1
  Si  Si15  1  0.337868  0.168934  0.000878  1
  Si  Si16  1  0.166013  0.332026  0.499088  1
  Si  Si17  1  0.169441  0.830559  0.999112  1
  Si  Si18  1  0.337565  0.168782  0.500591  1
  Si  Si19  1  0.831066  0.168934  0.000878  1
  Si  Si20  1  0.667974  0.833987  0.499088  1
  Si  Si21  1  0.831218  0.168782  0.500591  1
  Si  Si22  1  0.166013  0.833987  0.499088  1
  Pd  Pd23  1  0.333333  0.666667  0.501677  1
