# generated using pymatgen
data_Lu10TcRh3
_symmetry_space_group_name_H-M   'P 1'
_cell_length_a   6.26181515
_cell_length_b   7.18424034
_cell_length_c   8.28941781
_cell_angle_alpha   96.71326160
_cell_angle_beta   111.76513829
_cell_angle_gamma   89.93629353
_symmetry_Int_Tables_number   1
_chemical_formula_structural   Lu10TcRh3
_chemical_formula_sum   'Lu10 Tc1 Rh3'
_cell_volume   343.59138015
_cell_formula_units_Z   1
loop_
 _symmetry_equiv_pos_site_id
 _symmetry_equiv_pos_as_xyz
  1  'x, y, z'
loop_
 _atom_site_type_symbol
 _atom_site_label
 _atom_site_symmetry_multiplicity
 _atom_site_fract_x
 _atom_site_fract_y
 _atom_site_fract_z
 _atom_site_occupancy
  Lu  Lu0  1  0.520522  0.085357  0.814801  1
  Lu  Lu1  1  0.475761  0.916763  0.188205  1
  Lu  Lu2  1  0.715479  0.418480  0.189946  1
  Lu  Lu3  1  0.294181  0.582471  0.823459  1
  Lu  Lu4  1  0.291670  0.317804  0.436991  1
  Lu  Lu5  1  0.705173  0.684649  0.559033  1
  Lu  Lu6  1  0.852369  0.183462  0.561869  1
  Lu  Lu7  1  0.151681  0.814120  0.436572  1
  Lu  Lu8  1  0.079078  0.249106  0.000014  1
  Lu  Lu9  1  0.919356  0.750205  0.999851  1
  Tc  Tc10  1  0.321272  0.573067  0.211704  1
  Rh  Rh11  1  0.678477  0.423889  0.779436  1
  Rh  Rh12  1  0.100709  0.925449  0.776346  1
  Rh  Rh13  1  0.894269  0.075179  0.221773  1
