# generated using pymatgen
data_ErTmSi7Rh12
_symmetry_space_group_name_H-M   'P 1'
_cell_length_a   9.74781100
_cell_length_b   9.74781029
_cell_length_c   3.84272700
_cell_angle_alpha   90.00000000
_cell_angle_beta   90.00000000
_cell_angle_gamma   119.99999224
_symmetry_Int_Tables_number   1
_chemical_formula_structural   ErTmSi7Rh12
_chemical_formula_sum   'Er1 Tm1 Si7 Rh12'
_cell_volume   316.21638238
_cell_formula_units_Z   1
loop_
 _symmetry_equiv_pos_site_id
 _symmetry_equiv_pos_as_xyz
  1  'x, y, z'
loop_
 _atom_site_type_symbol
 _atom_site_label
 _atom_site_symmetry_multiplicity
 _atom_site_fract_x
 _atom_site_fract_y
 _atom_site_fract_z
 _atom_site_occupancy
  Er  Er0  1  0.333333  0.666667  0.253665  1
  Tm  Tm1  1  0.666667  0.333333  0.753047  1
  Si  Si2  1  0.000000  0.000000  0.539271  1
  Si  Si3  1  0.289568  0.888783  0.754409  1
  Si  Si4  1  0.111217  0.400784  0.754409  1
  Si  Si5  1  0.599216  0.710432  0.754409  1
  Si  Si6  1  0.709569  0.110933  0.251993  1
  Si  Si7  1  0.889067  0.598636  0.251993  1
  Si  Si8  1  0.401364  0.290431  0.251993  1
  Rh  Rh9  1  0.064863  0.619812  0.754550  1
  Rh  Rh10  1  0.380188  0.445051  0.754550  1
  Rh  Rh11  1  0.554949  0.935137  0.754550  1
  Rh  Rh12  1  0.935839  0.380690  0.251357  1
  Rh  Rh13  1  0.619310  0.555149  0.251357  1
  Rh  Rh14  1  0.444851  0.064161  0.251357  1
  Rh  Rh15  1  0.265200  0.120377  0.748638  1
  Rh  Rh16  1  0.879623  0.144824  0.748638  1
  Rh  Rh17  1  0.855176  0.734800  0.748638  1
  Rh  Rh18  1  0.740421  0.882318  0.258267  1
  Rh  Rh19  1  0.117682  0.858104  0.258267  1
  Rh  Rh20  1  0.141896  0.259579  0.258267  1
