# generated using pymatgen
data_Ta2FeSe5
_symmetry_space_group_name_H-M   'P 1'
_cell_length_a   7.41731228
_cell_length_b   7.41731295
_cell_length_c   15.85186500
_cell_angle_alpha   90.00000000
_cell_angle_beta   90.00000000
_cell_angle_gamma   153.79659332
_symmetry_Int_Tables_number   1
_chemical_formula_structural   Ta2FeSe5
_chemical_formula_sum   'Ta4 Fe2 Se10'
_cell_volume   385.09020385
_cell_formula_units_Z   2
loop_
 _symmetry_equiv_pos_site_id
 _symmetry_equiv_pos_as_xyz
  1  'x, y, z'
loop_
 _atom_site_type_symbol
 _atom_site_label
 _atom_site_symmetry_multiplicity
 _atom_site_fract_x
 _atom_site_fract_y
 _atom_site_fract_z
 _atom_site_occupancy
  Ta  Ta0  1  0.222118  0.777882  0.110844  1
  Ta  Ta1  1  0.222118  0.777882  0.389156  1
  Ta  Ta2  1  0.777882  0.222118  0.889156  1
  Ta  Ta3  1  0.777882  0.222118  0.610844  1
  Fe  Fe4  1  0.703783  0.296217  0.250000  1
  Fe  Fe5  1  0.296217  0.703783  0.750000  1
  Se  Se6  1  0.591046  0.408954  0.139636  1
  Se  Se7  1  0.591046  0.408954  0.360364  1
  Se  Se8  1  0.408954  0.591046  0.860364  1
  Se  Se9  1  0.408954  0.591046  0.639636  1
  Se  Se10  1  0.154747  0.845253  0.953117  1
  Se  Se11  1  0.154747  0.845253  0.546883  1
  Se  Se12  1  0.845253  0.154747  0.046883  1
  Se  Se13  1  0.845253  0.154747  0.453117  1
  Se  Se14  1  0.319608  0.680392  0.250000  1
  Se  Se15  1  0.680392  0.319608  0.750000  1
