# generated using pymatgen
data_Dy7Tm(Hf3Si4)4
_symmetry_space_group_name_H-M   'P 1'
_cell_length_a   7.27602301
_cell_length_b   7.27528432
_cell_length_c   13.36503760
_cell_angle_alpha   90.03394296
_cell_angle_beta   89.99412630
_cell_angle_gamma   89.99921337
_symmetry_Int_Tables_number   1
_chemical_formula_structural   Dy7Tm(Hf3Si4)4
_chemical_formula_sum   'Dy7 Tm1 Hf12 Si16'
_cell_volume   707.47995674
_cell_formula_units_Z   1
loop_
 _symmetry_equiv_pos_site_id
 _symmetry_equiv_pos_as_xyz
  1  'x, y, z'
loop_
 _atom_site_type_symbol
 _atom_site_label
 _atom_site_symmetry_multiplicity
 _atom_site_fract_x
 _atom_site_fract_y
 _atom_site_fract_z
 _atom_site_occupancy
  Dy  Dy0  1  0.504561  0.846242  0.035037  1
  Dy  Dy1  1  0.653546  0.004733  0.285283  1
  Dy  Dy2  1  0.346217  0.995474  0.784843  1
  Dy  Dy3  1  0.846145  0.504555  0.964962  1
  Dy  Dy4  1  0.153986  0.495223  0.465057  1
  Dy  Dy5  1  0.004679  0.653750  0.714864  1
  Dy  Dy6  1  0.995373  0.346110  0.215027  1
  Tm  Tm7  1  0.496050  0.153386  0.535084  1
  Hf  Hf8  1  0.675845  0.323897  0.749808  1
  Hf  Hf9  1  0.324151  0.676040  0.250123  1
  Hf  Hf10  1  0.823672  0.824345  0.499966  1
  Hf  Hf11  1  0.175946  0.175897  0.000022  1
  Hf  Hf12  1  0.496173  0.352364  0.124961  1
  Hf  Hf13  1  0.503760  0.647203  0.624806  1
  Hf  Hf14  1  0.852306  0.003938  0.874696  1
  Hf  Hf15  1  0.147732  0.996651  0.375133  1
  Hf  Hf16  1  0.647291  0.503734  0.375294  1
  Hf  Hf17  1  0.352480  0.496088  0.875004  1
  Hf  Hf18  1  0.003939  0.852476  0.125207  1
  Hf  Hf19  1  0.996381  0.147625  0.624942  1
  Si  Si20  1  0.795524  0.139670  0.067435  1
  Si  Si21  1  0.205020  0.860842  0.567485  1
  Si  Si22  1  0.639628  0.704376  0.817439  1
  Si  Si23  1  0.360324  0.295355  0.317606  1
  Si  Si24  1  0.859517  0.204255  0.432802  1
  Si  Si25  1  0.139689  0.795499  0.932554  1
  Si  Si26  1  0.704370  0.639680  0.182585  1
  Si  Si27  1  0.296170  0.359560  0.681975  1
  Si  Si28  1  0.550679  0.205771  0.935887  1
  Si  Si29  1  0.449545  0.795094  0.436162  1
  Si  Si30  1  0.705289  0.949895  0.685505  1
  Si  Si31  1  0.294261  0.050705  0.185936  1
  Si  Si32  1  0.793844  0.448870  0.564125  1
  Si  Si33  1  0.205796  0.550740  0.064118  1
  Si  Si34  1  0.949343  0.705821  0.314152  1
  Si  Si35  1  0.050771  0.294139  0.814115  1
