# generated using pymatgen
data_Er2Nb(SnRu2)3
_symmetry_space_group_name_H-M   'P 1'
_cell_length_a   4.61077401
_cell_length_b   6.52390300
_cell_length_c   13.83367701
_cell_angle_alpha   89.99898541
_cell_angle_beta   89.99970617
_cell_angle_gamma   90.00381585
_symmetry_Int_Tables_number   1
_chemical_formula_structural   Er2Nb(SnRu2)3
_chemical_formula_sum   'Er4 Nb2 Sn6 Ru12'
_cell_volume   416.12035671
_cell_formula_units_Z   2
loop_
 _symmetry_equiv_pos_site_id
 _symmetry_equiv_pos_as_xyz
  1  'x, y, z'
loop_
 _atom_site_type_symbol
 _atom_site_label
 _atom_site_symmetry_multiplicity
 _atom_site_fract_x
 _atom_site_fract_y
 _atom_site_fract_z
 _atom_site_occupancy
  Er  Er0  1  0.999999  0.999976  0.998459  1
  Er  Er1  1  0.499974  0.499968  0.166027  1
  Er  Er2  1  0.999968  0.000035  0.333900  1
  Er  Er3  1  0.499992  0.500031  0.501570  1
  Nb  Nb4  1  0.000030  0.000026  0.666808  1
  Nb  Nb5  1  0.500024  0.499975  0.833145  1
  Sn  Sn6  1  0.000003  0.499985  0.999039  1
  Sn  Sn7  1  0.499985  0.999994  0.164917  1
  Sn  Sn8  1  0.999962  0.500013  0.335093  1
  Sn  Sn9  1  0.499989  0.000009  0.501012  1
  Sn  Sn10  1  0.000041  0.500040  0.666138  1
  Sn  Sn11  1  0.500035  0.999948  0.833807  1
  Ru  Ru12  1  0.499989  0.259637  0.990072  1
  Ru  Ru13  1  0.500014  0.740325  0.990081  1
  Ru  Ru14  1  0.999935  0.249677  0.165219  1
  Ru  Ru15  1  0.000023  0.750302  0.165232  1
  Ru  Ru16  1  0.500011  0.250287  0.334792  1
  Ru  Ru17  1  0.499933  0.749739  0.334774  1
  Ru  Ru18  1  0.000015  0.240286  0.509972  1
  Ru  Ru19  1  0.999990  0.759759  0.509961  1
  Ru  Ru20  1  0.500007  0.241557  0.673082  1
  Ru  Ru21  1  0.500042  0.758451  0.673075  1
  Ru  Ru22  1  0.000038  0.258492  0.826911  1
  Ru  Ru23  1  0.000002  0.741493  0.826919  1
