# generated using pymatgen
data_NaYb(TaS2)8
_symmetry_space_group_name_H-M   'P 1'
_cell_length_a   6.72070500
_cell_length_b   6.72070502
_cell_length_c   14.44054500
_cell_angle_alpha   90.00000000
_cell_angle_beta   90.00000000
_cell_angle_gamma   120.00000481
_symmetry_Int_Tables_number   1
_chemical_formula_structural   NaYb(TaS2)8
_chemical_formula_sum   'Na1 Yb1 Ta8 S16'
_cell_volume   564.86395441
_cell_formula_units_Z   1
loop_
 _symmetry_equiv_pos_site_id
 _symmetry_equiv_pos_as_xyz
  1  'x, y, z'
loop_
 _atom_site_type_symbol
 _atom_site_label
 _atom_site_symmetry_multiplicity
 _atom_site_fract_x
 _atom_site_fract_y
 _atom_site_fract_z
 _atom_site_occupancy
  Na  Na0  1  0.000000  0.000000  0.000000  1
  Yb  Yb1  1  0.000000  0.000000  0.500000  1
  Ta  Ta2  1  0.505198  0.494802  0.749592  1
  Ta  Ta3  1  0.010395  0.505198  0.250408  1
  Ta  Ta4  1  0.494802  0.989605  0.250408  1
  Ta  Ta5  1  0.505198  0.010395  0.749592  1
  Ta  Ta6  1  0.989605  0.494802  0.749592  1
  Ta  Ta7  1  0.494802  0.505198  0.250408  1
  Ta  Ta8  1  0.000000  0.000000  0.750470  1
  Ta  Ta9  1  0.000000  0.000000  0.249530  1
  S  S10  1  0.832713  0.167287  0.357732  1
  S  S11  1  0.832713  0.665425  0.357732  1
  S  S12  1  0.334575  0.167287  0.357732  1
  S  S13  1  0.663121  0.831560  0.855638  1
  S  S14  1  0.167287  0.334575  0.642268  1
  S  S15  1  0.168440  0.831560  0.855638  1
  S  S16  1  0.168440  0.336879  0.855638  1
  S  S17  1  0.831560  0.168440  0.144362  1
  S  S18  1  0.336879  0.168440  0.144362  1
  S  S19  1  0.665425  0.832713  0.642268  1
  S  S20  1  0.333333  0.666667  0.140620  1
  S  S21  1  0.666667  0.333333  0.639268  1
  S  S22  1  0.666667  0.333333  0.859380  1
  S  S23  1  0.333333  0.666667  0.360732  1
  S  S24  1  0.831560  0.663121  0.144362  1
  S  S25  1  0.167287  0.832713  0.642268  1
