# generated using pymatgen
data_SrTb3(Rh2O7)2
_symmetry_space_group_name_H-M   'P 1'
_cell_length_a   7.31317616
_cell_length_b   7.31317641
_cell_length_c   7.31317769
_cell_angle_alpha   59.85925087
_cell_angle_beta   59.85924767
_cell_angle_gamma   59.85924573
_symmetry_Int_Tables_number   1
_chemical_formula_structural   SrTb3(Rh2O7)2
_chemical_formula_sum   'Sr1 Tb3 Rh4 O14'
_cell_volume   275.68545288
_cell_formula_units_Z   1
loop_
 _symmetry_equiv_pos_site_id
 _symmetry_equiv_pos_as_xyz
  1  'x, y, z'
loop_
 _atom_site_type_symbol
 _atom_site_label
 _atom_site_symmetry_multiplicity
 _atom_site_fract_x
 _atom_site_fract_y
 _atom_site_fract_z
 _atom_site_occupancy
  Sr  Sr0  1  0.625000  0.625000  0.625000  1
  Tb  Tb1  1  0.625000  0.625000  0.125000  1
  Tb  Tb2  1  0.625000  0.125000  0.625000  1
  Tb  Tb3  1  0.125000  0.625000  0.625000  1
  Rh  Rh4  1  0.125000  0.125000  0.125000  1
  Rh  Rh5  1  0.625000  0.125000  0.125000  1
  Rh  Rh6  1  0.125000  0.625000  0.125000  1
  Rh  Rh7  1  0.125000  0.125000  0.625000  1
  O  O8  1  0.057728  0.454301  0.454301  1
  O  O9  1  0.795699  0.795699  0.192272  1
  O  O10  1  0.793382  0.207683  0.207683  1
  O  O11  1  0.454301  0.057728  0.454301  1
  O  O12  1  0.042317  0.456618  0.042317  1
  O  O13  1  0.756792  0.756792  0.756792  1
  O  O14  1  0.042317  0.042317  0.456618  1
  O  O15  1  0.207683  0.793382  0.207683  1
  O  O16  1  0.207683  0.207683  0.793382  1
  O  O17  1  0.493208  0.493208  0.493208  1
  O  O18  1  0.795699  0.192272  0.795699  1
  O  O19  1  0.456618  0.042317  0.042317  1
  O  O20  1  0.454301  0.454301  0.057728  1
  O  O21  1  0.192272  0.795699  0.795699  1
