# generated using pymatgen
data_NdLu5V2(Co4P3)4
_symmetry_space_group_name_H-M   'P 1'
_cell_length_a   3.66902200
_cell_length_b   10.51413700
_cell_length_c   12.18205300
_cell_angle_alpha   90.00000000
_cell_angle_beta   90.00000000
_cell_angle_gamma   90.00000000
_symmetry_Int_Tables_number   1
_chemical_formula_structural   NdLu5V2(Co4P3)4
_chemical_formula_sum   'Nd1 Lu5 V2 Co16 P12'
_cell_volume   469.94218532
_cell_formula_units_Z   1
loop_
 _symmetry_equiv_pos_site_id
 _symmetry_equiv_pos_as_xyz
  1  'x, y, z'
loop_
 _atom_site_type_symbol
 _atom_site_label
 _atom_site_symmetry_multiplicity
 _atom_site_fract_x
 _atom_site_fract_y
 _atom_site_fract_z
 _atom_site_occupancy
  Nd  Nd0  1  0.500000  0.000000  0.475762  1
  Lu  Lu1  1  0.000000  0.500000  0.523304  1
  Lu  Lu2  1  0.500000  0.818719  0.203152  1
  Lu  Lu3  1  0.500000  0.181281  0.203152  1
  Lu  Lu4  1  0.000000  0.680422  0.795949  1
  Lu  Lu5  1  0.000000  0.319578  0.795949  1
  V  V6  1  0.500000  0.500000  0.154981  1
  V  V7  1  0.000000  0.000000  0.847684  1
  Co  Co8  1  0.500000  0.500000  0.702203  1
  Co  Co9  1  0.000000  0.000000  0.294476  1
  Co  Co10  1  0.000000  0.500000  0.986248  1
  Co  Co11  1  0.500000  0.000000  0.013325  1
  Co  Co12  1  0.500000  0.332761  0.992525  1
  Co  Co13  1  0.500000  0.667239  0.992525  1
  Co  Co14  1  0.000000  0.168311  0.007429  1
  Co  Co15  1  0.000000  0.831689  0.007429  1
  Co  Co16  1  0.500000  0.299234  0.430851  1
  Co  Co17  1  0.500000  0.700766  0.430851  1
  Co  Co18  1  0.000000  0.208592  0.569479  1
  Co  Co19  1  0.000000  0.791408  0.569479  1
  Co  Co20  1  0.500000  0.876787  0.709381  1
  Co  Co21  1  0.500000  0.123213  0.709381  1
  Co  Co22  1  0.000000  0.620829  0.291400  1
  Co  Co23  1  0.000000  0.379171  0.291400  1
  P  P24  1  0.500000  0.500000  0.880880  1
  P  P25  1  0.000000  0.000000  0.117802  1
  P  P26  1  0.500000  0.500000  0.348883  1
  P  P27  1  0.000000  0.000000  0.657059  1
  P  P28  1  0.500000  0.313580  0.616783  1
  P  P29  1  0.500000  0.686420  0.616783  1
  P  P30  1  0.000000  0.191843  0.381434  1
  P  P31  1  0.000000  0.808157  0.381434  1
  P  P32  1  0.500000  0.844371  0.891767  1
  P  P33  1  0.500000  0.155629  0.891767  1
  P  P34  1  0.000000  0.654647  0.108547  1
  P  P35  1  0.000000  0.345353  0.108547  1
