# generated using pymatgen
data_Lu3Zr3Sn6Ir5Rh
_symmetry_space_group_name_H-M   'P 1'
_cell_length_a   7.46589600
_cell_length_b   7.46589685
_cell_length_c   7.49342800
_cell_angle_alpha   90.00000000
_cell_angle_beta   90.00000000
_cell_angle_gamma   120.00000510
_symmetry_Int_Tables_number   1
_chemical_formula_structural   Lu3Zr3Sn6Ir5Rh
_chemical_formula_sum   'Lu3 Zr3 Sn6 Ir5 Rh1'
_cell_volume   361.72212148
_cell_formula_units_Z   1
loop_
 _symmetry_equiv_pos_site_id
 _symmetry_equiv_pos_as_xyz
  1  'x, y, z'
loop_
 _atom_site_type_symbol
 _atom_site_label
 _atom_site_symmetry_multiplicity
 _atom_site_fract_x
 _atom_site_fract_y
 _atom_site_fract_z
 _atom_site_occupancy
  Lu  Lu0  1  0.592213  0.998877  0.750000  1
  Lu  Lu1  1  0.406664  0.407787  0.750000  1
  Lu  Lu2  1  0.001123  0.593336  0.750000  1
  Zr  Zr3  1  0.608120  0.002442  0.250000  1
  Zr  Zr4  1  0.394323  0.391880  0.250000  1
  Zr  Zr5  1  0.997558  0.605677  0.250000  1
  Sn  Sn6  1  0.265288  0.999137  0.001892  1
  Sn  Sn7  1  0.733848  0.734712  0.498108  1
  Sn  Sn8  1  0.000863  0.266152  0.498108  1
  Sn  Sn9  1  0.000863  0.266152  0.001892  1
  Sn  Sn10  1  0.733848  0.734712  0.001892  1
  Sn  Sn11  1  0.265288  0.999137  0.498108  1
  Ir  Ir12  1  0.666667  0.333333  0.022067  1
  Ir  Ir13  1  0.666667  0.333333  0.477933  1
  Ir  Ir14  1  0.333333  0.666667  0.029167  1
  Ir  Ir15  1  0.333333  0.666667  0.470833  1
  Ir  Ir16  1  0.000000  0.000000  0.250000  1
  Rh  Rh17  1  0.000000  0.000000  0.750000  1
