# generated using pymatgen
data_Nd5Bi3Se
_symmetry_space_group_name_H-M   'P 1'
_cell_length_a   9.58578000
_cell_length_b   9.58578087
_cell_length_c   6.81612100
_cell_angle_alpha   90.00000000
_cell_angle_beta   90.00000000
_cell_angle_gamma   119.99999700
_symmetry_Int_Tables_number   1
_chemical_formula_structural   Nd5Bi3Se
_chemical_formula_sum   'Nd10 Bi6 Se2'
_cell_volume   542.40400867
_cell_formula_units_Z   2
loop_
 _symmetry_equiv_pos_site_id
 _symmetry_equiv_pos_as_xyz
  1  'x, y, z'
loop_
 _atom_site_type_symbol
 _atom_site_label
 _atom_site_symmetry_multiplicity
 _atom_site_fract_x
 _atom_site_fract_y
 _atom_site_fract_z
 _atom_site_occupancy
  Nd  Nd0  1  0.666667  0.333333  0.000000  1
  Nd  Nd1  1  0.333333  0.666667  0.000000  1
  Nd  Nd2  1  0.333333  0.666667  0.500000  1
  Nd  Nd3  1  0.666667  0.333333  0.500000  1
  Nd  Nd4  1  0.745398  0.745398  0.750000  1
  Nd  Nd5  1  0.254602  0.000000  0.750000  1
  Nd  Nd6  1  0.000000  0.254602  0.750000  1
  Nd  Nd7  1  0.254602  0.254602  0.250000  1
  Nd  Nd8  1  0.745398  0.000000  0.250000  1
  Nd  Nd9  1  0.000000  0.745398  0.250000  1
  Bi  Bi10  1  0.393062  0.393062  0.750000  1
  Bi  Bi11  1  0.606938  0.000000  0.750000  1
  Bi  Bi12  1  0.000000  0.606938  0.750000  1
  Bi  Bi13  1  0.606938  0.606938  0.250000  1
  Bi  Bi14  1  0.393062  0.000000  0.250000  1
  Bi  Bi15  1  0.000000  0.393062  0.250000  1
  Se  Se16  1  0.000000  0.000000  0.000000  1
  Se  Se17  1  0.000000  0.000000  0.500000  1
