# generated using pymatgen
data_La9PrTl5Sn
_symmetry_space_group_name_H-M   'P 1'
_cell_length_a   9.69220717
_cell_length_b   9.69276450
_cell_length_c   9.60447900
_cell_angle_alpha   96.11865159
_cell_angle_beta   96.11552078
_cell_angle_gamma   142.07453424
_symmetry_Int_Tables_number   1
_chemical_formula_structural   La9PrTl5Sn
_chemical_formula_sum   'La9 Pr1 Tl5 Sn1'
_cell_volume   523.91101177
_cell_formula_units_Z   1
loop_
 _symmetry_equiv_pos_site_id
 _symmetry_equiv_pos_as_xyz
  1  'x, y, z'
loop_
 _atom_site_type_symbol
 _atom_site_label
 _atom_site_symmetry_multiplicity
 _atom_site_fract_x
 _atom_site_fract_y
 _atom_site_fract_z
 _atom_site_occupancy
  La  La0  1  0.249025  0.748286  0.499963  1
  La  La1  1  0.913005  0.218923  0.133270  1
  La  La2  1  0.220905  0.089198  0.308558  1
  La  La3  1  0.779835  0.912492  0.690992  1
  La  La4  1  0.086617  0.779723  0.867418  1
  La  La5  1  0.719271  0.412322  0.132584  1
  La  La6  1  0.279735  0.585649  0.866774  1
  La  La7  1  0.588763  0.721395  0.309013  1
  La  La8  1  0.412352  0.280736  0.691482  1
  Pr  Pr9  1  0.752001  0.251005  0.500035  1
  Tl  Tl10  1  0.749621  0.749979  0.999968  1
  Tl  Tl11  1  0.249654  0.250015  0.000026  1
  Tl  Tl12  1  0.837947  0.657757  0.499974  1
  Tl  Tl13  1  0.662311  0.162312  0.820474  1
  Tl  Tl14  1  0.341883  0.841867  0.179520  1
  Sn  Sn15  1  0.157076  0.338338  0.499950  1
