# generated using pymatgen
data_Dy2ScBe2Rh5
_symmetry_space_group_name_H-M   'P 1'
_cell_length_a   9.71553100
_cell_length_b   9.71553100
_cell_length_c   3.30581900
_cell_angle_alpha   90.00000000
_cell_angle_beta   90.00000000
_cell_angle_gamma   90.00000000
_symmetry_Int_Tables_number   1
_chemical_formula_structural   Dy2ScBe2Rh5
_chemical_formula_sum   'Dy4 Sc2 Be4 Rh10'
_cell_volume   312.04135501
_cell_formula_units_Z   2
loop_
 _symmetry_equiv_pos_site_id
 _symmetry_equiv_pos_as_xyz
  1  'x, y, z'
loop_
 _atom_site_type_symbol
 _atom_site_label
 _atom_site_symmetry_multiplicity
 _atom_site_fract_x
 _atom_site_fract_y
 _atom_site_fract_z
 _atom_site_occupancy
  Dy  Dy0  1  0.825108  0.325108  0.000000  1
  Dy  Dy1  1  0.325108  0.174892  0.000000  1
  Dy  Dy2  1  0.674892  0.825108  0.000000  1
  Dy  Dy3  1  0.174892  0.674892  0.000000  1
  Sc  Sc4  1  0.000000  0.000000  0.000000  1
  Sc  Sc5  1  0.500000  0.500000  0.000000  1
  Be  Be6  1  0.621654  0.121654  0.000000  1
  Be  Be7  1  0.121654  0.378346  0.000000  1
  Be  Be8  1  0.878346  0.621654  0.000000  1
  Be  Be9  1  0.378346  0.878346  0.000000  1
  Rh  Rh10  1  0.070009  0.216585  0.500000  1
  Rh  Rh11  1  0.216585  0.929991  0.500000  1
  Rh  Rh12  1  0.783415  0.070009  0.500000  1
  Rh  Rh13  1  0.929991  0.783415  0.500000  1
  Rh  Rh14  1  0.429991  0.716585  0.500000  1
  Rh  Rh15  1  0.570009  0.283415  0.500000  1
  Rh  Rh16  1  0.716585  0.570009  0.500000  1
  Rh  Rh17  1  0.283415  0.429991  0.500000  1
  Rh  Rh18  1  0.500000  0.000000  0.500000  1
  Rh  Rh19  1  0.000000  0.500000  0.500000  1
