# generated using pymatgen
data_Pa5GaSnSb2
_symmetry_space_group_name_H-M   'P 1'
_cell_length_a   9.19399100
_cell_length_b   9.20793159
_cell_length_c   6.20197200
_cell_angle_alpha   90.00000000
_cell_angle_beta   90.00000000
_cell_angle_gamma   120.05017300
_symmetry_Int_Tables_number   1
_chemical_formula_structural   Pa5GaSnSb2
_chemical_formula_sum   'Pa10 Ga2 Sn2 Sb4'
_cell_volume   454.47165335
_cell_formula_units_Z   2
loop_
 _symmetry_equiv_pos_site_id
 _symmetry_equiv_pos_as_xyz
  1  'x, y, z'
loop_
 _atom_site_type_symbol
 _atom_site_label
 _atom_site_symmetry_multiplicity
 _atom_site_fract_x
 _atom_site_fract_y
 _atom_site_fract_z
 _atom_site_occupancy
  Pa  Pa0  1  0.667363  0.333829  0.998750  1
  Pa  Pa1  1  0.332637  0.666467  0.998750  1
  Pa  Pa2  1  0.332637  0.666467  0.501250  1
  Pa  Pa3  1  0.667363  0.333829  0.501250  1
  Pa  Pa4  1  0.723820  0.723412  0.750000  1
  Pa  Pa5  1  0.276180  0.999592  0.750000  1
  Pa  Pa6  1  0.000000  0.277505  0.750000  1
  Pa  Pa7  1  0.276027  0.275715  0.250000  1
  Pa  Pa8  1  0.723973  0.999688  0.250000  1
  Pa  Pa9  1  0.000000  0.723642  0.250000  1
  Ga  Ga10  1  0.000000  0.000363  0.998882  1
  Ga  Ga11  1  0.000000  0.000363  0.501118  1
  Sn  Sn12  1  0.377630  0.377472  0.750000  1
  Sn  Sn13  1  0.622370  0.999842  0.750000  1
  Sb  Sb14  1  0.000000  0.621851  0.750000  1
  Sb  Sb15  1  0.620816  0.621519  0.250000  1
  Sb  Sb16  1  0.379184  0.000703  0.250000  1
  Sb  Sb17  1  0.000000  0.377737  0.250000  1
