# generated using pymatgen
data_TbErFe3Co9P7
_symmetry_space_group_name_H-M   'P 1'
_cell_length_a   3.62182200
_cell_length_b   8.98274951
_cell_length_c   8.98307305
_cell_angle_alpha   119.99744580
_cell_angle_beta   90.00000000
_cell_angle_gamma   90.00000000
_symmetry_Int_Tables_number   1
_chemical_formula_structural   TbErFe3Co9P7
_chemical_formula_sum   'Tb1 Er1 Fe3 Co9 P7'
_cell_volume   253.10640306
_cell_formula_units_Z   1
loop_
 _symmetry_equiv_pos_site_id
 _symmetry_equiv_pos_as_xyz
  1  'x, y, z'
loop_
 _atom_site_type_symbol
 _atom_site_label
 _atom_site_symmetry_multiplicity
 _atom_site_fract_x
 _atom_site_fract_y
 _atom_site_fract_z
 _atom_site_occupancy
  Tb  Tb0  1  0.000000  0.666529  0.333242  1
  Er  Er1  1  0.500000  0.333437  0.666626  1
  Fe  Fe2  1  0.500000  0.123626  0.905938  1
  Fe  Fe3  1  0.500000  0.094102  0.217672  1
  Fe  Fe4  1  0.500000  0.782311  0.876443  1
  Co  Co5  1  0.000000  0.370128  0.938951  1
  Co  Co6  1  0.000000  0.061139  0.431193  1
  Co  Co7  1  0.000000  0.568739  0.629886  1
  Co  Co8  1  0.000000  0.883100  0.725570  1
  Co  Co9  1  0.000000  0.274486  0.157595  1
  Co  Co10  1  0.000000  0.842384  0.116896  1
  Co  Co11  1  0.500000  0.951744  0.566326  1
  Co  Co12  1  0.500000  0.433669  0.385398  1
  Co  Co13  1  0.500000  0.614579  0.048220  1
  P  P14  1  0.000000  0.113520  0.702808  1
  P  P15  1  0.000000  0.297216  0.410677  1
  P  P16  1  0.000000  0.589316  0.886534  1
  P  P17  1  0.500000  0.710439  0.599172  1
  P  P18  1  0.500000  0.400849  0.111313  1
  P  P19  1  0.500000  0.888653  0.289537  1
  P  P20  1  0.000000  0.000037  0.999999  1
