# generated using pymatgen
data_Lu8Hg3Au
_symmetry_space_group_name_H-M   'P 1'
_cell_length_a   4.95378900
_cell_length_b   6.91917290
_cell_length_c   8.99067313
_cell_angle_alpha   90.01558470
_cell_angle_beta   90.00000000
_cell_angle_gamma   90.00000000
_symmetry_Int_Tables_number   1
_chemical_formula_structural   Lu8Hg3Au
_chemical_formula_sum   'Lu8 Hg3 Au1'
_cell_volume   308.16540302
_cell_formula_units_Z   1
loop_
 _symmetry_equiv_pos_site_id
 _symmetry_equiv_pos_as_xyz
  1  'x, y, z'
loop_
 _atom_site_type_symbol
 _atom_site_label
 _atom_site_symmetry_multiplicity
 _atom_site_fract_x
 _atom_site_fract_y
 _atom_site_fract_z
 _atom_site_occupancy
  Lu  Lu0  1  0.250000  0.838759  0.923811  1
  Lu  Lu1  1  0.250000  0.332436  0.570437  1
  Lu  Lu2  1  0.750000  0.168800  0.084852  1
  Lu  Lu3  1  0.750000  0.651295  0.424118  1
  Lu  Lu4  1  0.250000  0.485946  0.190669  1
  Lu  Lu5  1  0.250000  0.989124  0.313086  1
  Lu  Lu6  1  0.750000  0.514637  0.807596  1
  Lu  Lu7  1  0.750000  0.019439  0.683615  1
  Hg  Hg8  1  0.250000  0.262922  0.897187  1
  Hg  Hg9  1  0.250000  0.757613  0.601996  1
  Hg  Hg10  1  0.750000  0.739868  0.101410  1
  Au  Au11  1  0.750000  0.239161  0.401223  1
