# generated using pymatgen
data_Y5Ni16(As4Pd)3
_symmetry_space_group_name_H-M   'P 1'
_cell_length_a   12.67525000
_cell_length_b   12.67525007
_cell_length_c   3.92139700
_cell_angle_alpha   90.00000000
_cell_angle_beta   90.00000000
_cell_angle_gamma   120.00000504
_symmetry_Int_Tables_number   1
_chemical_formula_structural   Y5Ni16(As4Pd)3
_chemical_formula_sum   'Y5 Ni16 As12 Pd3'
_cell_volume   545.61272677
_cell_formula_units_Z   1
loop_
 _symmetry_equiv_pos_site_id
 _symmetry_equiv_pos_as_xyz
  1  'x, y, z'
loop_
 _atom_site_type_symbol
 _atom_site_label
 _atom_site_symmetry_multiplicity
 _atom_site_fract_x
 _atom_site_fract_y
 _atom_site_fract_z
 _atom_site_occupancy
  Y  Y0  1  0.185466  0.185466  0.500000  1
  Y  Y1  1  0.814534  0.000000  0.500000  1
  Y  Y2  1  0.000000  0.814534  0.500000  1
  Y  Y3  1  0.333333  0.666667  0.000000  1
  Y  Y4  1  0.666667  0.333333  0.000000  1
  Ni  Ni5  1  0.716730  0.716730  0.500000  1
  Ni  Ni6  1  0.283270  0.000000  0.500000  1
  Ni  Ni7  1  0.000000  0.283270  0.500000  1
  Ni  Ni8  1  0.183050  0.378086  0.000000  1
  Ni  Ni9  1  0.621914  0.804965  0.000000  1
  Ni  Ni10  1  0.195035  0.816950  0.000000  1
  Ni  Ni11  1  0.804965  0.621914  0.000000  1
  Ni  Ni12  1  0.816950  0.195035  0.000000  1
  Ni  Ni13  1  0.378086  0.183050  0.000000  1
  Ni  Ni14  1  0.360016  0.483381  0.500000  1
  Ni  Ni15  1  0.516619  0.876635  0.500000  1
  Ni  Ni16  1  0.123365  0.639984  0.500000  1
  Ni  Ni17  1  0.876635  0.516619  0.500000  1
  Ni  Ni18  1  0.639984  0.123365  0.500000  1
  Ni  Ni19  1  0.483381  0.360016  0.500000  1
  Ni  Ni20  1  0.000000  0.000000  0.000000  1
  As  As21  1  0.821785  0.821785  0.000000  1
  As  As22  1  0.178215  0.000000  0.000000  1
  As  As23  1  0.000000  0.178215  0.000000  1
  As  As24  1  0.171199  0.480275  0.500000  1
  As  As25  1  0.519725  0.690925  0.500000  1
  As  As26  1  0.309075  0.828801  0.500000  1
  As  As27  1  0.690925  0.519725  0.500000  1
  As  As28  1  0.828801  0.309075  0.500000  1
  As  As29  1  0.480275  0.171199  0.500000  1
  As  As30  1  0.361126  0.361126  0.000000  1
  As  As31  1  0.638874  0.000000  0.000000  1
  As  As32  1  0.000000  0.638874  0.000000  1
  Pd  Pd33  1  0.557118  0.557118  0.000000  1
  Pd  Pd34  1  0.442882  0.000000  0.000000  1
  Pd  Pd35  1  0.000000  0.442882  0.000000  1
