# generated using pymatgen
data_Sm2DyU5(ReB6)4
_symmetry_space_group_name_H-M   'P 1'
_cell_length_a   3.65609200
_cell_length_b   9.32836903
_cell_length_c   11.44057528
_cell_angle_alpha   90.03198966
_cell_angle_beta   90.00000000
_cell_angle_gamma   90.00000000
_symmetry_Int_Tables_number   1
_chemical_formula_structural   Sm2DyU5(ReB6)4
_chemical_formula_sum   'Sm2 Dy1 U5 Re4 B24'
_cell_volume   390.18505392
_cell_formula_units_Z   1
loop_
 _symmetry_equiv_pos_site_id
 _symmetry_equiv_pos_as_xyz
  1  'x, y, z'
loop_
 _atom_site_type_symbol
 _atom_site_label
 _atom_site_symmetry_multiplicity
 _atom_site_fract_x
 _atom_site_fract_y
 _atom_site_fract_z
 _atom_site_occupancy
  Sm  Sm0  1  0.000000  0.336723  0.407317  1
  Sm  Sm1  1  0.000000  0.663286  0.592455  1
  Dy  Dy2  1  0.000000  0.835664  0.092806  1
  U  U3  1  0.000000  0.163132  0.907555  1
  U  U4  1  0.000000  0.956550  0.396678  1
  U  U5  1  0.000000  0.042561  0.603698  1
  U  U6  1  0.000000  0.457983  0.103431  1
  U  U7  1  0.000000  0.543496  0.897286  1
  Re  Re8  1  0.000000  0.647373  0.317465  1
  Re  Re9  1  0.000000  0.350585  0.685205  1
  Re  Re10  1  0.000000  0.145557  0.177337  1
  Re  Re11  1  0.000000  0.858064  0.820103  1
  B  B12  1  0.500000  0.553556  0.429651  1
  B  B13  1  0.500000  0.445663  0.571259  1
  B  B14  1  0.500000  0.052624  0.067440  1
  B  B15  1  0.500000  0.950139  0.930536  1
  B  B16  1  0.500000  0.744514  0.422016  1
  B  B17  1  0.500000  0.255405  0.578085  1
  B  B18  1  0.500000  0.242678  0.075584  1
  B  B19  1  0.500000  0.756771  0.923063  1
  B  B20  1  0.500000  0.802736  0.274386  1
  B  B21  1  0.500000  0.196007  0.726993  1
  B  B22  1  0.500000  0.301701  0.223782  1
  B  B23  1  0.500000  0.698654  0.775983  1
  B  B24  1  0.500000  0.644549  0.187938  1
  B  B25  1  0.500000  0.354149  0.812840  1
  B  B26  1  0.500000  0.143251  0.310350  1
  B  B27  1  0.500000  0.856403  0.688997  1
  B  B28  1  0.500000  0.989289  0.219021  1
  B  B29  1  0.500000  0.013012  0.781420  1
  B  B30  1  0.500000  0.490337  0.279471  1
  B  B31  1  0.500000  0.509474  0.720972  1
  B  B32  1  0.500000  0.640896  0.038558  1
  B  B33  1  0.500000  0.357106  0.960631  1
  B  B34  1  0.500000  0.137603  0.461440  1
  B  B35  1  0.500000  0.862506  0.538250  1
