# generated using pymatgen
data_CeHo3(ZnIr)4
_symmetry_space_group_name_H-M   'P 1'
_cell_length_a   6.94156222
_cell_length_b   4.07204300
_cell_length_c   8.15203751
_cell_angle_alpha   90.00000000
_cell_angle_beta   90.18122928
_cell_angle_gamma   90.00000000
_symmetry_Int_Tables_number   1
_chemical_formula_structural   CeHo3(ZnIr)4
_chemical_formula_sum   'Ce1 Ho3 Zn4 Ir4'
_cell_volume   230.42710989
_cell_formula_units_Z   1
loop_
 _symmetry_equiv_pos_site_id
 _symmetry_equiv_pos_as_xyz
  1  'x, y, z'
loop_
 _atom_site_type_symbol
 _atom_site_label
 _atom_site_symmetry_multiplicity
 _atom_site_fract_x
 _atom_site_fract_y
 _atom_site_fract_z
 _atom_site_occupancy
  Ce  Ce0  1  0.534283  0.750000  0.683754  1
  Ho  Ho1  1  0.962018  0.250000  0.182485  1
  Ho  Ho2  1  0.465112  0.250000  0.312812  1
  Ho  Ho3  1  0.033616  0.750000  0.818672  1
  Zn  Zn4  1  0.868113  0.250000  0.563615  1
  Zn  Zn5  1  0.354713  0.250000  0.939525  1
  Zn  Zn6  1  0.138980  0.750000  0.432399  1
  Zn  Zn7  1  0.640631  0.750000  0.068291  1
  Ir  Ir8  1  0.739084  0.250000  0.873357  1
  Ir  Ir9  1  0.252085  0.250000  0.622280  1
  Ir  Ir10  1  0.253812  0.750000  0.121880  1
  Ir  Ir11  1  0.757555  0.750000  0.380931  1
