# generated using pymatgen
data_SmCu2HgPd2
_symmetry_space_group_name_H-M   'P 1'
_cell_length_a   5.52583694
_cell_length_b   5.27061692
_cell_length_c   5.27061761
_cell_angle_alpha   58.55510659
_cell_angle_beta   58.38481263
_cell_angle_gamma   58.38482150
_symmetry_Int_Tables_number   1
_chemical_formula_structural   SmCu2HgPd2
_chemical_formula_sum   'Sm1 Cu2 Hg1 Pd2'
_cell_volume   104.67252228
_cell_formula_units_Z   1
loop_
 _symmetry_equiv_pos_site_id
 _symmetry_equiv_pos_as_xyz
  1  'x, y, z'
loop_
 _atom_site_type_symbol
 _atom_site_label
 _atom_site_symmetry_multiplicity
 _atom_site_fract_x
 _atom_site_fract_y
 _atom_site_fract_z
 _atom_site_occupancy
  Sm  Sm0  1  0.998032  0.001968  0.001968  1
  Cu  Cu1  1  0.379172  0.872044  0.369613  1
  Cu  Cu2  1  0.379172  0.369613  0.872044  1
  Hg  Hg3  1  0.740985  0.759015  0.759015  1
  Pd  Pd4  1  0.376486  0.373680  0.373680  1
  Pd  Pd5  1  0.876153  0.373680  0.373680  1
