# generated using pymatgen
data_La8Nd12Si15Pd
_symmetry_space_group_name_H-M   'P 1'
_cell_length_a   7.95936651
_cell_length_b   7.95308361
_cell_length_c   15.27778192
_cell_angle_alpha   89.94236663
_cell_angle_beta   89.55260512
_cell_angle_gamma   90.04507043
_symmetry_Int_Tables_number   1
_chemical_formula_structural   La8Nd12Si15Pd
_chemical_formula_sum   'La8 Nd12 Si15 Pd1'
_cell_volume   967.07634606
_cell_formula_units_Z   1
loop_
 _symmetry_equiv_pos_site_id
 _symmetry_equiv_pos_as_xyz
  1  'x, y, z'
loop_
 _atom_site_type_symbol
 _atom_site_label
 _atom_site_symmetry_multiplicity
 _atom_site_fract_x
 _atom_site_fract_y
 _atom_site_fract_z
 _atom_site_occupancy
  La  La0  1  0.988622  0.622126  0.052837  1
  La  La1  1  0.012801  0.373840  0.551058  1
  La  La2  1  0.624369  0.986394  0.948779  1
  La  La3  1  0.124382  0.512136  0.801528  1
  La  La4  1  0.871312  0.482401  0.300150  1
  La  La5  1  0.511425  0.123808  0.197614  1
  La  La6  1  0.489902  0.876510  0.698431  1
  La  La7  1  0.380028  0.017218  0.450452  1
  Nd  Nd8  1  0.374783  0.480024  0.374602  1
  Nd  Nd9  1  0.869544  0.021536  0.373356  1
  Nd  Nd10  1  0.980989  0.128269  0.124119  1
  Nd  Nd11  1  0.023169  0.872385  0.622870  1
  Nd  Nd12  1  0.627724  0.518859  0.873422  1
  Nd  Nd13  1  0.483287  0.372620  0.626417  1
  Nd  Nd14  1  0.516811  0.626493  0.126290  1
  Nd  Nd15  1  0.125807  0.981712  0.877327  1
  Nd  Nd16  1  0.692698  0.694954  0.497956  1
  Nd  Nd17  1  0.809747  0.190432  0.749234  1
  Nd  Nd18  1  0.187801  0.804285  0.255034  1
  Nd  Nd19  1  0.305467  0.308861  0.000194  1
  Si  Si20  1  0.920002  0.286496  0.938784  1
  Si  Si21  1  0.714245  0.078542  0.560980  1
  Si  Si22  1  0.215237  0.421544  0.190113  1
  Si  Si23  1  0.788140  0.578794  0.688644  1
  Si  Si24  1  0.421442  0.213834  0.810991  1
  Si  Si25  1  0.576756  0.787071  0.309477  1
  Si  Si26  1  0.286404  0.922422  0.061276  1
  Si  Si27  1  0.831497  0.805381  0.796835  1
  Si  Si28  1  0.168447  0.196378  0.298288  1
  Si  Si29  1  0.802050  0.832455  0.200904  1
  Si  Si30  1  0.310900  0.669142  0.548507  1
  Si  Si31  1  0.693890  0.331548  0.046118  1
  Si  Si32  1  0.668871  0.305403  0.453923  1
  Si  Si33  1  0.330365  0.694622  0.953334  1
  Si  Si34  1  0.196172  0.169251  0.702011  1
  Pd  Pd35  1  0.074915  0.712258  0.438148  1
