# generated using pymatgen
data_Lu3Hf7(In2Rh)4
_symmetry_space_group_name_H-M   'P 1'
_cell_length_a   3.42098000
_cell_length_b   7.72285365
_cell_length_c   17.59898588
_cell_angle_alpha   89.87644374
_cell_angle_beta   90.00000000
_cell_angle_gamma   90.00000000
_symmetry_Int_Tables_number   1
_chemical_formula_structural   Lu3Hf7(In2Rh)4
_chemical_formula_sum   'Lu3 Hf7 In8 Rh4'
_cell_volume   464.95933708
_cell_formula_units_Z   1
loop_
 _symmetry_equiv_pos_site_id
 _symmetry_equiv_pos_as_xyz
  1  'x, y, z'
loop_
 _atom_site_type_symbol
 _atom_site_label
 _atom_site_symmetry_multiplicity
 _atom_site_fract_x
 _atom_site_fract_y
 _atom_site_fract_z
 _atom_site_occupancy
  Lu  Lu0  1  0.000000  0.747818  0.780203  1
  Lu  Lu1  1  0.000000  0.248479  0.719931  1
  Lu  Lu2  1  0.000000  0.750472  0.279053  1
  Hf  Hf3  1  0.000000  0.130493  0.417272  1
  Hf  Hf4  1  0.000000  0.871817  0.580372  1
  Hf  Hf5  1  0.000000  0.371243  0.920269  1
  Hf  Hf6  1  0.000000  0.627818  0.082334  1
  Hf  Hf7  1  0.000000  0.251400  0.222115  1
  Hf  Hf8  1  0.000000  0.000238  0.001086  1
  Hf  Hf9  1  0.000000  0.500507  0.498912  1
  In  In10  1  0.500000  0.428642  0.351460  1
  In  In11  1  0.500000  0.571096  0.647150  1
  In  In12  1  0.500000  0.070999  0.852948  1
  In  In13  1  0.500000  0.931556  0.147620  1
  In  In14  1  0.500000  0.294845  0.065719  1
  In  In15  1  0.500000  0.703123  0.937444  1
  In  In16  1  0.500000  0.202763  0.562764  1
  In  In17  1  0.500000  0.799763  0.435028  1
  Rh  Rh18  1  0.500000  0.048408  0.306991  1
  Rh  Rh19  1  0.500000  0.959579  0.688387  1
  Rh  Rh20  1  0.500000  0.459373  0.812185  1
  Rh  Rh21  1  0.500000  0.529565  0.190752  1
