# generated using pymatgen
data_HoEr2Cu4Ni9B2
_symmetry_space_group_name_H-M   'P 1'
_cell_length_a   4.99530300
_cell_length_b   4.99530386
_cell_length_c   10.82767700
_cell_angle_alpha   90.00000000
_cell_angle_beta   90.00000000
_cell_angle_gamma   120.00000094
_symmetry_Int_Tables_number   1
_chemical_formula_structural   HoEr2Cu4Ni9B2
_chemical_formula_sum   'Ho1 Er2 Cu4 Ni9 B2'
_cell_volume   233.98588879
_cell_formula_units_Z   1
loop_
 _symmetry_equiv_pos_site_id
 _symmetry_equiv_pos_as_xyz
  1  'x, y, z'
loop_
 _atom_site_type_symbol
 _atom_site_label
 _atom_site_symmetry_multiplicity
 _atom_site_fract_x
 _atom_site_fract_y
 _atom_site_fract_z
 _atom_site_occupancy
  Ho  Ho0  1  0.000000  0.000000  0.332504  1
  Er  Er1  1  0.000000  0.000000  0.999998  1
  Er  Er2  1  0.000000  0.000000  0.667501  1
  Cu  Cu3  1  0.666667  0.333333  0.682610  1
  Cu  Cu4  1  0.333333  0.666667  0.682610  1
  Cu  Cu5  1  0.333333  0.666667  0.317388  1
  Cu  Cu6  1  0.666667  0.333333  0.317388  1
  Ni  Ni7  1  0.500000  0.500000  0.500007  1
  Ni  Ni8  1  0.500000  0.000000  0.500007  1
  Ni  Ni9  1  0.000000  0.500000  0.500007  1
  Ni  Ni10  1  0.500000  0.500000  0.869478  1
  Ni  Ni11  1  0.500000  0.000000  0.869478  1
  Ni  Ni12  1  0.000000  0.500000  0.869478  1
  Ni  Ni13  1  0.500000  0.500000  0.130517  1
  Ni  Ni14  1  0.500000  0.000000  0.130517  1
  Ni  Ni15  1  0.000000  0.500000  0.130517  1
  B  B16  1  0.666667  0.333333  0.999999  1
  B  B17  1  0.333333  0.666667  0.999999  1
