# generated using pymatgen
data_Tm8Si16(OsRu3)3
_symmetry_space_group_name_H-M   'P 1'
_cell_length_a   10.17640372
_cell_length_b   10.17927821
_cell_length_c   13.77252000
_cell_angle_alpha   53.30715776
_cell_angle_beta   53.32507069
_cell_angle_gamma   30.81256011
_symmetry_Int_Tables_number   1
_chemical_formula_structural   Tm8Si16(OsRu3)3
_chemical_formula_sum   'Tm8 Si16 Os3 Ru9'
_cell_volume   573.56904443
_cell_formula_units_Z   1
loop_
 _symmetry_equiv_pos_site_id
 _symmetry_equiv_pos_as_xyz
  1  'x, y, z'
loop_
 _atom_site_type_symbol
 _atom_site_label
 _atom_site_symmetry_multiplicity
 _atom_site_fract_x
 _atom_site_fract_y
 _atom_site_fract_z
 _atom_site_occupancy
  Tm  Tm0  1  0.037914  0.289612  0.639677  1
  Tm  Tm1  1  0.710999  0.961619  0.860366  1
  Tm  Tm2  1  0.962083  0.710092  0.360573  1
  Tm  Tm3  1  0.289442  0.038244  0.139849  1
  Tm  Tm4  1  0.300748  0.555672  0.644366  1
  Tm  Tm5  1  0.444014  0.699455  0.855591  1
  Tm  Tm6  1  0.699038  0.443998  0.355730  1
  Tm  Tm7  1  0.557208  0.299980  0.143934  1
  Si  Si8  1  0.978926  0.248542  0.894814  1
  Si  Si9  1  0.751666  0.020083  0.606031  1
  Si  Si10  1  0.019804  0.752056  0.106511  1
  Si  Si11  1  0.248492  0.979510  0.393719  1
  Si  Si12  1  0.137215  0.384991  0.900994  1
  Si  Si13  1  0.614918  0.862193  0.599345  1
  Si  Si14  1  0.861989  0.615197  0.099782  1
  Si  Si15  1  0.385315  0.137910  0.400369  1
  Si  Si16  1  0.082114  0.573242  0.569755  1
  Si  Si17  1  0.426429  0.917889  0.930393  1
  Si  Si18  1  0.918032  0.426468  0.430119  1
  Si  Si19  1  0.573525  0.082156  0.069661  1
  Si  Si20  1  0.621325  0.378720  0.749963  1
  Si  Si21  1  0.378955  0.620896  0.249430  1
  Si  Si22  1  0.128610  0.871429  0.749929  1
  Si  Si23  1  0.870909  0.129095  0.249658  1
  Os  Os24  1  0.896845  0.140258  0.587311  1
  Os  Os25  1  0.860309  0.102820  0.912561  1
  Os  Os26  1  0.103111  0.859589  0.412256  1
  Ru  Ru27  1  0.139905  0.897853  0.087336  1
  Ru  Ru28  1  0.837285  0.640143  0.783313  1
  Ru  Ru29  1  0.360266  0.163016  0.716044  1
  Ru  Ru30  1  0.163810  0.359589  0.216256  1
  Ru  Ru31  1  0.640215  0.836545  0.283809  1
  Ru  Ru32  1  0.251321  0.502365  0.931919  1
  Ru  Ru33  1  0.497312  0.748896  0.568130  1
  Ru  Ru34  1  0.746870  0.498887  0.068382  1
  Ru  Ru35  1  0.503082  0.250995  0.432125  1
