# generated using pymatgen
data_La10Fe2Br15
_symmetry_space_group_name_H-M   'P 1'
_cell_length_a   9.40869173
_cell_length_b   10.83325960
_cell_length_c   11.48798218
_cell_angle_alpha   92.36781705
_cell_angle_beta   113.50493357
_cell_angle_gamma   110.02288729
_symmetry_Int_Tables_number   1
_chemical_formula_structural   La10Fe2Br15
_chemical_formula_sum   'La10 Fe2 Br15'
_cell_volume   987.13987165
_cell_formula_units_Z   1
loop_
 _symmetry_equiv_pos_site_id
 _symmetry_equiv_pos_as_xyz
  1  'x, y, z'
loop_
 _atom_site_type_symbol
 _atom_site_label
 _atom_site_symmetry_multiplicity
 _atom_site_fract_x
 _atom_site_fract_y
 _atom_site_fract_z
 _atom_site_occupancy
  La  La0  1  0.222965  0.583946  0.053747  1
  La  La1  1  0.777035  0.416054  0.946253  1
  La  La2  1  0.311658  0.911345  0.275463  1
  La  La3  1  0.688342  0.088655  0.724537  1
  La  La4  1  0.099545  0.548067  0.346534  1
  La  La5  1  0.900455  0.451933  0.653466  1
  La  La6  1  0.838646  0.744543  0.172095  1
  La  La7  1  0.161354  0.255457  0.827905  1
  La  La8  1  0.972206  0.802496  0.892518  1
  La  La9  1  0.027794  0.197504  0.107482  1
  Fe  Fe10  1  0.028517  0.683420  0.124695  1
  Fe  Fe11  1  0.971483  0.316580  0.875305  1
  Br  Br12  1  0.330225  0.440963  0.293442  1
  Br  Br13  1  0.669775  0.559037  0.706558  1
  Br  Br14  1  0.199711  0.724573  0.813427  1
  Br  Br15  1  0.800289  0.275427  0.186573  1
  Br  Br16  1  0.142766  0.386381  0.585515  1
  Br  Br17  1  0.857234  0.613619  0.414485  1
  Br  Br18  1  0.388899  0.803907  0.524056  1
  Br  Br19  1  0.611101  0.196093  0.475944  1
  Br  Br20  1  0.259606  0.084112  0.052499  1
  Br  Br21  1  0.740394  0.915888  0.947501  1
  Br  Br22  1  0.564165  0.838875  0.221527  1
  Br  Br23  1  0.435835  0.161125  0.778473  1
  Br  Br24  1  0.091372  0.030296  0.331729  1
  Br  Br25  1  0.908628  0.969704  0.668271  1
  Br  Br26  1  0.500000  0.500000  0.000000  1
