# generated using pymatgen
data_ZnCo(Se2O7)2
_symmetry_space_group_name_H-M   'P 1'
_cell_length_a   8.67215313
_cell_length_b   5.15614186
_cell_length_c   7.38097308
_cell_angle_alpha   72.16211767
_cell_angle_beta   89.84338856
_cell_angle_gamma   89.86277666
_symmetry_Int_Tables_number   1
_chemical_formula_structural   ZnCo(Se2O7)2
_chemical_formula_sum   'Zn1 Co1 Se4 O14'
_cell_volume   314.17157516
_cell_formula_units_Z   1
loop_
 _symmetry_equiv_pos_site_id
 _symmetry_equiv_pos_as_xyz
  1  'x, y, z'
loop_
 _atom_site_type_symbol
 _atom_site_label
 _atom_site_symmetry_multiplicity
 _atom_site_fract_x
 _atom_site_fract_y
 _atom_site_fract_z
 _atom_site_occupancy
  Zn  Zn0  1  0.007143  0.219236  0.271805  1
  Co  Co1  1  0.506342  0.779879  0.727978  1
  Se  Se2  1  0.784066  0.789778  0.084744  1
  Se  Se3  1  0.689240  0.386612  0.494857  1
  Se  Se4  1  0.285308  0.209744  0.914099  1
  Se  Se5  1  0.188454  0.613078  0.506384  1
  O  O6  1  0.364537  0.731351  0.510720  1
  O  O7  1  0.866766  0.271699  0.492162  1
  O  O8  1  0.641657  0.582065  0.248587  1
  O  O9  1  0.822518  0.053457  0.159222  1
  O  O10  1  0.684255  0.602514  0.620859  1
  O  O11  1  0.141285  0.414091  0.752885  1
  O  O12  1  0.044800  0.832277  0.473804  1
  O  O13  1  0.547780  0.163571  0.528996  1
  O  O14  1  0.934742  0.596357  0.075412  1
  O  O15  1  0.678943  0.890875  0.890161  1
  O  O16  1  0.186577  0.403659  0.376147  1
  O  O17  1  0.323292  0.944993  0.839225  1
  O  O18  1  0.182811  0.109757  0.111684  1
  O  O19  1  0.435359  0.405006  0.920270  1
