# generated using pymatgen
data_LaZnAsRh3
_symmetry_space_group_name_H-M   'P 1'
_cell_length_a   5.71858818
_cell_length_b   6.87731105
_cell_length_c   6.87731031
_cell_angle_alpha   67.27904167
_cell_angle_beta   65.15216212
_cell_angle_gamma   65.15215620
_symmetry_Int_Tables_number   1
_chemical_formula_structural   LaZnAsRh3
_chemical_formula_sum   'La2 Zn2 As2 Rh6'
_cell_volume   215.37406494
_cell_formula_units_Z   2
loop_
 _symmetry_equiv_pos_site_id
 _symmetry_equiv_pos_as_xyz
  1  'x, y, z'
loop_
 _atom_site_type_symbol
 _atom_site_label
 _atom_site_symmetry_multiplicity
 _atom_site_fract_x
 _atom_site_fract_y
 _atom_site_fract_z
 _atom_site_occupancy
  La  La0  1  0.537174  0.744675  0.744675  1
  La  La1  1  0.462826  0.255325  0.255325  1
  Zn  Zn2  1  0.213485  0.570906  0.570906  1
  Zn  Zn3  1  0.786515  0.429094  0.429094  1
  As  As4  1  0.128741  0.097726  0.097726  1
  As  As5  1  0.871259  0.902274  0.902274  1
  Rh  Rh6  1  0.500000  0.212274  0.787726  1
  Rh  Rh7  1  0.000000  0.756802  0.243198  1
  Rh  Rh8  1  0.500000  0.787726  0.212274  1
  Rh  Rh9  1  0.000000  0.243198  0.756802  1
  Rh  Rh10  1  0.000000  0.500000  0.000000  1
  Rh  Rh11  1  0.000000  0.000000  0.500000  1
