# generated using pymatgen
data_Sc22IrOs7
_symmetry_space_group_name_H-M   'P 1'
_cell_length_a   9.47102296
_cell_length_b   9.39526160
_cell_length_c   9.47102310
_cell_angle_alpha   60.26426395
_cell_angle_beta   60.42602139
_cell_angle_gamma   60.26426599
_symmetry_Int_Tables_number   1
_chemical_formula_structural   Sc22IrOs7
_chemical_formula_sum   'Sc22 Ir1 Os7'
_cell_volume   600.20669902
_cell_formula_units_Z   1
loop_
 _symmetry_equiv_pos_site_id
 _symmetry_equiv_pos_as_xyz
  1  'x, y, z'
loop_
 _atom_site_type_symbol
 _atom_site_label
 _atom_site_symmetry_multiplicity
 _atom_site_fract_x
 _atom_site_fract_y
 _atom_site_fract_z
 _atom_site_occupancy
  Sc  Sc0  1  0.800478  0.802854  0.199522  1
  Sc  Sc1  1  0.198457  0.801543  0.198457  1
  Sc  Sc2  1  0.800478  0.197146  0.199522  1
  Sc  Sc3  1  0.199522  0.197146  0.800478  1
  Sc  Sc4  1  0.801543  0.198457  0.801543  1
  Sc  Sc5  1  0.199522  0.802854  0.800478  1
  Sc  Sc6  1  0.613300  0.618448  0.149802  1
  Sc  Sc7  1  0.616812  0.147239  0.616812  1
  Sc  Sc8  1  0.149802  0.618448  0.613300  1
  Sc  Sc9  1  0.616812  0.619137  0.616812  1
  Sc  Sc10  1  0.386700  0.381552  0.850198  1
  Sc  Sc11  1  0.383188  0.852761  0.383188  1
  Sc  Sc12  1  0.850198  0.381552  0.386700  1
  Sc  Sc13  1  0.383188  0.380863  0.383188  1
  Sc  Sc14  1  0.845595  0.843892  0.466620  1
  Sc  Sc15  1  0.844198  0.468086  0.844198  1
  Sc  Sc16  1  0.466620  0.843892  0.845595  1
  Sc  Sc17  1  0.844198  0.843517  0.844198  1
  Sc  Sc18  1  0.154405  0.156108  0.533380  1
  Sc  Sc19  1  0.155802  0.531914  0.155802  1
  Sc  Sc20  1  0.533380  0.156108  0.154405  1
  Sc  Sc21  1  0.155802  0.156483  0.155802  1
  Ir  Ir22  1  0.000000  0.500000  0.000000  1
  Os  Os23  1  0.000000  0.000000  0.000000  1
  Os  Os24  1  0.500000  0.500000  0.500000  1
  Os  Os25  1  0.000000  0.000000  0.500000  1
  Os  Os26  1  0.500000  0.000000  0.500000  1
  Os  Os27  1  0.000000  0.500000  0.500000  1
  Os  Os28  1  0.500000  0.500000  0.000000  1
  Os  Os29  1  0.500000  0.000000  0.000000  1
