# generated using pymatgen
data_Eu4Zn5Rh3
_symmetry_space_group_name_H-M   'P 1'
_cell_length_a   4.39292800
_cell_length_b   7.26764231
_cell_length_c   7.93479117
_cell_angle_alpha   90.76155075
_cell_angle_beta   90.00000000
_cell_angle_gamma   90.00000000
_symmetry_Int_Tables_number   1
_chemical_formula_structural   Eu4Zn5Rh3
_chemical_formula_sum   'Eu4 Zn5 Rh3'
_cell_volume   253.30558642
_cell_formula_units_Z   1
loop_
 _symmetry_equiv_pos_site_id
 _symmetry_equiv_pos_as_xyz
  1  'x, y, z'
loop_
 _atom_site_type_symbol
 _atom_site_label
 _atom_site_symmetry_multiplicity
 _atom_site_fract_x
 _atom_site_fract_y
 _atom_site_fract_z
 _atom_site_occupancy
  Eu  Eu0  1  0.250000  0.011740  0.320001  1
  Eu  Eu1  1  0.250000  0.527395  0.191722  1
  Eu  Eu2  1  0.750000  0.984091  0.691924  1
  Eu  Eu3  1  0.750000  0.493154  0.801123  1
  Zn  Zn4  1  0.250000  0.659161  0.573077  1
  Zn  Zn5  1  0.250000  0.158618  0.923473  1
  Zn  Zn6  1  0.750000  0.343078  0.432216  1
  Zn  Zn7  1  0.750000  0.830119  0.074426  1
  Zn  Zn8  1  0.750000  0.205563  0.101100  1
  Rh  Rh9  1  0.250000  0.287245  0.610844  1
  Rh  Rh10  1  0.250000  0.787685  0.888976  1
  Rh  Rh11  1  0.750000  0.712149  0.391120  1
