# generated using pymatgen
data_Lu16MgTl(Ni2Ag)2
_symmetry_space_group_name_H-M   'P 1'
_cell_length_a   9.34443097
_cell_length_b   9.31319457
_cell_length_c   9.31319451
_cell_angle_alpha   60.13475288
_cell_angle_beta   60.17438467
_cell_angle_gamma   60.17437414
_symmetry_Int_Tables_number   1
_chemical_formula_structural   Lu16MgTl(Ni2Ag)2
_chemical_formula_sum   'Lu16 Mg1 Tl1 Ni4 Ag2'
_cell_volume   575.19822914
_cell_formula_units_Z   1
loop_
 _symmetry_equiv_pos_site_id
 _symmetry_equiv_pos_as_xyz
  1  'x, y, z'
loop_
 _atom_site_type_symbol
 _atom_site_label
 _atom_site_symmetry_multiplicity
 _atom_site_fract_x
 _atom_site_fract_y
 _atom_site_fract_z
 _atom_site_occupancy
  Lu  Lu0  1  0.186454  0.815070  0.815070  1
  Lu  Lu1  1  0.812445  0.187385  0.187385  1
  Lu  Lu2  1  0.812978  0.193227  0.814520  1
  Lu  Lu3  1  0.184466  0.813954  0.188978  1
  Lu  Lu4  1  0.812978  0.814520  0.193227  1
  Lu  Lu5  1  0.184466  0.188978  0.813954  1
  Lu  Lu6  1  0.059642  0.439902  0.439902  1
  Lu  Lu7  1  0.437702  0.062367  0.062367  1
  Lu  Lu8  1  0.436020  0.063513  0.437137  1
  Lu  Lu9  1  0.059382  0.439456  0.061209  1
  Lu  Lu10  1  0.436020  0.437137  0.063513  1
  Lu  Lu11  1  0.059382  0.061209  0.439456  1
  Lu  Lu12  1  0.595056  0.595884  0.595884  1
  Lu  Lu13  1  0.598997  0.598047  0.206627  1
  Lu  Lu14  1  0.598997  0.206627  0.598047  1
  Lu  Lu15  1  0.198557  0.600774  0.600774  1
  Mg  Mg16  1  0.530997  0.819466  0.819466  1
  Tl  Tl17  1  0.835243  0.832991  0.832991  1
  Ni  Ni18  1  0.391052  0.394080  0.394080  1
  Ni  Ni19  1  0.388865  0.391589  0.824175  1
  Ni  Ni20  1  0.388865  0.824175  0.391589  1
  Ni  Ni21  1  0.824413  0.391018  0.391018  1
  Ag  Ag22  1  0.833509  0.832913  0.495719  1
  Ag  Ag23  1  0.833509  0.495719  0.832913  1
