# generated using pymatgen
data_Dy4ZrSc3Re2(TcB12)2
_symmetry_space_group_name_H-M   'P 1'
_cell_length_a   3.58475200
_cell_length_b   9.00514866
_cell_length_c   11.38678300
_cell_angle_alpha   90.03483501
_cell_angle_beta   90.00000000
_cell_angle_gamma   90.00000000
_symmetry_Int_Tables_number   1
_chemical_formula_structural   Dy4ZrSc3Re2(TcB12)2
_chemical_formula_sum   'Dy4 Zr1 Sc3 Re2 Tc2 B24'
_cell_volume   367.57923252
_cell_formula_units_Z   1
loop_
 _symmetry_equiv_pos_site_id
 _symmetry_equiv_pos_as_xyz
  1  'x, y, z'
loop_
 _atom_site_type_symbol
 _atom_site_label
 _atom_site_symmetry_multiplicity
 _atom_site_fract_x
 _atom_site_fract_y
 _atom_site_fract_z
 _atom_site_occupancy
  Dy  Dy0  1  0.000000  0.322541  0.415251  1
  Dy  Dy1  1  0.000000  0.677249  0.586536  1
  Dy  Dy2  1  0.000000  0.821020  0.084960  1
  Dy  Dy3  1  0.000000  0.178790  0.913179  1
  Zr  Zr4  1  0.000000  0.943946  0.371102  1
  Sc  Sc5  1  0.000000  0.056687  0.629878  1
  Sc  Sc6  1  0.000000  0.444582  0.129592  1
  Sc  Sc7  1  0.000000  0.555212  0.869935  1
  Re  Re8  1  0.000000  0.140310  0.182050  1
  Re  Re9  1  0.000000  0.859581  0.818026  1
  Tc  Tc10  1  0.000000  0.640974  0.318118  1
  Tc  Tc11  1  0.000000  0.359234  0.681583  1
  B  B12  1  0.500000  0.553855  0.432877  1
  B  B13  1  0.500000  0.445385  0.567665  1
  B  B14  1  0.500000  0.054631  0.066716  1
  B  B15  1  0.500000  0.945664  0.932460  1
  B  B16  1  0.500000  0.752348  0.418641  1
  B  B17  1  0.500000  0.246482  0.582383  1
  B  B18  1  0.500000  0.254539  0.081735  1
  B  B19  1  0.500000  0.745279  0.918163  1
  B  B20  1  0.500000  0.793516  0.264130  1
  B  B21  1  0.500000  0.205640  0.735237  1
  B  B22  1  0.500000  0.295884  0.235270  1
  B  B23  1  0.500000  0.704574  0.764623  1
  B  B24  1  0.500000  0.628512  0.182540  1
  B  B25  1  0.500000  0.371085  0.816920  1
  B  B26  1  0.500000  0.130591  0.316796  1
  B  B27  1  0.500000  0.870984  0.683192  1
  B  B28  1  0.500000  0.981587  0.212811  1
  B  B29  1  0.500000  0.018990  0.786082  1
  B  B30  1  0.500000  0.481878  0.286249  1
  B  B31  1  0.500000  0.518117  0.713911  1
  B  B32  1  0.500000  0.595688  0.025914  1
  B  B33  1  0.500000  0.403959  0.973932  1
  B  B34  1  0.500000  0.098045  0.474293  1
  B  B35  1  0.500000  0.902640  0.527248  1
