# generated using pymatgen
data_CuAg2(SeO4)2
_symmetry_space_group_name_H-M   'P 1'
_cell_length_a   4.99733698
_cell_length_b   6.09570938
_cell_length_c   7.38768852
_cell_angle_alpha   72.72514286
_cell_angle_beta   85.84394206
_cell_angle_gamma   71.06099036
_symmetry_Int_Tables_number   1
_chemical_formula_structural   CuAg2(SeO4)2
_chemical_formula_sum   'Cu1 Ag2 Se2 O8'
_cell_volume   203.18990962
_cell_formula_units_Z   1
loop_
 _symmetry_equiv_pos_site_id
 _symmetry_equiv_pos_as_xyz
  1  'x, y, z'
loop_
 _atom_site_type_symbol
 _atom_site_label
 _atom_site_symmetry_multiplicity
 _atom_site_fract_x
 _atom_site_fract_y
 _atom_site_fract_z
 _atom_site_occupancy
  Cu  Cu0  1  0.499952  0.000083  0.499962  1
  Ag  Ag1  1  0.209344  0.730485  0.186580  1
  Ag  Ag2  1  0.790668  0.269498  0.813429  1
  Se  Se3  1  0.881146  0.309316  0.288142  1
  Se  Se4  1  0.118854  0.690666  0.711870  1
  O  O5  1  0.875769  0.133401  0.153118  1
  O  O6  1  0.722441  0.602338  0.183201  1
  O  O7  1  0.215138  0.291657  0.344338  1
  O  O8  1  0.274117  0.789019  0.501610  1
  O  O9  1  0.725899  0.210966  0.498395  1
  O  O10  1  0.784861  0.708343  0.655659  1
  O  O11  1  0.277572  0.397648  0.816808  1
  O  O12  1  0.124243  0.866581  0.846889  1
