# generated using pymatgen
data_Nd4Er3Lu9(CdIr)4
_symmetry_space_group_name_H-M   'P 1'
_cell_length_a   9.58539224
_cell_length_b   9.57623391
_cell_length_c   9.57560036
_cell_angle_alpha   60.06547718
_cell_angle_beta   59.97053086
_cell_angle_gamma   60.01076691
_symmetry_Int_Tables_number   1
_chemical_formula_structural   Nd4Er3Lu9(CdIr)4
_chemical_formula_sum   'Nd4 Er3 Lu9 Cd4 Ir4'
_cell_volume   621.73960113
_cell_formula_units_Z   1
loop_
 _symmetry_equiv_pos_site_id
 _symmetry_equiv_pos_as_xyz
  1  'x, y, z'
loop_
 _atom_site_type_symbol
 _atom_site_label
 _atom_site_symmetry_multiplicity
 _atom_site_fract_x
 _atom_site_fract_y
 _atom_site_fract_z
 _atom_site_occupancy
  Nd  Nd0  1  0.561532  0.938470  0.561680  1
  Nd  Nd1  1  0.938470  0.561532  0.938318  1
  Nd  Nd2  1  0.561525  0.561525  0.938475  1
  Nd  Nd3  1  0.938412  0.938412  0.561588  1
  Er  Er4  1  0.811633  0.811633  0.188367  1
  Er  Er5  1  0.943570  0.556329  0.556737  1
  Er  Er6  1  0.556329  0.943570  0.943364  1
  Lu  Lu7  1  0.347557  0.347189  0.347215  1
  Lu  Lu8  1  0.347189  0.347557  0.958038  1
  Lu  Lu9  1  0.346906  0.958210  0.347662  1
  Lu  Lu10  1  0.958210  0.346906  0.347220  1
  Lu  Lu11  1  0.813034  0.187239  0.186944  1
  Lu  Lu12  1  0.187239  0.813034  0.812783  1
  Lu  Lu13  1  0.188515  0.811788  0.188202  1
  Lu  Lu14  1  0.811788  0.188515  0.811494  1
  Lu  Lu15  1  0.188191  0.188191  0.811809  1
  Cd  Cd16  1  0.581417  0.578847  0.578954  1
  Cd  Cd17  1  0.578847  0.581417  0.260780  1
  Cd  Cd18  1  0.578897  0.260736  0.581475  1
  Cd  Cd19  1  0.260736  0.578897  0.578890  1
  Ir  Ir20  1  0.143780  0.139871  0.139898  1
  Ir  Ir21  1  0.139871  0.143780  0.576451  1
  Ir  Ir22  1  0.140329  0.576020  0.143783  1
  Ir  Ir23  1  0.576020  0.140329  0.139868  1
