# generated using pymatgen
data_Sc8Ta11Si16Ni
_symmetry_space_group_name_H-M   'P 1'
_cell_length_a   6.86887943
_cell_length_b   6.88058072
_cell_length_c   12.63211796
_cell_angle_alpha   90.54751620
_cell_angle_beta   90.01396914
_cell_angle_gamma   90.02928366
_symmetry_Int_Tables_number   1
_chemical_formula_structural   Sc8Ta11Si16Ni
_chemical_formula_sum   'Sc8 Ta11 Si16 Ni1'
_cell_volume   596.99027987
_cell_formula_units_Z   1
loop_
 _symmetry_equiv_pos_site_id
 _symmetry_equiv_pos_as_xyz
  1  'x, y, z'
loop_
 _atom_site_type_symbol
 _atom_site_label
 _atom_site_symmetry_multiplicity
 _atom_site_fract_x
 _atom_site_fract_y
 _atom_site_fract_z
 _atom_site_occupancy
  Sc  Sc0  1  0.999704  0.659686  0.033563  1
  Sc  Sc1  1  0.841422  0.502357  0.282705  1
  Sc  Sc2  1  0.159881  0.497671  0.781098  1
  Sc  Sc3  1  0.499824  0.838483  0.717863  1
  Sc  Sc4  1  0.495967  0.159385  0.217809  1
  Sc  Sc5  1  0.002889  0.343942  0.531269  1
  Sc  Sc6  1  0.658542  0.000328  0.970573  1
  Sc  Sc7  1  0.340120  0.998152  0.470152  1
  Ta  Ta8  1  0.329476  0.328970  0.000957  1
  Ta  Ta9  1  0.175475  0.830591  0.251442  1
  Ta  Ta10  1  0.829436  0.169606  0.748508  1
  Ta  Ta11  1  0.675624  0.667601  0.500136  1
  Ta  Ta12  1  0.004219  0.151241  0.126507  1
  Ta  Ta13  1  0.351021  0.502202  0.376905  1
  Ta  Ta14  1  0.649955  0.491944  0.875649  1
  Ta  Ta15  1  0.510515  0.340962  0.622846  1
  Ta  Ta16  1  0.495106  0.654001  0.125624  1
  Ta  Ta17  1  0.997044  0.841467  0.630325  1
  Ta  Ta18  1  0.151447  0.005025  0.873692  1
  Si  Si19  1  0.300211  0.955238  0.063952  1
  Si  Si20  1  0.551249  0.804958  0.317776  1
  Si  Si21  1  0.456520  0.194702  0.813720  1
  Si  Si22  1  0.801292  0.541642  0.686220  1
  Si  Si23  1  0.200077  0.454245  0.188718  1
  Si  Si24  1  0.708271  0.036545  0.557392  1
  Si  Si25  1  0.954628  0.301498  0.936626  1
  Si  Si26  1  0.038402  0.716808  0.434284  1
  Si  Si27  1  0.705018  0.362063  0.072835  1
  Si  Si28  1  0.127729  0.198236  0.323533  1
  Si  Si29  1  0.858643  0.793573  0.823144  1
  Si  Si30  1  0.206623  0.137956  0.676344  1
  Si  Si31  1  0.798810  0.864252  0.182184  1
  Si  Si32  1  0.294888  0.631984  0.570411  1
  Si  Si33  1  0.361318  0.705036  0.928780  1
  Si  Si34  1  0.641183  0.289705  0.426915  1
  Ni  Ni35  1  0.827469  0.027946  0.359540  1
