# generated using pymatgen
data_LaYb(Si2Rh3)2
_symmetry_space_group_name_H-M   'P 1'
_cell_length_a   5.63440740
_cell_length_b   6.68724464
_cell_length_c   6.68724366
_cell_angle_alpha   64.60387025
_cell_angle_beta   65.08456148
_cell_angle_gamma   65.08456872
_symmetry_Int_Tables_number   1
_chemical_formula_structural   LaYb(Si2Rh3)2
_chemical_formula_sum   'La1 Yb1 Si4 Rh6'
_cell_volume   197.33064285
_cell_formula_units_Z   1
loop_
 _symmetry_equiv_pos_site_id
 _symmetry_equiv_pos_as_xyz
  1  'x, y, z'
loop_
 _atom_site_type_symbol
 _atom_site_label
 _atom_site_symmetry_multiplicity
 _atom_site_fract_x
 _atom_site_fract_y
 _atom_site_fract_z
 _atom_site_occupancy
  La  La0  1  0.460801  0.250000  0.250000  1
  Yb  Yb1  1  0.543890  0.750000  0.750000  1
  Si  Si2  1  0.225216  0.579441  0.579441  1
  Si  Si3  1  0.772320  0.424862  0.424862  1
  Si  Si4  1  0.122044  0.075138  0.075138  1
  Si  Si5  1  0.884099  0.920559  0.920559  1
  Rh  Rh6  1  0.499621  0.212787  0.782931  1
  Rh  Rh7  1  0.995339  0.717069  0.287213  1
  Rh  Rh8  1  0.499621  0.782931  0.212787  1
  Rh  Rh9  1  0.995339  0.287213  0.717069  1
  Rh  Rh10  1  0.000856  0.502235  0.997765  1
  Rh  Rh11  1  0.000856  0.997765  0.502235  1
