# generated using pymatgen
data_Er8Ta9Ti2Si16W
_symmetry_space_group_name_H-M   'P 1'
_cell_length_a   7.00779005
_cell_length_b   7.00130228
_cell_length_c   12.92616309
_cell_angle_alpha   90.00953470
_cell_angle_beta   89.99021390
_cell_angle_gamma   89.97939074
_symmetry_Int_Tables_number   1
_chemical_formula_structural   Er8Ta9Ti2Si16W
_chemical_formula_sum   'Er8 Ta9 Ti2 Si16 W1'
_cell_volume   634.20476639
_cell_formula_units_Z   1
loop_
 _symmetry_equiv_pos_site_id
 _symmetry_equiv_pos_as_xyz
  1  'x, y, z'
loop_
 _atom_site_type_symbol
 _atom_site_label
 _atom_site_symmetry_multiplicity
 _atom_site_fract_x
 _atom_site_fract_y
 _atom_site_fract_z
 _atom_site_occupancy
  Er  Er0  1  0.341994  0.002125  0.467899  1
  Er  Er1  1  0.498375  0.841855  0.718525  1
  Er  Er2  1  0.500518  0.158595  0.217353  1
  Er  Er3  1  0.841923  0.498137  0.281752  1
  Er  Er4  1  0.158623  0.500720  0.782992  1
  Er  Er5  1  0.657347  0.998807  0.968168  1
  Er  Er6  1  0.002393  0.340739  0.531734  1
  Er  Er7  1  0.998468  0.658975  0.031521  1
  Ta  Ta8  1  0.173577  0.826944  0.249397  1
  Ta  Ta9  1  0.827351  0.173621  0.750848  1
  Ta  Ta10  1  0.671109  0.670950  0.499572  1
  Ta  Ta11  1  0.152402  0.006923  0.874007  1
  Ta  Ta12  1  0.493182  0.652373  0.123187  1
  Ta  Ta13  1  0.506415  0.347555  0.624462  1
  Ta  Ta14  1  0.651963  0.492166  0.877299  1
  Ta  Ta15  1  0.347740  0.507273  0.375868  1
  Ta  Ta16  1  0.847124  0.992919  0.373708  1
  Ti  Ti17  1  0.007713  0.152902  0.126046  1
  Ti  Ti18  1  0.992737  0.846849  0.626715  1
  Si  Si19  1  0.202353  0.132559  0.681491  1
  Si  Si20  1  0.365570  0.704441  0.931276  1
  Si  Si21  1  0.634790  0.294438  0.431465  1
  Si  Si22  1  0.704114  0.364158  0.069247  1
  Si  Si23  1  0.294521  0.636153  0.568973  1
  Si  Si24  1  0.797364  0.867806  0.181158  1
  Si  Si25  1  0.134998  0.202842  0.317572  1
  Si  Si26  1  0.865103  0.796625  0.817976  1
  Si  Si27  1  0.292226  0.957101  0.063965  1
  Si  Si28  1  0.545828  0.795483  0.313265  1
  Si  Si29  1  0.452768  0.205659  0.814662  1
  Si  Si30  1  0.796666  0.547077  0.685430  1
  Si  Si31  1  0.204428  0.451517  0.183953  1
  Si  Si32  1  0.707416  0.044757  0.564457  1
  Si  Si33  1  0.956286  0.294129  0.937577  1
  Si  Si34  1  0.045480  0.705468  0.436984  1
  W  W35  1  0.329136  0.329358  0.999495  1
