# generated using pymatgen
data_NdTh3(B10Os)2
_symmetry_space_group_name_H-M   'P 1'
_cell_length_a   4.21782300
_cell_length_b   5.75443219
_cell_length_c   11.47953837
_cell_angle_alpha   90.02520327
_cell_angle_beta   90.00000000
_cell_angle_gamma   90.00000000
_symmetry_Int_Tables_number   1
_chemical_formula_structural   NdTh3(B10Os)2
_chemical_formula_sum   'Nd1 Th3 B20 Os2'
_cell_volume   278.62187433
_cell_formula_units_Z   1
loop_
 _symmetry_equiv_pos_site_id
 _symmetry_equiv_pos_as_xyz
  1  'x, y, z'
loop_
 _atom_site_type_symbol
 _atom_site_label
 _atom_site_symmetry_multiplicity
 _atom_site_fract_x
 _atom_site_fract_y
 _atom_site_fract_z
 _atom_site_occupancy
  Nd  Nd0  1  0.500000  0.284224  0.868396  1
  Th  Th1  1  0.500000  0.720290  0.128983  1
  Th  Th2  1  0.500000  0.783735  0.630150  1
  Th  Th3  1  0.500000  0.217533  0.369507  1
  B  B4  1  0.000000  0.118088  0.542570  1
  B  B5  1  0.000000  0.882253  0.457563  1
  B  B6  1  0.000000  0.616619  0.956701  1
  B  B7  1  0.000000  0.379681  0.042710  1
  B  B8  1  0.000000  0.132683  0.697358  1
  B  B9  1  0.000000  0.868355  0.303236  1
  B  B10  1  0.300314  0.220545  0.119431  1
  B  B11  1  0.299890  0.776779  0.881344  1
  B  B12  1  0.699316  0.721286  0.380993  1
  B  B13  1  0.699796  0.278149  0.619327  1
  B  B14  1  0.700110  0.776779  0.881344  1
  B  B15  1  0.699686  0.220545  0.119431  1
  B  B16  1  0.300204  0.278149  0.619327  1
  B  B17  1  0.300684  0.721286  0.380993  1
  B  B18  1  0.000000  0.059715  0.193816  1
  B  B19  1  0.000000  0.941430  0.807965  1
  B  B20  1  0.000000  0.559927  0.306466  1
  B  B21  1  0.000000  0.442184  0.692333  1
  B  B22  1  0.000000  0.368562  0.196720  1
  B  B23  1  0.000000  0.634038  0.802310  1
  Os  Os24  1  0.000000  0.499923  0.499991  1
  Os  Os25  1  0.000000  0.997245  0.001033  1
