# generated using pymatgen
data_Y5Mn3(P3Ir4)4
_symmetry_space_group_name_H-M   'P 1'
_cell_length_a   12.68274000
_cell_length_b   12.68273997
_cell_length_c   3.96403200
_cell_angle_alpha   90.00000000
_cell_angle_beta   90.00000000
_cell_angle_gamma   120.00000007
_symmetry_Int_Tables_number   1
_chemical_formula_structural   Y5Mn3(P3Ir4)4
_chemical_formula_sum   'Y5 Mn3 P12 Ir16'
_cell_volume   552.19689590
_cell_formula_units_Z   1
loop_
 _symmetry_equiv_pos_site_id
 _symmetry_equiv_pos_as_xyz
  1  'x, y, z'
loop_
 _atom_site_type_symbol
 _atom_site_label
 _atom_site_symmetry_multiplicity
 _atom_site_fract_x
 _atom_site_fract_y
 _atom_site_fract_z
 _atom_site_occupancy
  Y  Y0  1  0.333333  0.666667  0.500000  1
  Y  Y1  1  0.666667  0.333333  0.500000  1
  Y  Y2  1  0.000000  0.810113  0.000000  1
  Y  Y3  1  0.189887  0.189887  0.000000  1
  Y  Y4  1  0.810113  0.000000  0.000000  1
  Mn  Mn5  1  0.000000  0.458154  0.500000  1
  Mn  Mn6  1  0.541846  0.541846  0.500000  1
  Mn  Mn7  1  0.458154  0.000000  0.500000  1
  P  P8  1  0.000000  0.635409  0.500000  1
  P  P9  1  0.364591  0.364591  0.500000  1
  P  P10  1  0.635409  0.000000  0.500000  1
  P  P11  1  0.517036  0.685925  0.000000  1
  P  P12  1  0.314075  0.831111  0.000000  1
  P  P13  1  0.168889  0.482964  0.000000  1
  P  P14  1  0.482964  0.168889  0.000000  1
  P  P15  1  0.685925  0.517036  0.000000  1
  P  P16  1  0.831111  0.314075  0.000000  1
  P  P17  1  0.000000  0.178589  0.500000  1
  P  P18  1  0.821411  0.821411  0.500000  1
  P  P19  1  0.178589  0.000000  0.500000  1
  Ir  Ir20  1  0.508117  0.868037  0.000000  1
  Ir  Ir21  1  0.131963  0.640081  0.000000  1
  Ir  Ir22  1  0.359919  0.491883  0.000000  1
  Ir  Ir23  1  0.491883  0.359919  0.000000  1
  Ir  Ir24  1  0.868037  0.508117  0.000000  1
  Ir  Ir25  1  0.640081  0.131963  0.000000  1
  Ir  Ir26  1  0.000000  0.282579  0.000000  1
  Ir  Ir27  1  0.717421  0.717421  0.000000  1
  Ir  Ir28  1  0.282579  0.000000  0.000000  1
  Ir  Ir29  1  0.623843  0.802711  0.500000  1
  Ir  Ir30  1  0.197289  0.821132  0.500000  1
  Ir  Ir31  1  0.178868  0.376157  0.500000  1
  Ir  Ir32  1  0.376157  0.178868  0.500000  1
  Ir  Ir33  1  0.802711  0.623843  0.500000  1
  Ir  Ir34  1  0.821132  0.197289  0.500000  1
  Ir  Ir35  1  0.000000  0.000000  0.500000  1
