# generated using pymatgen
data_La12Si(SnI4)3
_symmetry_space_group_name_H-M   'P 1'
_cell_length_a   11.30974831
_cell_length_b   11.22934094
_cell_length_c   11.22934102
_cell_angle_alpha   109.32571386
_cell_angle_beta   109.61633554
_cell_angle_gamma   109.61633746
_symmetry_Int_Tables_number   1
_chemical_formula_structural   La12Si(SnI4)3
_chemical_formula_sum   'La12 Si1 Sn3 I12'
_cell_volume   1095.86907992
_cell_formula_units_Z   1
loop_
 _symmetry_equiv_pos_site_id
 _symmetry_equiv_pos_as_xyz
  1  'x, y, z'
loop_
 _atom_site_type_symbol
 _atom_site_label
 _atom_site_symmetry_multiplicity
 _atom_site_fract_x
 _atom_site_fract_y
 _atom_site_fract_z
 _atom_site_occupancy
  La  La0  1  0.469855  0.494452  0.227955  1
  La  La1  1  0.750000  0.241111  0.258889  1
  La  La2  1  0.750000  0.007754  0.492246  1
  La  La3  1  0.242246  0.484492  0.492246  1
  La  La4  1  0.258101  0.733503  0.227955  1
  La  La5  1  0.030145  0.272045  0.005548  1
  La  La6  1  0.008889  0.017778  0.258889  1
  La  La7  1  0.475403  0.733503  0.005548  1
  La  La8  1  0.491111  0.241111  0.482222  1
  La  La9  1  0.024597  0.494452  0.766497  1
  La  La10  1  0.257754  0.007754  0.015508  1
  La  La11  1  0.241899  0.272045  0.766497  1
  Si  Si12  1  0.250000  0.500000  0.000000  1
  Sn  Sn13  1  0.250000  0.248971  0.251029  1
  Sn  Sn14  1  0.501029  0.002058  0.251029  1
  Sn  Sn15  1  0.998971  0.248971  0.497942  1
  I  I16  1  0.250000  0.756238  0.743762  1
  I  I17  1  0.512548  0.506556  0.756885  1
  I  I18  1  0.987452  0.743115  0.993444  1
  I  I19  1  0.744337  0.250329  0.756885  1
  I  I20  1  0.993762  0.987524  0.743762  1
  I  I21  1  0.250000  0.994573  0.505427  1
  I  I22  1  0.755427  0.510853  0.505427  1
  I  I23  1  0.505992  0.250329  0.993444  1
  I  I24  1  0.755663  0.743115  0.249671  1
  I  I25  1  0.744573  0.994573  0.989147  1
  I  I26  1  0.994008  0.506556  0.249671  1
  I  I27  1  0.506238  0.756238  0.512476  1
