# generated using pymatgen
data_Ac5IrSe4
_symmetry_space_group_name_H-M   'P 1'
_cell_length_a   7.76013767
_cell_length_b   7.75979394
_cell_length_c   7.75968665
_cell_angle_alpha   99.59448290
_cell_angle_beta   99.56940127
_cell_angle_gamma   131.84450081
_symmetry_Int_Tables_number   1
_chemical_formula_structural   Ac5IrSe4
_chemical_formula_sum   'Ac5 Ir1 Se4'
_cell_volume   317.80141558
_cell_formula_units_Z   1
loop_
 _symmetry_equiv_pos_site_id
 _symmetry_equiv_pos_as_xyz
  1  'x, y, z'
loop_
 _atom_site_type_symbol
 _atom_site_label
 _atom_site_symmetry_multiplicity
 _atom_site_fract_x
 _atom_site_fract_y
 _atom_site_fract_z
 _atom_site_occupancy
  Ac  Ac0  1  0.404365  0.784374  0.188749  1
  Ac  Ac1  1  0.000000  0.000000  0.000000  1
  Ac  Ac2  1  0.595635  0.215626  0.811251  1
  Ac  Ac3  1  0.215602  0.404388  0.620003  1
  Ac  Ac4  1  0.784398  0.595612  0.379997  1
  Ir  Ir5  1  0.500000  0.500000  0.000000  1
  Se  Se6  1  0.094798  0.696419  0.791220  1
  Se  Se7  1  0.696412  0.905183  0.601598  1
  Se  Se8  1  0.303588  0.094817  0.398402  1
  Se  Se9  1  0.905202  0.303581  0.208780  1
