# generated using pymatgen
data_Y6Co16TcNiP12
_symmetry_space_group_name_H-M   'P 1'
_cell_length_a   3.71655900
_cell_length_b   10.52165200
_cell_length_c   12.24769300
_cell_angle_alpha   90.00000000
_cell_angle_beta   90.00000000
_cell_angle_gamma   90.00000000
_symmetry_Int_Tables_number   1
_chemical_formula_structural   Y6Co16TcNiP12
_chemical_formula_sum   'Y6 Co16 Tc1 Ni1 P12'
_cell_volume   478.93795662
_cell_formula_units_Z   1
loop_
 _symmetry_equiv_pos_site_id
 _symmetry_equiv_pos_as_xyz
  1  'x, y, z'
loop_
 _atom_site_type_symbol
 _atom_site_label
 _atom_site_symmetry_multiplicity
 _atom_site_fract_x
 _atom_site_fract_y
 _atom_site_fract_z
 _atom_site_occupancy
  Y  Y0  1  0.000000  0.500000  0.522288  1
  Y  Y1  1  0.500000  0.000000  0.478481  1
  Y  Y2  1  0.500000  0.817237  0.207079  1
  Y  Y3  1  0.500000  0.182763  0.207079  1
  Y  Y4  1  0.000000  0.684609  0.795348  1
  Y  Y5  1  0.000000  0.315391  0.795348  1
  Co  Co6  1  0.000000  0.000000  0.839912  1
  Co  Co7  1  0.000000  0.000000  0.295961  1
  Co  Co8  1  0.000000  0.500000  0.987964  1
  Co  Co9  1  0.500000  0.000000  0.015034  1
  Co  Co10  1  0.500000  0.331717  0.990883  1
  Co  Co11  1  0.500000  0.668283  0.990883  1
  Co  Co12  1  0.000000  0.166155  0.005937  1
  Co  Co13  1  0.000000  0.833845  0.005937  1
  Co  Co14  1  0.500000  0.297481  0.430683  1
  Co  Co15  1  0.500000  0.702519  0.430683  1
  Co  Co16  1  0.000000  0.202353  0.568677  1
  Co  Co17  1  0.000000  0.797647  0.568677  1
  Co  Co18  1  0.500000  0.879271  0.709561  1
  Co  Co19  1  0.500000  0.120729  0.709561  1
  Co  Co20  1  0.000000  0.620390  0.291453  1
  Co  Co21  1  0.000000  0.379610  0.291453  1
  Tc  Tc22  1  0.500000  0.500000  0.156145  1
  Ni  Ni23  1  0.500000  0.500000  0.703291  1
  P  P24  1  0.500000  0.500000  0.882655  1
  P  P25  1  0.000000  0.000000  0.117544  1
  P  P26  1  0.500000  0.500000  0.347816  1
  P  P27  1  0.000000  0.000000  0.656249  1
  P  P28  1  0.500000  0.309834  0.615735  1
  P  P29  1  0.500000  0.690166  0.615735  1
  P  P30  1  0.000000  0.188682  0.384329  1
  P  P31  1  0.000000  0.811318  0.384329  1
  P  P32  1  0.500000  0.850312  0.892571  1
  P  P33  1  0.500000  0.149688  0.892571  1
  P  P34  1  0.000000  0.655653  0.106072  1
  P  P35  1  0.000000  0.344347  0.106072  1
