# generated using pymatgen
data_HoPa3(GeRu)4
_symmetry_space_group_name_H-M   'P 1'
_cell_length_a   4.41378000
_cell_length_b   7.13981357
_cell_length_c   7.19349399
_cell_angle_alpha   90.49451719
_cell_angle_beta   90.00000000
_cell_angle_gamma   90.00000000
_symmetry_Int_Tables_number   1
_chemical_formula_structural   HoPa3(GeRu)4
_chemical_formula_sum   'Ho1 Pa3 Ge4 Ru4'
_cell_volume   226.68420640
_cell_formula_units_Z   1
loop_
 _symmetry_equiv_pos_site_id
 _symmetry_equiv_pos_as_xyz
  1  'x, y, z'
loop_
 _atom_site_type_symbol
 _atom_site_label
 _atom_site_symmetry_multiplicity
 _atom_site_fract_x
 _atom_site_fract_y
 _atom_site_fract_z
 _atom_site_occupancy
  Ho  Ho0  1  0.750000  0.010145  0.688995  1
  Pa  Pa1  1  0.250000  0.490530  0.183848  1
  Pa  Pa2  1  0.750000  0.511578  0.813961  1
  Pa  Pa3  1  0.250000  0.985989  0.304205  1
  Ge  Ge4  1  0.250000  0.796169  0.882698  1
  Ge  Ge5  1  0.750000  0.212035  0.109951  1
  Ge  Ge6  1  0.250000  0.282024  0.607968  1
  Ge  Ge7  1  0.750000  0.713524  0.395062  1
  Ru  Ru8  1  0.750000  0.845587  0.065869  1
  Ru  Ru9  1  0.250000  0.152958  0.949822  1
  Ru  Ru10  1  0.750000  0.359498  0.440458  1
  Ru  Ru11  1  0.250000  0.639962  0.557162  1
