# generated using pymatgen
data_Dy2HoLu3FeSb2
_symmetry_space_group_name_H-M   'P 1'
_cell_length_a   8.07639003
_cell_length_b   8.07515393
_cell_length_c   4.12709100
_cell_angle_alpha   90.00000000
_cell_angle_beta   90.00000000
_cell_angle_gamma   119.99493391
_symmetry_Int_Tables_number   1
_chemical_formula_structural   Dy2HoLu3FeSb2
_chemical_formula_sum   'Dy2 Ho1 Lu3 Fe1 Sb2'
_cell_volume   233.11216538
_cell_formula_units_Z   1
loop_
 _symmetry_equiv_pos_site_id
 _symmetry_equiv_pos_as_xyz
  1  'x, y, z'
loop_
 _atom_site_type_symbol
 _atom_site_label
 _atom_site_symmetry_multiplicity
 _atom_site_fract_x
 _atom_site_fract_y
 _atom_site_fract_z
 _atom_site_occupancy
  Dy  Dy0  1  0.604966  0.000056  0.500000  1
  Dy  Dy1  1  0.395034  0.395090  0.500000  1
  Ho  Ho2  1  0.000000  0.605156  0.500000  1
  Lu  Lu3  1  0.231846  0.999712  0.000000  1
  Lu  Lu4  1  0.768154  0.767867  0.000000  1
  Lu  Lu5  1  0.000000  0.232060  0.000000  1
  Fe  Fe6  1  0.000000  0.999653  0.500000  1
  Sb  Sb7  1  0.332895  0.666651  0.000000  1
  Sb  Sb8  1  0.667105  0.333755  0.000000  1
