# generated using pymatgen
data_Er3Sc2(GaO4)3
_symmetry_space_group_name_H-M   'P 1'
_cell_length_a   10.79837972
_cell_length_b   10.79837964
_cell_length_c   10.79838000
_cell_angle_alpha   109.47122130
_cell_angle_beta   109.47122116
_cell_angle_gamma   109.47122025
_symmetry_Int_Tables_number   1
_chemical_formula_structural   Er3Sc2(GaO4)3
_chemical_formula_sum   'Er12 Sc8 Ga12 O48'
_cell_volume   969.29037131
_cell_formula_units_Z   4
loop_
 _symmetry_equiv_pos_site_id
 _symmetry_equiv_pos_as_xyz
  1  'x, y, z'
loop_
 _atom_site_type_symbol
 _atom_site_label
 _atom_site_symmetry_multiplicity
 _atom_site_fract_x
 _atom_site_fract_y
 _atom_site_fract_z
 _atom_site_occupancy
  Er  Er0  1  0.249997  0.374994  0.124994  1
  Er  Er1  1  0.374996  0.749999  0.125000  1
  Er  Er2  1  0.874994  0.625000  0.249995  1
  Er  Er3  1  0.374996  0.124999  0.249996  1
  Er  Er4  1  0.125001  0.249999  0.375003  1
  Er  Er5  1  0.750007  0.124998  0.375000  1
  Er  Er6  1  0.875005  0.750007  0.625006  1
  Er  Er7  1  0.250002  0.875004  0.625009  1
  Er  Er8  1  0.125003  0.374994  0.750006  1
  Er  Er9  1  0.625005  0.875006  0.750001  1
  Er  Er10  1  0.624998  0.249993  0.874993  1
  Er  Er11  1  0.750000  0.625001  0.875000  1
  Sc  Sc12  1  0.999998  0.999997  0.999992  1
  Sc  Sc13  1  0.499996  0.000001  0.999999  1
  Sc  Sc14  1  0.000001  0.499996  0.999996  1
  Sc  Sc15  1  0.499998  0.499996  0.999998  1
  Sc  Sc16  1  0.000001  0.000005  0.500005  1
  Sc  Sc17  1  0.499997  0.499996  0.499998  1
  Sc  Sc18  1  0.500002  0.000002  0.500006  1
  Sc  Sc19  1  0.999999  0.500002  0.500002  1
  Ga  Ga20  1  0.750009  0.875012  0.125019  1
  Ga  Ga21  1  0.874986  0.249989  0.124988  1
  Ga  Ga22  1  0.625014  0.375009  0.250015  1
  Ga  Ga23  1  0.124994  0.874986  0.249985  1
  Ga  Ga24  1  0.624994  0.749992  0.374986  1
  Ga  Ga25  1  0.250014  0.625015  0.375014  1
  Ga  Ga26  1  0.749984  0.374982  0.624984  1
  Ga  Ga27  1  0.375008  0.250008  0.625015  1
  Ga  Ga28  1  0.875005  0.125012  0.750015  1
  Ga  Ga29  1  0.374985  0.624991  0.749983  1
  Ga  Ga30  1  0.125017  0.750014  0.875011  1
  Ga  Ga31  1  0.249992  0.124992  0.874986  1
  O  O32  1  0.317873  0.905354  0.033127  1
  O  O33  1  0.215245  0.127770  0.033119  1
  O  O34  1  0.715250  0.682132  0.087475  1
  O  O35  1  0.872223  0.405347  0.087467  1
  O  O36  1  0.966855  0.682100  0.094624  1
  O  O37  1  0.627777  0.412533  0.094642  1
  O  O38  1  0.594661  0.912531  0.127778  1
  O  O39  1  0.033125  0.215248  0.127773  1
  O  O40  1  0.215248  0.587469  0.182113  1
  O  O41  1  0.466864  0.594636  0.182115  1
  O  O42  1  0.587469  0.182113  0.215248  1
  O  O43  1  0.127771  0.033135  0.215245  1
  O  O44  1  0.317887  0.912529  0.284750  1
  O  O45  1  0.466864  0.372228  0.284754  1
  O  O46  1  0.905353  0.033126  0.317876  1
  O  O47  1  0.912529  0.284748  0.317870  1
  O  O48  1  0.587464  0.905346  0.372219  1
  O  O49  1  0.284750  0.466866  0.372227  1
  O  O50  1  0.817896  0.533143  0.405374  1
  O  O51  1  0.087468  0.872226  0.405357  1
  O  O52  1  0.094640  0.627776  0.412532  1
  O  O53  1  0.817879  0.784751  0.412528  1
  O  O54  1  0.594627  0.182103  0.466854  1
  O  O55  1  0.372226  0.284750  0.466880  1
  O  O56  1  0.627776  0.715248  0.533128  1
  O  O57  1  0.405376  0.817901  0.533148  1
  O  O58  1  0.182133  0.215252  0.587475  1
  O  O59  1  0.905359  0.372224  0.587467  1
  O  O60  1  0.912528  0.127771  0.594650  1
  O  O61  1  0.182102  0.466856  0.594627  1
  O  O62  1  0.412534  0.094660  0.627777  1
  O  O63  1  0.715249  0.533134  0.627774  1
  O  O64  1  0.087473  0.715252  0.682136  1
  O  O65  1  0.094644  0.966872  0.682120  1
  O  O66  1  0.682127  0.087475  0.715250  1
  O  O67  1  0.533136  0.627772  0.715246  1
  O  O68  1  0.412530  0.817889  0.784752  1
  O  O69  1  0.872233  0.966879  0.784755  1
  O  O70  1  0.533126  0.405357  0.817876  1
  O  O71  1  0.784751  0.412530  0.817884  1
  O  O72  1  0.966883  0.784752  0.872229  1
  O  O73  1  0.405342  0.087467  0.872222  1
  O  O74  1  0.033130  0.317885  0.905365  1
  O  O75  1  0.372224  0.587466  0.905359  1
  O  O76  1  0.284751  0.317871  0.912524  1
  O  O77  1  0.127777  0.594659  0.912532  1
  O  O78  1  0.682114  0.094637  0.966864  1
  O  O79  1  0.784751  0.872228  0.966882  1
