# generated using pymatgen
data_Ac2Zn23Ni3
_symmetry_space_group_name_H-M   'P 1'
_cell_length_a   8.60517007
_cell_length_b   8.56488494
_cell_length_c   8.60134613
_cell_angle_alpha   60.16961250
_cell_angle_beta   60.01692647
_cell_angle_gamma   60.12524753
_symmetry_Int_Tables_number   1
_chemical_formula_structural   Ac2Zn23Ni3
_chemical_formula_sum   'Ac2 Zn23 Ni3'
_cell_volume   449.31638563
_cell_formula_units_Z   1
loop_
 _symmetry_equiv_pos_site_id
 _symmetry_equiv_pos_as_xyz
  1  'x, y, z'
loop_
 _atom_site_type_symbol
 _atom_site_label
 _atom_site_symmetry_multiplicity
 _atom_site_fract_x
 _atom_site_fract_y
 _atom_site_fract_z
 _atom_site_occupancy
  Ac  Ac0  1  0.246506  0.253448  0.250316  1
  Ac  Ac1  1  0.749684  0.750270  0.753494  1
  Zn  Zn2  1  0.206172  0.443467  0.793828  1
  Zn  Zn3  1  0.559739  0.789533  0.440261  1
  Zn  Zn4  1  0.444021  0.204644  0.555979  1
  Zn  Zn5  1  0.295088  0.941336  0.704912  1
  Zn  Zn6  1  0.704424  0.056675  0.295576  1
  Zn  Zn7  1  0.941572  0.306398  0.058428  1
  Zn  Zn8  1  0.051089  0.698204  0.948911  1
  Zn  Zn9  1  0.204194  0.796191  0.554704  1
  Zn  Zn10  1  0.796417  0.215369  0.435914  1
  Zn  Zn11  1  0.445296  0.555089  0.795806  1
  Zn  Zn12  1  0.564086  0.447700  0.203583  1
  Zn  Zn13  1  0.704627  0.293707  0.944047  1
  Zn  Zn14  1  0.294413  0.703715  0.057080  1
  Zn  Zn15  1  0.055953  0.942382  0.295373  1
  Zn  Zn16  1  0.942920  0.055207  0.705587  1
  Zn  Zn17  1  0.556741  0.201838  0.797365  1
  Zn  Zn18  1  0.449689  0.791438  0.202959  1
  Zn  Zn19  1  0.797041  0.444087  0.550311  1
  Zn  Zn20  1  0.202635  0.555944  0.443259  1
  Zn  Zn21  1  0.942675  0.703037  0.290253  1
  Zn  Zn22  1  0.054180  0.295349  0.706209  1
  Zn  Zn23  1  0.293791  0.055739  0.945820  1
  Zn  Zn24  1  0.709747  0.935966  0.057325  1
  Ni  Ni25  1  0.496997  0.498773  0.503003  1
  Ni  Ni26  1  0.999335  0.002660  0.000665  1
  Ni  Ni27  1  0.790971  0.561835  0.209029  1
