# generated using pymatgen
data_Lu12Ir3Os
_symmetry_space_group_name_H-M   'P 1'
_cell_length_a   7.14364401
_cell_length_b   8.87461900
_cell_length_c   6.28294300
_cell_angle_alpha   90.00000000
_cell_angle_beta   89.99618662
_cell_angle_gamma   90.00000000
_symmetry_Int_Tables_number   1
_chemical_formula_structural   Lu12Ir3Os
_chemical_formula_sum   'Lu12 Ir3 Os1'
_cell_volume   398.32048321
_cell_formula_units_Z   1
loop_
 _symmetry_equiv_pos_site_id
 _symmetry_equiv_pos_as_xyz
  1  'x, y, z'
loop_
 _atom_site_type_symbol
 _atom_site_label
 _atom_site_symmetry_multiplicity
 _atom_site_fract_x
 _atom_site_fract_y
 _atom_site_fract_z
 _atom_site_occupancy
  Lu  Lu0  1  0.676254  0.057461  0.328076  1
  Lu  Lu1  1  0.177185  0.440545  0.174845  1
  Lu  Lu2  1  0.324206  0.560602  0.674220  1
  Lu  Lu3  1  0.821291  0.939130  0.823302  1
  Lu  Lu4  1  0.324206  0.939398  0.674220  1
  Lu  Lu5  1  0.821291  0.560870  0.823302  1
  Lu  Lu6  1  0.676254  0.442539  0.328076  1
  Lu  Lu7  1  0.177185  0.059455  0.174845  1
  Lu  Lu8  1  0.534440  0.250000  0.881607  1
  Lu  Lu9  1  0.032986  0.250000  0.619989  1
  Lu  Lu10  1  0.466496  0.750000  0.117228  1
  Lu  Lu11  1  0.966441  0.750000  0.381295  1
  Ir  Ir12  1  0.888021  0.250000  0.036301  1
  Ir  Ir13  1  0.387488  0.250000  0.465753  1
  Ir  Ir14  1  0.112794  0.750000  0.965339  1
  Os  Os15  1  0.613459  0.750000  0.531601  1
