# generated using pymatgen
data_LaAl10ReIr
_symmetry_space_group_name_H-M   'P 1'
_cell_length_a   6.94468303
_cell_length_b   6.93700738
_cell_length_c   9.25136300
_cell_angle_alpha   90.00000000
_cell_angle_beta   90.00000000
_cell_angle_gamma   96.61412559
_symmetry_Int_Tables_number   1
_chemical_formula_structural   LaAl10ReIr
_chemical_formula_sum   'La2 Al20 Re2 Ir2'
_cell_volume   442.72103213
_cell_formula_units_Z   2
loop_
 _symmetry_equiv_pos_site_id
 _symmetry_equiv_pos_as_xyz
  1  'x, y, z'
loop_
 _atom_site_type_symbol
 _atom_site_label
 _atom_site_symmetry_multiplicity
 _atom_site_fract_x
 _atom_site_fract_y
 _atom_site_fract_z
 _atom_site_occupancy
  La  La0  1  0.880029  0.129433  0.750000  1
  La  La1  1  0.119971  0.870567  0.250000  1
  Al  Al2  1  0.623065  0.380870  0.549754  1
  Al  Al3  1  0.376935  0.619130  0.450246  1
  Al  Al4  1  0.376935  0.619130  0.049754  1
  Al  Al5  1  0.623065  0.380870  0.950246  1
  Al  Al6  1  0.225296  0.226695  0.501260  1
  Al  Al7  1  0.774704  0.773305  0.498740  1
  Al  Al8  1  0.774704  0.773305  0.001260  1
  Al  Al9  1  0.225296  0.226695  0.998740  1
  Al  Al10  1  0.837855  0.161658  0.102838  1
  Al  Al11  1  0.162145  0.838342  0.897162  1
  Al  Al12  1  0.162145  0.838342  0.602838  1
  Al  Al13  1  0.837855  0.161658  0.397162  1
  Al  Al14  1  0.859317  0.590322  0.750000  1
  Al  Al15  1  0.140683  0.409678  0.250000  1
  Al  Al16  1  0.408568  0.140368  0.750000  1
  Al  Al17  1  0.591432  0.859632  0.250000  1
  Al  Al18  1  0.220464  0.483160  0.750000  1
  Al  Al19  1  0.779536  0.516840  0.250000  1
  Al  Al20  1  0.517569  0.777902  0.750000  1
  Al  Al21  1  0.482431  0.222098  0.250000  1
  Re  Re22  1  0.000000  0.500000  0.500000  1
  Re  Re23  1  0.000000  0.500000  0.000000  1
  Ir  Ir24  1  0.500000  0.000000  0.000000  1
  Ir  Ir25  1  0.500000  0.000000  0.500000  1
