# generated using pymatgen
data_Er2MnCo3O10
_symmetry_space_group_name_H-M   'P 1'
_cell_length_a   5.68455600
_cell_length_b   7.22767600
_cell_length_c   8.39946800
_cell_angle_alpha   90.00000000
_cell_angle_beta   90.00000000
_cell_angle_gamma   90.00000000
_symmetry_Int_Tables_number   1
_chemical_formula_structural   Er2MnCo3O10
_chemical_formula_sum   'Er4 Mn2 Co6 O20'
_cell_volume   345.10162554
_cell_formula_units_Z   2
loop_
 _symmetry_equiv_pos_site_id
 _symmetry_equiv_pos_as_xyz
  1  'x, y, z'
loop_
 _atom_site_type_symbol
 _atom_site_label
 _atom_site_symmetry_multiplicity
 _atom_site_fract_x
 _atom_site_fract_y
 _atom_site_fract_z
 _atom_site_occupancy
  Er  Er0  1  0.000505  0.362044  0.671456  1
  Er  Er1  1  0.000505  0.637956  0.328544  1
  Er  Er2  1  0.999495  0.862044  0.828544  1
  Er  Er3  1  0.999495  0.137956  0.171456  1
  Mn  Mn4  1  0.744155  0.500000  0.000000  1
  Mn  Mn5  1  0.255845  0.000000  0.500000  1
  Co  Co6  1  0.498675  0.089724  0.849670  1
  Co  Co7  1  0.498675  0.910276  0.150330  1
  Co  Co8  1  0.501325  0.589724  0.650330  1
  Co  Co9  1  0.501325  0.410276  0.349670  1
  Co  Co10  1  0.254859  0.500000  0.000000  1
  Co  Co11  1  0.745141  0.000000  0.500000  1
  O  O12  1  0.240714  0.894008  0.289746  1
  O  O13  1  0.240714  0.105992  0.710254  1
  O  O14  1  0.759286  0.394008  0.210254  1
  O  O15  1  0.759286  0.605992  0.789746  1
  O  O16  1  0.757223  0.103950  0.707120  1
  O  O17  1  0.757223  0.896050  0.292880  1
  O  O18  1  0.242777  0.603950  0.792880  1
  O  O19  1  0.242777  0.396050  0.207120  1
  O  O20  1  0.497542  0.344819  0.930601  1
  O  O21  1  0.497542  0.655181  0.069399  1
  O  O22  1  0.502458  0.844819  0.569399  1
  O  O23  1  0.502458  0.155181  0.430601  1
  O  O24  1  0.272088  0.000000  0.000000  1
  O  O25  1  0.727912  0.500000  0.500000  1
  O  O26  1  0.727869  0.000000  0.000000  1
  O  O27  1  0.272131  0.500000  0.500000  1
  O  O28  1  0.998951  0.165284  0.444160  1
  O  O29  1  0.998951  0.834716  0.555840  1
  O  O30  1  0.001049  0.665284  0.055840  1
  O  O31  1  0.001049  0.334716  0.944160  1
