# generated using pymatgen
data_Zr7Sc3(UPt5)4
_symmetry_space_group_name_H-M   'P 1'
_cell_length_a   8.28421908
_cell_length_b   8.28476976
_cell_length_c   9.78665606
_cell_angle_alpha   89.99415791
_cell_angle_beta   89.99123658
_cell_angle_gamma   107.54064545
_symmetry_Int_Tables_number   1
_chemical_formula_structural   Zr7Sc3(UPt5)4
_chemical_formula_sum   'Zr7 Sc3 U4 Pt20'
_cell_volume   640.45493520
_cell_formula_units_Z   1
loop_
 _symmetry_equiv_pos_site_id
 _symmetry_equiv_pos_as_xyz
  1  'x, y, z'
loop_
 _atom_site_type_symbol
 _atom_site_label
 _atom_site_symmetry_multiplicity
 _atom_site_fract_x
 _atom_site_fract_y
 _atom_site_fract_z
 _atom_site_occupancy
  Zr  Zr0  1  0.999765  0.000040  0.999791  1
  Zr  Zr1  1  0.500014  0.499808  0.500200  1
  Zr  Zr2  1  0.500922  0.000964  0.250029  1
  Zr  Zr3  1  0.307277  0.309913  0.190904  1
  Zr  Zr4  1  0.692234  0.691768  0.808519  1
  Zr  Zr5  1  0.191725  0.192072  0.691459  1
  Zr  Zr6  1  0.810030  0.807317  0.309109  1
  Sc  Sc7  1  0.999581  0.499548  0.250088  1
  Sc  Sc8  1  0.000202  0.500221  0.749922  1
  Sc  Sc9  1  0.499986  0.999949  0.749938  1
  U  U10  1  0.691726  0.311270  0.998422  1
  U  U11  1  0.308844  0.689574  0.998807  1
  U  U12  1  0.811205  0.191768  0.501599  1
  U  U13  1  0.189581  0.808845  0.501180  1
  Pt  Pt14  1  0.850668  0.142148  0.208842  1
  Pt  Pt15  1  0.148835  0.857430  0.791104  1
  Pt  Pt16  1  0.648572  0.357337  0.708974  1
  Pt  Pt17  1  0.642185  0.350711  0.291088  1
  Pt  Pt18  1  0.350526  0.643231  0.290937  1
  Pt  Pt19  1  0.357427  0.648847  0.708956  1
  Pt  Pt20  1  0.857397  0.148585  0.791121  1
  Pt  Pt21  1  0.143179  0.850538  0.209023  1
  Pt  Pt22  1  0.936297  0.644548  0.997862  1
  Pt  Pt23  1  0.063589  0.355389  0.002564  1
  Pt  Pt24  1  0.563470  0.855451  0.497315  1
  Pt  Pt25  1  0.144620  0.436304  0.502129  1
  Pt  Pt26  1  0.436201  0.143899  0.502830  1
  Pt  Pt27  1  0.855427  0.563662  0.497412  1
  Pt  Pt28  1  0.355531  0.063519  0.002676  1
  Pt  Pt29  1  0.643834  0.936266  0.997223  1
  Pt  Pt30  1  0.105038  0.104786  0.394398  1
  Pt  Pt31  1  0.894736  0.894549  0.605477  1
  Pt  Pt32  1  0.394608  0.394757  0.894563  1
  Pt  Pt33  1  0.604765  0.604984  0.105539  1
