# generated using pymatgen
data_Sr2Cd2AgP3
_symmetry_space_group_name_H-M   'P 1'
_cell_length_a   4.40705800
_cell_length_b   4.40705921
_cell_length_c   22.94421900
_cell_angle_alpha   90.00000000
_cell_angle_beta   90.00000000
_cell_angle_gamma   120.00000595
_symmetry_Int_Tables_number   1
_chemical_formula_structural   Sr2Cd2AgP3
_chemical_formula_sum   'Sr4 Cd4 Ag2 P6'
_cell_volume   385.92377669
_cell_formula_units_Z   2
loop_
 _symmetry_equiv_pos_site_id
 _symmetry_equiv_pos_as_xyz
  1  'x, y, z'
loop_
 _atom_site_type_symbol
 _atom_site_label
 _atom_site_symmetry_multiplicity
 _atom_site_fract_x
 _atom_site_fract_y
 _atom_site_fract_z
 _atom_site_occupancy
  Sr  Sr0  1  0.000000  0.000000  0.658818  1
  Sr  Sr1  1  0.000000  0.000000  0.341182  1
  Sr  Sr2  1  0.000000  0.000000  0.158818  1
  Sr  Sr3  1  0.000000  0.000000  0.841182  1
  Cd  Cd4  1  0.333333  0.666667  0.956946  1
  Cd  Cd5  1  0.666667  0.333333  0.456946  1
  Cd  Cd6  1  0.666667  0.333333  0.043054  1
  Cd  Cd7  1  0.333333  0.666667  0.543054  1
  Ag  Ag8  1  0.666667  0.333333  0.750000  1
  Ag  Ag9  1  0.333333  0.666667  0.250000  1
  P  P10  1  0.666667  0.333333  0.578989  1
  P  P11  1  0.333333  0.666667  0.421011  1
  P  P12  1  0.333333  0.666667  0.750000  1
  P  P13  1  0.666667  0.333333  0.921011  1
  P  P14  1  0.333333  0.666667  0.078989  1
  P  P15  1  0.666667  0.333333  0.250000  1
