# generated using pymatgen
data_Ca3DySb6Rh7
_symmetry_space_group_name_H-M   'P 1'
_cell_length_a   7.65485131
_cell_length_b   7.61544009
_cell_length_c   7.61543998
_cell_angle_alpha   109.36613862
_cell_angle_beta   109.57609322
_cell_angle_gamma   109.57609303
_symmetry_Int_Tables_number   1
_chemical_formula_structural   Ca3DySb6Rh7
_chemical_formula_sum   'Ca3 Dy1 Sb6 Rh7'
_cell_volume   341.30384192
_cell_formula_units_Z   1
loop_
 _symmetry_equiv_pos_site_id
 _symmetry_equiv_pos_as_xyz
  1  'x, y, z'
loop_
 _atom_site_type_symbol
 _atom_site_label
 _atom_site_symmetry_multiplicity
 _atom_site_fract_x
 _atom_site_fract_y
 _atom_site_fract_z
 _atom_site_occupancy
  Ca  Ca0  1  0.000000  0.500000  0.000000  1
  Ca  Ca1  1  0.000000  0.000000  0.500000  1
  Ca  Ca2  1  0.500000  0.500000  0.500000  1
  Dy  Dy3  1  0.500000  0.000000  0.000000  1
  Sb  Sb4  1  0.317307  0.000000  0.320130  1
  Sb  Sb5  1  0.997178  0.679870  0.679870  1
  Sb  Sb6  1  0.682693  0.679870  0.000000  1
  Sb  Sb7  1  0.682693  0.000000  0.679870  1
  Sb  Sb8  1  0.002822  0.320130  0.320130  1
  Sb  Sb9  1  0.317307  0.320130  0.000000  1
  Rh  Rh10  1  0.252878  0.505754  0.752878  1
  Rh  Rh11  1  0.500000  0.247122  0.752878  1
  Rh  Rh12  1  0.747122  0.247122  0.494246  1
  Rh  Rh13  1  0.500000  0.752878  0.247122  1
  Rh  Rh14  1  0.000000  0.000000  0.000000  1
  Rh  Rh15  1  0.252878  0.752878  0.505754  1
  Rh  Rh16  1  0.747122  0.494246  0.247122  1
