# generated using pymatgen
data_Li8Si3GePd4
_symmetry_space_group_name_H-M   'P 1'
_cell_length_a   5.97618500
_cell_length_b   5.97618500
_cell_length_c   5.97618500
_cell_angle_alpha   90.00000000
_cell_angle_beta   90.00000000
_cell_angle_gamma   90.00000000
_symmetry_Int_Tables_number   1
_chemical_formula_structural   Li8Si3GePd4
_chemical_formula_sum   'Li8 Si3 Ge1 Pd4'
_cell_volume   213.43817527
_cell_formula_units_Z   1
loop_
 _symmetry_equiv_pos_site_id
 _symmetry_equiv_pos_as_xyz
  1  'x, y, z'
loop_
 _atom_site_type_symbol
 _atom_site_label
 _atom_site_symmetry_multiplicity
 _atom_site_fract_x
 _atom_site_fract_y
 _atom_site_fract_z
 _atom_site_occupancy
  Li  Li0  1  0.249315  0.750685  0.249315  1
  Li  Li1  1  0.750685  0.249315  0.249315  1
  Li  Li2  1  0.249315  0.249315  0.750685  1
  Li  Li3  1  0.000000  0.000000  0.000000  1
  Li  Li4  1  0.000000  0.500000  0.500000  1
  Li  Li5  1  0.750685  0.750685  0.750685  1
  Li  Li6  1  0.500000  0.000000  0.500000  1
  Li  Li7  1  0.500000  0.500000  0.000000  1
  Si  Si8  1  0.000000  0.000000  0.500000  1
  Si  Si9  1  0.000000  0.500000  0.000000  1
  Si  Si10  1  0.500000  0.000000  0.000000  1
  Ge  Ge11  1  0.500000  0.500000  0.500000  1
  Pd  Pd12  1  0.243832  0.243832  0.243832  1
  Pd  Pd13  1  0.756168  0.243832  0.756168  1
  Pd  Pd14  1  0.756168  0.756168  0.243832  1
  Pd  Pd15  1  0.243832  0.756168  0.756168  1
