# generated using pymatgen
data_Y2FeOs2Ru
_symmetry_space_group_name_H-M   'P 1'
_cell_length_a   5.24546542
_cell_length_b   5.22654799
_cell_length_c   8.95527000
_cell_angle_alpha   90.00000000
_cell_angle_beta   90.00000000
_cell_angle_gamma   119.88078491
_symmetry_Int_Tables_number   1
_chemical_formula_structural   Y2FeOs2Ru
_chemical_formula_sum   'Y4 Fe2 Os4 Ru2'
_cell_volume   212.87700342
_cell_formula_units_Z   2
loop_
 _symmetry_equiv_pos_site_id
 _symmetry_equiv_pos_as_xyz
  1  'x, y, z'
loop_
 _atom_site_type_symbol
 _atom_site_label
 _atom_site_symmetry_multiplicity
 _atom_site_fract_x
 _atom_site_fract_y
 _atom_site_fract_z
 _atom_site_occupancy
  Y  Y0  1  0.331714  0.664624  0.064931  1
  Y  Y1  1  0.668286  0.332909  0.564931  1
  Y  Y2  1  0.331714  0.664624  0.435069  1
  Y  Y3  1  0.668286  0.332909  0.935069  1
  Fe  Fe4  1  0.834553  0.169490  0.250000  1
  Fe  Fe5  1  0.165447  0.334937  0.750000  1
  Os  Os6  1  0.830529  0.663808  0.250000  1
  Os  Os7  1  0.169471  0.833281  0.750000  1
  Os  Os8  1  0.652182  0.829020  0.750000  1
  Os  Os9  1  0.347818  0.176838  0.250000  1
  Ru  Ru10  1  0.000000  0.998781  0.500000  1
  Ru  Ru11  1  0.000000  0.998781  0.000000  1
