# generated using pymatgen
data_YbCo3Sn6Ru
_symmetry_space_group_name_H-M   'P 1'
_cell_length_a   6.73801700
_cell_length_b   6.67324087
_cell_length_c   6.79114448
_cell_angle_alpha   119.66233550
_cell_angle_beta   119.97501501
_cell_angle_gamma   89.58789078
_symmetry_Int_Tables_number   1
_chemical_formula_structural   YbCo3Sn6Ru
_chemical_formula_sum   'Yb1 Co3 Sn6 Ru1'
_cell_volume   217.84998142
_cell_formula_units_Z   1
loop_
 _symmetry_equiv_pos_site_id
 _symmetry_equiv_pos_as_xyz
  1  'x, y, z'
loop_
 _atom_site_type_symbol
 _atom_site_label
 _atom_site_symmetry_multiplicity
 _atom_site_fract_x
 _atom_site_fract_y
 _atom_site_fract_z
 _atom_site_occupancy
  Yb  Yb0  1  0.992432  0.999527  0.000000  1
  Co  Co1  1  0.414310  0.737201  0.000000  1
  Co  Co2  1  0.597454  0.597475  0.345679  1
  Co  Co3  1  0.251775  0.251796  0.654320  1
  Sn  Sn4  1  0.463773  0.113347  0.000000  1
  Sn  Sn5  1  0.126617  0.464325  0.000000  1
  Sn  Sn6  1  0.886769  0.893369  0.360290  1
  Sn  Sn7  1  0.494899  0.995262  0.491667  1
  Sn  Sn8  1  0.003232  0.503595  0.508333  1
  Sn  Sn9  1  0.526479  0.533079  0.639709  1
  Ru  Ru10  1  0.742260  0.411023  0.000000  1
