# generated using pymatgen
data_Y2Al3GaCu6
_symmetry_space_group_name_H-M   'P 1'
_cell_length_a   4.14048200
_cell_length_b   5.20183109
_cell_length_c   8.89047179
_cell_angle_alpha   90.02571615
_cell_angle_beta   90.00000000
_cell_angle_gamma   90.00000000
_symmetry_Int_Tables_number   1
_chemical_formula_structural   Y2Al3GaCu6
_chemical_formula_sum   'Y2 Al3 Ga1 Cu6'
_cell_volume   191.48374455
_cell_formula_units_Z   1
loop_
 _symmetry_equiv_pos_site_id
 _symmetry_equiv_pos_as_xyz
  1  'x, y, z'
loop_
 _atom_site_type_symbol
 _atom_site_label
 _atom_site_symmetry_multiplicity
 _atom_site_fract_x
 _atom_site_fract_y
 _atom_site_fract_z
 _atom_site_occupancy
  Y  Y0  1  0.000000  0.001501  0.999227  1
  Y  Y1  1  0.000000  0.498459  0.500773  1
  Al  Al2  1  0.500000  0.525092  0.999559  1
  Al  Al3  1  0.500000  0.974858  0.500444  1
  Al  Al4  1  0.500000  0.249971  0.250003  1
  Ga  Ga5  1  0.500000  0.250012  0.749985  1
  Cu  Cu6  1  0.000000  0.998479  0.333463  1
  Cu  Cu7  1  0.000000  0.505603  0.834207  1
  Cu  Cu8  1  0.000000  0.501480  0.166535  1
  Cu  Cu9  1  0.000000  0.994358  0.665789  1
  Cu  Cu10  1  0.500000  0.750014  0.750014  1
  Cu  Cu11  1  0.500000  0.749973  0.250002  1
