# generated using pymatgen
data_Sr2CaCdPt2
_symmetry_space_group_name_H-M   'P 1'
_cell_length_a   4.45804200
_cell_length_b   7.80100300
_cell_length_c   9.23921200
_cell_angle_alpha   90.00000000
_cell_angle_beta   90.00000000
_cell_angle_gamma   90.00000000
_symmetry_Int_Tables_number   1
_chemical_formula_structural   Sr2CaCdPt2
_chemical_formula_sum   'Sr4 Ca2 Cd2 Pt4'
_cell_volume   321.31391448
_cell_formula_units_Z   2
loop_
 _symmetry_equiv_pos_site_id
 _symmetry_equiv_pos_as_xyz
  1  'x, y, z'
loop_
 _atom_site_type_symbol
 _atom_site_label
 _atom_site_symmetry_multiplicity
 _atom_site_fract_x
 _atom_site_fract_y
 _atom_site_fract_z
 _atom_site_occupancy
  Sr  Sr0  1  0.250000  0.036891  0.323262  1
  Sr  Sr1  1  0.250000  0.536891  0.176738  1
  Sr  Sr2  1  0.750000  0.973619  0.669621  1
  Sr  Sr3  1  0.750000  0.473619  0.830379  1
  Ca  Ca4  1  0.250000  0.130451  0.941022  1
  Ca  Ca5  1  0.250000  0.630451  0.558978  1
  Cd  Cd6  1  0.750000  0.857072  0.066585  1
  Cd  Cd7  1  0.750000  0.357072  0.433415  1
  Pt  Pt8  1  0.250000  0.265256  0.627606  1
  Pt  Pt9  1  0.250000  0.765256  0.872394  1
  Pt  Pt10  1  0.750000  0.736711  0.374876  1
  Pt  Pt11  1  0.750000  0.236711  0.125124  1
