# generated using pymatgen
data_Dy11Er5Cd4Co3Ru
_symmetry_space_group_name_H-M   'P 1'
_cell_length_a   9.49709616
_cell_length_b   9.48609603
_cell_length_c   9.52103492
_cell_angle_alpha   60.03687171
_cell_angle_beta   60.06784475
_cell_angle_gamma   59.93759005
_symmetry_Int_Tables_number   1
_chemical_formula_structural   Dy11Er5Cd4Co3Ru
_chemical_formula_sum   'Dy11 Er5 Cd4 Co3 Ru1'
_cell_volume   606.71553046
_cell_formula_units_Z   1
loop_
 _symmetry_equiv_pos_site_id
 _symmetry_equiv_pos_as_xyz
  1  'x, y, z'
loop_
 _atom_site_type_symbol
 _atom_site_label
 _atom_site_symmetry_multiplicity
 _atom_site_fract_x
 _atom_site_fract_y
 _atom_site_fract_z
 _atom_site_occupancy
  Dy  Dy0  1  0.154279  0.154330  0.536787  1
  Dy  Dy1  1  0.937166  0.937622  0.562208  1
  Dy  Dy2  1  0.311535  0.688071  0.312053  1
  Dy  Dy3  1  0.561583  0.940598  0.936617  1
  Dy  Dy4  1  0.563068  0.937610  0.561752  1
  Dy  Dy5  1  0.688344  0.687921  0.312274  1
  Dy  Dy6  1  0.561690  0.560547  0.936981  1
  Dy  Dy7  1  0.940356  0.560970  0.936948  1
  Dy  Dy8  1  0.311898  0.691610  0.685005  1
  Dy  Dy9  1  0.151323  0.151237  0.157622  1
  Dy  Dy10  1  0.311541  0.312269  0.684786  1
  Er  Er11  1  0.151191  0.539697  0.157973  1
  Er  Er12  1  0.691565  0.312228  0.685074  1
  Er  Er13  1  0.688051  0.311873  0.312110  1
  Er  Er14  1  0.937548  0.562197  0.562252  1
  Er  Er15  1  0.539505  0.151780  0.157398  1
  Cd  Cd16  1  0.919162  0.241864  0.919269  1
  Cd  Cd17  1  0.919518  0.919920  0.919635  1
  Cd  Cd18  1  0.919321  0.919364  0.241632  1
  Cd  Cd19  1  0.240993  0.919645  0.919587  1
  Co  Co20  1  0.359331  0.922143  0.359844  1
  Co  Co21  1  0.921859  0.359036  0.360222  1
  Co  Co22  1  0.359185  0.358607  0.359671  1
  Ru  Ru23  1  0.359991  0.358862  0.922303  1
