# generated using pymatgen
data_CeTh5(BiN3)2
_symmetry_space_group_name_H-M   'P 1'
_cell_length_a   7.19530736
_cell_length_b   7.19530664
_cell_length_c   12.26327500
_cell_angle_alpha   117.71304109
_cell_angle_beta   117.71303807
_cell_angle_gamma   32.81166953
_symmetry_Int_Tables_number   1
_chemical_formula_structural   CeTh5(BiN3)2
_chemical_formula_sum   'Ce1 Th5 Bi2 N6'
_cell_volume   300.90875081
_cell_formula_units_Z   1
loop_
 _symmetry_equiv_pos_site_id
 _symmetry_equiv_pos_as_xyz
  1  'x, y, z'
loop_
 _atom_site_type_symbol
 _atom_site_label
 _atom_site_symmetry_multiplicity
 _atom_site_fract_x
 _atom_site_fract_y
 _atom_site_fract_z
 _atom_site_occupancy
  Ce  Ce0  1  0.628631  0.628631  0.901699  1
  Th  Th1  1  0.367361  0.367361  0.094973  1
  Th  Th2  1  0.143882  0.143882  0.197975  1
  Th  Th3  1  0.623451  0.623451  0.438749  1
  Th  Th4  1  0.377528  0.377528  0.561628  1
  Th  Th5  1  0.857258  0.857258  0.801758  1
  Bi  Bi6  1  0.878482  0.878482  0.323156  1
  Bi  Bi7  1  0.122728  0.122728  0.682345  1
  N  N8  1  0.161257  0.161257  0.010552  1
  N  N9  1  0.561617  0.561617  0.205636  1
  N  N10  1  0.190081  0.190081  0.407764  1
  N  N11  1  0.810210  0.810210  0.592144  1
  N  N12  1  0.438732  0.438732  0.793744  1
  N  N13  1  0.838781  0.838781  0.987881  1
