# generated using pymatgen
data_Ca4Si4Pd7Pt
_symmetry_space_group_name_H-M   'P 1'
_cell_length_a   5.57398506
_cell_length_b   6.93062242
_cell_length_c   7.33654900
_cell_angle_alpha   89.88259959
_cell_angle_beta   90.03537053
_cell_angle_gamma   90.47177060
_symmetry_Int_Tables_number   1
_chemical_formula_structural   Ca4Si4Pd7Pt
_chemical_formula_sum   'Ca4 Si4 Pd7 Pt1'
_cell_volume   283.40933411
_cell_formula_units_Z   1
loop_
 _symmetry_equiv_pos_site_id
 _symmetry_equiv_pos_as_xyz
  1  'x, y, z'
loop_
 _atom_site_type_symbol
 _atom_site_label
 _atom_site_symmetry_multiplicity
 _atom_site_fract_x
 _atom_site_fract_y
 _atom_site_fract_z
 _atom_site_occupancy
  Ca  Ca0  1  0.128617  0.750747  0.478663  1
  Ca  Ca1  1  0.371878  0.751713  0.977170  1
  Ca  Ca2  1  0.626232  0.250267  0.021251  1
  Ca  Ca3  1  0.871594  0.247704  0.522069  1
  Si  Si4  1  0.124210  0.246190  0.875664  1
  Si  Si5  1  0.370945  0.249878  0.376816  1
  Si  Si6  1  0.632228  0.753811  0.623781  1
  Si  Si7  1  0.871275  0.751188  0.123055  1
  Pd  Pd8  1  0.106589  0.054163  0.172032  1
  Pd  Pd9  1  0.104605  0.448859  0.171190  1
  Pd  Pd10  1  0.395133  0.054152  0.670284  1
  Pd  Pd11  1  0.395324  0.448889  0.671377  1
  Pd  Pd12  1  0.604973  0.552938  0.329450  1
  Pd  Pd13  1  0.602707  0.947051  0.328363  1
  Pd  Pd14  1  0.898831  0.548522  0.827565  1
  Pt  Pt15  1  0.894862  0.943929  0.831269  1
