# generated using pymatgen
data_DyY3(NiB10)2
_symmetry_space_group_name_H-M   'P 1'
_cell_length_a   4.14144700
_cell_length_b   5.54693114
_cell_length_c   11.08843828
_cell_angle_alpha   90.02580884
_cell_angle_beta   90.00000000
_cell_angle_gamma   90.00000000
_symmetry_Int_Tables_number   1
_chemical_formula_structural   DyY3(NiB10)2
_chemical_formula_sum   'Dy1 Y3 Ni2 B20'
_cell_volume   254.72714142
_cell_formula_units_Z   1
loop_
 _symmetry_equiv_pos_site_id
 _symmetry_equiv_pos_as_xyz
  1  'x, y, z'
loop_
 _atom_site_type_symbol
 _atom_site_label
 _atom_site_symmetry_multiplicity
 _atom_site_fract_x
 _atom_site_fract_y
 _atom_site_fract_z
 _atom_site_occupancy
  Dy  Dy0  1  0.500000  0.185750  0.362411  1
  Y  Y1  1  0.500000  0.814318  0.637427  1
  Y  Y2  1  0.500000  0.314283  0.862351  1
  Y  Y3  1  0.500000  0.685661  0.137647  1
  Ni  Ni4  1  0.000000  0.000103  0.000102  1
  Ni  Ni5  1  0.000000  0.499348  0.499800  1
  B  B6  1  0.000000  0.374191  0.041112  1
  B  B7  1  0.000000  0.625637  0.959004  1
  B  B8  1  0.000000  0.125815  0.540762  1
  B  B9  1  0.000000  0.874400  0.458862  1
  B  B10  1  0.000000  0.341193  0.198687  1
  B  B11  1  0.000000  0.658874  0.801496  1
  B  B12  1  0.000000  0.158837  0.698335  1
  B  B13  1  0.000000  0.841365  0.301592  1
  B  B14  1  0.000000  0.029775  0.186774  1
  B  B15  1  0.000000  0.970455  0.813436  1
  B  B16  1  0.000000  0.470354  0.686461  1
  B  B17  1  0.000000  0.529506  0.313600  1
  B  B18  1  0.301547  0.201550  0.114808  1
  B  B19  1  0.698575  0.798540  0.885497  1
  B  B20  1  0.301425  0.798540  0.885497  1
  B  B21  1  0.698496  0.298429  0.614305  1
  B  B22  1  0.698453  0.201550  0.114808  1
  B  B23  1  0.301536  0.701548  0.385461  1
  B  B24  1  0.698464  0.701548  0.385461  1
  B  B25  1  0.301504  0.298429  0.614305  1
