# generated using pymatgen
data_Er4Sn4Sb2Rh7
_symmetry_space_group_name_H-M   'P 1'
_cell_length_a   7.57463783
_cell_length_b   7.57727889
_cell_length_c   7.57463864
_cell_angle_alpha   109.54086062
_cell_angle_beta   109.31789081
_cell_angle_gamma   109.54085318
_symmetry_Int_Tables_number   1
_chemical_formula_structural   Er4Sn4Sb2Rh7
_chemical_formula_sum   'Er4 Sn4 Sb2 Rh7'
_cell_volume   334.72553964
_cell_formula_units_Z   1
loop_
 _symmetry_equiv_pos_site_id
 _symmetry_equiv_pos_as_xyz
  1  'x, y, z'
loop_
 _atom_site_type_symbol
 _atom_site_label
 _atom_site_symmetry_multiplicity
 _atom_site_fract_x
 _atom_site_fract_y
 _atom_site_fract_z
 _atom_site_occupancy
  Er  Er0  1  0.498729  0.997458  0.998729  1
  Er  Er1  1  0.998994  0.493979  0.998994  1
  Er  Er2  1  0.998729  0.997458  0.498729  1
  Er  Er3  1  0.494985  0.493979  0.494985  1
  Sn  Sn4  1  0.313868  0.995357  0.313868  1
  Sn  Sn5  1  0.997542  0.687676  0.690135  1
  Sn  Sn6  1  0.690135  0.687676  0.997542  1
  Sn  Sn7  1  0.681488  0.995357  0.681488  1
  Sb  Sb8  1  0.997594  0.318099  0.320505  1
  Sb  Sb9  1  0.320505  0.318099  0.997594  1
  Rh  Rh10  1  0.251048  0.502097  0.751048  1
  Rh  Rh11  1  0.501256  0.250583  0.749327  1
  Rh  Rh12  1  0.749327  0.250583  0.501256  1
  Rh  Rh13  1  0.501038  0.748344  0.247306  1
  Rh  Rh14  1  0.006407  0.012814  0.006407  1
  Rh  Rh15  1  0.247306  0.748344  0.501038  1
  Rh  Rh16  1  0.751048  0.502097  0.251048  1
