# generated using pymatgen
data_Dy5Y11Cd4Ir3Pt
_symmetry_space_group_name_H-M   'P 1'
_cell_length_a   9.64947495
_cell_length_b   9.66023653
_cell_length_c   9.66023620
_cell_angle_alpha   60.24259433
_cell_angle_beta   60.26160866
_cell_angle_gamma   60.26160389
_symmetry_Int_Tables_number   1
_chemical_formula_structural   Dy5Y11Cd4Ir3Pt
_chemical_formula_sum   'Dy5 Y11 Cd4 Ir3 Pt1'
_cell_volume   640.42219774
_cell_formula_units_Z   1
loop_
 _symmetry_equiv_pos_site_id
 _symmetry_equiv_pos_as_xyz
  1  'x, y, z'
loop_
 _atom_site_type_symbol
 _atom_site_label
 _atom_site_symmetry_multiplicity
 _atom_site_fract_x
 _atom_site_fract_y
 _atom_site_fract_z
 _atom_site_occupancy
  Dy  Dy0  1  0.347843  0.347747  0.347747  1
  Dy  Dy1  1  0.352202  0.351849  0.949839  1
  Dy  Dy2  1  0.352202  0.949839  0.351849  1
  Dy  Dy3  1  0.949381  0.352148  0.352148  1
  Dy  Dy4  1  0.805321  0.190777  0.190777  1
  Y  Y5  1  0.188439  0.810035  0.810035  1
  Y  Y6  1  0.190889  0.805035  0.191018  1
  Y  Y7  1  0.810267  0.188356  0.809892  1
  Y  Y8  1  0.190889  0.191018  0.805035  1
  Y  Y9  1  0.810267  0.809892  0.188356  1
  Y  Y10  1  0.938749  0.562560  0.562560  1
  Y  Y11  1  0.563734  0.937595  0.937595  1
  Y  Y12  1  0.562630  0.939078  0.562194  1
  Y  Y13  1  0.937694  0.563384  0.937858  1
  Y  Y14  1  0.562630  0.562194  0.939078  1
  Y  Y15  1  0.937694  0.937858  0.563384  1
  Cd  Cd16  1  0.580562  0.580674  0.580674  1
  Cd  Cd17  1  0.580563  0.581009  0.256654  1
  Cd  Cd18  1  0.580563  0.256654  0.581009  1
  Cd  Cd19  1  0.256603  0.580737  0.580737  1
  Ir  Ir20  1  0.142746  0.142418  0.572587  1
  Ir  Ir21  1  0.142746  0.572587  0.142418  1
  Ir  Ir22  1  0.573476  0.143021  0.143021  1
  Pt  Pt23  1  0.141909  0.143535  0.143535  1
