# generated using pymatgen
data_CeHo5(AlC3)2
_symmetry_space_group_name_H-M   'P 1'
_cell_length_a   3.56953700
_cell_length_b   7.12430600
_cell_length_c   9.91788800
_cell_angle_alpha   90.00000000
_cell_angle_beta   90.00000000
_cell_angle_gamma   90.00000000
_symmetry_Int_Tables_number   1
_chemical_formula_structural   CeHo5(AlC3)2
_chemical_formula_sum   'Ce1 Ho5 Al2 C6'
_cell_volume   252.21659159
_cell_formula_units_Z   1
loop_
 _symmetry_equiv_pos_site_id
 _symmetry_equiv_pos_as_xyz
  1  'x, y, z'
loop_
 _atom_site_type_symbol
 _atom_site_label
 _atom_site_symmetry_multiplicity
 _atom_site_fract_x
 _atom_site_fract_y
 _atom_site_fract_z
 _atom_site_occupancy
  Ce  Ce0  1  0.000000  0.750000  0.462942  1
  Ho  Ho1  1  0.500000  0.512347  0.197884  1
  Ho  Ho2  1  0.500000  0.485088  0.800439  1
  Ho  Ho3  1  0.500000  0.987653  0.197884  1
  Ho  Ho4  1  0.500000  0.014912  0.800439  1
  Ho  Ho5  1  0.000000  0.250000  0.540426  1
  Al  Al6  1  0.000000  0.750000  0.003524  1
  Al  Al7  1  0.000000  0.250000  0.996499  1
  C  C8  1  0.500000  0.500326  0.566224  1
  C  C9  1  0.500000  0.484258  0.432398  1
  C  C10  1  0.500000  0.999674  0.566224  1
  C  C11  1  0.500000  0.015742  0.432398  1
  C  C12  1  0.000000  0.750000  0.209302  1
  C  C13  1  0.000000  0.250000  0.793415  1
