# generated using pymatgen
data_Yb2BeSi13Ir6
_symmetry_space_group_name_H-M   'P 1'
_cell_length_a   8.06406991
_cell_length_b   7.98071257
_cell_length_c   7.97661700
_cell_angle_alpha   57.16487693
_cell_angle_beta   56.66507480
_cell_angle_gamma   56.75924188
_symmetry_Int_Tables_number   1
_chemical_formula_structural   Yb2BeSi13Ir6
_chemical_formula_sum   'Yb2 Be1 Si13 Ir6'
_cell_volume   336.70495161
_cell_formula_units_Z   1
loop_
 _symmetry_equiv_pos_site_id
 _symmetry_equiv_pos_as_xyz
  1  'x, y, z'
loop_
 _atom_site_type_symbol
 _atom_site_label
 _atom_site_symmetry_multiplicity
 _atom_site_fract_x
 _atom_site_fract_y
 _atom_site_fract_z
 _atom_site_occupancy
  Yb  Yb0  1  0.501968  0.498159  0.501131  1
  Yb  Yb1  1  0.999988  0.999531  0.998517  1
  Be  Be2  1  0.847565  0.053256  0.683366  1
  Si  Si3  1  0.675249  0.857520  0.057916  1
  Si  Si4  1  0.059216  0.683153  0.843835  1
  Si  Si5  1  0.653861  0.818073  0.445811  1
  Si  Si6  1  0.248731  0.249584  0.249639  1
  Si  Si7  1  0.750869  0.755889  0.749747  1
  Si  Si8  1  0.168149  0.571324  0.350988  1
  Si  Si9  1  0.563297  0.354851  0.170390  1
  Si  Si10  1  0.349865  0.176366  0.559347  1
  Si  Si11  1  0.935664  0.328935  0.147037  1
  Si  Si12  1  0.333563  0.149383  0.927236  1
  Si  Si13  1  0.140715  0.942799  0.334684  1
  Si  Si14  1  0.835922  0.411069  0.650758  1
  Si  Si15  1  0.438893  0.647041  0.828567  1
  Ir  Ir16  1  0.748322  0.074886  0.424604  1
  Ir  Ir17  1  0.425406  0.752595  0.074781  1
  Ir  Ir18  1  0.068881  0.428926  0.749438  1
  Ir  Ir19  1  0.255765  0.925266  0.571960  1
  Ir  Ir20  1  0.569726  0.249545  0.929703  1
  Ir  Ir21  1  0.928385  0.571849  0.250546  1
