# generated using pymatgen
data_LiPr3Nd5Rh6
_symmetry_space_group_name_H-M   'P 1'
_cell_length_a   7.61414489
_cell_length_b   7.61414437
_cell_length_c   7.61414515
_cell_angle_alpha   70.47702143
_cell_angle_beta   70.47702389
_cell_angle_gamma   70.47701602
_symmetry_Int_Tables_number   1
_chemical_formula_structural   LiPr3Nd5Rh6
_chemical_formula_sum   'Li1 Pr3 Nd5 Rh6'
_cell_volume   379.63233596
_cell_formula_units_Z   1
loop_
 _symmetry_equiv_pos_site_id
 _symmetry_equiv_pos_as_xyz
  1  'x, y, z'
loop_
 _atom_site_type_symbol
 _atom_site_label
 _atom_site_symmetry_multiplicity
 _atom_site_fract_x
 _atom_site_fract_y
 _atom_site_fract_z
 _atom_site_occupancy
  Li  Li0  1  0.000019  0.000019  0.000019  1
  Pr  Pr1  1  0.850444  0.615537  0.325924  1
  Pr  Pr2  1  0.325924  0.850444  0.615537  1
  Pr  Pr3  1  0.615537  0.325924  0.850444  1
  Nd  Nd4  1  0.810681  0.810681  0.810681  1
  Nd  Nd5  1  0.189294  0.189294  0.189294  1
  Nd  Nd6  1  0.149587  0.384334  0.674189  1
  Nd  Nd7  1  0.674189  0.149587  0.384334  1
  Nd  Nd8  1  0.384334  0.674189  0.149587  1
  Rh  Rh9  1  0.949618  0.177844  0.576575  1
  Rh  Rh10  1  0.576575  0.949618  0.177844  1
  Rh  Rh11  1  0.177844  0.576575  0.949618  1
  Rh  Rh12  1  0.050488  0.822151  0.423315  1
  Rh  Rh13  1  0.423315  0.050488  0.822151  1
  Rh  Rh14  1  0.822151  0.423315  0.050488  1
