# generated using pymatgen
data_Tb7DyHo2(CoSb2)2
_symmetry_space_group_name_H-M   'P 1'
_cell_length_a   7.92826102
_cell_length_b   8.78931135
_cell_length_c   12.25958900
_cell_angle_alpha   90.00000000
_cell_angle_beta   90.00000000
_cell_angle_gamma   89.94681320
_symmetry_Int_Tables_number   1
_chemical_formula_structural   Tb7DyHo2(CoSb2)2
_chemical_formula_sum   'Tb14 Dy2 Ho4 Co4 Sb8'
_cell_volume   854.29627421
_cell_formula_units_Z   2
loop_
 _symmetry_equiv_pos_site_id
 _symmetry_equiv_pos_as_xyz
  1  'x, y, z'
loop_
 _atom_site_type_symbol
 _atom_site_label
 _atom_site_symmetry_multiplicity
 _atom_site_fract_x
 _atom_site_fract_y
 _atom_site_fract_z
 _atom_site_occupancy
  Tb  Tb0  1  0.153299  0.750109  0.202716  1
  Tb  Tb1  1  0.346701  0.749891  0.702716  1
  Tb  Tb2  1  0.846707  0.249936  0.797606  1
  Tb  Tb3  1  0.653293  0.250064  0.297606  1
  Tb  Tb4  1  0.454053  0.750069  0.997875  1
  Tb  Tb5  1  0.045947  0.749931  0.497875  1
  Tb  Tb6  1  0.542381  0.249851  0.002171  1
  Tb  Tb7  1  0.957619  0.250149  0.502171  1
  Tb  Tb8  1  0.622687  0.749459  0.306899  1
  Tb  Tb9  1  0.877313  0.750541  0.806899  1
  Tb  Tb10  1  0.375988  0.250393  0.693292  1
  Tb  Tb11  1  0.124012  0.249607  0.193292  1
  Tb  Tb12  1  0.820456  0.533638  0.064717  1
  Tb  Tb13  1  0.679544  0.966362  0.564717  1
  Dy  Dy14  1  0.821445  0.966140  0.064767  1
  Dy  Dy15  1  0.678555  0.533860  0.564767  1
  Ho  Ho16  1  0.177515  0.034809  0.934697  1
  Ho  Ho17  1  0.322485  0.465191  0.434697  1
  Ho  Ho18  1  0.177630  0.465453  0.934714  1
  Ho  Ho19  1  0.322370  0.034547  0.434714  1
  Co  Co20  1  0.435860  0.749631  0.490909  1
  Co  Co21  1  0.064140  0.750369  0.990909  1
  Co  Co22  1  0.561009  0.250183  0.508681  1
  Co  Co23  1  0.938991  0.249817  0.008681  1
  Sb  Sb24  1  0.929052  0.507320  0.326896  1
  Sb  Sb25  1  0.570948  0.992680  0.826896  1
  Sb  Sb26  1  0.072204  0.007688  0.673534  1
  Sb  Sb27  1  0.427796  0.492312  0.173534  1
  Sb  Sb28  1  0.071306  0.492596  0.673650  1
  Sb  Sb29  1  0.428694  0.007404  0.173650  1
  Sb  Sb30  1  0.928601  0.992532  0.326876  1
  Sb  Sb31  1  0.571399  0.507468  0.826876  1
