# generated using pymatgen
data_Sm2PaOs3
_symmetry_space_group_name_H-M   'P 1'
_cell_length_a   5.84174200
_cell_length_b   5.84174239
_cell_length_c   8.38225700
_cell_angle_alpha   90.00000000
_cell_angle_beta   90.00000000
_cell_angle_gamma   119.99998648
_symmetry_Int_Tables_number   1
_chemical_formula_structural   Sm2PaOs3
_chemical_formula_sum   'Sm4 Pa2 Os6'
_cell_volume   247.72876461
_cell_formula_units_Z   2
loop_
 _symmetry_equiv_pos_site_id
 _symmetry_equiv_pos_as_xyz
  1  'x, y, z'
loop_
 _atom_site_type_symbol
 _atom_site_label
 _atom_site_symmetry_multiplicity
 _atom_site_fract_x
 _atom_site_fract_y
 _atom_site_fract_z
 _atom_site_occupancy
  Sm  Sm0  1  0.333333  0.666667  0.435580  1
  Sm  Sm1  1  0.666667  0.333333  0.564420  1
  Sm  Sm2  1  0.666667  0.333333  0.935580  1
  Sm  Sm3  1  0.333333  0.666667  0.064420  1
  Pa  Pa4  1  0.000000  0.000000  0.000000  1
  Pa  Pa5  1  0.000000  0.000000  0.500000  1
  Os  Os6  1  0.168153  0.336307  0.750000  1
  Os  Os7  1  0.168153  0.831847  0.750000  1
  Os  Os8  1  0.336307  0.168153  0.250000  1
  Os  Os9  1  0.831847  0.663693  0.250000  1
  Os  Os10  1  0.663693  0.831847  0.750000  1
  Os  Os11  1  0.831847  0.168153  0.250000  1
