# generated using pymatgen
data_Ba2PrGaO5
_symmetry_space_group_name_H-M   'P 1'
_cell_length_a   6.29096000
_cell_length_b   7.98688004
_cell_length_c   13.02348691
_cell_angle_alpha   91.31869561
_cell_angle_beta   90.00000000
_cell_angle_gamma   90.00000000
_symmetry_Int_Tables_number   1
_chemical_formula_structural   Ba2PrGaO5
_chemical_formula_sum   'Ba8 Pr4 Ga4 O20'
_cell_volume   654.19365362
_cell_formula_units_Z   4
loop_
 _symmetry_equiv_pos_site_id
 _symmetry_equiv_pos_as_xyz
  1  'x, y, z'
loop_
 _atom_site_type_symbol
 _atom_site_label
 _atom_site_symmetry_multiplicity
 _atom_site_fract_x
 _atom_site_fract_y
 _atom_site_fract_z
 _atom_site_occupancy
  Ba  Ba0  1  0.772348  0.475876  0.338443  1
  Ba  Ba1  1  0.727652  0.975876  0.838443  1
  Ba  Ba2  1  0.227652  0.524124  0.661557  1
  Ba  Ba3  1  0.272348  0.024124  0.161557  1
  Ba  Ba4  1  0.767269  0.991721  0.377602  1
  Ba  Ba5  1  0.732731  0.491721  0.877602  1
  Ba  Ba6  1  0.232731  0.008279  0.622398  1
  Ba  Ba7  1  0.267269  0.508279  0.122398  1
  Pr  Pr8  1  0.747560  0.273122  0.622711  1
  Pr  Pr9  1  0.752440  0.773122  0.122711  1
  Pr  Pr10  1  0.252440  0.726878  0.377289  1
  Pr  Pr11  1  0.247560  0.226878  0.877289  1
  Ga  Ga12  1  0.729001  0.743718  0.583024  1
  Ga  Ga13  1  0.770999  0.243718  0.083024  1
  Ga  Ga14  1  0.270999  0.256282  0.416976  1
  Ga  Ga15  1  0.229001  0.756282  0.916976  1
  O  O16  1  0.776603  0.967906  0.628220  1
  O  O17  1  0.723397  0.467906  0.128220  1
  O  O18  1  0.223397  0.032094  0.371780  1
  O  O19  1  0.276603  0.532094  0.871780  1
  O  O20  1  0.722954  0.075153  0.178530  1
  O  O21  1  0.777046  0.575153  0.678530  1
  O  O22  1  0.277046  0.924847  0.821470  1
  O  O23  1  0.222954  0.424847  0.321470  1
  O  O24  1  0.560013  0.744508  0.279060  1
  O  O25  1  0.939987  0.244508  0.779060  1
  O  O26  1  0.439987  0.255492  0.720940  1
  O  O27  1  0.060013  0.755492  0.220940  1
  O  O28  1  0.577154  0.214750  0.972938  1
  O  O29  1  0.922846  0.714750  0.472938  1
  O  O30  1  0.422846  0.785250  0.027062  1
  O  O31  1  0.077154  0.285250  0.527062  1
  O  O32  1  0.056742  0.234808  0.038398  1
  O  O33  1  0.443258  0.734808  0.538398  1
  O  O34  1  0.943258  0.765192  0.961602  1
  O  O35  1  0.556742  0.265192  0.461602  1
