# generated using pymatgen
data_La15PrCd4(IrPd)2
_symmetry_space_group_name_H-M   'P 1'
_cell_length_a   10.16266690
_cell_length_b   10.16266696
_cell_length_c   10.12860000
_cell_angle_alpha   60.11083348
_cell_angle_beta   60.11083329
_cell_angle_gamma   60.32797475
_symmetry_Int_Tables_number   1
_chemical_formula_structural   La15PrCd4(IrPd)2
_chemical_formula_sum   'La15 Pr1 Cd4 Ir2 Pd2'
_cell_volume   742.75206019
_cell_formula_units_Z   1
loop_
 _symmetry_equiv_pos_site_id
 _symmetry_equiv_pos_as_xyz
  1  'x, y, z'
loop_
 _atom_site_type_symbol
 _atom_site_label
 _atom_site_symmetry_multiplicity
 _atom_site_fract_x
 _atom_site_fract_y
 _atom_site_fract_z
 _atom_site_occupancy
  La  La0  1  0.349891  0.349891  0.344283  1
  La  La1  1  0.349891  0.349891  0.955935  1
  La  La2  1  0.355952  0.946154  0.348946  1
  La  La3  1  0.946154  0.355952  0.348946  1
  La  La4  1  0.804461  0.190945  0.190397  1
  La  La5  1  0.190945  0.804461  0.814196  1
  La  La6  1  0.190945  0.804461  0.190397  1
  La  La7  1  0.804461  0.190945  0.814196  1
  La  La8  1  0.192181  0.192181  0.807819  1
  La  La9  1  0.810689  0.810689  0.189311  1
  La  La10  1  0.939789  0.564786  0.560329  1
  La  La11  1  0.564786  0.939789  0.935096  1
  La  La12  1  0.564786  0.939789  0.560329  1
  La  La13  1  0.939789  0.564786  0.935096  1
  La  La14  1  0.562002  0.562002  0.937998  1
  Pr  Pr15  1  0.937961  0.937961  0.562039  1
  Cd  Cd16  1  0.579929  0.579929  0.580363  1
  Cd  Cd17  1  0.579929  0.579929  0.259778  1
  Cd  Cd18  1  0.579264  0.260660  0.580038  1
  Cd  Cd19  1  0.260660  0.579264  0.580038  1
  Ir  Ir20  1  0.140351  0.572985  0.143332  1
  Ir  Ir21  1  0.572985  0.140351  0.143332  1
  Pd  Pd22  1  0.141100  0.141100  0.146549  1
  Pd  Pd23  1  0.141100  0.141100  0.571251  1
