# generated using pymatgen
data_HoTm7Sc12Ga7Si9
_symmetry_space_group_name_H-M   'P 1'
_cell_length_a   7.12507835
_cell_length_b   7.38211187
_cell_length_c   14.18381711
_cell_angle_alpha   90.00823920
_cell_angle_beta   89.93697493
_cell_angle_gamma   90.03298202
_symmetry_Int_Tables_number   1
_chemical_formula_structural   HoTm7Sc12Ga7Si9
_chemical_formula_sum   'Ho1 Tm7 Sc12 Ga7 Si9'
_cell_volume   746.04160876
_cell_formula_units_Z   1
loop_
 _symmetry_equiv_pos_site_id
 _symmetry_equiv_pos_as_xyz
  1  'x, y, z'
loop_
 _atom_site_type_symbol
 _atom_site_label
 _atom_site_symmetry_multiplicity
 _atom_site_fract_x
 _atom_site_fract_y
 _atom_site_fract_z
 _atom_site_occupancy
  Ho  Ho0  1  0.012359  0.174541  0.098511  1
  Tm  Tm1  1  0.989735  0.822915  0.901681  1
  Tm  Tm2  1  0.488456  0.677005  0.901842  1
  Tm  Tm3  1  0.989545  0.823325  0.599254  1
  Tm  Tm4  1  0.510342  0.322326  0.098725  1
  Tm  Tm5  1  0.010196  0.176224  0.400547  1
  Tm  Tm6  1  0.510561  0.323170  0.400511  1
  Tm  Tm7  1  0.489572  0.676614  0.599195  1
  Sc  Sc8  1  0.163810  0.503465  0.749960  1
  Sc  Sc9  1  0.836850  0.497573  0.249899  1
  Sc  Sc10  1  0.336152  0.003282  0.249046  1
  Sc  Sc11  1  0.663367  0.996965  0.749708  1
  Sc  Sc12  1  0.330252  0.173570  0.625801  1
  Sc  Sc13  1  0.669349  0.826698  0.373963  1
  Sc  Sc14  1  0.169555  0.673891  0.373856  1
  Sc  Sc15  1  0.668106  0.825211  0.126144  1
  Sc  Sc16  1  0.830043  0.326365  0.626008  1
  Sc  Sc17  1  0.329780  0.174140  0.874954  1
  Sc  Sc18  1  0.829199  0.326466  0.874380  1
  Sc  Sc19  1  0.171939  0.675659  0.125064  1
  Ga  Ga20  1  0.161784  0.464103  0.539579  1
  Ga  Ga21  1  0.838219  0.535830  0.460277  1
  Ga  Ga22  1  0.337987  0.963756  0.460417  1
  Ga  Ga23  1  0.838253  0.537236  0.040093  1
  Ga  Ga24  1  0.661895  0.036072  0.539379  1
  Ga  Ga25  1  0.161198  0.463472  0.960620  1
  Ga  Ga26  1  0.660495  0.036730  0.960973  1
  Si  Si27  1  0.031804  0.112034  0.750740  1
  Si  Si28  1  0.967778  0.886912  0.249665  1
  Si  Si29  1  0.467610  0.611896  0.249577  1
  Si  Si30  1  0.531959  0.387557  0.750187  1
  Si  Si31  1  0.284226  0.872655  0.750587  1
  Si  Si32  1  0.715932  0.127669  0.249306  1
  Si  Si33  1  0.215493  0.372088  0.249653  1
  Si  Si34  1  0.784179  0.627836  0.750416  1
  Si  Si35  1  0.342018  0.964754  0.039484  1
