# generated using pymatgen
data_Ti7(GaCo)4
_symmetry_space_group_name_H-M   'P 1'
_cell_length_a   8.45662630
_cell_length_b   8.45662587
_cell_length_c   8.45662690
_cell_angle_alpha   59.95297438
_cell_angle_beta   59.95297009
_cell_angle_gamma   59.95298540
_symmetry_Int_Tables_number   1
_chemical_formula_structural   Ti7(GaCo)4
_chemical_formula_sum   'Ti14 Ga8 Co8'
_cell_volume   427.18208112
_cell_formula_units_Z   2
loop_
 _symmetry_equiv_pos_site_id
 _symmetry_equiv_pos_as_xyz
  1  'x, y, z'
loop_
 _atom_site_type_symbol
 _atom_site_label
 _atom_site_symmetry_multiplicity
 _atom_site_fract_x
 _atom_site_fract_y
 _atom_site_fract_z
 _atom_site_occupancy
  Ti  Ti0  1  0.204202  0.204202  0.796066  1
  Ti  Ti1  1  0.796066  0.204202  0.204202  1
  Ti  Ti2  1  0.204202  0.796066  0.204202  1
  Ti  Ti3  1  0.797590  0.797590  0.201340  1
  Ti  Ti4  1  0.201340  0.797590  0.797590  1
  Ti  Ti5  1  0.797590  0.201340  0.797590  1
  Ti  Ti6  1  0.378135  0.378135  0.378135  1
  Ti  Ti7  1  0.378446  0.865310  0.378446  1
  Ti  Ti8  1  0.865310  0.378446  0.378446  1
  Ti  Ti9  1  0.378446  0.378446  0.865310  1
  Ti  Ti10  1  0.837927  0.485208  0.837927  1
  Ti  Ti11  1  0.485208  0.837927  0.837927  1
  Ti  Ti12  1  0.837927  0.837927  0.485208  1
  Ti  Ti13  1  0.836991  0.836991  0.836991  1
  Ga  Ga14  1  0.157476  0.157476  0.157476  1
  Ga  Ga15  1  0.157781  0.526966  0.157781  1
  Ga  Ga16  1  0.526966  0.157781  0.157781  1
  Ga  Ga17  1  0.157781  0.157781  0.526966  1
  Ga  Ga18  1  0.617336  0.617336  0.617336  1
  Ga  Ga19  1  0.617571  0.147071  0.617571  1
  Ga  Ga20  1  0.147071  0.617571  0.617571  1
  Ga  Ga21  1  0.617571  0.617571  0.147071  1
  Co  Co22  1  0.001078  0.001078  0.499275  1
  Co  Co23  1  0.499275  0.001078  0.001078  1
  Co  Co24  1  0.001078  0.499275  0.001078  1
  Co  Co25  1  0.498855  0.498855  0.001017  1
  Co  Co26  1  0.001017  0.498855  0.498855  1
  Co  Co27  1  0.498855  0.001017  0.498855  1
  Co  Co28  1  0.499704  0.499704  0.499704  1
  Co  Co29  1  0.001203  0.001203  0.001203  1
