# generated using pymatgen
data_CeDy5IO12
_symmetry_space_group_name_H-M   'P 1'
_cell_length_a   6.52396331
_cell_length_b   6.48585196
_cell_length_c   6.53235700
_cell_angle_alpha   98.93760448
_cell_angle_beta   98.96605516
_cell_angle_gamma   98.68748356
_symmetry_Int_Tables_number   1
_chemical_formula_structural   CeDy5IO12
_chemical_formula_sum   'Ce1 Dy5 I1 O12'
_cell_volume   265.32815343
_cell_formula_units_Z   1
loop_
 _symmetry_equiv_pos_site_id
 _symmetry_equiv_pos_as_xyz
  1  'x, y, z'
loop_
 _atom_site_type_symbol
 _atom_site_label
 _atom_site_symmetry_multiplicity
 _atom_site_fract_x
 _atom_site_fract_y
 _atom_site_fract_z
 _atom_site_occupancy
  Ce  Ce0  1  0.681022  0.859771  0.395726  1
  Dy  Dy1  1  0.392104  0.680488  0.861552  1
  Dy  Dy2  1  0.862471  0.390899  0.689053  1
  Dy  Dy3  1  0.306490  0.149488  0.610134  1
  Dy  Dy4  1  0.611490  0.303785  0.142287  1
  Dy  Dy5  1  0.144290  0.604393  0.309065  1
  I  I6  1  0.002623  0.993859  0.996769  1
  O  O7  1  0.434210  0.580768  0.184631  1
  O  O8  1  0.179878  0.437998  0.583681  1
  O  O9  1  0.583976  0.180053  0.437308  1
  O  O10  1  0.568742  0.407221  0.826029  1
  O  O11  1  0.821588  0.569555  0.407894  1
  O  O12  1  0.409184  0.826111  0.572135  1
  O  O13  1  0.941305  0.059637  0.657952  1
  O  O14  1  0.960103  0.297063  0.073582  1
  O  O15  1  0.289933  0.081352  0.959646  1
  O  O16  1  0.088613  0.962512  0.287322  1
  O  O17  1  0.060742  0.677405  0.935533  1
  O  O18  1  0.661237  0.937642  0.069700  1
