# generated using pymatgen
data_Dy2VPdF14
_symmetry_space_group_name_H-M   'P 1'
_cell_length_a   5.52765649
_cell_length_b   8.87705423
_cell_length_c   11.88673200
_cell_angle_alpha   62.75640014
_cell_angle_beta   90.32051726
_cell_angle_gamma   90.13151131
_symmetry_Int_Tables_number   1
_chemical_formula_structural   Dy2VPdF14
_chemical_formula_sum   'Dy4 V2 Pd2 F28'
_cell_volume   518.56200470
_cell_formula_units_Z   2
loop_
 _symmetry_equiv_pos_site_id
 _symmetry_equiv_pos_as_xyz
  1  'x, y, z'
loop_
 _atom_site_type_symbol
 _atom_site_label
 _atom_site_symmetry_multiplicity
 _atom_site_fract_x
 _atom_site_fract_y
 _atom_site_fract_z
 _atom_site_occupancy
  Dy  Dy0  1  0.259282  0.809441  0.265816  1
  Dy  Dy1  1  0.740718  0.190559  0.734184  1
  Dy  Dy2  1  0.761698  0.184943  0.233885  1
  Dy  Dy3  1  0.238302  0.815057  0.766115  1
  V  V4  1  0.753746  0.726127  0.042938  1
  V  V5  1  0.246254  0.273873  0.957062  1
  Pd  Pd6  1  0.259782  0.273235  0.455147  1
  Pd  Pd7  1  0.740218  0.726765  0.544853  1
  F  F8  1  0.930216  0.700453  0.417581  1
  F  F9  1  0.069784  0.299547  0.582419  1
  F  F10  1  0.455146  0.289013  0.078401  1
  F  F11  1  0.544854  0.710987  0.921599  1
  F  F12  1  0.482457  0.736332  0.136125  1
  F  F13  1  0.517543  0.263668  0.863875  1
  F  F14  1  0.965950  0.276499  0.362214  1
  F  F15  1  0.034050  0.723501  0.637786  1
  F  F16  1  0.959477  0.749011  0.164315  1
  F  F17  1  0.040523  0.250989  0.835685  1
  F  F18  1  0.446048  0.255929  0.321977  1
  F  F19  1  0.553952  0.744071  0.678023  1
  F  F20  1  0.765338  0.494194  0.135497  1
  F  F21  1  0.234662  0.505806  0.864503  1
  F  F22  1  0.275100  0.519551  0.356370  1
  F  F23  1  0.724900  0.480449  0.643630  1
  F  F24  1  0.966220  0.281963  0.049357  1
  F  F25  1  0.033780  0.718037  0.950643  1
  F  F26  1  0.439398  0.719631  0.460700  1
  F  F27  1  0.560602  0.280369  0.539300  1
  F  F28  1  0.744281  0.972425  0.452436  1
  F  F29  1  0.255719  0.027575  0.547564  1
  F  F30  1  0.240932  0.041967  0.050032  1
  F  F31  1  0.759068  0.958033  0.949968  1
  F  F32  1  0.584620  0.967677  0.233023  1
  F  F33  1  0.415380  0.032323  0.766977  1
  F  F34  1  0.083238  0.024357  0.271250  1
  F  F35  1  0.916762  0.975643  0.728750  1
