# generated using pymatgen
data_PrNd2Th(Al3Rh)6
_symmetry_space_group_name_H-M   'P 1'
_cell_length_a   7.63712643
_cell_length_b   7.64211627
_cell_length_c   9.58789800
_cell_angle_alpha   90.00000000
_cell_angle_beta   90.00000000
_cell_angle_gamma   119.32487304
_symmetry_Int_Tables_number   1
_chemical_formula_structural   PrNd2Th(Al3Rh)6
_chemical_formula_sum   'Pr1 Nd2 Th1 Al18 Rh6'
_cell_volume   487.87903485
_cell_formula_units_Z   1
loop_
 _symmetry_equiv_pos_site_id
 _symmetry_equiv_pos_as_xyz
  1  'x, y, z'
loop_
 _atom_site_type_symbol
 _atom_site_label
 _atom_site_symmetry_multiplicity
 _atom_site_fract_x
 _atom_site_fract_y
 _atom_site_fract_z
 _atom_site_occupancy
  Pr  Pr0  1  0.671112  0.994368  0.750000  1
  Nd  Nd1  1  0.004965  0.329067  0.250000  1
  Nd  Nd2  1  0.329035  0.004762  0.250000  1
  Th  Th3  1  0.995754  0.671304  0.750000  1
  Al  Al4  1  0.132327  0.132034  0.750000  1
  Al  Al5  1  0.870098  0.871171  0.250000  1
  Al  Al6  1  0.003017  0.333164  0.573308  1
  Al  Al7  1  0.996972  0.664307  0.422366  1
  Al  Al8  1  0.996972  0.664307  0.077634  1
  Al  Al9  1  0.337982  0.005267  0.926693  1
  Al  Al10  1  0.003017  0.333164  0.926692  1
  Al  Al11  1  0.664780  0.998222  0.074750  1
  Al  Al12  1  0.664780  0.998222  0.425250  1
  Al  Al13  1  0.337982  0.005267  0.573307  1
  Al  Al14  1  0.333565  0.333545  0.047410  1
  Al  Al15  1  0.664037  0.665624  0.956028  1
  Al  Al16  1  0.664037  0.665624  0.543972  1
  Al  Al17  1  0.333565  0.333545  0.452590  1
  Al  Al18  1  0.341074  0.546800  0.750000  1
  Al  Al19  1  0.658538  0.451148  0.250000  1
  Al  Al20  1  0.545950  0.340214  0.750000  1
  Al  Al21  1  0.451515  0.660104  0.250000  1
  Rh  Rh22  1  0.672618  0.330633  0.501314  1
  Rh  Rh23  1  0.327194  0.670895  0.501316  1
  Rh  Rh24  1  0.327194  0.670895  0.998684  1
  Rh  Rh25  1  0.672618  0.330633  0.998686  1
  Rh  Rh26  1  0.999650  0.997858  0.501658  1
  Rh  Rh27  1  0.999650  0.997858  0.998342  1
