# generated using pymatgen
data_Tb4Ir3RuF28
_symmetry_space_group_name_H-M   'P 1'
_cell_length_a   5.58389615
_cell_length_b   8.96352846
_cell_length_c   12.00483682
_cell_angle_alpha   62.50084665
_cell_angle_beta   90.10409934
_cell_angle_gamma   89.99937442
_symmetry_Int_Tables_number   1
_chemical_formula_structural   Tb4Ir3RuF28
_chemical_formula_sum   'Tb4 Ir3 Ru1 F28'
_cell_volume   532.97144793
_cell_formula_units_Z   1
loop_
 _symmetry_equiv_pos_site_id
 _symmetry_equiv_pos_as_xyz
  1  'x, y, z'
loop_
 _atom_site_type_symbol
 _atom_site_label
 _atom_site_symmetry_multiplicity
 _atom_site_fract_x
 _atom_site_fract_y
 _atom_site_fract_z
 _atom_site_occupancy
  Tb  Tb0  1  0.260310  0.813366  0.264246  1
  Tb  Tb1  1  0.740154  0.185504  0.735032  1
  Tb  Tb2  1  0.760882  0.188131  0.233544  1
  Tb  Tb3  1  0.240649  0.812737  0.766212  1
  Ir  Ir4  1  0.756230  0.726448  0.043483  1
  Ir  Ir5  1  0.243827  0.273508  0.956348  1
  Ir  Ir6  1  0.257486  0.273892  0.456011  1
  Ru  Ru7  1  0.742765  0.725954  0.544230  1
  F  F8  1  0.939738  0.706021  0.418638  1
  F  F9  1  0.058296  0.294842  0.582930  1
  F  F10  1  0.445338  0.293918  0.082949  1
  F  F11  1  0.555600  0.706633  0.915809  1
  F  F12  1  0.468414  0.730583  0.137102  1
  F  F13  1  0.531496  0.269051  0.862565  1
  F  F14  1  0.968413  0.271126  0.361404  1
  F  F15  1  0.029220  0.729981  0.635939  1
  F  F16  1  0.952376  0.745317  0.173395  1
  F  F17  1  0.045969  0.254478  0.827350  1
  F  F18  1  0.452783  0.253891  0.327074  1
  F  F19  1  0.549254  0.746325  0.671910  1
  F  F20  1  0.763981  0.482050  0.140413  1
  F  F21  1  0.235137  0.518979  0.858012  1
  F  F22  1  0.268579  0.519345  0.358776  1
  F  F23  1  0.731543  0.485170  0.640202  1
  F  F24  1  0.949499  0.282899  0.044880  1
  F  F25  1  0.050886  0.717751  0.954802  1
  F  F26  1  0.448876  0.719089  0.456915  1
  F  F27  1  0.553962  0.281403  0.545037  1
  F  F28  1  0.742605  0.966470  0.451148  1
  F  F29  1  0.256639  0.028517  0.550713  1
  F  F30  1  0.241010  0.028047  0.051210  1
  F  F31  1  0.758980  0.971033  0.949274  1
  F  F32  1  0.583666  0.970316  0.233021  1
  F  F33  1  0.416414  0.028959  0.768628  1
  F  F34  1  0.082224  0.027508  0.269642  1
  F  F35  1  0.916797  0.970762  0.731154  1
