# generated using pymatgen
data_Er9Tm3InCo4Ru
_symmetry_space_group_name_H-M   'P 1'
_cell_length_a   8.18907883
_cell_length_b   8.19000641
_cell_length_c   8.18908029
_cell_angle_alpha   111.26460976
_cell_angle_beta   110.98263844
_cell_angle_gamma   106.21047623
_symmetry_Int_Tables_number   1
_chemical_formula_structural   Er9Tm3InCo4Ru
_chemical_formula_sum   'Er9 Tm3 In1 Co4 Ru1'
_cell_volume   421.79928322
_cell_formula_units_Z   1
loop_
 _symmetry_equiv_pos_site_id
 _symmetry_equiv_pos_as_xyz
  1  'x, y, z'
loop_
 _atom_site_type_symbol
 _atom_site_label
 _atom_site_symmetry_multiplicity
 _atom_site_fract_x
 _atom_site_fract_y
 _atom_site_fract_z
 _atom_site_occupancy
  Er  Er0  1  0.414373  0.220491  0.193653  1
  Er  Er1  1  0.585816  0.779472  0.806585  1
  Er  Er2  1  0.026837  0.220491  0.806119  1
  Er  Er3  1  0.972886  0.779472  0.193654  1
  Er  Er4  1  0.183895  0.282186  0.466407  1
  Er  Er5  1  0.816282  0.717689  0.533841  1
  Er  Er6  1  0.183848  0.717689  0.901407  1
  Er  Er7  1  0.815779  0.282186  0.098291  1
  Er  Er8  1  0.314106  0.619996  0.305891  1
  Tm  Tm9  1  0.685731  0.379495  0.693763  1
  Tm  Tm10  1  0.314342  0.008293  0.693951  1
  Tm  Tm11  1  0.685875  0.992091  0.306216  1
  In  In12  1  0.500091  0.499829  0.999738  1
  Co  Co13  1  0.375783  0.000372  0.375772  1
  Co  Co14  1  0.624600  0.000372  0.624589  1
  Co  Co15  1  0.111792  0.611868  0.500077  1
  Co  Co16  1  0.887955  0.387951  0.499996  1
  Ru  Ru17  1  0.000010  0.000058  0.000048  1
