# generated using pymatgen
data_Pr15Nd5(Ir2Ru)4
_symmetry_space_group_name_H-M   'P 1'
_cell_length_a   11.27655905
_cell_length_b   11.27662603
_cell_length_c   6.65395904
_cell_angle_alpha   90.00758784
_cell_angle_beta   89.98987106
_cell_angle_gamma   90.00249000
_symmetry_Int_Tables_number   1
_chemical_formula_structural   Pr15Nd5(Ir2Ru)4
_chemical_formula_sum   'Pr15 Nd5 Ir8 Ru4'
_cell_volume   846.12765224
_cell_formula_units_Z   1
loop_
 _symmetry_equiv_pos_site_id
 _symmetry_equiv_pos_as_xyz
  1  'x, y, z'
loop_
 _atom_site_type_symbol
 _atom_site_label
 _atom_site_symmetry_multiplicity
 _atom_site_fract_x
 _atom_site_fract_y
 _atom_site_fract_z
 _atom_site_occupancy
  Pr  Pr0  1  0.292870  0.911998  0.882535  1
  Pr  Pr1  1  0.707111  0.088294  0.882577  1
  Pr  Pr2  1  0.706974  0.911794  0.382545  1
  Pr  Pr3  1  0.588191  0.792959  0.882550  1
  Pr  Pr4  1  0.587788  0.206935  0.382532  1
  Pr  Pr5  1  0.411549  0.793243  0.382574  1
  Pr  Pr6  1  0.411513  0.206909  0.882622  1
  Pr  Pr7  1  0.207117  0.411524  0.617346  1
  Pr  Pr8  1  0.207101  0.588344  0.117467  1
  Pr  Pr9  1  0.792900  0.411645  0.117480  1
  Pr  Pr10  1  0.792962  0.588348  0.617463  1
  Pr  Pr11  1  0.911647  0.707063  0.117504  1
  Pr  Pr12  1  0.911686  0.292901  0.617394  1
  Pr  Pr13  1  0.088350  0.707108  0.617353  1
  Pr  Pr14  1  0.088561  0.292688  0.117753  1
  Nd  Nd15  1  0.293502  0.088183  0.383288  1
  Nd  Nd16  1  0.000420  0.000175  0.499710  1
  Nd  Nd17  1  0.000110  0.999991  0.999805  1
  Nd  Nd18  1  0.499969  0.499972  0.999962  1
  Nd  Nd19  1  0.499916  0.499995  0.499816  1
  Ir  Ir20  1  0.848544  0.151446  0.249933  1
  Ir  Ir21  1  0.848419  0.848471  0.750022  1
  Ir  Ir22  1  0.151998  0.151395  0.748737  1
  Ir  Ir23  1  0.151754  0.849019  0.250353  1
  Ir  Ir24  1  0.651557  0.348492  0.749945  1
  Ir  Ir25  1  0.651562  0.651480  0.249989  1
  Ir  Ir26  1  0.348329  0.347721  0.250429  1
  Ir  Ir27  1  0.348467  0.651503  0.749987  1
  Ru  Ru28  1  0.499665  0.000171  0.117727  1
  Ru  Ru29  1  0.499415  0.000239  0.616648  1
  Ru  Ru30  1  0.000040  0.500015  0.882995  1
  Ru  Ru31  1  0.000013  0.499979  0.382962  1
