# generated using pymatgen
data_TbErMg(P3Pd10)2
_symmetry_space_group_name_H-M   'P 1'
_cell_length_a   8.65140018
_cell_length_b   8.65130440
_cell_length_c   8.65134200
_cell_angle_alpha   60.00050454
_cell_angle_beta   59.99989632
_cell_angle_gamma   60.00043270
_symmetry_Int_Tables_number   1
_chemical_formula_structural   TbErMg(P3Pd10)2
_chemical_formula_sum   'Tb1 Er1 Mg1 P6 Pd20'
_cell_volume   457.86686251
_cell_formula_units_Z   1
loop_
 _symmetry_equiv_pos_site_id
 _symmetry_equiv_pos_as_xyz
  1  'x, y, z'
loop_
 _atom_site_type_symbol
 _atom_site_label
 _atom_site_symmetry_multiplicity
 _atom_site_fract_x
 _atom_site_fract_y
 _atom_site_fract_z
 _atom_site_occupancy
  Tb  Tb0  1  0.749997  0.749998  0.750002  1
  Er  Er1  1  0.249981  0.249988  0.250018  1
  Mg  Mg2  1  0.000003  0.000002  0.999997  1
  P  P3  1  0.737248  0.262754  0.262751  1
  P  P4  1  0.262756  0.737251  0.737242  1
  P  P5  1  0.262756  0.737248  0.262750  1
  P  P6  1  0.737249  0.262754  0.737247  1
  P  P7  1  0.262760  0.262755  0.737241  1
  P  P8  1  0.737239  0.737242  0.262761  1
  Pd  Pd9  1  0.384490  0.384489  0.384479  1
  Pd  Pd10  1  0.615075  0.615070  0.615083  1
  Pd  Pd11  1  0.384495  0.384486  0.846545  1
  Pd  Pd12  1  0.384475  0.846553  0.384487  1
  Pd  Pd13  1  0.615066  0.615078  0.154772  1
  Pd  Pd14  1  0.615086  0.154770  0.615074  1
  Pd  Pd15  1  0.846553  0.384472  0.384489  1
  Pd  Pd16  1  0.154767  0.615089  0.615065  1
  Pd  Pd17  1  0.343908  0.000126  0.000157  1
  Pd  Pd18  1  0.655805  0.000160  0.000128  1
  Pd  Pd19  1  0.000125  0.343904  0.655814  1
  Pd  Pd20  1  0.000161  0.655810  0.343901  1
  Pd  Pd21  1  0.000120  0.343904  0.000161  1
  Pd  Pd22  1  0.655807  0.000164  0.343908  1
  Pd  Pd23  1  0.000165  0.655809  0.000124  1
  Pd  Pd24  1  0.343910  0.000120  0.655810  1
  Pd  Pd25  1  0.000139  0.000145  0.343952  1
  Pd  Pd26  1  0.000147  0.000141  0.655762  1
  Pd  Pd27  1  0.655771  0.343948  0.000143  1
  Pd  Pd28  1  0.343947  0.655769  0.000140  1
