# generated using pymatgen
data_Y6Tm4(TlSb)3
_symmetry_space_group_name_H-M   'P 1'
_cell_length_a   8.95773100
_cell_length_b   8.96784880
_cell_length_c   6.59122100
_cell_angle_alpha   90.00000000
_cell_angle_beta   90.00000000
_cell_angle_gamma   119.96270388
_symmetry_Int_Tables_number   1
_chemical_formula_structural   Y6Tm4(TlSb)3
_chemical_formula_sum   'Y6 Tm4 Tl3 Sb3'
_cell_volume   458.71811738
_cell_formula_units_Z   1
loop_
 _symmetry_equiv_pos_site_id
 _symmetry_equiv_pos_as_xyz
  1  'x, y, z'
loop_
 _atom_site_type_symbol
 _atom_site_label
 _atom_site_symmetry_multiplicity
 _atom_site_fract_x
 _atom_site_fract_y
 _atom_site_fract_z
 _atom_site_occupancy
  Y  Y0  1  0.238796  0.000000  0.250000  1
  Y  Y1  1  0.240594  0.238795  0.750000  1
  Y  Y2  1  0.001800  0.761205  0.750000  1
  Y  Y3  1  0.003777  0.242907  0.250000  1
  Y  Y4  1  0.760868  0.757093  0.250000  1
  Y  Y5  1  0.759870  0.000000  0.750000  1
  Tm  Tm6  1  0.330960  0.665952  0.000241  1
  Tm  Tm7  1  0.665008  0.334048  0.499759  1
  Tm  Tm8  1  0.665008  0.334048  0.000241  1
  Tm  Tm9  1  0.330960  0.665952  0.499759  1
  Tl  Tl10  1  0.998139  0.602197  0.250000  1
  Tl  Tl11  1  0.395942  0.397803  0.250000  1
  Tl  Tl12  1  0.397793  0.000000  0.750000  1
  Sb  Sb13  1  0.607828  0.000000  0.250000  1
  Sb  Sb14  1  0.604546  0.606432  0.750000  1
  Sb  Sb15  1  0.998114  0.393568  0.750000  1
