# generated using pymatgen
data_Pr4Mg7Pb6
_symmetry_space_group_name_H-M   'P 1'
_cell_length_a   4.90076704
_cell_length_b   9.10855716
_cell_length_c   11.57361441
_cell_angle_alpha   95.48724188
_cell_angle_beta   102.22325226
_cell_angle_gamma   105.60595820
_symmetry_Int_Tables_number   1
_chemical_formula_structural   Pr4Mg7Pb6
_chemical_formula_sum   'Pr4 Mg7 Pb6'
_cell_volume   479.87596508
_cell_formula_units_Z   1
loop_
 _symmetry_equiv_pos_site_id
 _symmetry_equiv_pos_as_xyz
  1  'x, y, z'
loop_
 _atom_site_type_symbol
 _atom_site_label
 _atom_site_symmetry_multiplicity
 _atom_site_fract_x
 _atom_site_fract_y
 _atom_site_fract_z
 _atom_site_occupancy
  Pr  Pr0  1  0.788553  0.410049  0.167058  1
  Pr  Pr1  1  0.115295  0.847857  0.382733  1
  Pr  Pr2  1  0.884705  0.152142  0.617268  1
  Pr  Pr3  1  0.211446  0.589951  0.832942  1
  Mg  Mg4  1  0.099004  0.056824  0.141184  1
  Mg  Mg5  1  0.465429  0.778621  0.152237  1
  Mg  Mg6  1  0.332386  0.264902  0.399869  1
  Mg  Mg7  1  0.000000  0.500000  0.500000  1
  Mg  Mg8  1  0.667614  0.735097  0.600131  1
  Mg  Mg9  1  0.534571  0.221379  0.847764  1
  Mg  Mg10  1  0.900996  0.943176  0.858815  1
  Pb  Pb11  1  0.868508  0.715102  0.021912  1
  Pb  Pb12  1  0.702786  0.094722  0.310849  1
  Pb  Pb13  1  0.465778  0.586486  0.345070  1
  Pb  Pb14  1  0.534221  0.413513  0.654931  1
  Pb  Pb15  1  0.297214  0.905278  0.689151  1
  Pb  Pb16  1  0.131492  0.284897  0.978088  1
