# generated using pymatgen
data_Ba2PrB18
_symmetry_space_group_name_H-M   'P 1'
_cell_length_a   4.22656600
_cell_length_b   4.22656600
_cell_length_c   12.72455000
_cell_angle_alpha   90.00000000
_cell_angle_beta   90.00000000
_cell_angle_gamma   90.00000000
_symmetry_Int_Tables_number   1
_chemical_formula_structural   Ba2PrB18
_chemical_formula_sum   'Ba2 Pr1 B18'
_cell_volume   227.30958170
_cell_formula_units_Z   1
loop_
 _symmetry_equiv_pos_site_id
 _symmetry_equiv_pos_as_xyz
  1  'x, y, z'
loop_
 _atom_site_type_symbol
 _atom_site_label
 _atom_site_symmetry_multiplicity
 _atom_site_fract_x
 _atom_site_fract_y
 _atom_site_fract_z
 _atom_site_occupancy
  Ba  Ba0  1  0.000000  0.000000  0.333754  1
  Ba  Ba1  1  0.000000  0.000000  0.666246  1
  Pr  Pr2  1  0.000000  0.000000  0.000000  1
  B  B3  1  0.202541  0.500000  0.163028  1
  B  B4  1  0.203897  0.500000  0.500000  1
  B  B5  1  0.202541  0.500000  0.836972  1
  B  B6  1  0.500000  0.500000  0.262546  1
  B  B7  1  0.500000  0.500000  0.598817  1
  B  B8  1  0.500000  0.500000  0.934088  1
  B  B9  1  0.500000  0.202541  0.163028  1
  B  B10  1  0.500000  0.203897  0.500000  1
  B  B11  1  0.500000  0.202541  0.836972  1
  B  B12  1  0.500000  0.500000  0.065912  1
  B  B13  1  0.500000  0.500000  0.401183  1
  B  B14  1  0.500000  0.500000  0.737454  1
  B  B15  1  0.500000  0.797459  0.163028  1
  B  B16  1  0.500000  0.796103  0.500000  1
  B  B17  1  0.500000  0.797459  0.836972  1
  B  B18  1  0.797459  0.500000  0.163028  1
  B  B19  1  0.796103  0.500000  0.500000  1
  B  B20  1  0.797459  0.500000  0.836972  1
