# generated using pymatgen
data_Sm8YLu11Pb16
_symmetry_space_group_name_H-M   'P 1'
_cell_length_a   8.17316964
_cell_length_b   8.26918492
_cell_length_c   15.55700800
_cell_angle_alpha   89.98314908
_cell_angle_beta   89.97728686
_cell_angle_gamma   89.90012805
_symmetry_Int_Tables_number   1
_chemical_formula_structural   Sm8YLu11Pb16
_chemical_formula_sum   'Sm8 Y1 Lu11 Pb16'
_cell_volume   1051.42567889
_cell_formula_units_Z   1
loop_
 _symmetry_equiv_pos_site_id
 _symmetry_equiv_pos_as_xyz
  1  'x, y, z'
loop_
 _atom_site_type_symbol
 _atom_site_label
 _atom_site_symmetry_multiplicity
 _atom_site_fract_x
 _atom_site_fract_y
 _atom_site_fract_z
 _atom_site_occupancy
  Sm  Sm0  1  0.470840  0.677319  0.597716  1
  Sm  Sm1  1  0.971150  0.821599  0.902682  1
  Sm  Sm2  1  0.529429  0.322218  0.097604  1
  Sm  Sm3  1  0.028478  0.177626  0.402603  1
  Sm  Sm4  1  0.529748  0.323001  0.401611  1
  Sm  Sm5  1  0.029579  0.177904  0.097212  1
  Sm  Sm6  1  0.470579  0.677680  0.902755  1
  Sm  Sm7  1  0.970614  0.821760  0.597351  1
  Y  Y8  1  0.630999  0.158675  0.622432  1
  Lu  Lu9  1  0.131725  0.342916  0.877623  1
  Lu  Lu10  1  0.368108  0.842349  0.123134  1
  Lu  Lu11  1  0.868306  0.657299  0.376196  1
  Lu  Lu12  1  0.367879  0.842829  0.377039  1
  Lu  Lu13  1  0.867635  0.657146  0.122969  1
  Lu  Lu14  1  0.632250  0.157073  0.877064  1
  Lu  Lu15  1  0.132678  0.342145  0.623094  1
  Lu  Lu16  1  0.799831  0.494231  0.750426  1
  Lu  Lu17  1  0.298966  0.006246  0.750460  1
  Lu  Lu18  1  0.200723  0.506335  0.250102  1
  Lu  Lu19  1  0.700609  0.993395  0.249703  1
  Pb  Pb20  1  0.708349  0.958767  0.455316  1
  Pb  Pb21  1  0.208573  0.539899  0.043645  1
  Pb  Pb22  1  0.292129  0.039669  0.956694  1
  Pb  Pb23  1  0.793286  0.462697  0.542737  1
  Pb  Pb24  1  0.288872  0.038644  0.543117  1
  Pb  Pb25  1  0.791388  0.459767  0.956819  1
  Pb  Pb26  1  0.708478  0.960381  0.043446  1
  Pb  Pb27  1  0.208477  0.539859  0.456690  1
  Pb  Pb28  1  0.436533  0.373165  0.751252  1
  Pb  Pb29  1  0.938436  0.128507  0.750538  1
  Pb  Pb30  1  0.562321  0.627840  0.250110  1
  Pb  Pb31  1  0.062536  0.872187  0.249699  1
  Pb  Pb32  1  0.660544  0.845698  0.750372  1
  Pb  Pb33  1  0.160591  0.653461  0.749918  1
  Pb  Pb34  1  0.339366  0.153634  0.250049  1
  Pb  Pb35  1  0.839994  0.346078  0.249823  1
