# generated using pymatgen
data_Lu2Mn7Si4Os
_symmetry_space_group_name_H-M   'P 1'
_cell_length_a   6.66993201
_cell_length_b   7.38973001
_cell_length_c   3.90902300
_cell_angle_alpha   90.00000000
_cell_angle_beta   90.00000000
_cell_angle_gamma   90.00455339
_symmetry_Int_Tables_number   1
_chemical_formula_structural   Lu2Mn7Si4Os
_chemical_formula_sum   'Lu2 Mn7 Si4 Os1'
_cell_volume   192.67182105
_cell_formula_units_Z   1
loop_
 _symmetry_equiv_pos_site_id
 _symmetry_equiv_pos_as_xyz
  1  'x, y, z'
loop_
 _atom_site_type_symbol
 _atom_site_label
 _atom_site_symmetry_multiplicity
 _atom_site_fract_x
 _atom_site_fract_y
 _atom_site_fract_z
 _atom_site_occupancy
  Lu  Lu0  1  0.501640  0.500708  0.000000  1
  Lu  Lu1  1  0.002463  0.999364  0.500000  1
  Mn  Mn2  1  0.152209  0.613178  0.500000  1
  Mn  Mn3  1  0.639287  0.888722  0.000000  1
  Mn  Mn4  1  0.354919  0.110596  0.000000  1
  Mn  Mn5  1  0.564728  0.150318  0.500000  1
  Mn  Mn6  1  0.430454  0.847711  0.500000  1
  Mn  Mn7  1  0.931975  0.650824  0.000000  1
  Mn  Mn8  1  0.074535  0.345233  0.000000  1
  Si  Si9  1  0.266060  0.308218  0.500000  1
  Si  Si10  1  0.737179  0.699750  0.500000  1
  Si  Si11  1  0.235677  0.808037  0.000000  1
  Si  Si12  1  0.761023  0.186451  0.000000  1
  Os  Os13  1  0.847849  0.390889  0.500000  1
