# generated using pymatgen
data_BaLaTl(H6Ir)2
_symmetry_space_group_name_H-M   'P 1'
_cell_length_a   5.28287100
_cell_length_b   5.28287069
_cell_length_c   8.72618100
_cell_angle_alpha   90.00000000
_cell_angle_beta   90.00000000
_cell_angle_gamma   119.99998315
_symmetry_Int_Tables_number   1
_chemical_formula_structural   BaLaTl(H6Ir)2
_chemical_formula_sum   'Ba1 La1 Tl1 H12 Ir2'
_cell_volume   210.90890112
_cell_formula_units_Z   1
loop_
 _symmetry_equiv_pos_site_id
 _symmetry_equiv_pos_as_xyz
  1  'x, y, z'
loop_
 _atom_site_type_symbol
 _atom_site_label
 _atom_site_symmetry_multiplicity
 _atom_site_fract_x
 _atom_site_fract_y
 _atom_site_fract_z
 _atom_site_occupancy
  Ba  Ba0  1  0.000000  0.000000  0.034421  1
  La  La1  1  0.333333  0.666667  0.616764  1
  Tl  Tl2  1  0.666667  0.333333  0.361752  1
  H  H3  1  0.181286  0.818714  0.363140  1
  H  H4  1  0.637428  0.818714  0.363140  1
  H  H5  1  0.181286  0.362572  0.363140  1
  H  H6  1  0.827639  0.172361  0.647619  1
  H  H7  1  0.344722  0.172361  0.647619  1
  H  H8  1  0.827639  0.655278  0.647619  1
  H  H9  1  0.515970  0.031940  0.855591  1
  H  H10  1  0.515970  0.484030  0.855591  1
  H  H11  1  0.968060  0.484030  0.855591  1
  H  H12  1  0.475194  0.950388  0.130332  1
  H  H13  1  0.475194  0.524806  0.130332  1
  H  H14  1  0.049612  0.524806  0.130332  1
  Ir  Ir15  1  0.666667  0.333333  0.745265  1
  Ir  Ir16  1  0.333333  0.666667  0.251749  1
