# generated using pymatgen
data_Tb2Mn3Fe6P6Ir
_symmetry_space_group_name_H-M   'P 1'
_cell_length_a   3.70608200
_cell_length_b   10.32554600
_cell_length_c   12.21601500
_cell_angle_alpha   90.00000000
_cell_angle_beta   90.00000000
_cell_angle_gamma   90.00000000
_symmetry_Int_Tables_number   1
_chemical_formula_structural   Tb2Mn3Fe6P6Ir
_chemical_formula_sum   'Tb4 Mn6 Fe12 P12 Ir2'
_cell_volume   467.47415722
_cell_formula_units_Z   2
loop_
 _symmetry_equiv_pos_site_id
 _symmetry_equiv_pos_as_xyz
  1  'x, y, z'
loop_
 _atom_site_type_symbol
 _atom_site_label
 _atom_site_symmetry_multiplicity
 _atom_site_fract_x
 _atom_site_fract_y
 _atom_site_fract_z
 _atom_site_occupancy
  Tb  Tb0  1  0.250000  0.580063  0.712261  1
  Tb  Tb1  1  0.250000  0.919937  0.212261  1
  Tb  Tb2  1  0.750000  0.419911  0.289082  1
  Tb  Tb3  1  0.750000  0.080089  0.789082  1
  Mn  Mn4  1  0.250000  0.699706  0.988631  1
  Mn  Mn5  1  0.250000  0.800294  0.488631  1
  Mn  Mn6  1  0.750000  0.293320  0.006431  1
  Mn  Mn7  1  0.750000  0.206680  0.506431  1
  Mn  Mn8  1  0.250000  0.399366  0.490571  1
  Mn  Mn9  1  0.250000  0.100634  0.990571  1
  Fe  Fe10  1  0.250000  0.220072  0.170620  1
  Fe  Fe11  1  0.250000  0.279928  0.670620  1
  Fe  Fe12  1  0.750000  0.775794  0.827506  1
  Fe  Fe13  1  0.750000  0.724206  0.327506  1
  Fe  Fe14  1  0.250000  0.877105  0.694703  1
  Fe  Fe15  1  0.250000  0.622895  0.194703  1
  Fe  Fe16  1  0.750000  0.124093  0.304681  1
  Fe  Fe17  1  0.750000  0.375907  0.804681  1
  Fe  Fe18  1  0.250000  0.461358  0.936469  1
  Fe  Fe19  1  0.250000  0.038642  0.436469  1
  Fe  Fe20  1  0.750000  0.536896  0.064327  1
  Fe  Fe21  1  0.750000  0.963104  0.564327  1
  P  P22  1  0.250000  0.424081  0.112577  1
  P  P23  1  0.250000  0.075919  0.612577  1
  P  P24  1  0.750000  0.572578  0.887735  1
  P  P25  1  0.750000  0.927422  0.387735  1
  P  P26  1  0.250000  0.271222  0.858318  1
  P  P27  1  0.250000  0.228778  0.358318  1
  P  P28  1  0.750000  0.726780  0.142508  1
  P  P29  1  0.750000  0.773220  0.642508  1
  P  P30  1  0.250000  0.607975  0.377813  1
  P  P31  1  0.250000  0.892025  0.877813  1
  P  P32  1  0.750000  0.391499  0.622172  1
  P  P33  1  0.750000  0.108501  0.122172  1
  Ir  Ir34  1  0.750000  0.589864  0.513598  1
  Ir  Ir35  1  0.750000  0.910136  0.013598  1
