# generated using pymatgen
data_TbDy3Tc2Pt2F28
_symmetry_space_group_name_H-M   'P 1'
_cell_length_a   5.57335209
_cell_length_b   8.92318052
_cell_length_c   12.02837362
_cell_angle_alpha   62.39711230
_cell_angle_beta   90.08406295
_cell_angle_gamma   90.08430929
_symmetry_Int_Tables_number   1
_chemical_formula_structural   TbDy3Tc2Pt2F28
_chemical_formula_sum   'Tb1 Dy3 Tc2 Pt2 F28'
_cell_volume   530.10815352
_cell_formula_units_Z   1
loop_
 _symmetry_equiv_pos_site_id
 _symmetry_equiv_pos_as_xyz
  1  'x, y, z'
loop_
 _atom_site_type_symbol
 _atom_site_label
 _atom_site_symmetry_multiplicity
 _atom_site_fract_x
 _atom_site_fract_y
 _atom_site_fract_z
 _atom_site_occupancy
  Tb  Tb0  1  0.239746  0.815012  0.763083  1
  Dy  Dy1  1  0.259222  0.813847  0.265347  1
  Dy  Dy2  1  0.740790  0.186966  0.734608  1
  Dy  Dy3  1  0.760380  0.184971  0.236991  1
  Tc  Tc4  1  0.757440  0.726457  0.043199  1
  Tc  Tc5  1  0.242444  0.273005  0.957412  1
  Pt  Pt6  1  0.258948  0.273264  0.456818  1
  Pt  Pt7  1  0.741216  0.726936  0.542588  1
  F  F8  1  0.935910  0.704117  0.414974  1
  F  F9  1  0.064452  0.295927  0.584582  1
  F  F10  1  0.447003  0.291470  0.082927  1
  F  F11  1  0.553748  0.708106  0.917375  1
  F  F12  1  0.474705  0.730326  0.138915  1
  F  F13  1  0.524862  0.269746  0.861327  1
  F  F14  1  0.967136  0.273448  0.364331  1
  F  F15  1  0.032762  0.726227  0.635166  1
  F  F16  1  0.956891  0.745722  0.171496  1
  F  F17  1  0.043262  0.254252  0.828768  1
  F  F18  1  0.449407  0.256931  0.324637  1
  F  F19  1  0.551833  0.742738  0.675112  1
  F  F20  1  0.771561  0.478885  0.140848  1
  F  F21  1  0.228277  0.520220  0.859493  1
  F  F22  1  0.269743  0.521468  0.358271  1
  F  F23  1  0.730268  0.478796  0.641562  1
  F  F24  1  0.948649  0.278021  0.047365  1
  F  F25  1  0.051117  0.721431  0.953465  1
  F  F26  1  0.441999  0.719382  0.457309  1
  F  F27  1  0.557662  0.280785  0.542429  1
  F  F28  1  0.741614  0.975205  0.449589  1
  F  F29  1  0.258420  0.025061  0.549854  1
  F  F30  1  0.241444  0.026160  0.054403  1
  F  F31  1  0.758634  0.973217  0.945932  1
  F  F32  1  0.584278  0.969538  0.232992  1
  F  F33  1  0.416063  0.031800  0.767075  1
  F  F34  1  0.083912  0.028984  0.269711  1
  F  F35  1  0.914200  0.971578  0.730044  1
