# generated using pymatgen
data_Ho5Tm3(LuSb)12
_symmetry_space_group_name_H-M   'P 1'
_cell_length_a   8.05780616
_cell_length_b   9.11684400
_cell_length_c   11.70494524
_cell_angle_alpha   90.00000000
_cell_angle_beta   90.02297219
_cell_angle_gamma   90.00000000
_symmetry_Int_Tables_number   1
_chemical_formula_structural   Ho5Tm3(LuSb)12
_chemical_formula_sum   'Ho5 Tm3 Lu12 Sb12'
_cell_volume   859.86582917
_cell_formula_units_Z   1
loop_
 _symmetry_equiv_pos_site_id
 _symmetry_equiv_pos_as_xyz
  1  'x, y, z'
loop_
 _atom_site_type_symbol
 _atom_site_label
 _atom_site_symmetry_multiplicity
 _atom_site_fract_x
 _atom_site_fract_y
 _atom_site_fract_z
 _atom_site_occupancy
  Ho  Ho0  1  0.175749  0.750000  0.228862  1
  Ho  Ho1  1  0.675934  0.250000  0.271137  1
  Ho  Ho2  1  0.824163  0.250000  0.771143  1
  Ho  Ho3  1  0.324049  0.750000  0.728925  1
  Ho  Ho4  1  0.658138  0.750000  0.290963  1
  Tm  Tm5  1  0.158479  0.250000  0.209069  1
  Tm  Tm6  1  0.341527  0.250000  0.709036  1
  Tm  Tm7  1  0.841529  0.750000  0.790913  1
  Lu  Lu8  1  0.809065  0.939052  0.065878  1
  Lu  Lu9  1  0.308989  0.061028  0.433865  1
  Lu  Lu10  1  0.191086  0.438937  0.933880  1
  Lu  Lu11  1  0.690999  0.561056  0.566252  1
  Lu  Lu12  1  0.191086  0.061063  0.933880  1
  Lu  Lu13  1  0.690999  0.938944  0.566252  1
  Lu  Lu14  1  0.809065  0.560948  0.065878  1
  Lu  Lu15  1  0.308989  0.438972  0.433865  1
  Lu  Lu16  1  0.524764  0.250000  0.995065  1
  Lu  Lu17  1  0.024865  0.750000  0.504986  1
  Lu  Lu18  1  0.475072  0.750000  0.004658  1
  Lu  Lu19  1  0.975255  0.250000  0.495130  1
  Sb  Sb20  1  0.936844  0.991299  0.326389  1
  Sb  Sb21  1  0.436128  0.009293  0.173412  1
  Sb  Sb22  1  0.063697  0.490916  0.673681  1
  Sb  Sb23  1  0.563717  0.509008  0.826372  1
  Sb  Sb24  1  0.063697  0.009084  0.673681  1
  Sb  Sb25  1  0.563717  0.990992  0.826372  1
  Sb  Sb26  1  0.936844  0.508701  0.326389  1
  Sb  Sb27  1  0.436128  0.490707  0.173412  1
  Sb  Sb28  1  0.903178  0.250000  0.025117  1
  Sb  Sb29  1  0.402547  0.750000  0.475550  1
  Sb  Sb30  1  0.096860  0.750000  0.974860  1
  Sb  Sb31  1  0.596841  0.250000  0.525128  1
