# generated using pymatgen
data_Ca2Cu2SiPd12
_symmetry_space_group_name_H-M   'P 1'
_cell_length_a   8.79880900
_cell_length_b   8.79880900
_cell_length_c   7.09836900
_cell_angle_alpha   90.00000000
_cell_angle_beta   90.00000000
_cell_angle_gamma   90.00000000
_symmetry_Int_Tables_number   1
_chemical_formula_structural   Ca2Cu2SiPd12
_chemical_formula_sum   'Ca4 Cu4 Si2 Pd24'
_cell_volume   549.54891226
_cell_formula_units_Z   2
loop_
 _symmetry_equiv_pos_site_id
 _symmetry_equiv_pos_as_xyz
  1  'x, y, z'
loop_
 _atom_site_type_symbol
 _atom_site_label
 _atom_site_symmetry_multiplicity
 _atom_site_fract_x
 _atom_site_fract_y
 _atom_site_fract_z
 _atom_site_occupancy
  Ca  Ca0  1  0.500000  0.000000  0.938267  1
  Ca  Ca1  1  0.000000  0.500000  0.061733  1
  Ca  Ca2  1  0.000000  0.000000  0.500000  1
  Ca  Ca3  1  0.500000  0.500000  0.500000  1
  Cu  Cu4  1  0.250000  0.750000  0.000000  1
  Cu  Cu5  1  0.250000  0.250000  0.000000  1
  Cu  Cu6  1  0.750000  0.750000  0.000000  1
  Cu  Cu7  1  0.750000  0.250000  0.000000  1
  Si  Si8  1  0.500000  0.000000  0.443934  1
  Si  Si9  1  0.000000  0.500000  0.556066  1
  Pd  Pd10  1  0.333105  0.833105  0.619732  1
  Pd  Pd11  1  0.333105  0.166895  0.619732  1
  Pd  Pd12  1  0.666895  0.833105  0.619732  1
  Pd  Pd13  1  0.666895  0.166895  0.619732  1
  Pd  Pd14  1  0.166895  0.666895  0.380268  1
  Pd  Pd15  1  0.166895  0.333105  0.380268  1
  Pd  Pd16  1  0.833105  0.666895  0.380268  1
  Pd  Pd17  1  0.833105  0.333105  0.380268  1
  Pd  Pd18  1  0.500000  0.767658  0.252891  1
  Pd  Pd19  1  0.500000  0.232342  0.252891  1
  Pd  Pd20  1  0.267658  0.000000  0.252891  1
  Pd  Pd21  1  0.732342  0.000000  0.252891  1
  Pd  Pd22  1  0.000000  0.732342  0.747109  1
  Pd  Pd23  1  0.000000  0.267658  0.747109  1
  Pd  Pd24  1  0.232342  0.500000  0.747109  1
  Pd  Pd25  1  0.767658  0.500000  0.747109  1
  Pd  Pd26  1  0.500000  0.342892  0.865171  1
  Pd  Pd27  1  0.500000  0.657108  0.865171  1
  Pd  Pd28  1  0.842892  0.000000  0.865171  1
  Pd  Pd29  1  0.157108  0.000000  0.865171  1
  Pd  Pd30  1  0.000000  0.157108  0.134829  1
  Pd  Pd31  1  0.000000  0.842892  0.134829  1
  Pd  Pd32  1  0.657108  0.500000  0.134829  1
  Pd  Pd33  1  0.342892  0.500000  0.134829  1
