# generated using pymatgen
data_CaSb2Br2O3
_symmetry_space_group_name_H-M   'P 1'
_cell_length_a   5.83683625
_cell_length_b   8.28358813
_cell_length_c   8.39587882
_cell_angle_alpha   87.94830532
_cell_angle_beta   83.64622457
_cell_angle_gamma   80.65593828
_symmetry_Int_Tables_number   1
_chemical_formula_structural   CaSb2Br2O3
_chemical_formula_sum   'Ca2 Sb4 Br4 O6'
_cell_volume   398.02772050
_cell_formula_units_Z   2
loop_
 _symmetry_equiv_pos_site_id
 _symmetry_equiv_pos_as_xyz
  1  'x, y, z'
loop_
 _atom_site_type_symbol
 _atom_site_label
 _atom_site_symmetry_multiplicity
 _atom_site_fract_x
 _atom_site_fract_y
 _atom_site_fract_z
 _atom_site_occupancy
  Ca  Ca0  1  0.503588  0.489126  0.277225  1
  Ca  Ca1  1  0.496411  0.510873  0.722774  1
  Sb  Sb2  1  0.069080  0.308338  0.034281  1
  Sb  Sb3  1  0.044211  0.302973  0.467419  1
  Sb  Sb4  1  0.955790  0.697028  0.532585  1
  Sb  Sb5  1  0.930922  0.691662  0.965722  1
  Br  Br6  1  0.330354  0.814149  0.202004  1
  Br  Br7  1  0.749203  0.145362  0.295636  1
  Br  Br8  1  0.250797  0.854636  0.704364  1
  Br  Br9  1  0.669649  0.185857  0.797985  1
  O  O10  1  0.790997  0.492649  0.067927  1
  O  O11  1  0.186710  0.356544  0.243675  1
  O  O12  1  0.776262  0.495170  0.474014  1
  O  O13  1  0.223736  0.504829  0.525988  1
  O  O14  1  0.813289  0.643454  0.756328  1
  O  O15  1  0.209000  0.507348  0.932075  1
