# generated using pymatgen
data_Sc5Be4ZnRh10
_symmetry_space_group_name_H-M   'P 1'
_cell_length_a   9.46219100
_cell_length_b   9.46219100
_cell_length_c   3.18960700
_cell_angle_alpha   90.00000000
_cell_angle_beta   90.00000000
_cell_angle_gamma   90.00000000
_symmetry_Int_Tables_number   1
_chemical_formula_structural   Sc5Be4ZnRh10
_chemical_formula_sum   'Sc5 Be4 Zn1 Rh10'
_cell_volume   285.57527019
_cell_formula_units_Z   1
loop_
 _symmetry_equiv_pos_site_id
 _symmetry_equiv_pos_as_xyz
  1  'x, y, z'
loop_
 _atom_site_type_symbol
 _atom_site_label
 _atom_site_symmetry_multiplicity
 _atom_site_fract_x
 _atom_site_fract_y
 _atom_site_fract_z
 _atom_site_occupancy
  Sc  Sc0  1  0.826526  0.323040  0.000000  1
  Sc  Sc1  1  0.323040  0.173474  0.000000  1
  Sc  Sc2  1  0.676960  0.826526  0.000000  1
  Sc  Sc3  1  0.173474  0.676960  0.000000  1
  Sc  Sc4  1  0.500000  0.500000  0.000000  1
  Be  Be5  1  0.625612  0.121585  0.000000  1
  Be  Be6  1  0.121585  0.374388  0.000000  1
  Be  Be7  1  0.878415  0.625612  0.000000  1
  Be  Be8  1  0.374388  0.878415  0.000000  1
  Zn  Zn9  1  0.000000  0.000000  0.000000  1
  Rh  Rh10  1  0.068687  0.210504  0.500000  1
  Rh  Rh11  1  0.210504  0.931313  0.500000  1
  Rh  Rh12  1  0.789496  0.068687  0.500000  1
  Rh  Rh13  1  0.931313  0.789496  0.500000  1
  Rh  Rh14  1  0.428211  0.715818  0.500000  1
  Rh  Rh15  1  0.571789  0.284182  0.500000  1
  Rh  Rh16  1  0.715818  0.571789  0.500000  1
  Rh  Rh17  1  0.284182  0.428211  0.500000  1
  Rh  Rh18  1  0.500000  0.000000  0.500000  1
  Rh  Rh19  1  0.000000  0.500000  0.500000  1
