# generated using pymatgen
data_ScUTcB6
_symmetry_space_group_name_H-M   'P 1'
_cell_length_a   3.60610400
_cell_length_b   8.95709200
_cell_length_c   11.30152600
_cell_angle_alpha   90.00000000
_cell_angle_beta   90.00000000
_cell_angle_gamma   90.00000000
_symmetry_Int_Tables_number   1
_chemical_formula_structural   ScUTcB6
_chemical_formula_sum   'Sc4 U4 Tc4 B24'
_cell_volume   365.04160989
_cell_formula_units_Z   4
loop_
 _symmetry_equiv_pos_site_id
 _symmetry_equiv_pos_as_xyz
  1  'x, y, z'
loop_
 _atom_site_type_symbol
 _atom_site_label
 _atom_site_symmetry_multiplicity
 _atom_site_fract_x
 _atom_site_fract_y
 _atom_site_fract_z
 _atom_site_occupancy
  Sc  Sc0  1  0.000000  0.445316  0.125807  1
  Sc  Sc1  1  0.000000  0.554684  0.874193  1
  Sc  Sc2  1  0.000000  0.945316  0.374193  1
  Sc  Sc3  1  0.000000  0.054684  0.625807  1
  U  U4  1  0.000000  0.821498  0.085811  1
  U  U5  1  0.000000  0.178502  0.914189  1
  U  U6  1  0.000000  0.321498  0.414189  1
  U  U7  1  0.000000  0.678502  0.585811  1
  Tc  Tc8  1  0.000000  0.140221  0.180117  1
  Tc  Tc9  1  0.000000  0.859779  0.819883  1
  Tc  Tc10  1  0.000000  0.640221  0.319883  1
  Tc  Tc11  1  0.000000  0.359779  0.680117  1
  B  B12  1  0.500000  0.053192  0.065973  1
  B  B13  1  0.500000  0.946808  0.934027  1
  B  B14  1  0.500000  0.553192  0.434027  1
  B  B15  1  0.500000  0.446808  0.565973  1
  B  B16  1  0.500000  0.252921  0.080020  1
  B  B17  1  0.500000  0.747079  0.919980  1
  B  B18  1  0.500000  0.752921  0.419980  1
  B  B19  1  0.500000  0.247079  0.580020  1
  B  B20  1  0.500000  0.295180  0.235667  1
  B  B21  1  0.500000  0.704820  0.764333  1
  B  B22  1  0.500000  0.795180  0.264333  1
  B  B23  1  0.500000  0.204820  0.735667  1
  B  B24  1  0.500000  0.131107  0.317823  1
  B  B25  1  0.500000  0.868893  0.682177  1
  B  B26  1  0.500000  0.631107  0.182177  1
  B  B27  1  0.500000  0.368893  0.817823  1
  B  B28  1  0.500000  0.480872  0.285886  1
  B  B29  1  0.500000  0.519128  0.714114  1
  B  B30  1  0.500000  0.980872  0.214114  1
  B  B31  1  0.500000  0.019128  0.785886  1
  B  B32  1  0.500000  0.101930  0.472206  1
  B  B33  1  0.500000  0.898070  0.527794  1
  B  B34  1  0.500000  0.601930  0.027794  1
  B  B35  1  0.500000  0.398070  0.972206  1
