# generated using pymatgen
data_Lu6Zn18Ag5As
_symmetry_space_group_name_H-M   'P 1'
_cell_length_a   9.12006425
_cell_length_b   9.13005176
_cell_length_c   9.13005200
_cell_angle_alpha   59.99999913
_cell_angle_beta   59.96376642
_cell_angle_gamma   59.96377558
_symmetry_Int_Tables_number   1
_chemical_formula_structural   Lu6Zn18Ag5As
_chemical_formula_sum   'Lu6 Zn18 Ag5 As1'
_cell_volume   537.26846511
_cell_formula_units_Z   1
loop_
 _symmetry_equiv_pos_site_id
 _symmetry_equiv_pos_as_xyz
  1  'x, y, z'
loop_
 _atom_site_type_symbol
 _atom_site_label
 _atom_site_symmetry_multiplicity
 _atom_site_fract_x
 _atom_site_fract_y
 _atom_site_fract_z
 _atom_site_occupancy
  Lu  Lu0  1  0.714124  0.285616  0.285616  1
  Lu  Lu1  1  0.714124  0.285616  0.714645  1
  Lu  Lu2  1  0.714124  0.714645  0.285616  1
  Lu  Lu3  1  0.286541  0.713758  0.713758  1
  Lu  Lu4  1  0.286541  0.713758  0.285944  1
  Lu  Lu5  1  0.286541  0.285944  0.713758  1
  Zn  Zn6  1  0.874890  0.372570  0.876270  1
  Zn  Zn7  1  0.874890  0.876270  0.372570  1
  Zn  Zn8  1  0.874890  0.876270  0.876270  1
  Zn  Zn9  1  0.504097  0.998930  0.998930  1
  Zn  Zn10  1  0.504097  0.998930  0.498041  1
  Zn  Zn11  1  0.504097  0.498041  0.998930  1
  Zn  Zn12  1  0.998811  0.501665  0.501665  1
  Zn  Zn13  1  0.998811  0.501665  0.997857  1
  Zn  Zn14  1  0.998811  0.997857  0.501665  1
  Zn  Zn15  1  0.997070  0.000977  0.000977  1
  Zn  Zn16  1  0.006838  0.331054  0.331054  1
  Zn  Zn17  1  0.331437  0.006678  0.330941  1
  Zn  Zn18  1  0.331437  0.330941  0.006678  1
  Zn  Zn19  1  0.331437  0.330941  0.330941  1
  Zn  Zn20  1  0.990593  0.669803  0.669803  1
  Zn  Zn21  1  0.669415  0.992450  0.669069  1
  Zn  Zn22  1  0.669415  0.669069  0.992450  1
  Zn  Zn23  1  0.669415  0.669069  0.669069  1
  Ag  Ag24  1  0.636401  0.121200  0.121200  1
  Ag  Ag25  1  0.121535  0.634488  0.121989  1
  Ag  Ag26  1  0.121535  0.121989  0.634488  1
  Ag  Ag27  1  0.121535  0.121989  0.121989  1
  Ag  Ag28  1  0.365740  0.878086  0.878086  1
  As  As29  1  0.500808  0.499730  0.499730  1
