# generated using pymatgen
data_YbPrGa9Pd2Rh
_symmetry_space_group_name_H-M   'P 1'
_cell_length_a   7.69347151
_cell_length_b   7.69289043
_cell_length_c   9.57878800
_cell_angle_alpha   90.00000000
_cell_angle_beta   90.00000000
_cell_angle_gamma   119.55664135
_symmetry_Int_Tables_number   1
_chemical_formula_structural   YbPrGa9Pd2Rh
_chemical_formula_sum   'Yb2 Pr2 Ga18 Pd4 Rh2'
_cell_volume   493.14660522
_cell_formula_units_Z   2
loop_
 _symmetry_equiv_pos_site_id
 _symmetry_equiv_pos_as_xyz
  1  'x, y, z'
loop_
 _atom_site_type_symbol
 _atom_site_label
 _atom_site_symmetry_multiplicity
 _atom_site_fract_x
 _atom_site_fract_y
 _atom_site_fract_z
 _atom_site_occupancy
  Yb  Yb0  1  0.321052  0.995928  0.250000  1
  Yb  Yb1  1  0.006367  0.329835  0.250000  1
  Pr  Pr2  1  0.002109  0.673527  0.750000  1
  Pr  Pr3  1  0.668314  0.996441  0.750000  1
  Ga  Ga4  1  0.338945  0.009187  0.927093  1
  Ga  Ga5  1  0.996337  0.659311  0.087381  1
  Ga  Ga6  1  0.338945  0.009187  0.572907  1
  Ga  Ga7  1  0.996337  0.659311  0.412619  1
  Ga  Ga8  1  0.664058  0.009364  0.088417  1
  Ga  Ga9  1  0.999822  0.335570  0.926722  1
  Ga  Ga10  1  0.664058  0.009364  0.411583  1
  Ga  Ga11  1  0.999822  0.335570  0.573278  1
  Ga  Ga12  1  0.665863  0.663362  0.941443  1
  Ga  Ga13  1  0.334606  0.331167  0.070430  1
  Ga  Ga14  1  0.665863  0.663362  0.558557  1
  Ga  Ga15  1  0.334606  0.331167  0.429570  1
  Ga  Ga16  1  0.131485  0.133998  0.750000  1
  Ga  Ga17  1  0.865037  0.867367  0.250000  1
  Ga  Ga18  1  0.457885  0.659256  0.250000  1
  Ga  Ga19  1  0.337102  0.538963  0.750000  1
  Ga  Ga20  1  0.548684  0.339157  0.750000  1
  Ga  Ga21  1  0.658199  0.436372  0.250000  1
  Pd  Pd22  1  0.999775  0.001131  0.002723  1
  Pd  Pd23  1  0.999775  0.001131  0.497277  1
  Pd  Pd24  1  0.330422  0.673656  0.001428  1
  Pd  Pd25  1  0.330422  0.673656  0.498572  1
  Rh  Rh26  1  0.672057  0.331828  0.999951  1
  Rh  Rh27  1  0.672057  0.331828  0.500049  1
