# generated using pymatgen
data_Dy3Tm(Sc3Sn4)2
_symmetry_space_group_name_H-M   'P 1'
_cell_length_a   7.67396728
_cell_length_b   7.94572622
_cell_length_c   14.80830827
_cell_angle_alpha   89.98956908
_cell_angle_beta   89.98077331
_cell_angle_gamma   90.02453912
_symmetry_Int_Tables_number   1
_chemical_formula_structural   Dy3Tm(Sc3Sn4)2
_chemical_formula_sum   'Dy6 Tm2 Sc12 Sn16'
_cell_volume   902.94004687
_cell_formula_units_Z   2
loop_
 _symmetry_equiv_pos_site_id
 _symmetry_equiv_pos_as_xyz
  1  'x, y, z'
loop_
 _atom_site_type_symbol
 _atom_site_label
 _atom_site_symmetry_multiplicity
 _atom_site_fract_x
 _atom_site_fract_y
 _atom_site_fract_z
 _atom_site_occupancy
  Dy  Dy0  1  0.994105  0.177993  0.093975  1
  Dy  Dy1  1  0.005895  0.822007  0.906025  1
  Dy  Dy2  1  0.505756  0.677938  0.906331  1
  Dy  Dy3  1  0.005761  0.821925  0.593762  1
  Dy  Dy4  1  0.494244  0.322062  0.093669  1
  Dy  Dy5  1  0.994239  0.178075  0.406238  1
  Tm  Tm6  1  0.493828  0.321789  0.406123  1
  Tm  Tm7  1  0.506172  0.678211  0.593877  1
  Sc  Sc8  1  0.165034  0.496176  0.749890  1
  Sc  Sc9  1  0.834966  0.503824  0.250110  1
  Sc  Sc10  1  0.335241  0.996149  0.250153  1
  Sc  Sc11  1  0.664759  0.003851  0.749847  1
  Sc  Sc12  1  0.336882  0.161262  0.627423  1
  Sc  Sc13  1  0.663118  0.838738  0.372577  1
  Sc  Sc14  1  0.163470  0.660890  0.372591  1
  Sc  Sc15  1  0.663330  0.838996  0.127571  1
  Sc  Sc16  1  0.836530  0.339110  0.627409  1
  Sc  Sc17  1  0.336670  0.161004  0.872429  1
  Sc  Sc18  1  0.836694  0.338929  0.872445  1
  Sc  Sc19  1  0.163306  0.661071  0.127555  1
  Sn  Sn20  1  0.027501  0.123844  0.749925  1
  Sn  Sn21  1  0.972499  0.876156  0.250075  1
  Sn  Sn22  1  0.472592  0.623215  0.250134  1
  Sn  Sn23  1  0.527408  0.376785  0.749866  1
  Sn  Sn24  1  0.308246  0.848320  0.749467  1
  Sn  Sn25  1  0.691754  0.151680  0.250533  1
  Sn  Sn26  1  0.192830  0.349049  0.250305  1
  Sn  Sn27  1  0.807170  0.650951  0.749695  1
  Sn  Sn28  1  0.183651  0.458142  0.542346  1
  Sn  Sn29  1  0.816349  0.541858  0.457654  1
  Sn  Sn30  1  0.319042  0.957888  0.457462  1
  Sn  Sn31  1  0.818433  0.542368  0.042501  1
  Sn  Sn32  1  0.680958  0.042112  0.542538  1
  Sn  Sn33  1  0.181567  0.457632  0.957499  1
  Sn  Sn34  1  0.681693  0.042300  0.957509  1
  Sn  Sn35  1  0.318307  0.957700  0.042491  1
