# generated using pymatgen
data_Li8Dy8Sn5Sb3
_symmetry_space_group_name_H-M   'P 1'
_cell_length_a   9.40402800
_cell_length_b   9.40376087
_cell_length_c   7.17725800
_cell_angle_alpha   90.00101790
_cell_angle_beta   89.99823655
_cell_angle_gamma   119.99951628
_symmetry_Int_Tables_number   1
_chemical_formula_structural   Li8Dy8Sn5Sb3
_chemical_formula_sum   'Li8 Dy8 Sn5 Sb3'
_cell_volume   549.67602738
_cell_formula_units_Z   1
loop_
 _symmetry_equiv_pos_site_id
 _symmetry_equiv_pos_as_xyz
  1  'x, y, z'
loop_
 _atom_site_type_symbol
 _atom_site_label
 _atom_site_symmetry_multiplicity
 _atom_site_fract_x
 _atom_site_fract_y
 _atom_site_fract_z
 _atom_site_occupancy
  Li  Li0  1  0.166810  0.333629  0.281779  1
  Li  Li1  1  0.166818  0.833195  0.281772  1
  Li  Li2  1  0.666377  0.833180  0.281770  1
  Li  Li3  1  0.833161  0.666319  0.784169  1
  Li  Li4  1  0.833159  0.166840  0.784172  1
  Li  Li5  1  0.333688  0.166842  0.784182  1
  Li  Li6  1  0.333331  0.666661  0.681682  1
  Li  Li7  1  0.666659  0.333324  0.187133  1
  Dy  Dy8  1  0.511301  0.022615  0.490633  1
  Dy  Dy9  1  0.511302  0.488699  0.490632  1
  Dy  Dy10  1  0.977389  0.488693  0.490639  1
  Dy  Dy11  1  0.490722  0.981448  0.995942  1
  Dy  Dy12  1  0.490722  0.509281  0.995943  1
  Dy  Dy13  1  0.018554  0.509274  0.995938  1
  Dy  Dy14  1  0.999995  0.999996  0.496749  1
  Dy  Dy15  1  0.999994  0.999994  0.003673  1
  Sn  Sn16  1  0.833468  0.666932  0.232824  1
  Sn  Sn17  1  0.833462  0.166531  0.232821  1
  Sn  Sn18  1  0.333091  0.166548  0.232826  1
  Sn  Sn19  1  0.333330  0.666671  0.257822  1
  Sn  Sn20  1  0.666663  0.333338  0.758297  1
  Sb  Sb21  1  0.166714  0.333422  0.733532  1
  Sb  Sb22  1  0.166712  0.833286  0.733534  1
  Sb  Sb23  1  0.666578  0.833283  0.733532  1
