# generated using pymatgen
data_Na3Ca2(PrAu5)2
_symmetry_space_group_name_H-M   'P 1'
_cell_length_a   8.77826600
_cell_length_b   8.77826654
_cell_length_c   10.41740300
_cell_angle_alpha   90.00000000
_cell_angle_beta   90.00000000
_cell_angle_gamma   108.48635324
_symmetry_Int_Tables_number   1
_chemical_formula_structural   Na3Ca2(PrAu5)2
_chemical_formula_sum   'Na6 Ca4 Pr4 Au20'
_cell_volume   761.32159071
_cell_formula_units_Z   2
loop_
 _symmetry_equiv_pos_site_id
 _symmetry_equiv_pos_as_xyz
  1  'x, y, z'
loop_
 _atom_site_type_symbol
 _atom_site_label
 _atom_site_symmetry_multiplicity
 _atom_site_fract_x
 _atom_site_fract_y
 _atom_site_fract_z
 _atom_site_occupancy
  Na  Na0  1  0.012320  0.512320  0.250000  1
  Na  Na1  1  0.987680  0.487680  0.750000  1
  Na  Na2  1  0.487680  0.987680  0.750000  1
  Na  Na3  1  0.512320  0.012320  0.250000  1
  Na  Na4  1  0.000000  0.000000  0.000000  1
  Na  Na5  1  0.500000  0.500000  0.500000  1
  Ca  Ca6  1  0.301916  0.301916  0.199182  1
  Ca  Ca7  1  0.698084  0.698084  0.800818  1
  Ca  Ca8  1  0.198084  0.198084  0.699182  1
  Ca  Ca9  1  0.801916  0.801916  0.300818  1
  Pr  Pr10  1  0.699809  0.300191  0.000000  1
  Pr  Pr11  1  0.300191  0.699809  0.000000  1
  Pr  Pr12  1  0.800191  0.199809  0.500000  1
  Pr  Pr13  1  0.199809  0.800191  0.500000  1
  Au  Au14  1  0.099617  0.099617  0.403047  1
  Au  Au15  1  0.900383  0.900383  0.596953  1
  Au  Au16  1  0.400383  0.400383  0.903047  1
  Au  Au17  1  0.599617  0.599617  0.096953  1
  Au  Au18  1  0.882529  0.157790  0.208674  1
  Au  Au19  1  0.117471  0.842210  0.791326  1
  Au  Au20  1  0.617471  0.342210  0.708674  1
  Au  Au21  1  0.657790  0.382529  0.291326  1
  Au  Au22  1  0.382529  0.657790  0.291326  1
  Au  Au23  1  0.342210  0.617471  0.708674  1
  Au  Au24  1  0.842210  0.117471  0.791326  1
  Au  Au25  1  0.157790  0.882529  0.208674  1
  Au  Au26  1  0.931943  0.651534  0.010185  1
  Au  Au27  1  0.068057  0.348466  0.989815  1
  Au  Au28  1  0.568057  0.848466  0.510185  1
  Au  Au29  1  0.151534  0.431943  0.489815  1
  Au  Au30  1  0.431943  0.151534  0.489815  1
  Au  Au31  1  0.848466  0.568057  0.510185  1
  Au  Au32  1  0.348466  0.068057  0.989815  1
  Au  Au33  1  0.651534  0.931943  0.010185  1
