# generated using pymatgen
data_Ta2SnB2Ru5
_symmetry_space_group_name_H-M   'P 1'
_cell_length_a   9.47884300
_cell_length_b   9.47884300
_cell_length_c   3.02885700
_cell_angle_alpha   90.00000000
_cell_angle_beta   90.00000000
_cell_angle_gamma   90.00000000
_symmetry_Int_Tables_number   1
_chemical_formula_structural   Ta2SnB2Ru5
_chemical_formula_sum   'Ta4 Sn2 B4 Ru10'
_cell_volume   272.13815100
_cell_formula_units_Z   2
loop_
 _symmetry_equiv_pos_site_id
 _symmetry_equiv_pos_as_xyz
  1  'x, y, z'
loop_
 _atom_site_type_symbol
 _atom_site_label
 _atom_site_symmetry_multiplicity
 _atom_site_fract_x
 _atom_site_fract_y
 _atom_site_fract_z
 _atom_site_occupancy
  Ta  Ta0  1  0.823320  0.676680  0.000000  1
  Ta  Ta1  1  0.176680  0.323320  0.000000  1
  Ta  Ta2  1  0.323320  0.823320  0.000000  1
  Ta  Ta3  1  0.676680  0.176680  0.000000  1
  Sn  Sn4  1  0.500000  0.500000  0.000000  1
  Sn  Sn5  1  0.000000  0.000000  0.000000  1
  B  B6  1  0.622136  0.877864  0.000000  1
  B  B7  1  0.377864  0.122136  0.000000  1
  B  B8  1  0.122136  0.622136  0.000000  1
  B  B9  1  0.877864  0.377864  0.000000  1
  Ru  Ru10  1  0.569823  0.721663  0.500000  1
  Ru  Ru11  1  0.430177  0.278337  0.500000  1
  Ru  Ru12  1  0.069823  0.778337  0.500000  1
  Ru  Ru13  1  0.930177  0.221663  0.500000  1
  Ru  Ru14  1  0.278337  0.569823  0.500000  1
  Ru  Ru15  1  0.721663  0.430177  0.500000  1
  Ru  Ru16  1  0.221663  0.069823  0.500000  1
  Ru  Ru17  1  0.778337  0.930177  0.500000  1
  Ru  Ru18  1  0.500000  0.000000  0.500000  1
  Ru  Ru19  1  0.000000  0.500000  0.500000  1
