# generated using pymatgen
data_La3Nd3YPt3
_symmetry_space_group_name_H-M   'P 1'
_cell_length_a   6.49639600
_cell_length_b   10.23844284
_cell_length_c   10.23844382
_cell_angle_alpha   120.00413675
_cell_angle_beta   90.00000000
_cell_angle_gamma   90.00000000
_symmetry_Int_Tables_number   1
_chemical_formula_structural   La3Nd3YPt3
_chemical_formula_sum   'La6 Nd6 Y2 Pt6'
_cell_volume   589.72953498
_cell_formula_units_Z   2
loop_
 _symmetry_equiv_pos_site_id
 _symmetry_equiv_pos_as_xyz
  1  'x, y, z'
loop_
 _atom_site_type_symbol
 _atom_site_label
 _atom_site_symmetry_multiplicity
 _atom_site_fract_x
 _atom_site_fract_y
 _atom_site_fract_z
 _atom_site_occupancy
  La  La0  1  0.244735  0.130162  0.869838  1
  La  La1  1  0.244890  0.739455  0.869714  1
  La  La2  1  0.244890  0.130286  0.260545  1
  La  La3  1  0.744735  0.869838  0.130162  1
  La  La4  1  0.744890  0.260545  0.130286  1
  La  La5  1  0.744890  0.869714  0.739455  1
  Nd  Nd6  1  0.443072  0.538837  0.461163  1
  Nd  Nd7  1  0.443157  0.922406  0.461151  1
  Nd  Nd8  1  0.443157  0.538849  0.077594  1
  Nd  Nd9  1  0.943072  0.461163  0.538837  1
  Nd  Nd10  1  0.943157  0.077594  0.538849  1
  Nd  Nd11  1  0.943157  0.461151  0.922406  1
  Y  Y12  1  0.463332  0.333306  0.666694  1
  Y  Y13  1  0.963332  0.666694  0.333306  1
  Pt  Pt14  1  0.188539  0.809977  0.190023  1
  Pt  Pt15  1  0.188613  0.380134  0.189997  1
  Pt  Pt16  1  0.188613  0.810003  0.619866  1
  Pt  Pt17  1  0.688539  0.190023  0.809977  1
  Pt  Pt18  1  0.688613  0.619866  0.810003  1
  Pt  Pt19  1  0.688613  0.189997  0.380134  1
