# generated using pymatgen
data_Tm8Hf3Si16W9
_symmetry_space_group_name_H-M   'P 1'
_cell_length_a   6.93135948
_cell_length_b   6.93135918
_cell_length_c   12.82661866
_cell_angle_alpha   89.94601830
_cell_angle_beta   90.05398475
_cell_angle_gamma   89.84716307
_symmetry_Int_Tables_number   1
_chemical_formula_structural   Tm8Hf3Si16W9
_chemical_formula_sum   'Tm8 Hf3 Si16 W9'
_cell_volume   616.23601876
_cell_formula_units_Z   1
loop_
 _symmetry_equiv_pos_site_id
 _symmetry_equiv_pos_as_xyz
  1  'x, y, z'
loop_
 _atom_site_type_symbol
 _atom_site_label
 _atom_site_symmetry_multiplicity
 _atom_site_fract_x
 _atom_site_fract_y
 _atom_site_fract_z
 _atom_site_occupancy
  Tm  Tm0  1  0.001809  0.336555  0.217277  1
  Tm  Tm1  1  0.002775  0.662336  0.720895  1
  Tm  Tm2  1  0.161876  0.498712  0.469004  1
  Tm  Tm3  1  0.498850  0.839495  0.030498  1
  Tm  Tm4  1  0.839495  0.498850  0.969502  1
  Tm  Tm5  1  0.498712  0.161876  0.530996  1
  Tm  Tm6  1  0.336555  0.001809  0.782723  1
  Tm  Tm7  1  0.662336  0.002775  0.279105  1
  Hf  Hf8  1  0.832777  0.832777  0.500000  1
  Hf  Hf9  1  0.331609  0.667435  0.247810  1
  Hf  Hf10  1  0.667435  0.331609  0.752190  1
  Si  Si11  1  0.371150  0.294291  0.318884  1
  Si  Si12  1  0.627328  0.707428  0.819063  1
  Si  Si13  1  0.205571  0.872017  0.569559  1
  Si  Si14  1  0.126386  0.801356  0.932234  1
  Si  Si15  1  0.801356  0.126386  0.067766  1
  Si  Si16  1  0.872017  0.205571  0.430441  1
  Si  Si17  1  0.294291  0.371150  0.681116  1
  Si  Si18  1  0.707428  0.627328  0.180937  1
  Si  Si19  1  0.291164  0.043944  0.183820  1
  Si  Si20  1  0.706004  0.959905  0.688315  1
  Si  Si21  1  0.458567  0.793228  0.437280  1
  Si  Si22  1  0.208435  0.532355  0.059576  1
  Si  Si23  1  0.532355  0.208435  0.940424  1
  Si  Si24  1  0.793228  0.458567  0.562720  1
  Si  Si25  1  0.043944  0.291164  0.816180  1
  Si  Si26  1  0.959905  0.706004  0.311685  1
  W  W27  1  0.166462  0.166462  0.000000  1
  W  W28  1  0.161572  0.996507  0.375471  1
  W  W29  1  0.833165  0.003264  0.877746  1
  W  W30  1  0.504554  0.660997  0.626812  1
  W  W31  1  0.341268  0.498855  0.873632  1
  W  W32  1  0.498855  0.341268  0.126368  1
  W  W33  1  0.660997  0.504554  0.373188  1
  W  W34  1  0.996507  0.161572  0.624529  1
  W  W35  1  0.003264  0.833165  0.122254  1
