# generated using pymatgen
data_DyY(Si2Rh3)2
_symmetry_space_group_name_H-M   'P 1'
_cell_length_a   6.63016430
_cell_length_b   6.63016341
_cell_length_c   6.63016459
_cell_angle_alpha   130.41425129
_cell_angle_beta   114.16318743
_cell_angle_gamma   86.69528934
_symmetry_Int_Tables_number   1
_chemical_formula_structural   DyY(Si2Rh3)2
_chemical_formula_sum   'Dy1 Y1 Si4 Rh6'
_cell_volume   193.20055788
_cell_formula_units_Z   1
loop_
 _symmetry_equiv_pos_site_id
 _symmetry_equiv_pos_as_xyz
  1  'x, y, z'
loop_
 _atom_site_type_symbol
 _atom_site_label
 _atom_site_symmetry_multiplicity
 _atom_site_fract_x
 _atom_site_fract_y
 _atom_site_fract_z
 _atom_site_occupancy
  Dy  Dy0  1  0.250000  0.540699  0.290699  1
  Y  Y1  1  0.750000  0.460266  0.710266  1
  Si  Si2  1  0.078877  0.883327  0.804449  1
  Si  Si3  1  0.921228  0.116979  0.195751  1
  Si  Si4  1  0.578772  0.774523  0.195751  1
  Si  Si5  1  0.421123  0.225572  0.804449  1
  Rh  Rh6  1  0.714653  0.999661  0.714645  1
  Rh  Rh7  1  0.214984  0.499992  0.714645  1
  Rh  Rh8  1  0.285016  0.999661  0.285008  1
  Rh  Rh9  1  0.785347  0.499992  0.285008  1
  Rh  Rh10  1  0.000176  0.999664  0.499840  1
  Rh  Rh11  1  0.499824  0.999664  0.999487  1
