# generated using pymatgen
data_Pr4Ga18Ru5Rh
_symmetry_space_group_name_H-M   'P 1'
_cell_length_a   7.59593624
_cell_length_b   7.59592482
_cell_length_c   9.85558442
_cell_angle_alpha   90.14021388
_cell_angle_beta   90.14080945
_cell_angle_gamma   119.51329786
_symmetry_Int_Tables_number   1
_chemical_formula_structural   Pr4Ga18Ru5Rh
_chemical_formula_sum   'Pr4 Ga18 Ru5 Rh1'
_cell_volume   494.85610866
_cell_formula_units_Z   1
loop_
 _symmetry_equiv_pos_site_id
 _symmetry_equiv_pos_as_xyz
  1  'x, y, z'
loop_
 _atom_site_type_symbol
 _atom_site_label
 _atom_site_symmetry_multiplicity
 _atom_site_fract_x
 _atom_site_fract_y
 _atom_site_fract_z
 _atom_site_occupancy
  Pr  Pr0  1  0.996778  0.668200  0.250238  1
  Pr  Pr1  1  0.003222  0.331800  0.749762  1
  Pr  Pr2  1  0.668200  0.996775  0.250239  1
  Pr  Pr3  1  0.331800  0.003225  0.749761  1
  Ga  Ga4  1  0.130412  0.130413  0.251132  1
  Ga  Ga5  1  0.869588  0.869587  0.748868  1
  Ga  Ga6  1  0.006492  0.336289  0.073412  1
  Ga  Ga7  1  0.993508  0.663711  0.926588  1
  Ga  Ga8  1  0.992347  0.664602  0.572803  1
  Ga  Ga9  1  0.335398  0.007652  0.427196  1
  Ga  Ga10  1  0.007653  0.335398  0.427197  1
  Ga  Ga11  1  0.664602  0.992348  0.572804  1
  Ga  Ga12  1  0.663712  0.993507  0.926587  1
  Ga  Ga13  1  0.336288  0.006493  0.073413  1
  Ga  Ga14  1  0.338240  0.338241  0.554911  1
  Ga  Ga15  1  0.661760  0.661759  0.445089  1
  Ga  Ga16  1  0.659627  0.659630  0.055830  1
  Ga  Ga17  1  0.340373  0.340370  0.944170  1
  Ga  Ga18  1  0.335761  0.544512  0.249535  1
  Ga  Ga19  1  0.664239  0.455488  0.750465  1
  Ga  Ga20  1  0.544514  0.335763  0.249533  1
  Ga  Ga21  1  0.455486  0.664237  0.750467  1
  Ru  Ru22  1  0.672943  0.327056  0.000000  1
  Ru  Ru23  1  0.327057  0.672944  0.000000  1
  Ru  Ru24  1  0.327121  0.672879  0.500001  1
  Ru  Ru25  1  0.672879  0.327121  0.499999  1
  Ru  Ru26  1  0.000000  0.000000  0.500000  1
  Rh  Rh27  1  0.000000  0.000000  0.000000  1
