# generated using pymatgen
data_Li6GeAs5Rh12
_symmetry_space_group_name_H-M   'P 1'
_cell_length_a   4.19990000
_cell_length_b   5.91417800
_cell_length_c   12.67353900
_cell_angle_alpha   90.00004198
_cell_angle_beta   90.00078894
_cell_angle_gamma   89.99995334
_symmetry_Int_Tables_number   1
_chemical_formula_structural   Li6GeAs5Rh12
_chemical_formula_sum   'Li6 Ge1 As5 Rh12'
_cell_volume   314.79747988
_cell_formula_units_Z   1
loop_
 _symmetry_equiv_pos_site_id
 _symmetry_equiv_pos_as_xyz
  1  'x, y, z'
loop_
 _atom_site_type_symbol
 _atom_site_label
 _atom_site_symmetry_multiplicity
 _atom_site_fract_x
 _atom_site_fract_y
 _atom_site_fract_z
 _atom_site_occupancy
  Li  Li0  1  0.999994  0.500000  0.999357  1
  Li  Li1  1  0.499817  0.000002  0.166650  1
  Li  Li2  1  0.999800  0.499997  0.333337  1
  Li  Li3  1  0.499994  0.000001  0.500014  1
  Li  Li4  1  0.000236  0.500002  0.667313  1
  Li  Li5  1  0.500191  0.999999  0.833336  1
  Ge  Ge6  1  0.500236  0.500000  0.833334  1
  As  As7  1  0.999987  0.000000  0.998000  1
  As  As8  1  0.499755  0.500002  0.165351  1
  As  As9  1  0.999759  0.999999  0.333334  1
  As  As10  1  0.499995  0.500000  0.501312  1
  As  As11  1  0.000231  0.000001  0.668666  1
  Rh  Rh12  1  0.499993  0.249412  0.001184  1
  Rh  Rh13  1  0.499991  0.750588  0.001184  1
  Rh  Rh14  1  0.999782  0.249549  0.167083  1
  Rh  Rh15  1  0.999781  0.750454  0.167084  1
  Rh  Rh16  1  0.499787  0.250428  0.333333  1
  Rh  Rh17  1  0.499782  0.749569  0.333332  1
  Rh  Rh18  1  0.999997  0.249550  0.499584  1
  Rh  Rh19  1  0.999996  0.750450  0.499585  1
  Rh  Rh20  1  0.500224  0.249413  0.665483  1
  Rh  Rh21  1  0.500226  0.750585  0.665482  1
  Rh  Rh22  1  0.000219  0.248575  0.833331  1
  Rh  Rh23  1  0.000219  0.751425  0.833331  1
