# generated using pymatgen
data_CePrEr2(AsPt)4
_symmetry_space_group_name_H-M   'P 1'
_cell_length_a   4.30000400
_cell_length_b   4.30000289
_cell_length_c   15.69894300
_cell_angle_alpha   90.00000000
_cell_angle_beta   90.00000000
_cell_angle_gamma   119.99999313
_symmetry_Int_Tables_number   1
_chemical_formula_structural   CePrEr2(AsPt)4
_chemical_formula_sum   'Ce1 Pr1 Er2 As4 Pt4'
_cell_volume   251.38460741
_cell_formula_units_Z   1
loop_
 _symmetry_equiv_pos_site_id
 _symmetry_equiv_pos_as_xyz
  1  'x, y, z'
loop_
 _atom_site_type_symbol
 _atom_site_label
 _atom_site_symmetry_multiplicity
 _atom_site_fract_x
 _atom_site_fract_y
 _atom_site_fract_z
 _atom_site_occupancy
  Ce  Ce0  1  0.000000  0.000000  0.000000  1
  Pr  Pr1  1  0.000000  0.000000  0.500000  1
  Er  Er2  1  0.000000  0.000000  0.250198  1
  Er  Er3  1  0.000000  0.000000  0.749802  1
  As  As4  1  0.333333  0.666667  0.885533  1
  As  As5  1  0.666667  0.333333  0.114467  1
  As  As6  1  0.666667  0.333333  0.380552  1
  As  As7  1  0.333333  0.666667  0.619448  1
  Pt  Pt8  1  0.333333  0.666667  0.353134  1
  Pt  Pt9  1  0.666667  0.333333  0.646866  1
  Pt  Pt10  1  0.666667  0.333333  0.857062  1
  Pt  Pt11  1  0.333333  0.666667  0.142938  1
