# generated using pymatgen
data_CsY7Sc3(C2I9)2
_symmetry_space_group_name_H-M   'P 1'
_cell_length_a   11.59102249
_cell_length_b   11.55738432
_cell_length_c   11.49909935
_cell_angle_alpha   113.00593378
_cell_angle_beta   85.93314487
_cell_angle_gamma   120.94114463
_symmetry_Int_Tables_number   1
_chemical_formula_structural   CsY7Sc3(C2I9)2
_chemical_formula_sum   'Cs1 Y7 Sc3 C4 I18'
_cell_volume   1199.53755888
_cell_formula_units_Z   1
loop_
 _symmetry_equiv_pos_site_id
 _symmetry_equiv_pos_as_xyz
  1  'x, y, z'
loop_
 _atom_site_type_symbol
 _atom_site_label
 _atom_site_symmetry_multiplicity
 _atom_site_fract_x
 _atom_site_fract_y
 _atom_site_fract_z
 _atom_site_occupancy
  Cs  Cs0  1  0.495480  0.991104  0.497778  1
  Y  Y1  1  0.959728  0.036319  0.326323  1
  Y  Y2  1  0.908664  0.613773  0.706864  1
  Y  Y3  1  0.103395  0.943779  0.000478  1
  Y  Y4  1  0.037942  0.968778  0.678362  1
  Y  Y5  1  0.318087  0.275422  0.287458  1
  Y  Y6  1  0.720157  0.643025  0.983900  1
  Y  Y7  1  0.896738  0.053336  0.999771  1
  Sc  Sc8  1  0.699213  0.735852  0.730344  1
  Sc  Sc9  1  0.266751  0.340686  0.021127  1
  Sc  Sc10  1  0.092940  0.368515  0.274801  1
  C  C11  1  0.150496  0.215273  0.118170  1
  C  C12  1  0.851199  0.781093  0.881773  1
  C  C13  1  0.927178  0.859339  0.806277  1
  C  C14  1  0.073700  0.139927  0.195098  1
  I  I15  1  0.460059  0.537982  0.828144  1
  I  I16  1  0.381435  0.043529  0.158452  1
  I  I17  1  0.779454  0.860868  0.509336  1
  I  I18  1  0.851748  0.309350  0.157855  1
  I  I19  1  0.536318  0.469292  0.161832  1
  I  I20  1  0.218744  0.146496  0.497927  1
  I  I21  1  0.316753  0.110611  0.835674  1
  I  I22  1  0.681797  0.898876  0.171194  1
  I  I23  1  0.968431  0.754799  0.171417  1
  I  I24  1  0.934309  0.301578  0.489816  1
  I  I25  1  0.040718  0.252819  0.839058  1
  I  I26  1  0.070376  0.715793  0.502136  1
  I  I27  1  0.254279  0.597388  0.173606  1
  I  I28  1  0.740267  0.378112  0.814607  1
  I  I29  1  0.644123  0.460490  0.514007  1
  I  I30  1  0.161562  0.695092  0.845500  1
  I  I31  1  0.626679  0.949344  0.838959  1
  I  I32  1  0.331280  0.551358  0.481958  1
