# generated using pymatgen
data_CeCdBr18
_symmetry_space_group_name_H-M   'P 1'
_cell_length_a   9.56335480
_cell_length_b   9.52414432
_cell_length_c   9.55611105
_cell_angle_alpha   88.82252927
_cell_angle_beta   88.83968361
_cell_angle_gamma   88.93642431
_symmetry_Int_Tables_number   1
_chemical_formula_structural   CeCdBr18
_chemical_formula_sum   'Ce1 Cd1 Br18'
_cell_volume   869.89147916
_cell_formula_units_Z   1
loop_
 _symmetry_equiv_pos_site_id
 _symmetry_equiv_pos_as_xyz
  1  'x, y, z'
loop_
 _atom_site_type_symbol
 _atom_site_label
 _atom_site_symmetry_multiplicity
 _atom_site_fract_x
 _atom_site_fract_y
 _atom_site_fract_z
 _atom_site_occupancy
  Ce  Ce0  1  0.500000  0.500000  0.500000  1
  Cd  Cd1  1  0.000000  0.000000  0.000000  1
  Br  Br2  1  0.791841  0.462481  0.527090  1
  Br  Br3  1  0.528901  0.793017  0.462276  1
  Br  Br4  1  0.463781  0.528946  0.792064  1
  Br  Br5  1  0.208159  0.537519  0.472910  1
  Br  Br6  1  0.471099  0.206983  0.537724  1
  Br  Br7  1  0.536219  0.471054  0.207936  1
  Br  Br8  1  0.907351  0.371483  0.768953  1
  Br  Br9  1  0.770274  0.908372  0.369724  1
  Br  Br10  1  0.370192  0.769909  0.908165  1
  Br  Br11  1  0.092649  0.628517  0.231047  1
  Br  Br12  1  0.229726  0.091628  0.630276  1
  Br  Br13  1  0.629808  0.230091  0.091835  1
  Br  Br14  1  0.016435  0.969034  0.706446  1
  Br  Br15  1  0.706372  0.017220  0.968790  1
  Br  Br16  1  0.970394  0.704996  0.018865  1
  Br  Br17  1  0.983565  0.030966  0.293554  1
  Br  Br18  1  0.293628  0.982780  0.031210  1
  Br  Br19  1  0.029606  0.295004  0.981135  1
