# generated using pymatgen
data_Ce2Er(InIr)3
_symmetry_space_group_name_H-M   'P 1'
_cell_length_a   7.64412774
_cell_length_b   7.64412777
_cell_length_c   3.91875000
_cell_angle_alpha   90.00000000
_cell_angle_beta   90.00000000
_cell_angle_gamma   120.98385574
_symmetry_Int_Tables_number   1
_chemical_formula_structural   Ce2Er(InIr)3
_chemical_formula_sum   'Ce2 Er1 In3 Ir3'
_cell_volume   196.31004926
_cell_formula_units_Z   1
loop_
 _symmetry_equiv_pos_site_id
 _symmetry_equiv_pos_as_xyz
  1  'x, y, z'
loop_
 _atom_site_type_symbol
 _atom_site_label
 _atom_site_symmetry_multiplicity
 _atom_site_fract_x
 _atom_site_fract_y
 _atom_site_fract_z
 _atom_site_occupancy
  Ce  Ce0  1  0.586695  0.999223  0.000000  1
  Ce  Ce1  1  0.999223  0.586695  0.000000  1
  Er  Er2  1  0.406069  0.406069  0.000000  1
  In  In3  1  0.006208  0.255460  0.500000  1
  In  In4  1  0.739114  0.739114  0.500000  1
  In  In5  1  0.255460  0.006208  0.500000  1
  Ir  Ir6  1  0.999431  0.999431  0.000000  1
  Ir  Ir7  1  0.332007  0.675792  0.500000  1
  Ir  Ir8  1  0.675792  0.332007  0.500000  1
