# generated using pymatgen
data_Tm3InSi2Ag3
_symmetry_space_group_name_H-M   'P 1'
_cell_length_a   7.15034700
_cell_length_b   7.15034712
_cell_length_c   4.22090900
_cell_angle_alpha   90.00000000
_cell_angle_beta   90.00000000
_cell_angle_gamma   120.00000406
_symmetry_Int_Tables_number   1
_chemical_formula_structural   Tm3InSi2Ag3
_chemical_formula_sum   'Tm3 In1 Si2 Ag3'
_cell_volume   186.89205825
_cell_formula_units_Z   1
loop_
 _symmetry_equiv_pos_site_id
 _symmetry_equiv_pos_as_xyz
  1  'x, y, z'
loop_
 _atom_site_type_symbol
 _atom_site_label
 _atom_site_symmetry_multiplicity
 _atom_site_fract_x
 _atom_site_fract_y
 _atom_site_fract_z
 _atom_site_occupancy
  Tm  Tm0  1  0.432989  0.432989  0.500000  1
  Tm  Tm1  1  0.567011  0.000000  0.500000  1
  Tm  Tm2  1  0.000000  0.567011  0.500000  1
  In  In3  1  0.000000  0.000000  0.500000  1
  Si  Si4  1  0.666667  0.333333  0.000000  1
  Si  Si5  1  0.333333  0.666667  0.000000  1
  Ag  Ag6  1  0.736060  0.736060  0.000000  1
  Ag  Ag7  1  0.263940  0.000000  0.000000  1
  Ag  Ag8  1  0.000000  0.263940  0.000000  1
