# generated using pymatgen
data_YbY7Si8(PdPt)4
_symmetry_space_group_name_H-M   'P 1'
_cell_length_a   4.30550800
_cell_length_b   7.48413801
_cell_length_c   14.08789623
_cell_angle_alpha   90.02968852
_cell_angle_beta   90.00000000
_cell_angle_gamma   90.00000000
_symmetry_Int_Tables_number   1
_chemical_formula_structural   YbY7Si8(PdPt)4
_chemical_formula_sum   'Yb1 Y7 Si8 Pd4 Pt4'
_cell_volume   453.95444547
_cell_formula_units_Z   1
loop_
 _symmetry_equiv_pos_site_id
 _symmetry_equiv_pos_as_xyz
  1  'x, y, z'
loop_
 _atom_site_type_symbol
 _atom_site_label
 _atom_site_symmetry_multiplicity
 _atom_site_fract_x
 _atom_site_fract_y
 _atom_site_fract_z
 _atom_site_occupancy
  Yb  Yb0  1  0.500000  0.793750  0.748914  1
  Y  Y1  1  0.000000  0.203459  0.750665  1
  Y  Y2  1  0.500000  0.793193  0.249734  1
  Y  Y3  1  0.000000  0.207018  0.249971  1
  Y  Y4  1  0.500000  0.707244  0.998619  1
  Y  Y5  1  0.000000  0.292975  0.500461  1
  Y  Y6  1  0.500000  0.700916  0.501324  1
  Y  Y7  1  0.000000  0.299487  0.999802  1
  Si  Si8  1  0.500000  0.405428  0.646002  1
  Si  Si9  1  0.000000  0.593773  0.857312  1
  Si  Si10  1  0.500000  0.406816  0.355461  1
  Si  Si11  1  0.000000  0.593572  0.143814  1
  Si  Si12  1  0.500000  0.090980  0.092450  1
  Si  Si13  1  0.000000  0.909375  0.406852  1
  Si  Si14  1  0.500000  0.088776  0.908140  1
  Si  Si15  1  0.000000  0.911692  0.590744  1
  Pd  Pd16  1  0.500000  0.421242  0.157701  1
  Pd  Pd17  1  0.000000  0.579780  0.343687  1
  Pd  Pd18  1  0.500000  0.420773  0.841636  1
  Pd  Pd19  1  0.000000  0.579858  0.657386  1
  Pt  Pt20  1  0.500000  0.077623  0.607225  1
  Pt  Pt21  1  0.000000  0.921605  0.892385  1
  Pt  Pt22  1  0.500000  0.076271  0.391190  1
  Pt  Pt23  1  0.000000  0.924394  0.108525  1
