# generated using pymatgen
data_YTm11Co4BiIr
_symmetry_space_group_name_H-M   'P 1'
_cell_length_a   8.21664654
_cell_length_b   8.21664577
_cell_length_c   8.20434717
_cell_angle_alpha   110.82767282
_cell_angle_beta   111.28111062
_cell_angle_gamma   106.41382453
_symmetry_Int_Tables_number   1
_chemical_formula_structural   YTm11Co4BiIr
_chemical_formula_sum   'Y1 Tm11 Co4 Bi1 Ir1'
_cell_volume   425.12556117
_cell_formula_units_Z   1
loop_
 _symmetry_equiv_pos_site_id
 _symmetry_equiv_pos_as_xyz
  1  'x, y, z'
loop_
 _atom_site_type_symbol
 _atom_site_label
 _atom_site_symmetry_multiplicity
 _atom_site_fract_x
 _atom_site_fract_y
 _atom_site_fract_z
 _atom_site_occupancy
  Y  Y0  1  0.284241  0.184091  0.468331  1
  Tm  Tm1  1  0.716328  0.817699  0.534029  1
  Tm  Tm2  1  0.284011  0.816797  0.100807  1
  Tm  Tm3  1  0.716368  0.182527  0.898896  1
  Tm  Tm4  1  0.620650  0.311589  0.308518  1
  Tm  Tm5  1  0.380051  0.689608  0.691483  1
  Tm  Tm6  1  0.001876  0.311432  0.691483  1
  Tm  Tm7  1  0.996928  0.687868  0.308518  1
  Tm  Tm8  1  0.213292  0.412420  0.197530  1
  Tm  Tm9  1  0.787082  0.588737  0.802349  1
  Tm  Tm10  1  0.213613  0.015266  0.802349  1
  Tm  Tm11  1  0.785109  0.984238  0.197530  1
  Co  Co12  1  0.999743  0.376349  0.376092  1
  Co  Co13  1  0.999832  0.623959  0.623791  1
  Co  Co14  1  0.389527  0.887268  0.499962  1
  Co  Co15  1  0.612695  0.110436  0.499962  1
  Bi  Bi16  1  0.499898  0.499931  0.999829  1
  Ir  Ir17  1  0.998757  0.999785  0.998542  1
