# generated using pymatgen
data_Tb4Co16Mo3P12Ru
_symmetry_space_group_name_H-M   'P 1'
_cell_length_a   3.71049200
_cell_length_b   10.43175615
_cell_length_c   11.85741677
_cell_angle_alpha   89.89751352
_cell_angle_beta   90.00000000
_cell_angle_gamma   90.00000000
_symmetry_Int_Tables_number   1
_chemical_formula_structural   Tb4Co16Mo3P12Ru
_chemical_formula_sum   'Tb4 Co16 Mo3 P12 Ru1'
_cell_volume   458.96367692
_cell_formula_units_Z   1
loop_
 _symmetry_equiv_pos_site_id
 _symmetry_equiv_pos_as_xyz
  1  'x, y, z'
loop_
 _atom_site_type_symbol
 _atom_site_label
 _atom_site_symmetry_multiplicity
 _atom_site_fract_x
 _atom_site_fract_y
 _atom_site_fract_z
 _atom_site_occupancy
  Tb  Tb0  1  0.250000  0.584809  0.704187  1
  Tb  Tb1  1  0.250000  0.915534  0.204621  1
  Tb  Tb2  1  0.750000  0.415254  0.297264  1
  Tb  Tb3  1  0.750000  0.083579  0.794600  1
  Co  Co4  1  0.250000  0.406231  0.489971  1
  Co  Co5  1  0.250000  0.093939  0.989727  1
  Co  Co6  1  0.750000  0.592017  0.510755  1
  Co  Co7  1  0.750000  0.906182  0.011311  1
  Co  Co8  1  0.250000  0.220738  0.178445  1
  Co  Co9  1  0.250000  0.278349  0.675533  1
  Co  Co10  1  0.750000  0.778520  0.823123  1
  Co  Co11  1  0.750000  0.720594  0.322970  1
  Co  Co12  1  0.250000  0.887500  0.701501  1
  Co  Co13  1  0.250000  0.611836  0.200608  1
  Co  Co14  1  0.750000  0.111144  0.299329  1
  Co  Co15  1  0.750000  0.386871  0.798219  1
  Co  Co16  1  0.250000  0.465648  0.932922  1
  Co  Co17  1  0.250000  0.034318  0.432435  1
  Co  Co18  1  0.750000  0.534064  0.066924  1
  Co  Co19  1  0.750000  0.966313  0.567782  1
  Mo  Mo20  1  0.250000  0.708409  0.987981  1
  Mo  Mo21  1  0.250000  0.790293  0.487687  1
  Mo  Mo22  1  0.750000  0.291377  0.011893  1
  P  P23  1  0.250000  0.419445  0.114901  1
  P  P24  1  0.250000  0.080290  0.612585  1
  P  P25  1  0.750000  0.579598  0.885223  1
  P  P26  1  0.750000  0.919868  0.386992  1
  P  P27  1  0.250000  0.270267  0.863855  1
  P  P28  1  0.250000  0.228157  0.367023  1
  P  P29  1  0.750000  0.729464  0.135681  1
  P  P30  1  0.750000  0.772063  0.635733  1
  P  P31  1  0.250000  0.595302  0.391176  1
  P  P32  1  0.250000  0.904513  0.891643  1
  P  P33  1  0.750000  0.404138  0.609042  1
  P  P34  1  0.750000  0.096027  0.109083  1
  Ru  Ru35  1  0.750000  0.217347  0.507275  1
