# generated using pymatgen
data_Th3(Al3Ru)4
_symmetry_space_group_name_H-M   'P 1'
_cell_length_a   8.97994400
_cell_length_b   8.97994296
_cell_length_c   9.56996700
_cell_angle_alpha   90.00000000
_cell_angle_beta   90.00000000
_cell_angle_gamma   119.99999648
_symmetry_Int_Tables_number   1
_chemical_formula_structural   Th3(Al3Ru)4
_chemical_formula_sum   'Th6 Al24 Ru8'
_cell_volume   668.32590250
_cell_formula_units_Z   2
loop_
 _symmetry_equiv_pos_site_id
 _symmetry_equiv_pos_as_xyz
  1  'x, y, z'
loop_
 _atom_site_type_symbol
 _atom_site_label
 _atom_site_symmetry_multiplicity
 _atom_site_fract_x
 _atom_site_fract_y
 _atom_site_fract_z
 _atom_site_occupancy
  Th  Th0  1  0.805548  0.611096  0.750000  1
  Th  Th1  1  0.194452  0.805548  0.250000  1
  Th  Th2  1  0.611096  0.805548  0.250000  1
  Th  Th3  1  0.388904  0.194452  0.750000  1
  Th  Th4  1  0.805548  0.194452  0.750000  1
  Th  Th5  1  0.194452  0.388904  0.250000  1
  Al  Al6  1  0.333333  0.666667  0.489410  1
  Al  Al7  1  0.666667  0.333333  0.989410  1
  Al  Al8  1  0.666667  0.333333  0.510590  1
  Al  Al9  1  0.333333  0.666667  0.010590  1
  Al  Al10  1  0.162649  0.325299  0.578186  1
  Al  Al11  1  0.674701  0.837351  0.578186  1
  Al  Al12  1  0.162649  0.837351  0.578186  1
  Al  Al13  1  0.837351  0.162649  0.078186  1
  Al  Al14  1  0.837351  0.162649  0.421814  1
  Al  Al15  1  0.837351  0.674701  0.078186  1
  Al  Al16  1  0.325299  0.162649  0.078186  1
  Al  Al17  1  0.674701  0.837351  0.921814  1
  Al  Al18  1  0.162649  0.325299  0.921814  1
  Al  Al19  1  0.837351  0.674701  0.421814  1
  Al  Al20  1  0.000000  0.000000  0.250000  1
  Al  Al21  1  0.000000  0.000000  0.750000  1
  Al  Al22  1  0.563416  0.126832  0.250000  1
  Al  Al23  1  0.436584  0.563416  0.750000  1
  Al  Al24  1  0.126832  0.563416  0.750000  1
  Al  Al25  1  0.873168  0.436584  0.250000  1
  Al  Al26  1  0.563416  0.436584  0.250000  1
  Al  Al27  1  0.436584  0.873168  0.750000  1
  Al  Al28  1  0.162649  0.837351  0.921814  1
  Al  Al29  1  0.325299  0.162649  0.421814  1
  Ru  Ru30  1  0.000000  0.000000  0.500000  1
  Ru  Ru31  1  0.000000  0.000000  0.000000  1
  Ru  Ru32  1  0.500000  0.000000  0.500000  1
  Ru  Ru33  1  0.500000  0.500000  0.000000  1
  Ru  Ru34  1  0.000000  0.500000  0.000000  1
  Ru  Ru35  1  0.000000  0.500000  0.500000  1
  Ru  Ru36  1  0.500000  0.500000  0.500000  1
  Ru  Ru37  1  0.500000  0.000000  0.000000  1
