# generated using pymatgen
data_Gd6DySiCl12
_symmetry_space_group_name_H-M   'P 1'
_cell_length_a   8.89640066
_cell_length_b   8.89639967
_cell_length_c   8.89640100
_cell_angle_alpha   107.73536947
_cell_angle_beta   107.73536744
_cell_angle_gamma   107.73535346
_symmetry_Int_Tables_number   1
_chemical_formula_structural   Gd6DySiCl12
_chemical_formula_sum   'Gd6 Dy1 Si1 Cl12'
_cell_volume   574.22391773
_cell_formula_units_Z   1
loop_
 _symmetry_equiv_pos_site_id
 _symmetry_equiv_pos_as_xyz
  1  'x, y, z'
loop_
 _atom_site_type_symbol
 _atom_site_label
 _atom_site_symmetry_multiplicity
 _atom_site_fract_x
 _atom_site_fract_y
 _atom_site_fract_z
 _atom_site_occupancy
  Gd  Gd0  1  0.113608  0.331211  0.031222  1
  Gd  Gd1  1  0.331211  0.031223  0.113607  1
  Gd  Gd2  1  0.031223  0.113607  0.331212  1
  Gd  Gd3  1  0.968778  0.886393  0.668789  1
  Gd  Gd4  1  0.668789  0.968778  0.886393  1
  Gd  Gd5  1  0.886392  0.668789  0.968778  1
  Dy  Dy6  1  0.500000  0.500000  0.500000  1
  Si  Si7  1  0.000000  0.000000  0.000000  1
  Cl  Cl8  1  0.223321  0.686110  0.075264  1
  Cl  Cl9  1  0.468918  0.388189  0.169666  1
  Cl  Cl10  1  0.686111  0.075264  0.223321  1
  Cl  Cl11  1  0.924737  0.776679  0.313890  1
  Cl  Cl12  1  0.169666  0.468918  0.388189  1
  Cl  Cl13  1  0.388189  0.169666  0.468918  1
  Cl  Cl14  1  0.611811  0.830334  0.531083  1
  Cl  Cl15  1  0.830335  0.531082  0.611811  1
  Cl  Cl16  1  0.075264  0.223321  0.686111  1
  Cl  Cl17  1  0.313890  0.924737  0.776679  1
  Cl  Cl18  1  0.531082  0.611811  0.830335  1
  Cl  Cl19  1  0.776679  0.313890  0.924736  1
