# generated using pymatgen
data_Pr7PaZn8Ir7Rh
_symmetry_space_group_name_H-M   'P 1'
_cell_length_a   4.03028600
_cell_length_b   7.37862318
_cell_length_c   16.70962619
_cell_angle_alpha   89.60272879
_cell_angle_beta   90.00000000
_cell_angle_gamma   90.00000000
_symmetry_Int_Tables_number   1
_chemical_formula_structural   Pr7PaZn8Ir7Rh
_chemical_formula_sum   'Pr7 Pa1 Zn8 Ir7 Rh1'
_cell_volume   496.89827917
_cell_formula_units_Z   1
loop_
 _symmetry_equiv_pos_site_id
 _symmetry_equiv_pos_as_xyz
  1  'x, y, z'
loop_
 _atom_site_type_symbol
 _atom_site_label
 _atom_site_symmetry_multiplicity
 _atom_site_fract_x
 _atom_site_fract_y
 _atom_site_fract_z
 _atom_site_occupancy
  Pr  Pr0  1  0.750000  0.949113  0.282503  1
  Pr  Pr1  1  0.750000  0.825276  0.060518  1
  Pr  Pr2  1  0.250000  0.048989  0.716387  1
  Pr  Pr3  1  0.250000  0.167306  0.940759  1
  Pr  Pr4  1  0.250000  0.546913  0.783800  1
  Pr  Pr5  1  0.750000  0.334312  0.439586  1
  Pr  Pr6  1  0.250000  0.669850  0.561007  1
  Pa  Pa7  1  0.750000  0.446435  0.215354  1
  Zn  Zn8  1  0.250000  0.003241  0.439175  1
  Zn  Zn9  1  0.750000  0.501929  0.939980  1
  Zn  Zn10  1  0.750000  0.004144  0.560447  1
  Zn  Zn11  1  0.250000  0.624286  0.350610  1
  Zn  Zn12  1  0.750000  0.378301  0.650275  1
  Zn  Zn13  1  0.750000  0.879998  0.849677  1
  Zn  Zn14  1  0.250000  0.498044  0.058276  1
  Zn  Zn15  1  0.250000  0.120852  0.151336  1
  Ir  Ir16  1  0.250000  0.245292  0.564275  1
  Ir  Ir17  1  0.750000  0.265417  0.073295  1
  Ir  Ir18  1  0.250000  0.263645  0.301158  1
  Ir  Ir19  1  0.750000  0.253241  0.816288  1
  Ir  Ir20  1  0.250000  0.746461  0.934792  1
  Ir  Ir21  1  0.750000  0.754007  0.685659  1
  Ir  Ir22  1  0.250000  0.707849  0.190689  1
  Rh  Rh23  1  0.750000  0.765097  0.434154  1
