# generated using pymatgen
data_Tm4MnCo4
_symmetry_space_group_name_H-M   'P 1'
_cell_length_a   5.40087755
_cell_length_b   5.40087773
_cell_length_c   8.77823442
_cell_angle_alpha   71.71236056
_cell_angle_beta   71.71236060
_cell_angle_gamma   42.89247323
_symmetry_Int_Tables_number   1
_chemical_formula_structural   Tm4MnCo4
_chemical_formula_sum   'Tm4 Mn1 Co4'
_cell_volume   164.07578262
_cell_formula_units_Z   1
loop_
 _symmetry_equiv_pos_site_id
 _symmetry_equiv_pos_as_xyz
  1  'x, y, z'
loop_
 _atom_site_type_symbol
 _atom_site_label
 _atom_site_symmetry_multiplicity
 _atom_site_fract_x
 _atom_site_fract_y
 _atom_site_fract_z
 _atom_site_occupancy
  Tm  Tm0  1  0.745148  0.745148  0.661507  1
  Tm  Tm1  1  0.254852  0.254852  0.338493  1
  Tm  Tm2  1  0.390908  0.390908  0.885752  1
  Tm  Tm3  1  0.609092  0.609092  0.114248  1
  Mn  Mn4  1  0.500000  0.500000  0.500000  1
  Co  Co5  1  0.037530  0.037530  0.642218  1
  Co  Co6  1  0.962470  0.962470  0.357782  1
  Co  Co7  1  0.094679  0.094679  0.880826  1
  Co  Co8  1  0.905321  0.905321  0.119174  1
