# generated using pymatgen
data_SrMnCr(P2O7)2
_symmetry_space_group_name_H-M   'P 1'
_cell_length_a   4.81001813
_cell_length_b   7.18789938
_cell_length_c   8.02856194
_cell_angle_alpha   88.23671994
_cell_angle_beta   87.00898944
_cell_angle_gamma   73.16363670
_symmetry_Int_Tables_number   1
_chemical_formula_structural   SrMnCr(P2O7)2
_chemical_formula_sum   'Sr1 Mn1 Cr1 P4 O14'
_cell_volume   265.28320455
_cell_formula_units_Z   1
loop_
 _symmetry_equiv_pos_site_id
 _symmetry_equiv_pos_as_xyz
  1  'x, y, z'
loop_
 _atom_site_type_symbol
 _atom_site_label
 _atom_site_symmetry_multiplicity
 _atom_site_fract_x
 _atom_site_fract_y
 _atom_site_fract_z
 _atom_site_occupancy
  Sr  Sr0  1  0.500000  0.000000  0.000000  1
  Mn  Mn1  1  0.000000  0.500000  0.000000  1
  Cr  Cr2  1  0.500000  0.000000  0.500000  1
  P  P3  1  0.116675  0.778866  0.299420  1
  P  P4  1  0.883325  0.221134  0.700580  1
  P  P5  1  0.472841  0.616646  0.756361  1
  P  P6  1  0.527159  0.383354  0.243639  1
  O  O7  1  0.011696  0.782589  0.120442  1
  O  O8  1  0.988304  0.217411  0.879558  1
  O  O9  1  0.671282  0.094911  0.700275  1
  O  O10  1  0.328718  0.905089  0.299725  1
  O  O11  1  0.406461  0.802277  0.653907  1
  O  O12  1  0.593539  0.197723  0.346093  1
  O  O13  1  0.192708  0.561931  0.800062  1
  O  O14  1  0.807292  0.438069  0.199938  1
  O  O15  1  0.376495  0.352274  0.083632  1
  O  O16  1  0.623505  0.647726  0.916368  1
  O  O17  1  0.883963  0.818623  0.437651  1
  O  O18  1  0.116037  0.181377  0.562349  1
  O  O19  1  0.693668  0.444298  0.655514  1
  O  O20  1  0.306332  0.555702  0.344486  1
