# generated using pymatgen
data_Sr5Bi2Pb
_symmetry_space_group_name_H-M   'P 1'
_cell_length_a   9.91249789
_cell_length_b   9.89083133
_cell_length_c   7.55111600
_cell_angle_alpha   90.00000000
_cell_angle_beta   90.00000000
_cell_angle_gamma   119.92772139
_symmetry_Int_Tables_number   1
_chemical_formula_structural   Sr5Bi2Pb
_chemical_formula_sum   'Sr10 Bi4 Pb2'
_cell_volume   641.61354710
_cell_formula_units_Z   2
loop_
 _symmetry_equiv_pos_site_id
 _symmetry_equiv_pos_as_xyz
  1  'x, y, z'
loop_
 _atom_site_type_symbol
 _atom_site_label
 _atom_site_symmetry_multiplicity
 _atom_site_fract_x
 _atom_site_fract_y
 _atom_site_fract_z
 _atom_site_occupancy
  Sr  Sr0  1  0.333377  0.666689  0.000000  1
  Sr  Sr1  1  0.661801  0.330900  0.500000  1
  Sr  Sr2  1  0.661801  0.330900  0.000000  1
  Sr  Sr3  1  0.333377  0.666689  0.500000  1
  Sr  Sr4  1  0.723298  0.000264  0.250000  1
  Sr  Sr5  1  0.723298  0.723033  0.750000  1
  Sr  Sr6  1  0.004407  0.276279  0.750000  1
  Sr  Sr7  1  0.004407  0.728128  0.250000  1
  Sr  Sr8  1  0.273287  0.269420  0.250000  1
  Sr  Sr9  1  0.273287  0.003868  0.750000  1
  Bi  Bi10  1  0.998634  0.622473  0.750000  1
  Bi  Bi11  1  0.998634  0.376161  0.250000  1
  Bi  Bi12  1  0.626667  0.625716  0.250000  1
  Bi  Bi13  1  0.626667  0.000951  0.750000  1
  Pb  Pb14  1  0.378529  0.998330  0.250000  1
  Pb  Pb15  1  0.378529  0.380199  0.750000  1
