# generated using pymatgen
data_Rb2LiTbBi2
_symmetry_space_group_name_H-M   'P 1'
_cell_length_a   11.37830300
_cell_length_b   11.37830338
_cell_length_c   7.36329400
_cell_angle_alpha   90.00000000
_cell_angle_beta   90.00000000
_cell_angle_gamma   99.41935338
_symmetry_Int_Tables_number   1
_chemical_formula_structural   Rb2LiTbBi2
_chemical_formula_sum   'Rb8 Li4 Tb4 Bi8'
_cell_volume   940.44129533
_cell_formula_units_Z   4
loop_
 _symmetry_equiv_pos_site_id
 _symmetry_equiv_pos_as_xyz
  1  'x, y, z'
loop_
 _atom_site_type_symbol
 _atom_site_label
 _atom_site_symmetry_multiplicity
 _atom_site_fract_x
 _atom_site_fract_y
 _atom_site_fract_z
 _atom_site_occupancy
  Rb  Rb0  1  0.571818  0.928182  0.750000  1
  Rb  Rb1  1  0.928182  0.571818  0.250000  1
  Rb  Rb2  1  0.428182  0.071818  0.250000  1
  Rb  Rb3  1  0.071818  0.428182  0.750000  1
  Rb  Rb4  1  0.674802  0.325198  0.781799  1
  Rb  Rb5  1  0.825198  0.174802  0.281799  1
  Rb  Rb6  1  0.325198  0.674802  0.218201  1
  Rb  Rb7  1  0.174802  0.825198  0.718201  1
  Li  Li8  1  0.621199  0.621199  0.000000  1
  Li  Li9  1  0.878801  0.878801  0.500000  1
  Li  Li10  1  0.378801  0.378801  0.000000  1
  Li  Li11  1  0.121199  0.121199  0.500000  1
  Tb  Tb12  1  0.869601  0.869601  0.000000  1
  Tb  Tb13  1  0.630399  0.630399  0.500000  1
  Tb  Tb14  1  0.130399  0.130399  0.000000  1
  Tb  Tb15  1  0.369601  0.369601  0.500000  1
  Bi  Bi16  1  0.348635  0.151365  0.750000  1
  Bi  Bi17  1  0.151365  0.348635  0.250000  1
  Bi  Bi18  1  0.651365  0.848635  0.250000  1
  Bi  Bi19  1  0.848635  0.651365  0.750000  1
  Bi  Bi20  1  0.903285  0.096715  0.757592  1
  Bi  Bi21  1  0.596715  0.403285  0.257592  1
  Bi  Bi22  1  0.096715  0.903285  0.242408  1
  Bi  Bi23  1  0.403285  0.596715  0.742408  1
