# generated using pymatgen
data_Ac7Nd12ErPb16
_symmetry_space_group_name_H-M   'P 1'
_cell_length_a   8.62934663
_cell_length_b   8.68941353
_cell_length_c   16.55047426
_cell_angle_alpha   90.12193233
_cell_angle_beta   90.20232390
_cell_angle_gamma   89.89393141
_symmetry_Int_Tables_number   1
_chemical_formula_structural   Ac7Nd12ErPb16
_chemical_formula_sum   'Ac7 Nd12 Er1 Pb16'
_cell_volume   1241.00746585
_cell_formula_units_Z   1
loop_
 _symmetry_equiv_pos_site_id
 _symmetry_equiv_pos_as_xyz
  1  'x, y, z'
loop_
 _atom_site_type_symbol
 _atom_site_label
 _atom_site_symmetry_multiplicity
 _atom_site_fract_x
 _atom_site_fract_y
 _atom_site_fract_z
 _atom_site_occupancy
  Ac  Ac0  1  0.026375  0.178443  0.599280  1
  Ac  Ac1  1  0.473607  0.678909  0.401595  1
  Ac  Ac2  1  0.971408  0.822340  0.098282  1
  Ac  Ac3  1  0.472441  0.676761  0.097941  1
  Ac  Ac4  1  0.973751  0.822900  0.401439  1
  Ac  Ac5  1  0.525962  0.322555  0.598441  1
  Ac  Ac6  1  0.027112  0.179738  0.902139  1
  Nd  Nd7  1  0.372917  0.843430  0.881288  1
  Nd  Nd8  1  0.871380  0.657084  0.620660  1
  Nd  Nd9  1  0.627334  0.156593  0.379256  1
  Nd  Nd10  1  0.127519  0.343407  0.119185  1
  Nd  Nd11  1  0.624329  0.156980  0.119256  1
  Nd  Nd12  1  0.129285  0.343128  0.379398  1
  Nd  Nd13  1  0.371494  0.843640  0.621162  1
  Nd  Nd14  1  0.872450  0.656683  0.881159  1
  Nd  Nd15  1  0.531468  0.324209  0.898075  1
  Nd  Nd16  1  0.207502  0.502342  0.751011  1
  Nd  Nd17  1  0.707234  0.997774  0.751220  1
  Nd  Nd18  1  0.792651  0.496594  0.248993  1
  Er  Er19  1  0.292307  0.004157  0.249851  1
  Pb  Pb20  1  0.290891  0.038453  0.047332  1
  Pb  Pb21  1  0.793369  0.458044  0.454492  1
  Pb  Pb22  1  0.706185  0.959002  0.545658  1
  Pb  Pb23  1  0.216112  0.533378  0.952955  1
  Pb  Pb24  1  0.705745  0.965285  0.953841  1
  Pb  Pb25  1  0.206882  0.541981  0.545227  1
  Pb  Pb26  1  0.292159  0.039972  0.453141  1
  Pb  Pb27  1  0.787035  0.454923  0.041808  1
  Pb  Pb28  1  0.569415  0.631072  0.751951  1
  Pb  Pb29  1  0.069640  0.866848  0.751090  1
  Pb  Pb30  1  0.429488  0.363874  0.249748  1
  Pb  Pb31  1  0.934415  0.131270  0.248854  1
  Pb  Pb32  1  0.342652  0.145736  0.753563  1
  Pb  Pb33  1  0.832540  0.358140  0.751449  1
  Pb  Pb34  1  0.661090  0.857930  0.249723  1
  Pb  Pb35  1  0.163856  0.646428  0.249534  1
