# generated using pymatgen
data_Cs2VZn2CuAs4
_symmetry_space_group_name_H-M   'P 1'
_cell_length_a   8.14085246
_cell_length_b   8.14085172
_cell_length_c   5.82975800
_cell_angle_alpha   90.00000000
_cell_angle_beta   90.00000000
_cell_angle_gamma   138.18351520
_symmetry_Int_Tables_number   1
_chemical_formula_structural   Cs2VZn2CuAs4
_chemical_formula_sum   'Cs2 V1 Zn2 Cu1 As4'
_cell_volume   257.60321414
_cell_formula_units_Z   1
loop_
 _symmetry_equiv_pos_site_id
 _symmetry_equiv_pos_as_xyz
  1  'x, y, z'
loop_
 _atom_site_type_symbol
 _atom_site_label
 _atom_site_symmetry_multiplicity
 _atom_site_fract_x
 _atom_site_fract_y
 _atom_site_fract_z
 _atom_site_occupancy
  Cs  Cs0  1  0.500000  0.000000  0.257114  1
  Cs  Cs1  1  0.000000  0.500000  0.742886  1
  V  V2  1  0.000000  0.000000  0.000000  1
  Zn  Zn3  1  0.500000  0.500000  0.500000  1
  Zn  Zn4  1  0.500000  0.500000  0.000000  1
  Cu  Cu5  1  0.000000  0.000000  0.500000  1
  As  As6  1  0.674609  0.864052  0.761398  1
  As  As7  1  0.135948  0.325391  0.238602  1
  As  As8  1  0.864052  0.674609  0.238602  1
  As  As9  1  0.325391  0.135948  0.761398  1
