# generated using pymatgen
data_Ti4CoIr
_symmetry_space_group_name_H-M   'P 1'
_cell_length_a   8.09487801
_cell_length_b   8.09487783
_cell_length_c   8.09487900
_cell_angle_alpha   59.99999930
_cell_angle_beta   60.00000004
_cell_angle_gamma   59.99999929
_symmetry_Int_Tables_number   1
_chemical_formula_structural   Ti4CoIr
_chemical_formula_sum   'Ti16 Co4 Ir4'
_cell_volume   375.07314154
_cell_formula_units_Z   4
loop_
 _symmetry_equiv_pos_site_id
 _symmetry_equiv_pos_as_xyz
  1  'x, y, z'
loop_
 _atom_site_type_symbol
 _atom_site_label
 _atom_site_symmetry_multiplicity
 _atom_site_fract_x
 _atom_site_fract_y
 _atom_site_fract_z
 _atom_site_occupancy
  Ti  Ti0  1  0.066954  0.644349  0.644349  1
  Ti  Ti1  1  0.644349  0.066954  0.644349  1
  Ti  Ti2  1  0.644349  0.644349  0.644349  1
  Ti  Ti3  1  0.644349  0.644349  0.066954  1
  Ti  Ti4  1  0.435949  0.435949  0.064051  1
  Ti  Ti5  1  0.064051  0.064051  0.435949  1
  Ti  Ti6  1  0.435949  0.064051  0.064051  1
  Ti  Ti7  1  0.064051  0.435949  0.435949  1
  Ti  Ti8  1  0.064051  0.435949  0.064051  1
  Ti  Ti9  1  0.435949  0.064051  0.435949  1
  Ti  Ti10  1  0.805581  0.805581  0.194418  1
  Ti  Ti11  1  0.194419  0.194419  0.805581  1
  Ti  Ti12  1  0.805581  0.194418  0.194418  1
  Ti  Ti13  1  0.194418  0.805581  0.805581  1
  Ti  Ti14  1  0.194419  0.805581  0.194419  1
  Ti  Ti15  1  0.805581  0.194419  0.805581  1
  Co  Co16  1  0.429678  0.856774  0.856774  1
  Co  Co17  1  0.856774  0.429678  0.856774  1
  Co  Co18  1  0.856774  0.856774  0.856774  1
  Co  Co19  1  0.856774  0.856774  0.429678  1
  Ir  Ir20  1  0.758448  0.413851  0.413851  1
  Ir  Ir21  1  0.413851  0.758448  0.413851  1
  Ir  Ir22  1  0.413851  0.413851  0.413851  1
  Ir  Ir23  1  0.413851  0.413851  0.758448  1
