# generated using pymatgen
data_Ce4Bi2TePb2
_symmetry_space_group_name_H-M   'P 1'
_cell_length_a   5.55687300
_cell_length_b   5.55687296
_cell_length_c   16.80192300
_cell_angle_alpha   90.00000000
_cell_angle_beta   90.00000000
_cell_angle_gamma   119.99998240
_symmetry_Int_Tables_number   1
_chemical_formula_structural   Ce4Bi2TePb2
_chemical_formula_sum   'Ce4 Bi2 Te1 Pb2'
_cell_volume   449.31471097
_cell_formula_units_Z   1
loop_
 _symmetry_equiv_pos_site_id
 _symmetry_equiv_pos_as_xyz
  1  'x, y, z'
loop_
 _atom_site_type_symbol
 _atom_site_label
 _atom_site_symmetry_multiplicity
 _atom_site_fract_x
 _atom_site_fract_y
 _atom_site_fract_z
 _atom_site_occupancy
  Ce  Ce0  1  0.666667  0.333333  0.535566  1
  Ce  Ce1  1  0.666667  0.333333  0.224093  1
  Ce  Ce2  1  0.333333  0.666667  0.788182  1
  Ce  Ce3  1  0.000000  0.000000  0.030508  1
  Bi  Bi4  1  0.333333  0.666667  0.117979  1
  Bi  Bi5  1  0.666667  0.333333  0.901076  1
  Te  Te6  1  0.333333  0.666667  0.434663  1
  Pb  Pb7  1  0.000000  0.000000  0.369178  1
  Pb  Pb8  1  0.000000  0.000000  0.598754  1
