# generated using pymatgen
data_Sr6URhO12
_symmetry_space_group_name_H-M   'P 1'
_cell_length_a   7.00797099
_cell_length_b   7.00797114
_cell_length_c   7.00797099
_cell_angle_alpha   93.29380973
_cell_angle_beta   93.29380940
_cell_angle_gamma   93.29380865
_symmetry_Int_Tables_number   1
_chemical_formula_structural   Sr6URhO12
_chemical_formula_sum   'Sr6 U1 Rh1 O12'
_cell_volume   342.39894276
_cell_formula_units_Z   1
loop_
 _symmetry_equiv_pos_site_id
 _symmetry_equiv_pos_as_xyz
  1  'x, y, z'
loop_
 _atom_site_type_symbol
 _atom_site_label
 _atom_site_symmetry_multiplicity
 _atom_site_fract_x
 _atom_site_fract_y
 _atom_site_fract_z
 _atom_site_occupancy
  Sr  Sr0  1  0.073895  0.263145  0.566343  1
  Sr  Sr1  1  0.433657  0.926105  0.736855  1
  Sr  Sr2  1  0.736855  0.433657  0.926105  1
  Sr  Sr3  1  0.263145  0.566343  0.073895  1
  Sr  Sr4  1  0.566343  0.073895  0.263145  1
  Sr  Sr5  1  0.926105  0.736855  0.433657  1
  U  U6  1  0.000000  0.000000  0.000000  1
  Rh  Rh7  1  0.500000  0.500000  0.500000  1
  O  O8  1  0.062243  0.286687  0.936117  1
  O  O9  1  0.063883  0.937757  0.713313  1
  O  O10  1  0.453105  0.575418  0.770139  1
  O  O11  1  0.713313  0.063883  0.937757  1
  O  O12  1  0.229861  0.546895  0.424582  1
  O  O13  1  0.424582  0.229861  0.546895  1
  O  O14  1  0.575418  0.770139  0.453105  1
  O  O15  1  0.770139  0.453105  0.575418  1
  O  O16  1  0.286687  0.936117  0.062243  1
  O  O17  1  0.546895  0.424582  0.229861  1
  O  O18  1  0.936117  0.062243  0.286687  1
  O  O19  1  0.937757  0.713313  0.063883  1
