# generated using pymatgen
data_NdTm15In6NiPt
_symmetry_space_group_name_H-M   'P 1'
_cell_length_a   10.31671300
_cell_length_b   10.31671451
_cell_length_c   6.91463300
_cell_angle_alpha   90.00000000
_cell_angle_beta   90.00000000
_cell_angle_gamma   119.99999835
_symmetry_Int_Tables_number   1
_chemical_formula_structural   NdTm15In6NiPt
_chemical_formula_sum   'Nd1 Tm15 In6 Ni1 Pt1'
_cell_volume   637.35667028
_cell_formula_units_Z   1
loop_
 _symmetry_equiv_pos_site_id
 _symmetry_equiv_pos_as_xyz
  1  'x, y, z'
loop_
 _atom_site_type_symbol
 _atom_site_label
 _atom_site_symmetry_multiplicity
 _atom_site_fract_x
 _atom_site_fract_y
 _atom_site_fract_z
 _atom_site_occupancy
  Nd  Nd0  1  0.000000  0.000000  0.989227  1
  Tm  Tm1  1  0.530594  0.061187  0.508241  1
  Tm  Tm2  1  0.938813  0.469406  0.508241  1
  Tm  Tm3  1  0.530594  0.469406  0.508241  1
  Tm  Tm4  1  0.465861  0.931723  0.008382  1
  Tm  Tm5  1  0.068277  0.534139  0.008382  1
  Tm  Tm6  1  0.465861  0.534139  0.008382  1
  Tm  Tm7  1  0.178048  0.356095  0.712574  1
  Tm  Tm8  1  0.643905  0.821952  0.712574  1
  Tm  Tm9  1  0.178048  0.821952  0.712574  1
  Tm  Tm10  1  0.823924  0.647848  0.214427  1
  Tm  Tm11  1  0.352152  0.176076  0.214427  1
  Tm  Tm12  1  0.823924  0.176076  0.214427  1
  Tm  Tm13  1  0.666667  0.333333  0.882853  1
  Tm  Tm14  1  0.333333  0.666667  0.394793  1
  Tm  Tm15  1  0.000000  0.000000  0.491643  1
  In  In16  1  0.836763  0.673526  0.747502  1
  In  In17  1  0.326474  0.163237  0.747502  1
  In  In18  1  0.836763  0.163237  0.747502  1
  In  In19  1  0.164147  0.328295  0.254809  1
  In  In20  1  0.671705  0.835853  0.254809  1
  In  In21  1  0.164147  0.835853  0.254809  1
  Ni  Ni22  1  0.333333  0.666667  0.780729  1
  Pt  Pt23  1  0.666667  0.333333  0.280990  1
