# generated using pymatgen
data_Er3Sn3PtRh2
_symmetry_space_group_name_H-M   'P 1'
_cell_length_a   7.62808300
_cell_length_b   7.62808254
_cell_length_c   3.76266800
_cell_angle_alpha   90.00000000
_cell_angle_beta   90.00000000
_cell_angle_gamma   119.99998897
_symmetry_Int_Tables_number   1
_chemical_formula_structural   Er3Sn3PtRh2
_chemical_formula_sum   'Er3 Sn3 Pt1 Rh2'
_cell_volume   189.60831280
_cell_formula_units_Z   1
loop_
 _symmetry_equiv_pos_site_id
 _symmetry_equiv_pos_as_xyz
  1  'x, y, z'
loop_
 _atom_site_type_symbol
 _atom_site_label
 _atom_site_symmetry_multiplicity
 _atom_site_fract_x
 _atom_site_fract_y
 _atom_site_fract_z
 _atom_site_occupancy
  Er  Er0  1  0.401833  0.405057  0.000000  1
  Er  Er1  1  0.003224  0.598167  0.000000  1
  Er  Er2  1  0.594943  0.996776  0.000000  1
  Sn  Sn3  1  0.734608  0.738615  0.500000  1
  Sn  Sn4  1  0.004008  0.265392  0.500000  1
  Sn  Sn5  1  0.261385  0.995992  0.500000  1
  Pt  Pt6  1  0.666667  0.333333  0.500000  1
  Rh  Rh7  1  0.000000  0.000000  0.000000  1
  Rh  Rh8  1  0.333333  0.666667  0.500000  1
