# generated using pymatgen
data_Lu5Hg2Bi
_symmetry_space_group_name_H-M   'P 1'
_cell_length_a   8.69750509
_cell_length_b   8.69750573
_cell_length_c   8.69750495
_cell_angle_alpha   124.64727474
_cell_angle_beta   124.64727508
_cell_angle_gamma   82.12308131
_symmetry_Int_Tables_number   1
_chemical_formula_structural   Lu5Hg2Bi
_chemical_formula_sum   'Lu10 Hg4 Bi2'
_cell_volume   428.10071242
_cell_formula_units_Z   2
loop_
 _symmetry_equiv_pos_site_id
 _symmetry_equiv_pos_as_xyz
  1  'x, y, z'
loop_
 _atom_site_type_symbol
 _atom_site_label
 _atom_site_symmetry_multiplicity
 _atom_site_fract_x
 _atom_site_fract_y
 _atom_site_fract_z
 _atom_site_occupancy
  Lu  Lu0  1  0.000000  0.000000  0.000000  1
  Lu  Lu1  1  0.500000  0.500000  0.000000  1
  Lu  Lu2  1  0.799430  0.299430  0.804991  1
  Lu  Lu3  1  0.200570  0.700570  0.195009  1
  Lu  Lu4  1  0.494440  0.994440  0.195009  1
  Lu  Lu5  1  0.299430  0.494440  0.500000  1
  Lu  Lu6  1  0.005560  0.200570  0.500000  1
  Lu  Lu7  1  0.505560  0.005560  0.804991  1
  Lu  Lu8  1  0.700570  0.505560  0.500000  1
  Lu  Lu9  1  0.994440  0.799430  0.500000  1
  Hg  Hg10  1  0.139722  0.639722  0.779444  1
  Hg  Hg11  1  0.860278  0.360278  0.220556  1
  Hg  Hg12  1  0.639722  0.860278  0.500000  1
  Hg  Hg13  1  0.360278  0.139722  0.500000  1
  Bi  Bi14  1  0.250000  0.250000  0.000000  1
  Bi  Bi15  1  0.750000  0.750000  0.000000  1
