# generated using pymatgen
data_Th4Zn3Au10
_symmetry_space_group_name_H-M   'P 1'
_cell_length_a   8.65947514
_cell_length_b   8.65947655
_cell_length_c   10.25417400
_cell_angle_alpha   90.00023335
_cell_angle_beta   89.99990178
_cell_angle_gamma   109.08619125
_symmetry_Int_Tables_number   1
_chemical_formula_structural   Th4Zn3Au10
_chemical_formula_sum   'Th8 Zn6 Au20'
_cell_volume   726.65531190
_cell_formula_units_Z   2
loop_
 _symmetry_equiv_pos_site_id
 _symmetry_equiv_pos_as_xyz
  1  'x, y, z'
loop_
 _atom_site_type_symbol
 _atom_site_label
 _atom_site_symmetry_multiplicity
 _atom_site_fract_x
 _atom_site_fract_y
 _atom_site_fract_z
 _atom_site_occupancy
  Th  Th0  1  0.702653  0.297348  0.000000  1
  Th  Th1  1  0.202652  0.797347  0.500000  1
  Th  Th2  1  0.798972  0.798972  0.298045  1
  Th  Th3  1  0.298972  0.298971  0.201955  1
  Th  Th4  1  0.797348  0.202653  0.500000  1
  Th  Th5  1  0.297347  0.702652  0.000000  1
  Th  Th6  1  0.701028  0.701029  0.798045  1
  Th  Th7  1  0.201028  0.201028  0.701955  1
  Zn  Zn8  1  0.516070  0.016071  0.250000  1
  Zn  Zn9  1  0.983930  0.483929  0.750000  1
  Zn  Zn10  1  0.000000  0.000000  0.000000  1
  Zn  Zn11  1  0.016070  0.516071  0.250000  1
  Zn  Zn12  1  0.483930  0.983929  0.750000  1
  Zn  Zn13  1  0.500000  0.500000  0.500000  1
  Au  Au14  1  0.164086  0.431758  0.469685  1
  Au  Au15  1  0.905962  0.905961  0.596734  1
  Au  Au16  1  0.568242  0.835914  0.530316  1
  Au  Au17  1  0.891211  0.173129  0.209267  1
  Au  Au18  1  0.391211  0.673129  0.290733  1
  Au  Au19  1  0.673129  0.391211  0.290732  1
  Au  Au20  1  0.405962  0.405961  0.903266  1
  Au  Au21  1  0.931758  0.664086  0.030316  1
  Au  Au22  1  0.326871  0.608789  0.709268  1
  Au  Au23  1  0.335915  0.068242  0.969685  1
  Au  Au24  1  0.594038  0.594039  0.096734  1
  Au  Au25  1  0.664085  0.931758  0.030315  1
  Au  Au26  1  0.094038  0.094039  0.403266  1
  Au  Au27  1  0.608789  0.326871  0.709267  1
  Au  Au28  1  0.108789  0.826871  0.790733  1
  Au  Au29  1  0.068242  0.335914  0.969684  1
  Au  Au30  1  0.835914  0.568242  0.530315  1
  Au  Au31  1  0.173128  0.891211  0.209268  1
  Au  Au32  1  0.431758  0.164086  0.469684  1
  Au  Au33  1  0.826872  0.108789  0.790732  1
