# generated using pymatgen
data_Li2La3AlIr3
_symmetry_space_group_name_H-M   'P 1'
_cell_length_a   7.32066403
_cell_length_b   7.32066351
_cell_length_c   4.16961500
_cell_angle_alpha   90.00000000
_cell_angle_beta   90.00000000
_cell_angle_gamma   120.64516567
_symmetry_Int_Tables_number   1
_chemical_formula_structural   Li2La3AlIr3
_chemical_formula_sum   'Li2 La3 Al1 Ir3'
_cell_volume   192.25039406
_cell_formula_units_Z   1
loop_
 _symmetry_equiv_pos_site_id
 _symmetry_equiv_pos_as_xyz
  1  'x, y, z'
loop_
 _atom_site_type_symbol
 _atom_site_label
 _atom_site_symmetry_multiplicity
 _atom_site_fract_x
 _atom_site_fract_y
 _atom_site_fract_z
 _atom_site_occupancy
  Li  Li0  1  0.229737  0.999420  0.000000  1
  Li  Li1  1  0.999420  0.229736  0.000000  1
  La  La2  1  0.588724  0.002516  0.500000  1
  La  La3  1  0.414033  0.414033  0.500000  1
  La  La4  1  0.002516  0.588723  0.500000  1
  Al  Al5  1  0.768649  0.768650  0.000000  1
  Ir  Ir6  1  0.673982  0.358576  0.000000  1
  Ir  Ir7  1  0.358576  0.673982  0.000000  1
  Ir  Ir8  1  0.964365  0.964365  0.500000  1
