# generated using pymatgen
data_Li12La12TaW7O48
_symmetry_space_group_name_H-M   'P 1'
_cell_length_a   11.04858013
_cell_length_b   11.04858059
_cell_length_c   11.06585800
_cell_angle_alpha   109.50290482
_cell_angle_beta   109.50290566
_cell_angle_gamma   109.43951879
_symmetry_Int_Tables_number   1
_chemical_formula_structural   Li12La12TaW7O48
_chemical_formula_sum   'Li12 La12 Ta1 W7 O48'
_cell_volume   1039.45616807
_cell_formula_units_Z   1
loop_
 _symmetry_equiv_pos_site_id
 _symmetry_equiv_pos_as_xyz
  1  'x, y, z'
loop_
 _atom_site_type_symbol
 _atom_site_label
 _atom_site_symmetry_multiplicity
 _atom_site_fract_x
 _atom_site_fract_y
 _atom_site_fract_z
 _atom_site_occupancy
  Li  Li0  1  0.750043  0.375122  0.125157  1
  Li  Li1  1  0.874921  0.750043  0.124886  1
  Li  Li2  1  0.125805  0.375062  0.249906  1
  Li  Li3  1  0.624878  0.874921  0.250035  1
  Li  Li4  1  0.624938  0.250743  0.374844  1
  Li  Li5  1  0.250743  0.125805  0.375899  1
  Li  Li6  1  0.375062  0.749257  0.625156  1
  Li  Li7  1  0.749257  0.874194  0.624101  1
  Li  Li8  1  0.375122  0.125079  0.749965  1
  Li  Li9  1  0.874194  0.624938  0.750094  1
  Li  Li10  1  0.125078  0.249956  0.875113  1
  Li  Li11  1  0.249957  0.624878  0.874843  1
  La  La12  1  0.250124  0.874831  0.125026  1
  La  La13  1  0.376461  0.252564  0.128187  1
  La  La14  1  0.874831  0.124705  0.249803  1
  La  La15  1  0.376103  0.623539  0.251727  1
  La  La16  1  0.124706  0.749875  0.374902  1
  La  La17  1  0.747436  0.623897  0.375623  1
  La  La18  1  0.875294  0.250125  0.625098  1
  La  La19  1  0.252564  0.376103  0.624377  1
  La  La20  1  0.623897  0.376461  0.748273  1
  La  La21  1  0.125168  0.875294  0.750196  1
  La  La22  1  0.623539  0.747436  0.871812  1
  La  La23  1  0.749875  0.125168  0.874973  1
  Ta  Ta24  1  0.500001  0.500001  0.500001  1
  W  W25  1  0.000000  0.000000  0.000000  1
  W  W26  1  0.500001  0.000000  0.000000  1
  W  W27  1  0.500000  0.500000  0.000000  1
  W  W28  1  0.000000  0.500001  0.000000  1
  W  W29  1  0.500000  0.000000  0.500000  1
  W  W30  1  0.000000  0.500000  0.500000  1
  W  W31  1  0.000000  0.000000  0.500001  1
  O  O32  1  0.328947  0.407810  0.021241  1
  O  O33  1  0.192567  0.613855  0.021637  1
  O  O34  1  0.886424  0.908330  0.079084  1
  O  O35  1  0.693321  0.171159  0.079322  1
  O  O36  1  0.613856  0.921288  0.092219  1
  O  O37  1  0.977340  0.170730  0.091758  1
  O  O38  1  0.022163  0.693321  0.113999  1
  O  O39  1  0.592190  0.421137  0.113431  1
  O  O40  1  0.192719  0.078641  0.170923  1
  O  O41  1  0.477467  0.091039  0.170517  1
  O  O42  1  0.113572  0.522532  0.193050  1
  O  O43  1  0.578863  0.671054  0.192294  1
  O  O44  1  0.326755  0.420026  0.301096  1
  O  O45  1  0.478095  0.886425  0.307340  1
  O  O46  1  0.921288  0.807433  0.329068  1
  O  O47  1  0.908330  0.521905  0.329246  1
  O  O48  1  0.579973  0.406730  0.381069  1
  O  O49  1  0.306609  0.977340  0.385581  1
  O  O50  1  0.828841  0.022163  0.408163  1
  O  O51  1  0.078641  0.385922  0.407720  1
  O  O52  1  0.091039  0.113572  0.420522  1
  O  O53  1  0.829271  0.306609  0.421029  1
  O  O54  1  0.593270  0.673244  0.474340  1
  O  O55  1  0.385922  0.807281  0.478202  1
  O  O56  1  0.614078  0.192719  0.521797  1
  O  O57  1  0.406730  0.326755  0.525659  1
  O  O58  1  0.170730  0.693391  0.578971  1
  O  O59  1  0.908961  0.886427  0.579477  1
  O  O60  1  0.171159  0.977838  0.591837  1
  O  O61  1  0.921359  0.614078  0.592280  1
  O  O62  1  0.420026  0.593270  0.618930  1
  O  O63  1  0.693391  0.022661  0.614419  1
  O  O64  1  0.078713  0.192567  0.670931  1
  O  O65  1  0.091671  0.478095  0.670755  1
  O  O66  1  0.673244  0.579973  0.698904  1
  O  O67  1  0.521905  0.113576  0.692660  1
  O  O68  1  0.886427  0.477467  0.806949  1
  O  O69  1  0.421137  0.328947  0.807706  1
  O  O70  1  0.522532  0.908961  0.829483  1
  O  O71  1  0.807281  0.921359  0.829078  1
  O  O72  1  0.977837  0.306679  0.886000  1
  O  O73  1  0.407810  0.578863  0.886570  1
  O  O74  1  0.386144  0.078713  0.907781  1
  O  O75  1  0.022661  0.829271  0.908242  1
  O  O76  1  0.113575  0.091670  0.920916  1
  O  O77  1  0.306679  0.828842  0.920679  1
  O  O78  1  0.807433  0.386144  0.978364  1
  O  O79  1  0.671054  0.592190  0.978760  1
