# generated using pymatgen
data_Eu5Th(BN2)6
_symmetry_space_group_name_H-M   'P 1'
_cell_length_a   7.34301868
_cell_length_b   7.34301771
_cell_length_c   7.35990318
_cell_angle_alpha   110.24371808
_cell_angle_beta   110.24371717
_cell_angle_gamma   110.45828549
_symmetry_Int_Tables_number   1
_chemical_formula_structural   Eu5Th(BN2)6
_chemical_formula_sum   'Eu5 Th1 B6 N12'
_cell_volume   295.55949068
_cell_formula_units_Z   1
loop_
 _symmetry_equiv_pos_site_id
 _symmetry_equiv_pos_as_xyz
  1  'x, y, z'
loop_
 _atom_site_type_symbol
 _atom_site_label
 _atom_site_symmetry_multiplicity
 _atom_site_fract_x
 _atom_site_fract_y
 _atom_site_fract_z
 _atom_site_occupancy
  Eu  Eu0  1  0.758623  0.303623  0.210895  1
  Eu  Eu1  1  0.196377  0.741377  0.289105  1
  Eu  Eu2  1  0.250763  0.704916  0.803821  1
  Eu  Eu3  1  0.795084  0.249237  0.696179  1
  Eu  Eu4  1  0.698737  0.801263  0.250000  1
  Th  Th5  1  0.300660  0.199340  0.750000  1
  B  B6  1  0.626834  0.873166  0.750000  1
  B  B7  1  0.744819  0.627894  0.867629  1
  B  B8  1  0.872106  0.755181  0.632371  1
  B  B9  1  0.248027  0.365745  0.126730  1
  B  B10  1  0.134255  0.251973  0.373270  1
  B  B11  1  0.373276  0.126724  0.250000  1
  N  N12  1  0.871506  0.628494  0.750000  1
  N  N13  1  0.750807  0.877358  0.629590  1
  N  N14  1  0.622642  0.749193  0.870410  1
  N  N15  1  0.261204  0.133676  0.381703  1
  N  N16  1  0.366324  0.238796  0.118297  1
  N  N17  1  0.128876  0.371124  0.250000  1
  N  N18  1  0.504546  0.995454  0.750000  1
  N  N19  1  0.736215  0.499653  0.984432  1
  N  N20  1  0.000347  0.763785  0.515568  1
  N  N21  1  0.248484  0.484829  0.002129  1
  N  N22  1  0.015171  0.251516  0.497871  1
  N  N23  1  0.494316  0.005684  0.250000  1
