# generated using pymatgen
data_TbYHo2(MoN3)4
_symmetry_space_group_name_H-M   'P 1'
_cell_length_a   7.31482043
_cell_length_b   7.31481874
_cell_length_c   6.26886733
_cell_angle_alpha   73.68343280
_cell_angle_beta   73.68342603
_cell_angle_gamma   81.61329970
_symmetry_Int_Tables_number   1
_chemical_formula_structural   TbYHo2(MoN3)4
_chemical_formula_sum   'Tb1 Y1 Ho2 Mo4 N12'
_cell_volume   308.13404399
_cell_formula_units_Z   1
loop_
 _symmetry_equiv_pos_site_id
 _symmetry_equiv_pos_as_xyz
  1  'x, y, z'
loop_
 _atom_site_type_symbol
 _atom_site_label
 _atom_site_symmetry_multiplicity
 _atom_site_fract_x
 _atom_site_fract_y
 _atom_site_fract_z
 _atom_site_occupancy
  Tb  Tb0  1  0.705275  0.294725  0.250000  1
  Y  Y1  1  0.295095  0.704905  0.750000  1
  Ho  Ho2  1  0.913609  0.086391  0.750000  1
  Ho  Ho3  1  0.087618  0.912382  0.250000  1
  Mo  Mo4  1  0.800551  0.619258  0.767824  1
  Mo  Mo5  1  0.198887  0.380728  0.231821  1
  Mo  Mo6  1  0.619272  0.801113  0.268179  1
  Mo  Mo7  1  0.380742  0.199449  0.732176  1
  N  N8  1  0.218652  0.999559  0.848624  1
  N  N9  1  0.363075  0.349941  0.438992  1
  N  N10  1  0.635735  0.649752  0.561452  1
  N  N11  1  0.624703  0.110927  0.663019  1
  N  N12  1  0.000441  0.781348  0.651376  1
  N  N13  1  0.782397  0.000142  0.151938  1
  N  N14  1  0.108991  0.624277  0.162575  1
  N  N15  1  0.889073  0.375297  0.836981  1
  N  N16  1  0.999858  0.217603  0.348062  1
  N  N17  1  0.350248  0.364265  0.938548  1
  N  N18  1  0.650059  0.636925  0.061008  1
  N  N19  1  0.375723  0.891009  0.337425  1
