# generated using pymatgen
data_Hf2NbSbPb4O13
_symmetry_space_group_name_H-M   'P 1'
_cell_length_a   7.60049455
_cell_length_b   7.62540547
_cell_length_c   7.60049525
_cell_angle_alpha   119.93801723
_cell_angle_beta   119.81997750
_cell_angle_gamma   90.11564245
_symmetry_Int_Tables_number   1
_chemical_formula_structural   Hf2NbSbPb4O13
_chemical_formula_sum   'Hf2 Nb1 Sb1 Pb4 O13'
_cell_volume   312.30433907
_cell_formula_units_Z   1
loop_
 _symmetry_equiv_pos_site_id
 _symmetry_equiv_pos_as_xyz
  1  'x, y, z'
loop_
 _atom_site_type_symbol
 _atom_site_label
 _atom_site_symmetry_multiplicity
 _atom_site_fract_x
 _atom_site_fract_y
 _atom_site_fract_z
 _atom_site_occupancy
  Hf  Hf0  1  0.748891  0.999000  0.748615  1
  Hf  Hf1  1  0.250384  0.999000  0.250109  1
  Nb  Nb2  1  0.748938  0.497536  0.748598  1
  Sb  Sb3  1  0.749705  0.999920  0.250214  1
  Pb  Pb4  1  0.249345  0.500307  0.749912  1
  Pb  Pb5  1  0.750395  0.500307  0.250963  1
  Pb  Pb6  1  0.249504  0.497107  0.247601  1
  Pb  Pb7  1  0.248731  0.999935  0.751203  1
  O  O8  1  0.079423  0.077896  0.998473  1
  O  O9  1  0.683793  0.685146  0.001353  1
  O  O10  1  0.682060  0.075997  0.011604  1
  O  O11  1  0.066443  0.671937  0.988232  1
  O  O12  1  0.064393  0.075997  0.393938  1
  O  O13  1  0.683705  0.671937  0.605493  1
  O  O14  1  0.425301  0.928336  0.503035  1
  O  O15  1  0.814273  0.313732  0.499459  1
  O  O16  1  0.815468  0.926649  0.489453  1
  O  O17  1  0.436588  0.324725  0.512347  1
  O  O18  1  0.437197  0.926649  0.111182  1
  O  O19  1  0.812378  0.324725  0.888137  1
  O  O20  1  0.378085  0.378163  0.000078  1
