# generated using pymatgen
data_Y4Er4Tc3B24Rh
_symmetry_space_group_name_H-M   'P 1'
_cell_length_a   3.67047600
_cell_length_b   9.14176979
_cell_length_c   11.53352802
_cell_angle_alpha   90.13127006
_cell_angle_beta   90.00000000
_cell_angle_gamma   90.00000000
_symmetry_Int_Tables_number   1
_chemical_formula_structural   Y4Er4Tc3B24Rh
_chemical_formula_sum   'Y4 Er4 Tc3 B24 Rh1'
_cell_volume   387.00244110
_cell_formula_units_Z   1
loop_
 _symmetry_equiv_pos_site_id
 _symmetry_equiv_pos_as_xyz
  1  'x, y, z'
loop_
 _atom_site_type_symbol
 _atom_site_label
 _atom_site_symmetry_multiplicity
 _atom_site_fract_x
 _atom_site_fract_y
 _atom_site_fract_z
 _atom_site_occupancy
  Y  Y0  1  0.500000  0.318435  0.415947  1
  Y  Y1  1  0.500000  0.678136  0.590884  1
  Y  Y2  1  0.500000  0.177415  0.912848  1
  Y  Y3  1  0.500000  0.826840  0.081409  1
  Er  Er4  1  0.500000  0.440527  0.129015  1
  Er  Er5  1  0.500000  0.557027  0.870914  1
  Er  Er6  1  0.500000  0.056181  0.629736  1
  Er  Er7  1  0.500000  0.943971  0.369641  1
  Tc  Tc8  1  0.500000  0.138960  0.180721  1
  Tc  Tc9  1  0.500000  0.861162  0.820209  1
  Tc  Tc10  1  0.500000  0.362130  0.678436  1
  B  B11  1  0.000000  0.100712  0.471629  1
  B  B12  1  0.000000  0.896256  0.527862  1
  B  B13  1  0.000000  0.398093  0.972289  1
  B  B14  1  0.000000  0.602940  0.028995  1
  B  B15  1  0.000000  0.130423  0.315081  1
  B  B16  1  0.000000  0.868846  0.685326  1
  B  B17  1  0.000000  0.369668  0.814325  1
  B  B18  1  0.000000  0.631199  0.183952  1
  B  B19  1  0.000000  0.053960  0.066934  1
  B  B20  1  0.000000  0.946942  0.932209  1
  B  B21  1  0.000000  0.446155  0.566957  1
  B  B22  1  0.000000  0.554209  0.433469  1
  B  B23  1  0.000000  0.483191  0.287529  1
  B  B24  1  0.000000  0.517909  0.712685  1
  B  B25  1  0.000000  0.017378  0.786792  1
  B  B26  1  0.000000  0.983039  0.212210  1
  B  B27  1  0.000000  0.249649  0.081636  1
  B  B28  1  0.000000  0.751262  0.918552  1
  B  B29  1  0.000000  0.249931  0.581369  1
  B  B30  1  0.000000  0.749636  0.419783  1
  B  B31  1  0.000000  0.291920  0.235196  1
  B  B32  1  0.000000  0.708001  0.765934  1
  B  B33  1  0.000000  0.208254  0.734109  1
  B  B34  1  0.000000  0.791380  0.265123  1
  Rh  Rh35  1  0.500000  0.638267  0.320293  1
