# generated using pymatgen
data_K16TiGe7P4(O4F9)4
_symmetry_space_group_name_H-M   'P 1'
_cell_length_a   10.88364700
_cell_length_b   5.78862513
_cell_length_c   19.97785300
_cell_angle_alpha   74.14203963
_cell_angle_beta   90.00000000
_cell_angle_gamma   90.00000000
_symmetry_Int_Tables_number   1
_chemical_formula_structural   K16TiGe7P4(O4F9)4
_chemical_formula_sum   'K16 Ti1 Ge7 P4 O16 F36'
_cell_volume   1210.73083155
_cell_formula_units_Z   1
loop_
 _symmetry_equiv_pos_site_id
 _symmetry_equiv_pos_as_xyz
  1  'x, y, z'
loop_
 _atom_site_type_symbol
 _atom_site_label
 _atom_site_symmetry_multiplicity
 _atom_site_fract_x
 _atom_site_fract_y
 _atom_site_fract_z
 _atom_site_occupancy
  K  K0  1  0.047071  0.653509  0.833902  1
  K  K1  1  0.452437  0.654578  0.332037  1
  K  K2  1  0.269862  0.457998  0.514963  1
  K  K3  1  0.730138  0.542002  0.485037  1
  K  K4  1  0.758659  0.127663  0.860081  1
  K  K5  1  0.769078  0.543142  0.984382  1
  K  K6  1  0.457260  0.634990  0.850765  1
  K  K7  1  0.040213  0.634321  0.349932  1
  K  K8  1  0.241341  0.872337  0.139919  1
  K  K9  1  0.959787  0.365679  0.650068  1
  K  K10  1  0.542740  0.365010  0.149235  1
  K  K11  1  0.547563  0.345422  0.667963  1
  K  K12  1  0.257922  0.871056  0.641211  1
  K  K13  1  0.230922  0.456858  0.015618  1
  K  K14  1  0.742078  0.128944  0.358789  1
  K  K15  1  0.952929  0.346491  0.166098  1
  Ti  Ti16  1  0.500000  0.000000  0.500000  1
  Ge  Ge17  1  0.000000  0.000000  0.500000  1
  Ge  Ge18  1  0.748128  0.721154  0.754146  1
  Ge  Ge19  1  0.251872  0.278846  0.245854  1
  Ge  Ge20  1  0.246343  0.277099  0.747481  1
  Ge  Ge21  1  0.500000  0.000000  0.000000  1
  Ge  Ge22  1  0.000000  0.000000  0.000000  1
  Ge  Ge23  1  0.753657  0.722901  0.252519  1
  P  P24  1  0.758194  0.952556  0.593021  1
  P  P25  1  0.252559  0.046088  0.909332  1
  P  P26  1  0.747441  0.953912  0.090668  1
  P  P27  1  0.241806  0.047444  0.406979  1
  O  O28  1  0.163312  0.079309  0.968048  1
  O  O29  1  0.381125  0.131174  0.929700  1
  O  O30  1  0.749296  0.202734  0.100119  1
  O  O31  1  0.618875  0.868826  0.070300  1
  O  O32  1  0.836688  0.920691  0.031952  1
  O  O33  1  0.244018  0.798233  0.397705  1
  O  O34  1  0.333520  0.076210  0.464736  1
  O  O35  1  0.214677  0.247232  0.841817  1
  O  O36  1  0.719009  0.750529  0.659922  1
  O  O37  1  0.280991  0.249471  0.340078  1
  O  O38  1  0.113154  0.132893  0.427142  1
  O  O39  1  0.250704  0.797266  0.899881  1
  O  O40  1  0.666480  0.923790  0.535264  1
  O  O41  1  0.755982  0.201767  0.602295  1
  O  O42  1  0.886846  0.867107  0.572858  1
  O  O43  1  0.785323  0.752768  0.158183  1
  F  F44  1  0.964068  0.855228  0.931364  1
  F  F45  1  0.443225  0.705653  0.560125  1
  F  F46  1  0.770602  0.663777  0.849960  1
  F  F47  1  0.130621  0.054724  0.257937  1
  F  F48  1  0.128784  0.514903  0.726129  1
  F  F49  1  0.136670  0.515257  0.241344  1
  F  F50  1  0.035932  0.144772  0.068636  1
  F  F51  1  0.367827  0.053260  0.759729  1
  F  F52  1  0.898637  0.252661  0.458410  1
  F  F53  1  0.944690  0.286294  0.942503  1
  F  F54  1  0.462009  0.150917  0.570180  1
  F  F55  1  0.869379  0.945276  0.742063  1
  F  F56  1  0.370350  0.514929  0.224673  1
  F  F57  1  0.362085  0.512461  0.743220  1
  F  F58  1  0.927589  0.825629  0.445860  1
  F  F59  1  0.868673  0.945997  0.258877  1
  F  F60  1  0.731605  0.664934  0.348519  1
  F  F61  1  0.101363  0.747339  0.541590  1
  F  F62  1  0.072411  0.174371  0.554140  1
  F  F63  1  0.402127  0.743567  0.043097  1
  F  F64  1  0.537991  0.849083  0.429820  1
  F  F65  1  0.556775  0.294347  0.439875  1
  F  F66  1  0.632173  0.946740  0.240271  1
  F  F67  1  0.268395  0.335066  0.651481  1
  F  F68  1  0.429978  0.170773  0.055772  1
  F  F69  1  0.863330  0.484743  0.758656  1
  F  F70  1  0.131327  0.054003  0.741123  1
  F  F71  1  0.055310  0.713706  0.057497  1
  F  F72  1  0.229398  0.336223  0.150040  1
  F  F73  1  0.871216  0.485097  0.273871  1
  F  F74  1  0.632700  0.944427  0.759946  1
  F  F75  1  0.637915  0.487539  0.256780  1
  F  F76  1  0.597873  0.256433  0.956903  1
  F  F77  1  0.367300  0.055573  0.240054  1
  F  F78  1  0.570022  0.829227  0.944228  1
  F  F79  1  0.629650  0.485071  0.775327  1
