# generated using pymatgen
data_Lu4Al4IrPt2Rh
_symmetry_space_group_name_H-M   'P 1'
_cell_length_a   4.26862300
_cell_length_b   6.72042009
_cell_length_c   7.85271410
_cell_angle_alpha   90.01829026
_cell_angle_beta   90.00000000
_cell_angle_gamma   90.00000000
_symmetry_Int_Tables_number   1
_chemical_formula_structural   Lu4Al4IrPt2Rh
_chemical_formula_sum   'Lu4 Al4 Ir1 Pt2 Rh1'
_cell_volume   225.27032476
_cell_formula_units_Z   1
loop_
 _symmetry_equiv_pos_site_id
 _symmetry_equiv_pos_as_xyz
  1  'x, y, z'
loop_
 _atom_site_type_symbol
 _atom_site_label
 _atom_site_symmetry_multiplicity
 _atom_site_fract_x
 _atom_site_fract_y
 _atom_site_fract_z
 _atom_site_occupancy
  Lu  Lu0  1  0.250000  0.034786  0.676196  1
  Lu  Lu1  1  0.250000  0.534921  0.824268  1
  Lu  Lu2  1  0.750000  0.968222  0.321000  1
  Lu  Lu3  1  0.750000  0.470982  0.178121  1
  Al  Al4  1  0.250000  0.137305  0.060505  1
  Al  Al5  1  0.250000  0.636774  0.438094  1
  Al  Al6  1  0.750000  0.859537  0.942658  1
  Al  Al7  1  0.750000  0.360320  0.557670  1
  Ir  Ir8  1  0.250000  0.763135  0.124046  1
  Pt  Pt9  1  0.750000  0.736079  0.625805  1
  Pt  Pt10  1  0.750000  0.235923  0.874230  1
  Rh  Rh11  1  0.250000  0.262014  0.377407  1
