# generated using pymatgen
data_TbDy4Er7Co5Sn
_symmetry_space_group_name_H-M   'P 1'
_cell_length_a   8.22980540
_cell_length_b   8.23370726
_cell_length_c   8.23370689
_cell_angle_alpha   106.97347879
_cell_angle_beta   110.59629302
_cell_angle_gamma   110.89310205
_symmetry_Int_Tables_number   1
_chemical_formula_structural   TbDy4Er7Co5Sn
_chemical_formula_sum   'Tb1 Dy4 Er7 Co5 Sn1'
_cell_volume   428.77209074
_cell_formula_units_Z   1
loop_
 _symmetry_equiv_pos_site_id
 _symmetry_equiv_pos_as_xyz
  1  'x, y, z'
loop_
 _atom_site_type_symbol
 _atom_site_label
 _atom_site_symmetry_multiplicity
 _atom_site_fract_x
 _atom_site_fract_y
 _atom_site_fract_z
 _atom_site_occupancy
  Tb  Tb0  1  0.475450  0.290502  0.184948  1
  Dy  Dy1  1  0.193697  0.210135  0.404822  1
  Dy  Dy2  1  0.806370  0.790413  0.596223  1
  Dy  Dy3  1  0.193697  0.788876  0.983561  1
  Dy  Dy4  1  0.806370  0.210146  0.015958  1
  Er  Er5  1  0.104744  0.290515  0.814230  1
  Er  Er6  1  0.894880  0.709938  0.184941  1
  Er  Er7  1  0.524886  0.709539  0.815347  1
  Er  Er8  1  0.305573  0.620254  0.314199  1
  Er  Er9  1  0.305573  0.991375  0.685319  1
  Er  Er10  1  0.694457  0.380111  0.686634  1
  Er  Er11  1  0.694457  0.007823  0.314346  1
  Co  Co12  1  0.500133  0.613061  0.112036  1
  Co  Co13  1  0.500133  0.388097  0.887072  1
  Co  Co14  1  0.377380  0.999601  0.377780  1
  Co  Co15  1  0.622351  0.999896  0.622455  1
  Co  Co16  1  0.999420  0.999502  0.999918  1
  Sn  Sn17  1  0.000429  0.500217  0.500212  1
