# generated using pymatgen
data_Zr4Sc2As3
_symmetry_space_group_name_H-M   'P 1'
_cell_length_a   7.35195958
_cell_length_b   3.82906600
_cell_length_c   7.33298925
_cell_angle_alpha   90.00000000
_cell_angle_beta   120.08560887
_cell_angle_gamma   90.00000000
_symmetry_Int_Tables_number   1
_chemical_formula_structural   Zr4Sc2As3
_chemical_formula_sum   'Zr4 Sc2 As3'
_cell_volume   178.62093195
_cell_formula_units_Z   1
loop_
 _symmetry_equiv_pos_site_id
 _symmetry_equiv_pos_as_xyz
  1  'x, y, z'
loop_
 _atom_site_type_symbol
 _atom_site_label
 _atom_site_symmetry_multiplicity
 _atom_site_fract_x
 _atom_site_fract_y
 _atom_site_fract_z
 _atom_site_occupancy
  Zr  Zr0  1  0.409676  0.000000  0.000000  1
  Zr  Zr1  1  0.746954  0.499999  0.000000  1
  Zr  Zr2  1  0.995045  0.000000  0.403828  1
  Zr  Zr3  1  0.591216  0.000000  0.596171  1
  Sc  Sc4  1  0.256511  0.499999  0.255905  1
  Sc  Sc5  1  0.000606  0.499999  0.744093  1
  As  As6  1  0.004013  0.000000  0.000000  1
  As  As7  1  0.666120  0.499999  0.336266  1
  As  As8  1  0.329853  0.499999  0.663732  1
