# generated using pymatgen
data_PrY4(ThS4)3
_symmetry_space_group_name_H-M   'P 1'
_cell_length_a   3.95887400
_cell_length_b   10.54012831
_cell_length_c   10.80058300
_cell_angle_alpha   89.95460968
_cell_angle_beta   90.00000000
_cell_angle_gamma   90.00000000
_symmetry_Int_Tables_number   1
_chemical_formula_structural   PrY4(ThS4)3
_chemical_formula_sum   'Pr1 Y4 Th3 S12'
_cell_volume   450.67621650
_cell_formula_units_Z   1
loop_
 _symmetry_equiv_pos_site_id
 _symmetry_equiv_pos_as_xyz
  1  'x, y, z'
loop_
 _atom_site_type_symbol
 _atom_site_label
 _atom_site_symmetry_multiplicity
 _atom_site_fract_x
 _atom_site_fract_y
 _atom_site_fract_z
 _atom_site_occupancy
  Pr  Pr0  1  0.250000  0.505070  0.305005  1
  Y  Y1  1  0.250000  0.186190  0.486079  1
  Y  Y2  1  0.750000  0.813499  0.512319  1
  Y  Y3  1  0.750000  0.684267  0.013666  1
  Y  Y4  1  0.250000  0.314380  0.988375  1
  Th  Th5  1  0.250000  0.998866  0.804106  1
  Th  Th6  1  0.750000  0.998244  0.195856  1
  Th  Th7  1  0.750000  0.496502  0.692623  1
  S  S8  1  0.250000  0.295444  0.728939  1
  S  S9  1  0.750000  0.711035  0.269886  1
  S  S10  1  0.750000  0.798592  0.774219  1
  S  S11  1  0.250000  0.197499  0.224915  1
  S  S12  1  0.250000  0.945371  0.383568  1
  S  S13  1  0.750000  0.055285  0.617708  1
  S  S14  1  0.750000  0.444970  0.116225  1
  S  S15  1  0.250000  0.554910  0.880520  1
  S  S16  1  0.250000  0.870717  0.044518  1
  S  S17  1  0.750000  0.128502  0.953543  1
  S  S18  1  0.750000  0.369168  0.456862  1
  S  S19  1  0.250000  0.631492  0.551070  1
