# generated using pymatgen
data_Ce3Dy(Al3Co)6
_symmetry_space_group_name_H-M   'P 1'
_cell_length_a   7.43520506
_cell_length_b   7.43378379
_cell_length_c   9.25832700
_cell_angle_alpha   90.00000000
_cell_angle_beta   90.00000000
_cell_angle_gamma   119.31104027
_symmetry_Int_Tables_number   1
_chemical_formula_structural   Ce3Dy(Al3Co)6
_chemical_formula_sum   'Ce3 Dy1 Al18 Co6'
_cell_volume   446.21010858
_cell_formula_units_Z   1
loop_
 _symmetry_equiv_pos_site_id
 _symmetry_equiv_pos_as_xyz
  1  'x, y, z'
loop_
 _atom_site_type_symbol
 _atom_site_label
 _atom_site_symmetry_multiplicity
 _atom_site_fract_x
 _atom_site_fract_y
 _atom_site_fract_z
 _atom_site_occupancy
  Ce  Ce0  1  0.993892  0.671600  0.250000  1
  Ce  Ce1  1  0.004953  0.328261  0.750000  1
  Ce  Ce2  1  0.672588  0.994759  0.250000  1
  Dy  Dy3  1  0.327726  0.006294  0.750000  1
  Al  Al4  1  0.128763  0.127460  0.250000  1
  Al  Al5  1  0.875109  0.874691  0.750000  1
  Al  Al6  1  0.000827  0.335948  0.072557  1
  Al  Al7  1  0.002186  0.666955  0.926610  1
  Al  Al8  1  0.002186  0.666955  0.573390  1
  Al  Al9  1  0.335296  0.999258  0.428851  1
  Al  Al10  1  0.000827  0.335948  0.427443  1
  Al  Al11  1  0.662207  0.999845  0.573501  1
  Al  Al12  1  0.662207  0.999845  0.926499  1
  Al  Al13  1  0.335296  0.999258  0.071149  1
  Al  Al14  1  0.333399  0.331583  0.544003  1
  Al  Al15  1  0.666080  0.666076  0.458757  1
  Al  Al16  1  0.666080  0.666076  0.041243  1
  Al  Al17  1  0.333399  0.331583  0.955997  1
  Al  Al18  1  0.341792  0.552604  0.250000  1
  Al  Al19  1  0.658033  0.445247  0.750000  1
  Al  Al20  1  0.551707  0.340921  0.250000  1
  Al  Al21  1  0.446059  0.659909  0.750000  1
  Co  Co22  1  0.672584  0.328870  0.000670  1
  Co  Co23  1  0.328205  0.670919  0.000541  1
  Co  Co24  1  0.328205  0.670919  0.499459  1
  Co  Co25  1  0.672584  0.328870  0.499330  1
  Co  Co26  1  0.998907  0.999674  0.001146  1
  Co  Co27  1  0.998907  0.999674  0.498854  1
