# generated using pymatgen
data_DyAlGeO5
_symmetry_space_group_name_H-M   'P 1'
_cell_length_a   5.66616500
_cell_length_b   7.31406400
_cell_length_c   8.40555400
_cell_angle_alpha   90.00000000
_cell_angle_beta   90.00000000
_cell_angle_gamma   90.00000000
_symmetry_Int_Tables_number   1
_chemical_formula_structural   DyAlGeO5
_chemical_formula_sum   'Dy4 Al4 Ge4 O20'
_cell_volume   348.34879765
_cell_formula_units_Z   4
loop_
 _symmetry_equiv_pos_site_id
 _symmetry_equiv_pos_as_xyz
  1  'x, y, z'
loop_
 _atom_site_type_symbol
 _atom_site_label
 _atom_site_symmetry_multiplicity
 _atom_site_fract_x
 _atom_site_fract_y
 _atom_site_fract_z
 _atom_site_occupancy
  Dy  Dy0  1  0.000000  0.356989  0.326020  1
  Dy  Dy1  1  0.000000  0.643011  0.673980  1
  Dy  Dy2  1  0.000000  0.856989  0.173980  1
  Dy  Dy3  1  0.000000  0.143011  0.826020  1
  Al  Al4  1  0.249184  0.500000  0.000000  1
  Al  Al5  1  0.750816  0.000000  0.500000  1
  Al  Al6  1  0.750816  0.500000  0.000000  1
  Al  Al7  1  0.249184  0.000000  0.500000  1
  Ge  Ge8  1  0.500000  0.120121  0.144267  1
  Ge  Ge9  1  0.500000  0.879879  0.855733  1
  Ge  Ge10  1  0.500000  0.620121  0.355733  1
  Ge  Ge11  1  0.500000  0.379879  0.644267  1
  O  O12  1  0.000000  0.338627  0.053499  1
  O  O13  1  0.000000  0.661373  0.946501  1
  O  O14  1  0.000000  0.838627  0.446501  1
  O  O15  1  0.000000  0.161373  0.553499  1
  O  O16  1  0.500000  0.346837  0.068995  1
  O  O17  1  0.500000  0.653163  0.931005  1
  O  O18  1  0.500000  0.846837  0.431005  1
  O  O19  1  0.500000  0.153163  0.568995  1
  O  O20  1  0.252604  0.105990  0.287425  1
  O  O21  1  0.252604  0.894010  0.712575  1
  O  O22  1  0.747396  0.605990  0.212575  1
  O  O23  1  0.747396  0.394010  0.787425  1
  O  O24  1  0.747396  0.894010  0.712575  1
  O  O25  1  0.747396  0.105990  0.287425  1
  O  O26  1  0.252604  0.394010  0.787425  1
  O  O27  1  0.252604  0.605990  0.212575  1
  O  O28  1  0.284510  0.000000  0.000000  1
  O  O29  1  0.715490  0.500000  0.500000  1
  O  O30  1  0.715490  0.000000  0.000000  1
  O  O31  1  0.284510  0.500000  0.500000  1
