# generated using pymatgen
data_Rb4Th6OsBr18
_symmetry_space_group_name_H-M   'P 1'
_cell_length_a   11.34676929
_cell_length_b   11.37364172
_cell_length_c   11.56261100
_cell_angle_alpha   117.86361606
_cell_angle_beta   100.08600949
_cell_angle_gamma   104.78777211
_symmetry_Int_Tables_number   1
_chemical_formula_structural   Rb4Th6OsBr18
_chemical_formula_sum   'Rb4 Th6 Os1 Br18'
_cell_volume   1197.45704244
_cell_formula_units_Z   1
loop_
 _symmetry_equiv_pos_site_id
 _symmetry_equiv_pos_as_xyz
  1  'x, y, z'
loop_
 _atom_site_type_symbol
 _atom_site_label
 _atom_site_symmetry_multiplicity
 _atom_site_fract_x
 _atom_site_fract_y
 _atom_site_fract_z
 _atom_site_occupancy
  Rb  Rb0  1  0.651100  0.538044  0.226490  1
  Rb  Rb1  1  0.348900  0.461956  0.773510  1
  Rb  Rb2  1  0.688656  0.231002  0.568422  1
  Rb  Rb3  1  0.311344  0.768998  0.431578  1
  Th  Th4  1  0.164764  0.062196  0.251274  1
  Th  Th5  1  0.835236  0.937804  0.748726  1
  Th  Th6  1  0.849772  0.137198  0.144171  1
  Th  Th7  1  0.150228  0.862802  0.855829  1
  Th  Th8  1  0.158703  0.261530  0.047331  1
  Th  Th9  1  0.841297  0.738470  0.952669  1
  Os  Os10  1  0.000000  0.000000  0.000000  1
  Br  Br11  1  0.014034  0.425725  0.204535  1
  Br  Br12  1  0.985966  0.574275  0.795465  1
  Br  Br13  1  0.340108  0.348254  0.319916  1
  Br  Br14  1  0.659892  0.651746  0.680084  1
  Br  Br15  1  0.345001  0.541109  0.106021  1
  Br  Br16  1  0.654999  0.458891  0.893979  1
  Br  Br17  1  0.003440  0.786864  0.216899  1
  Br  Br18  1  0.996560  0.213136  0.783101  1
  Br  Br19  1  0.700746  0.290685  0.302783  1
  Br  Br20  1  0.299254  0.709315  0.697217  1
  Br  Br21  1  0.326190  0.134846  0.898901  1
  Br  Br22  1  0.673810  0.865154  0.101099  1
  Br  Br23  1  0.017324  0.209998  0.419040  1
  Br  Br24  1  0.982676  0.790002  0.580960  1
  Br  Br25  1  0.326517  0.916583  0.112441  1
  Br  Br26  1  0.673483  0.083417  0.887559  1
  Br  Br27  1  0.350667  0.123783  0.514573  1
  Br  Br28  1  0.649333  0.876217  0.485427  1
