# generated using pymatgen
data_Er5TmZrCo17P12
_symmetry_space_group_name_H-M   'P 1'
_cell_length_a   3.68725600
_cell_length_b   10.54989400
_cell_length_c   12.24300900
_cell_angle_alpha   89.99909996
_cell_angle_beta   90.00000000
_cell_angle_gamma   90.00000000
_symmetry_Int_Tables_number   1
_chemical_formula_structural   Er5TmZrCo17P12
_chemical_formula_sum   'Er5 Tm1 Zr1 Co17 P12'
_cell_volume   476.25500835
_cell_formula_units_Z   1
loop_
 _symmetry_equiv_pos_site_id
 _symmetry_equiv_pos_as_xyz
  1  'x, y, z'
loop_
 _atom_site_type_symbol
 _atom_site_label
 _atom_site_symmetry_multiplicity
 _atom_site_fract_x
 _atom_site_fract_y
 _atom_site_fract_z
 _atom_site_occupancy
  Er  Er0  1  0.000000  0.499940  0.529634  1
  Er  Er1  1  0.500000  0.000042  0.477214  1
  Er  Er2  1  0.500000  0.821889  0.207448  1
  Er  Er3  1  0.500000  0.178212  0.207480  1
  Er  Er4  1  0.000000  0.682553  0.795875  1
  Tm  Tm5  1  0.000000  0.317272  0.795930  1
  Zr  Zr6  1  0.500000  0.499970  0.154951  1
  Co  Co7  1  0.000000  0.000015  0.836053  1
  Co  Co8  1  0.500000  0.499756  0.702476  1
  Co  Co9  1  0.000000  0.000022  0.296716  1
  Co  Co10  1  0.000000  0.499885  0.983035  1
  Co  Co11  1  0.500000  0.000069  0.014036  1
  Co  Co12  1  0.500000  0.326854  0.987490  1
  Co  Co13  1  0.500000  0.673085  0.987687  1
  Co  Co14  1  0.000000  0.161374  0.001480  1
  Co  Co15  1  0.000000  0.838737  0.001582  1
  Co  Co16  1  0.500000  0.294092  0.434874  1
  Co  Co17  1  0.500000  0.705894  0.434820  1
  Co  Co18  1  0.000000  0.201746  0.570420  1
  Co  Co19  1  0.000000  0.798303  0.570306  1
  Co  Co20  1  0.500000  0.879864  0.707112  1
  Co  Co21  1  0.500000  0.120392  0.707216  1
  Co  Co22  1  0.000000  0.623519  0.297732  1
  Co  Co23  1  0.000000  0.376463  0.297734  1
  P  P24  1  0.500000  0.499770  0.880765  1
  P  P25  1  0.000000  0.000023  0.117142  1
  P  P26  1  0.500000  0.500003  0.363104  1
  P  P27  1  0.000000  0.999983  0.653698  1
  P  P28  1  0.500000  0.309881  0.618436  1
  P  P29  1  0.500000  0.690138  0.618170  1
  P  P30  1  0.000000  0.187410  0.386270  1
  P  P31  1  0.000000  0.812618  0.386250  1
  P  P32  1  0.500000  0.852422  0.887938  1
  P  P33  1  0.500000  0.147828  0.887787  1
  P  P34  1  0.000000  0.665719  0.100560  1
  P  P35  1  0.000000  0.334260  0.100574  1
