# generated using pymatgen
data_CsRb2VIrBr9
_symmetry_space_group_name_H-M   'P 1'
_cell_length_a   7.67445200
_cell_length_b   7.67445253
_cell_length_c   19.11148500
_cell_angle_alpha   90.00000000
_cell_angle_beta   90.00000000
_cell_angle_gamma   119.99999773
_symmetry_Int_Tables_number   1
_chemical_formula_structural   CsRb2VIrBr9
_chemical_formula_sum   'Cs2 Rb4 V2 Ir2 Br18'
_cell_volume   974.80972589
_cell_formula_units_Z   2
loop_
 _symmetry_equiv_pos_site_id
 _symmetry_equiv_pos_as_xyz
  1  'x, y, z'
loop_
 _atom_site_type_symbol
 _atom_site_label
 _atom_site_symmetry_multiplicity
 _atom_site_fract_x
 _atom_site_fract_y
 _atom_site_fract_z
 _atom_site_occupancy
  Cs  Cs0  1  0.666667  0.333333  0.571022  1
  Cs  Cs1  1  0.333333  0.666667  0.066369  1
  Rb  Rb2  1  0.333333  0.666667  0.434563  1
  Rb  Rb3  1  0.666667  0.333333  0.940540  1
  Rb  Rb4  1  0.000000  0.000000  0.248855  1
  Rb  Rb5  1  0.000000  0.000000  0.751169  1
  V  V6  1  0.333333  0.666667  0.831129  1
  V  V7  1  0.666667  0.333333  0.168839  1
  Ir  Ir8  1  0.333333  0.666667  0.670331  1
  Ir  Ir9  1  0.666667  0.333333  0.328080  1
  Br  Br10  1  0.820654  0.641308  0.403133  1
  Br  Br11  1  0.179448  0.820552  0.595073  1
  Br  Br12  1  0.641104  0.820552  0.595073  1
  Br  Br13  1  0.820654  0.179346  0.403133  1
  Br  Br14  1  0.358692  0.179346  0.403133  1
  Br  Br15  1  0.175311  0.350621  0.902908  1
  Br  Br16  1  0.020886  0.510443  0.746301  1
  Br  Br17  1  0.649379  0.824689  0.902908  1
  Br  Br18  1  0.824335  0.648670  0.096131  1
  Br  Br19  1  0.179448  0.358896  0.595073  1
  Br  Br20  1  0.489557  0.979114  0.746301  1
  Br  Br21  1  0.509829  0.490171  0.252820  1
  Br  Br22  1  0.489557  0.510443  0.746301  1
  Br  Br23  1  0.175311  0.824689  0.902908  1
  Br  Br24  1  0.351330  0.175665  0.096131  1
  Br  Br25  1  0.980343  0.490171  0.252820  1
  Br  Br26  1  0.509829  0.019657  0.252820  1
  Br  Br27  1  0.824335  0.175665  0.096131  1
