# generated using pymatgen
data_Yb14Lu5ThPt16
_symmetry_space_group_name_H-M   'P 1'
_cell_length_a   7.48071361
_cell_length_b   7.56744784
_cell_length_c   14.54158619
_cell_angle_alpha   90.05211338
_cell_angle_beta   90.19488487
_cell_angle_gamma   89.94794665
_symmetry_Int_Tables_number   1
_chemical_formula_structural   Yb14Lu5ThPt16
_chemical_formula_sum   'Yb14 Lu5 Th1 Pt16'
_cell_volume   823.19244603
_cell_formula_units_Z   1
loop_
 _symmetry_equiv_pos_site_id
 _symmetry_equiv_pos_as_xyz
  1  'x, y, z'
loop_
 _atom_site_type_symbol
 _atom_site_label
 _atom_site_symmetry_multiplicity
 _atom_site_fract_x
 _atom_site_fract_y
 _atom_site_fract_z
 _atom_site_occupancy
  Yb  Yb0  1  0.646892  0.166637  0.880214  1
  Yb  Yb1  1  0.146309  0.335547  0.622044  1
  Yb  Yb2  1  0.486820  0.675272  0.594835  1
  Yb  Yb3  1  0.990418  0.822715  0.906974  1
  Yb  Yb4  1  0.508067  0.320751  0.093304  1
  Yb  Yb5  1  0.010388  0.179700  0.405082  1
  Yb  Yb6  1  0.506451  0.324757  0.401151  1
  Yb  Yb7  1  0.008736  0.178101  0.093796  1
  Yb  Yb8  1  0.489014  0.680766  0.905962  1
  Yb  Yb9  1  0.994242  0.815053  0.595401  1
  Yb  Yb10  1  0.809952  0.510933  0.753015  1
  Yb  Yb11  1  0.303406  0.989492  0.752994  1
  Yb  Yb12  1  0.194261  0.487789  0.249260  1
  Yb  Yb13  1  0.694555  0.012065  0.249101  1
  Lu  Lu14  1  0.146872  0.337271  0.878113  1
  Lu  Lu15  1  0.354174  0.833956  0.123585  1
  Lu  Lu16  1  0.856684  0.665692  0.374388  1
  Lu  Lu17  1  0.353264  0.833167  0.375397  1
  Lu  Lu18  1  0.853597  0.665647  0.123350  1
  Th  Th19  1  0.648391  0.161957  0.621883  1
  Pt  Pt20  1  0.686605  0.957735  0.457315  1
  Pt  Pt21  1  0.183608  0.541616  0.041382  1
  Pt  Pt22  1  0.310830  0.040563  0.961467  1
  Pt  Pt23  1  0.810944  0.462423  0.537824  1
  Pt  Pt24  1  0.319880  0.030915  0.539543  1
  Pt  Pt25  1  0.823483  0.469425  0.960364  1
  Pt  Pt26  1  0.678108  0.955184  0.044114  1
  Pt  Pt27  1  0.178912  0.544957  0.455782  1
  Pt  Pt28  1  0.441079  0.380292  0.747904  1
  Pt  Pt29  1  0.942865  0.121673  0.753379  1
  Pt  Pt30  1  0.559524  0.624892  0.250356  1
  Pt  Pt31  1  0.059794  0.875128  0.249424  1
  Pt  Pt32  1  0.676494  0.863694  0.747004  1
  Pt  Pt33  1  0.177550  0.633959  0.754543  1
  Pt  Pt34  1  0.323522  0.128904  0.249652  1
  Pt  Pt35  1  0.824311  0.371370  0.250100  1
