# generated using pymatgen
data_Tb2U6CrS17
_symmetry_space_group_name_H-M   'P 1'
_cell_length_a   7.81390953
_cell_length_b   7.81390869
_cell_length_c   10.39214500
_cell_angle_alpha   80.80103251
_cell_angle_beta   80.80103351
_cell_angle_gamma   65.22314783
_symmetry_Int_Tables_number   1
_chemical_formula_structural   Tb2U6CrS17
_chemical_formula_sum   'Tb2 U6 Cr1 S17'
_cell_volume   565.63569099
_cell_formula_units_Z   1
loop_
 _symmetry_equiv_pos_site_id
 _symmetry_equiv_pos_as_xyz
  1  'x, y, z'
loop_
 _atom_site_type_symbol
 _atom_site_label
 _atom_site_symmetry_multiplicity
 _atom_site_fract_x
 _atom_site_fract_y
 _atom_site_fract_z
 _atom_site_occupancy
  Tb  Tb0  1  0.814872  0.304924  0.296283  1
  Tb  Tb1  1  0.304924  0.814872  0.296283  1
  U  U2  1  0.180326  0.700356  0.703656  1
  U  U3  1  0.700356  0.180326  0.703656  1
  U  U4  1  0.203989  0.203989  0.540801  1
  U  U5  1  0.795854  0.795854  0.456159  1
  U  U6  1  0.678741  0.678741  0.984321  1
  U  U7  1  0.319271  0.319271  0.017805  1
  Cr  Cr8  1  0.000276  0.000276  0.000970  1
  S  S9  1  0.822373  0.431939  0.538617  1
  S  S10  1  0.431939  0.822373  0.538617  1
  S  S11  1  0.174848  0.568107  0.469943  1
  S  S12  1  0.568107  0.174848  0.469943  1
  S  S13  1  0.947059  0.322112  0.022422  1
  S  S14  1  0.322112  0.947059  0.022422  1
  S  S15  1  0.055585  0.679389  0.969868  1
  S  S16  1  0.679389  0.055585  0.969868  1
  S  S17  1  0.213561  0.213561  0.279185  1
  S  S18  1  0.786762  0.786762  0.723430  1
  S  S19  1  0.057421  0.057421  0.774300  1
  S  S20  1  0.943611  0.943611  0.227779  1
  S  S21  1  0.302699  0.302699  0.754399  1
  S  S22  1  0.700111  0.700111  0.242600  1
  S  S23  1  0.520840  0.520840  0.828368  1
  S  S24  1  0.478718  0.478718  0.158451  1
  S  S25  1  0.996253  0.996253  0.509852  1
