# generated using pymatgen
data_Tb(Y2Ir)2
_symmetry_space_group_name_H-M   'P 1'
_cell_length_a   6.52096031
_cell_length_b   7.23608708
_cell_length_c   8.58981444
_cell_angle_alpha   96.56924892
_cell_angle_beta   112.30736147
_cell_angle_gamma   90.00000023
_symmetry_Int_Tables_number   1
_chemical_formula_structural   Tb(Y2Ir)2
_chemical_formula_sum   'Tb2 Y8 Ir4'
_cell_volume   372.10909256
_cell_formula_units_Z   2
loop_
 _symmetry_equiv_pos_site_id
 _symmetry_equiv_pos_as_xyz
  1  'x, y, z'
loop_
 _atom_site_type_symbol
 _atom_site_label
 _atom_site_symmetry_multiplicity
 _atom_site_fract_x
 _atom_site_fract_y
 _atom_site_fract_z
 _atom_site_occupancy
  Tb  Tb0  1  0.428314  0.750000  0.000000  1
  Tb  Tb1  1  0.571686  0.250000  0.000000  1
  Y  Y2  1  0.972414  0.917524  0.182959  1
  Y  Y3  1  0.789456  0.582476  0.817041  1
  Y  Y4  1  0.027586  0.082476  0.817041  1
  Y  Y5  1  0.210544  0.417524  0.182959  1
  Y  Y6  1  0.653741  0.817774  0.441187  1
  Y  Y7  1  0.212555  0.682226  0.558813  1
  Y  Y8  1  0.346259  0.182226  0.558813  1
  Y  Y9  1  0.787445  0.317774  0.441187  1
  Ir  Ir10  1  0.824879  0.572912  0.219836  1
  Ir  Ir11  1  0.605043  0.927088  0.780164  1
  Ir  Ir12  1  0.175121  0.427088  0.780164  1
  Ir  Ir13  1  0.394957  0.072912  0.219836  1
