# generated using pymatgen
data_Tm5Si7Pt9
_symmetry_space_group_name_H-M   'P 1'
_cell_length_a   10.16241300
_cell_length_b   10.16241340
_cell_length_c   4.03004200
_cell_angle_alpha   90.00000000
_cell_angle_beta   90.00000000
_cell_angle_gamma   120.00000194
_symmetry_Int_Tables_number   1
_chemical_formula_structural   Tm5Si7Pt9
_chemical_formula_sum   'Tm5 Si7 Pt9'
_cell_volume   360.44075776
_cell_formula_units_Z   1
loop_
 _symmetry_equiv_pos_site_id
 _symmetry_equiv_pos_as_xyz
  1  'x, y, z'
loop_
 _atom_site_type_symbol
 _atom_site_label
 _atom_site_symmetry_multiplicity
 _atom_site_fract_x
 _atom_site_fract_y
 _atom_site_fract_z
 _atom_site_occupancy
  Tm  Tm0  1  0.000000  0.000000  0.000000  1
  Tm  Tm1  1  0.333333  0.666667  0.500000  1
  Tm  Tm2  1  0.899521  0.459136  0.500000  1
  Tm  Tm3  1  0.559614  0.100479  0.500000  1
  Tm  Tm4  1  0.540864  0.440386  0.500000  1
  Si  Si5  1  0.238609  0.185083  0.500000  1
  Si  Si6  1  0.814917  0.053527  0.500000  1
  Si  Si7  1  0.946473  0.761391  0.500000  1
  Si  Si8  1  0.557892  0.653302  0.000000  1
  Si  Si9  1  0.346698  0.904590  0.000000  1
  Si  Si10  1  0.095410  0.442108  0.000000  1
  Si  Si11  1  0.666667  0.333333  0.000000  1
  Pt  Pt12  1  0.214379  0.931996  0.500000  1
  Pt  Pt13  1  0.068004  0.282384  0.500000  1
  Pt  Pt14  1  0.717616  0.785621  0.500000  1
  Pt  Pt15  1  0.316925  0.418323  0.000000  1
  Pt  Pt16  1  0.581677  0.898603  0.000000  1
  Pt  Pt17  1  0.101397  0.683075  0.000000  1
  Pt  Pt18  1  0.376157  0.168446  0.000000  1
  Pt  Pt19  1  0.831554  0.207712  0.000000  1
  Pt  Pt20  1  0.792288  0.623843  0.000000  1
