# generated using pymatgen
data_Li3La2Ni9As7
_symmetry_space_group_name_H-M   'P 1'
_cell_length_a   3.98156300
_cell_length_b   9.59384879
_cell_length_c   9.59384700
_cell_angle_alpha   119.99999728
_cell_angle_beta   90.00000000
_cell_angle_gamma   90.00000000
_symmetry_Int_Tables_number   1
_chemical_formula_structural   Li3La2Ni9As7
_chemical_formula_sum   'Li3 La2 Ni9 As7'
_cell_volume   317.37293849
_cell_formula_units_Z   1
loop_
 _symmetry_equiv_pos_site_id
 _symmetry_equiv_pos_as_xyz
  1  'x, y, z'
loop_
 _atom_site_type_symbol
 _atom_site_label
 _atom_site_symmetry_multiplicity
 _atom_site_fract_x
 _atom_site_fract_y
 _atom_site_fract_z
 _atom_site_occupancy
  Li  Li0  1  0.500000  0.791213  0.889880  1
  Li  Li1  1  0.500000  0.098669  0.208787  1
  Li  Li2  1  0.500000  0.110120  0.901331  1
  La  La3  1  0.000000  0.666667  0.333333  1
  La  La4  1  0.500000  0.333333  0.666667  1
  Ni  Ni5  1  0.000000  0.571318  0.945143  1
  Ni  Ni6  1  0.000000  0.373824  0.428682  1
  Ni  Ni7  1  0.000000  0.054857  0.626176  1
  Ni  Ni8  1  0.000000  0.871956  0.154736  1
  Ni  Ni9  1  0.000000  0.282782  0.128044  1
  Ni  Ni10  1  0.000000  0.845264  0.717218  1
  Ni  Ni11  1  0.500000  0.954043  0.388412  1
  Ni  Ni12  1  0.500000  0.434369  0.045957  1
  Ni  Ni13  1  0.500000  0.611588  0.565631  1
  As  As14  1  0.500000  0.710295  0.111281  1
  As  As15  1  0.500000  0.400988  0.289705  1
  As  As16  1  0.500000  0.888719  0.599012  1
  As  As17  1  0.000000  0.000000  0.000000  1
  As  As18  1  0.000000  0.594241  0.699125  1
  As  As19  1  0.000000  0.104883  0.405759  1
  As  As20  1  0.000000  0.300875  0.895117  1
