# generated using pymatgen
data_Yb3Dy(Os3Ru)2
_symmetry_space_group_name_H-M   'P 1'
_cell_length_a   5.23128600
_cell_length_b   5.23128585
_cell_length_c   8.99543100
_cell_angle_alpha   90.00007045
_cell_angle_beta   89.99978220
_cell_angle_gamma   120.00006442
_symmetry_Int_Tables_number   1
_chemical_formula_structural   Yb3Dy(Os3Ru)2
_chemical_formula_sum   'Yb3 Dy1 Os6 Ru2'
_cell_volume   213.19118448
_cell_formula_units_Z   1
loop_
 _symmetry_equiv_pos_site_id
 _symmetry_equiv_pos_as_xyz
  1  'x, y, z'
loop_
 _atom_site_type_symbol
 _atom_site_label
 _atom_site_symmetry_multiplicity
 _atom_site_fract_x
 _atom_site_fract_y
 _atom_site_fract_z
 _atom_site_occupancy
  Yb  Yb0  1  0.333337  0.666663  0.431199  1
  Yb  Yb1  1  0.333335  0.666666  0.064398  1
  Yb  Yb2  1  0.666664  0.333337  0.939055  1
  Dy  Dy3  1  0.666666  0.333334  0.566976  1
  Os  Os4  1  0.171339  0.342690  0.750122  1
  Os  Os5  1  0.171338  0.828661  0.750123  1
  Os  Os6  1  0.657306  0.828658  0.750122  1
  Os  Os7  1  0.829006  0.658003  0.249891  1
  Os  Os8  1  0.829006  0.170993  0.249890  1
  Os  Os9  1  0.341993  0.170991  0.249890  1
  Ru  Ru10  1  0.000007  0.999999  0.499531  1
  Ru  Ru11  1  0.000002  0.000005  0.998803  1
