# generated using pymatgen
data_GdSc(BrO3)6
_symmetry_space_group_name_H-M   'P 1'
_cell_length_a   7.91003175
_cell_length_b   7.86071816
_cell_length_c   8.04406104
_cell_angle_alpha   83.02701338
_cell_angle_beta   82.31800743
_cell_angle_gamma   76.99553302
_symmetry_Int_Tables_number   1
_chemical_formula_structural   GdSc(BrO3)6
_chemical_formula_sum   'Gd1 Sc1 Br6 O18'
_cell_volume   480.80138828
_cell_formula_units_Z   1
loop_
 _symmetry_equiv_pos_site_id
 _symmetry_equiv_pos_as_xyz
  1  'x, y, z'
loop_
 _atom_site_type_symbol
 _atom_site_label
 _atom_site_symmetry_multiplicity
 _atom_site_fract_x
 _atom_site_fract_y
 _atom_site_fract_z
 _atom_site_occupancy
  Gd  Gd0  1  0.237517  0.748260  0.971845  1
  Sc  Sc1  1  0.746166  0.239204  0.470467  1
  Br  Br2  1  0.159595  0.363761  0.285256  1
  Br  Br3  1  0.381308  0.175203  0.769555  1
  Br  Br4  1  0.071744  0.836730  0.550006  1
  Br  Br5  1  0.817153  0.092072  0.070343  1
  Br  Br6  1  0.683276  0.561762  0.779653  1
  Br  Br7  1  0.577469  0.670189  0.295964  1
  O  O8  1  0.145410  0.509618  0.109996  1
  O  O9  1  0.526997  0.151605  0.592503  1
  O  O10  1  0.947634  0.337574  0.318698  1
  O  O11  1  0.353494  0.964518  0.814202  1
  O  O12  1  0.277580  0.180490  0.218849  1
  O  O13  1  0.198674  0.288820  0.702415  1
  O  O14  1  0.079759  0.744885  0.752344  1
  O  O15  1  0.726293  0.089462  0.275328  1
  O  O16  1  0.922863  0.027538  0.580494  1
  O  O17  1  0.012775  0.949320  0.088412  1
  O  O18  1  0.978711  0.708389  0.462129  1
  O  O19  1  0.696492  0.992221  0.981067  1
  O  O20  1  0.467450  0.555852  0.833808  1
  O  O21  1  0.572534  0.453076  0.349253  1
  O  O22  1  0.757335  0.375677  0.678467  1
  O  O23  1  0.395434  0.737642  0.193592  1
  O  O24  1  0.770143  0.514577  0.958427  1
  O  O25  1  0.525198  0.760559  0.474524  1
