# generated using pymatgen
data_Sc3TaB4(Ru5W)2
_symmetry_space_group_name_H-M   'P 1'
_cell_length_a   9.42745701
_cell_length_b   9.42745710
_cell_length_c   3.05612400
_cell_angle_alpha   90.00000000
_cell_angle_beta   90.00000000
_cell_angle_gamma   90.13715814
_symmetry_Int_Tables_number   1
_chemical_formula_structural   Sc3TaB4(Ru5W)2
_chemical_formula_sum   'Sc3 Ta1 B4 Ru10 W2'
_cell_volume   271.61819108
_cell_formula_units_Z   1
loop_
 _symmetry_equiv_pos_site_id
 _symmetry_equiv_pos_as_xyz
  1  'x, y, z'
loop_
 _atom_site_type_symbol
 _atom_site_label
 _atom_site_symmetry_multiplicity
 _atom_site_fract_x
 _atom_site_fract_y
 _atom_site_fract_z
 _atom_site_occupancy
  Sc  Sc0  1  0.176106  0.823894  0.000000  1
  Sc  Sc1  1  0.324290  0.325959  0.000000  1
  Sc  Sc2  1  0.674041  0.675710  0.000000  1
  Ta  Ta3  1  0.824285  0.175715  0.000000  1
  B  B4  1  0.620626  0.379374  0.000000  1
  B  B5  1  0.381028  0.618972  0.000000  1
  B  B6  1  0.121530  0.122059  0.000000  1
  B  B7  1  0.877941  0.878470  0.000000  1
  Ru  Ru8  1  0.502303  0.497697  0.500000  1
  Ru  Ru9  1  0.995440  0.004560  0.500000  1
  Ru  Ru10  1  0.578521  0.213078  0.500000  1
  Ru  Ru11  1  0.431062  0.783228  0.500000  1
  Ru  Ru12  1  0.063267  0.282936  0.500000  1
  Ru  Ru13  1  0.927878  0.717282  0.500000  1
  Ru  Ru14  1  0.282718  0.072122  0.500000  1
  Ru  Ru15  1  0.717064  0.936733  0.500000  1
  Ru  Ru16  1  0.216772  0.568938  0.500000  1
  Ru  Ru17  1  0.786922  0.421479  0.500000  1
  W  W18  1  0.496068  0.997862  0.000000  1
  W  W19  1  0.002138  0.503932  0.000000  1
