# generated using pymatgen
data_AgBi2Pt4PbO14
_symmetry_space_group_name_H-M   'P 1'
_cell_length_a   7.46419153
_cell_length_b   7.46419154
_cell_length_c   7.31782180
_cell_angle_alpha   59.00721142
_cell_angle_beta   59.00721249
_cell_angle_gamma   59.66826781
_symmetry_Int_Tables_number   1
_chemical_formula_structural   AgBi2Pt4PbO14
_chemical_formula_sum   'Ag1 Bi2 Pt4 Pb1 O14'
_cell_volume   283.19321966
_cell_formula_units_Z   1
loop_
 _symmetry_equiv_pos_site_id
 _symmetry_equiv_pos_as_xyz
  1  'x, y, z'
loop_
 _atom_site_type_symbol
 _atom_site_label
 _atom_site_symmetry_multiplicity
 _atom_site_fract_x
 _atom_site_fract_y
 _atom_site_fract_z
 _atom_site_occupancy
  Ag  Ag0  1  0.125000  0.125000  0.625000  1
  Bi  Bi1  1  0.125000  0.625000  0.125000  1
  Bi  Bi2  1  0.625000  0.125000  0.125000  1
  Pt  Pt3  1  0.625000  0.625000  0.125000  1
  Pt  Pt4  1  0.625000  0.125000  0.625000  1
  Pt  Pt5  1  0.125000  0.625000  0.625000  1
  Pt  Pt6  1  0.625000  0.625000  0.625000  1
  Pb  Pb7  1  0.125000  0.125000  0.125000  1
  O  O8  1  0.240897  0.240897  0.252947  1
  O  O9  1  0.009103  0.009103  0.997053  1
  O  O10  1  0.548188  0.956674  0.539993  1
  O  O11  1  0.292524  0.710909  0.288046  1
  O  O12  1  0.540220  0.540220  0.962984  1
  O  O13  1  0.956674  0.548188  0.539993  1
  O  O14  1  0.539091  0.957476  0.961954  1
  O  O15  1  0.955674  0.955674  0.537676  1
  O  O16  1  0.957476  0.539091  0.961954  1
  O  O17  1  0.710909  0.292524  0.288046  1
  O  O18  1  0.293326  0.701812  0.710007  1
  O  O19  1  0.701812  0.293326  0.710007  1
  O  O20  1  0.294326  0.294326  0.712324  1
  O  O21  1  0.709780  0.709780  0.287016  1
