# generated using pymatgen
data_InH5Ru
_symmetry_space_group_name_H-M   'P 1'
_cell_length_a   5.06819800
_cell_length_b   5.07813000
_cell_length_c   9.85343500
_cell_angle_alpha   90.00000000
_cell_angle_beta   90.00000000
_cell_angle_gamma   90.00000000
_symmetry_Int_Tables_number   1
_chemical_formula_structural   InH5Ru
_chemical_formula_sum   'In4 H20 Ru4'
_cell_volume   253.59754434
_cell_formula_units_Z   4
loop_
 _symmetry_equiv_pos_site_id
 _symmetry_equiv_pos_as_xyz
  1  'x, y, z'
loop_
 _atom_site_type_symbol
 _atom_site_label
 _atom_site_symmetry_multiplicity
 _atom_site_fract_x
 _atom_site_fract_y
 _atom_site_fract_z
 _atom_site_occupancy
  In  In0  1  0.500640  0.394910  0.138727  1
  In  In1  1  0.000640  0.105090  0.861273  1
  In  In2  1  0.499360  0.894910  0.361273  1
  In  In3  1  0.999360  0.605090  0.638727  1
  H  H4  1  0.870889  0.368549  0.037328  1
  H  H5  1  0.385095  0.898200  0.642778  1
  H  H6  1  0.005392  0.709534  0.066093  1
  H  H7  1  0.694805  0.743349  0.782289  1
  H  H8  1  0.372284  0.433784  0.377175  1
  H  H9  1  0.805195  0.256651  0.282289  1
  H  H10  1  0.505392  0.790466  0.933907  1
  H  H11  1  0.305195  0.243349  0.717711  1
  H  H12  1  0.885095  0.601800  0.357222  1
  H  H13  1  0.629111  0.631451  0.537328  1
  H  H14  1  0.994608  0.209534  0.433907  1
  H  H15  1  0.129111  0.868549  0.462672  1
  H  H16  1  0.627716  0.933784  0.122825  1
  H  H17  1  0.872284  0.066216  0.622825  1
  H  H18  1  0.127716  0.566216  0.877175  1
  H  H19  1  0.114905  0.101800  0.142778  1
  H  H20  1  0.370889  0.131451  0.962672  1
  H  H21  1  0.614905  0.398200  0.857222  1
  H  H22  1  0.494608  0.290466  0.566093  1
  H  H23  1  0.194805  0.756651  0.217711  1
  Ru  Ru24  1  0.177357  0.109398  0.577905  1
  Ru  Ru25  1  0.322643  0.890602  0.077905  1
  Ru  Ru26  1  0.822643  0.609398  0.922095  1
  Ru  Ru27  1  0.677357  0.390602  0.422095  1
