# generated using pymatgen
data_Ba3Eu(InSn)4
_symmetry_space_group_name_H-M   'P 1'
_cell_length_a   4.96802700
_cell_length_b   4.96802674
_cell_length_c   19.24649000
_cell_angle_alpha   90.00000000
_cell_angle_beta   90.00000000
_cell_angle_gamma   120.00000839
_symmetry_Int_Tables_number   1
_chemical_formula_structural   Ba3Eu(InSn)4
_chemical_formula_sum   'Ba3 Eu1 In4 Sn4'
_cell_volume   411.38647132
_cell_formula_units_Z   1
loop_
 _symmetry_equiv_pos_site_id
 _symmetry_equiv_pos_as_xyz
  1  'x, y, z'
loop_
 _atom_site_type_symbol
 _atom_site_label
 _atom_site_symmetry_multiplicity
 _atom_site_fract_x
 _atom_site_fract_y
 _atom_site_fract_z
 _atom_site_occupancy
  Ba  Ba0  1  0.000000  0.000000  0.003239  1
  Ba  Ba1  1  0.000000  0.000000  0.496761  1
  Ba  Ba2  1  0.000000  0.000000  0.750000  1
  Eu  Eu3  1  0.000000  0.000000  0.250000  1
  In  In4  1  0.666666  0.333333  0.164538  1
  In  In5  1  0.666666  0.333333  0.335462  1
  In  In6  1  0.333333  0.666666  0.654487  1
  In  In7  1  0.333333  0.666666  0.845513  1
  Sn  Sn8  1  0.333333  0.666666  0.118125  1
  Sn  Sn9  1  0.333333  0.666666  0.381875  1
  Sn  Sn10  1  0.666666  0.333333  0.611884  1
  Sn  Sn11  1  0.666666  0.333333  0.888116  1
