# generated using pymatgen
data_Ta4NiPd3Pt8
_symmetry_space_group_name_H-M   'P 1'
_cell_length_a   4.58145900
_cell_length_b   4.89533800
_cell_length_c   11.15924500
_cell_angle_alpha   90.00000000
_cell_angle_beta   90.00000000
_cell_angle_gamma   90.00000000
_symmetry_Int_Tables_number   1
_chemical_formula_structural   Ta4NiPd3Pt8
_chemical_formula_sum   'Ta4 Ni1 Pd3 Pt8'
_cell_volume   250.27720719
_cell_formula_units_Z   1
loop_
 _symmetry_equiv_pos_site_id
 _symmetry_equiv_pos_as_xyz
  1  'x, y, z'
loop_
 _atom_site_type_symbol
 _atom_site_label
 _atom_site_symmetry_multiplicity
 _atom_site_fract_x
 _atom_site_fract_y
 _atom_site_fract_z
 _atom_site_occupancy
  Ta  Ta0  1  0.500000  0.663431  0.254948  1
  Ta  Ta1  1  0.500000  0.663431  0.745052  1
  Ta  Ta2  1  0.000000  0.334207  0.000000  1
  Ta  Ta3  1  0.000000  0.346328  0.500000  1
  Ni  Ni4  1  0.500000  0.662455  0.500000  1
  Pd  Pd5  1  0.000000  0.334027  0.250589  1
  Pd  Pd6  1  0.000000  0.334027  0.749411  1
  Pd  Pd7  1  0.500000  0.665004  0.000000  1
  Pt  Pt8  1  0.500000  0.173943  0.378320  1
  Pt  Pt9  1  0.500000  0.170383  0.873606  1
  Pt  Pt10  1  0.500000  0.170383  0.126394  1
  Pt  Pt11  1  0.500000  0.173943  0.621680  1
  Pt  Pt12  1  0.000000  0.827233  0.377835  1
  Pt  Pt13  1  0.000000  0.826986  0.874153  1
  Pt  Pt14  1  0.000000  0.826986  0.125847  1
  Pt  Pt15  1  0.000000  0.827233  0.622165  1
