# generated using pymatgen
data_NaY4Cr3(Ni4As3)4
_symmetry_space_group_name_H-M   'P 1'
_cell_length_a   12.61438700
_cell_length_b   12.61438537
_cell_length_c   3.86598400
_cell_angle_alpha   90.00000000
_cell_angle_beta   90.00000000
_cell_angle_gamma   120.00000166
_symmetry_Int_Tables_number   1
_chemical_formula_structural   NaY4Cr3(Ni4As3)4
_chemical_formula_sum   'Na1 Y4 Cr3 Ni16 As12'
_cell_volume   532.74934197
_cell_formula_units_Z   1
loop_
 _symmetry_equiv_pos_site_id
 _symmetry_equiv_pos_as_xyz
  1  'x, y, z'
loop_
 _atom_site_type_symbol
 _atom_site_label
 _atom_site_symmetry_multiplicity
 _atom_site_fract_x
 _atom_site_fract_y
 _atom_site_fract_z
 _atom_site_occupancy
  Na  Na0  1  0.333333  0.666667  0.000000  1
  Y  Y1  1  0.186811  0.186562  0.500000  1
  Y  Y2  1  0.813438  0.000249  0.500000  1
  Y  Y3  1  0.999751  0.813189  0.500000  1
  Y  Y4  1  0.666667  0.333333  0.000000  1
  Cr  Cr5  1  0.560981  0.562553  0.000000  1
  Cr  Cr6  1  0.437447  0.998428  0.000000  1
  Cr  Cr7  1  0.001572  0.439019  0.000000  1
  Ni  Ni8  1  0.716710  0.718286  0.500000  1
  Ni  Ni9  1  0.281714  0.998425  0.500000  1
  Ni  Ni10  1  0.001575  0.283290  0.500000  1
  Ni  Ni11  1  0.182352  0.378024  0.000000  1
  Ni  Ni12  1  0.621976  0.804330  0.000000  1
  Ni  Ni13  1  0.195670  0.817648  0.000000  1
  Ni  Ni14  1  0.804520  0.620701  0.000000  1
  Ni  Ni15  1  0.816182  0.195480  0.000000  1
  Ni  Ni16  1  0.379299  0.183818  0.000000  1
  Ni  Ni17  1  0.359283  0.480634  0.500000  1
  Ni  Ni18  1  0.519366  0.878650  0.500000  1
  Ni  Ni19  1  0.121350  0.640717  0.500000  1
  Ni  Ni20  1  0.876513  0.517496  0.500000  1
  Ni  Ni21  1  0.640984  0.123487  0.500000  1
  Ni  Ni22  1  0.482504  0.359016  0.500000  1
  Ni  Ni23  1  0.000000  0.000000  0.000000  1
  As  As24  1  0.821485  0.821003  0.000000  1
  As  As25  1  0.178997  0.000482  0.000000  1
  As  As26  1  0.999518  0.178515  0.000000  1
  As  As27  1  0.168406  0.482663  0.500000  1
  As  As28  1  0.517337  0.685743  0.500000  1
  As  As29  1  0.314257  0.831594  0.500000  1
  As  As30  1  0.685655  0.520214  0.500000  1
  As  As31  1  0.834559  0.314345  0.500000  1
  As  As32  1  0.479786  0.165441  0.500000  1
  As  As33  1  0.364324  0.364467  0.000000  1
  As  As34  1  0.635533  0.999857  0.000000  1
  As  As35  1  0.000143  0.635676  0.000000  1
