# generated using pymatgen
data_Ca4Cu11Ni3
_symmetry_space_group_name_H-M   'P 1'
_cell_length_a   5.08061544
_cell_length_b   5.10965563
_cell_length_c   12.70478353
_cell_angle_alpha   78.59652128
_cell_angle_beta   78.57417436
_cell_angle_gamma   59.85075616
_symmetry_Int_Tables_number   1
_chemical_formula_structural   Ca4Cu11Ni3
_chemical_formula_sum   'Ca4 Cu11 Ni3'
_cell_volume   277.66533487
_cell_formula_units_Z   1
loop_
 _symmetry_equiv_pos_site_id
 _symmetry_equiv_pos_as_xyz
  1  'x, y, z'
loop_
 _atom_site_type_symbol
 _atom_site_label
 _atom_site_symmetry_multiplicity
 _atom_site_fract_x
 _atom_site_fract_y
 _atom_site_fract_z
 _atom_site_occupancy
  Ca  Ca0  1  0.949954  0.949577  0.150668  1
  Ca  Ca1  1  0.051512  0.051899  0.845014  1
  Ca  Ca2  1  0.848962  0.850311  0.451463  1
  Ca  Ca3  1  0.148954  0.147019  0.555211  1
  Cu  Cu4  1  0.725280  0.725270  0.834845  1
  Cu  Cu5  1  0.272940  0.281557  0.164112  1
  Cu  Cu6  1  0.618679  0.609235  0.162081  1
  Cu  Cu7  1  0.384332  0.384534  0.836121  1
  Cu  Cu8  1  0.499933  0.000131  0.999840  1
  Cu  Cu9  1  0.500334  0.500011  0.998861  1
  Cu  Cu10  1  0.390841  0.392220  0.328574  1
  Cu  Cu11  1  0.888676  0.391019  0.329198  1
  Cu  Cu12  1  0.390262  0.889586  0.328468  1
  Cu  Cu13  1  0.608500  0.609278  0.672468  1
  Cu  Cu14  1  0.110139  0.610392  0.671310  1
  Ni  Ni15  1  0.501737  0.495042  0.501569  1
  Ni  Ni16  1  0.000450  0.499744  0.999511  1
  Ni  Ni17  1  0.608516  0.113177  0.670685  1
