# generated using pymatgen
data_KCaLu2CuSe5
_symmetry_space_group_name_H-M   'P 1'
_cell_length_a   4.07165200
_cell_length_b   7.38053670
_cell_length_c   17.72406400
_cell_angle_alpha   90.00000000
_cell_angle_beta   90.00000000
_cell_angle_gamma   73.98808457
_symmetry_Int_Tables_number   1
_chemical_formula_structural   KCaLu2CuSe5
_chemical_formula_sum   'K2 Ca2 Lu4 Cu2 Se10'
_cell_volume   511.96189108
_cell_formula_units_Z   2
loop_
 _symmetry_equiv_pos_site_id
 _symmetry_equiv_pos_as_xyz
  1  'x, y, z'
loop_
 _atom_site_type_symbol
 _atom_site_label
 _atom_site_symmetry_multiplicity
 _atom_site_fract_x
 _atom_site_fract_y
 _atom_site_fract_z
 _atom_site_occupancy
  K  K0  1  0.521908  0.956187  0.250000  1
  K  K1  1  0.478093  0.043813  0.750000  1
  Ca  Ca2  1  0.000000  0.000000  0.000000  1
  Ca  Ca3  1  0.000000  0.000000  0.500000  1
  Lu  Lu4  1  0.270845  0.458308  0.103223  1
  Lu  Lu5  1  0.270845  0.458308  0.396777  1
  Lu  Lu6  1  0.729156  0.541692  0.603223  1
  Lu  Lu7  1  0.729156  0.541692  0.896778  1
  Cu  Cu8  1  0.796166  0.407670  0.250000  1
  Cu  Cu9  1  0.203835  0.592329  0.750000  1
  Se  Se10  1  0.644828  0.710348  0.047776  1
  Se  Se11  1  0.896943  0.206116  0.138227  1
  Se  Se12  1  0.198377  0.603246  0.250000  1
  Se  Se13  1  0.896943  0.206116  0.361773  1
  Se  Se14  1  0.644828  0.710348  0.452225  1
  Se  Se15  1  0.355173  0.289652  0.547775  1
  Se  Se16  1  0.103057  0.793884  0.638227  1
  Se  Se17  1  0.801624  0.396754  0.750000  1
  Se  Se18  1  0.103057  0.793884  0.861773  1
  Se  Se19  1  0.355173  0.289652  0.952225  1
