# generated using pymatgen
data_La2AlPtI2
_symmetry_space_group_name_H-M   'P 1'
_cell_length_a   4.42374500
_cell_length_b   4.42374564
_cell_length_c   12.10970900
_cell_angle_alpha   90.00000000
_cell_angle_beta   90.00000000
_cell_angle_gamma   120.00000269
_symmetry_Int_Tables_number   1
_chemical_formula_structural   La2AlPtI2
_chemical_formula_sum   'La2 Al1 Pt1 I2'
_cell_volume   205.23175518
_cell_formula_units_Z   1
loop_
 _symmetry_equiv_pos_site_id
 _symmetry_equiv_pos_as_xyz
  1  'x, y, z'
loop_
 _atom_site_type_symbol
 _atom_site_label
 _atom_site_symmetry_multiplicity
 _atom_site_fract_x
 _atom_site_fract_y
 _atom_site_fract_z
 _atom_site_occupancy
  La  La0  1  0.000000  0.000000  0.165862  1
  La  La1  1  0.000000  0.000000  0.833096  1
  Al  Al2  1  0.666667  0.333333  0.997427  1
  Pt  Pt3  1  0.333333  0.666667  0.003558  1
  I  I4  1  0.333333  0.666667  0.654765  1
  I  I5  1  0.666667  0.333333  0.345291  1
