# generated using pymatgen
data_Li4LaPr3Si8
_symmetry_space_group_name_H-M   'P 1'
_cell_length_a   3.89617400
_cell_length_b   7.78414603
_cell_length_c   10.62016186
_cell_angle_alpha   89.89997662
_cell_angle_beta   90.00000000
_cell_angle_gamma   90.00000000
_symmetry_Int_Tables_number   1
_chemical_formula_structural   Li4LaPr3Si8
_chemical_formula_sum   'Li4 La1 Pr3 Si8'
_cell_volume   322.09189203
_cell_formula_units_Z   1
loop_
 _symmetry_equiv_pos_site_id
 _symmetry_equiv_pos_as_xyz
  1  'x, y, z'
loop_
 _atom_site_type_symbol
 _atom_site_label
 _atom_site_symmetry_multiplicity
 _atom_site_fract_x
 _atom_site_fract_y
 _atom_site_fract_z
 _atom_site_occupancy
  Li  Li0  1  0.250000  0.996656  0.390240  1
  Li  Li1  1  0.750000  0.004935  0.610371  1
  Li  Li2  1  0.250000  0.495379  0.109401  1
  Li  Li3  1  0.750000  0.503645  0.890508  1
  La  La4  1  0.750000  0.361324  0.364362  1
  Pr  Pr5  1  0.250000  0.136660  0.864859  1
  Pr  Pr6  1  0.750000  0.862612  0.134452  1
  Pr  Pr7  1  0.250000  0.637320  0.635008  1
  Si  Si8  1  0.750000  0.272125  0.070471  1
  Si  Si9  1  0.250000  0.725000  0.928168  1
  Si  Si10  1  0.750000  0.777923  0.427567  1
  Si  Si11  1  0.250000  0.227026  0.572963  1
  Si  Si12  1  0.750000  0.834075  0.822814  1
  Si  Si13  1  0.250000  0.165071  0.176048  1
  Si  Si14  1  0.750000  0.333461  0.679051  1
  Si  Si15  1  0.250000  0.666788  0.323718  1
