# generated using pymatgen
data_Yb6HoCo4Sn13
_symmetry_space_group_name_H-M   'P 1'
_cell_length_a   11.14539600
_cell_length_b   11.14539600
_cell_length_c   4.60353300
_cell_angle_alpha   90.00000000
_cell_angle_beta   90.00000000
_cell_angle_gamma   90.00000000
_symmetry_Int_Tables_number   1
_chemical_formula_structural   Yb6HoCo4Sn13
_chemical_formula_sum   'Yb6 Ho1 Co4 Sn13'
_cell_volume   571.85018792
_cell_formula_units_Z   1
loop_
 _symmetry_equiv_pos_site_id
 _symmetry_equiv_pos_as_xyz
  1  'x, y, z'
loop_
 _atom_site_type_symbol
 _atom_site_label
 _atom_site_symmetry_multiplicity
 _atom_site_fract_x
 _atom_site_fract_y
 _atom_site_fract_z
 _atom_site_occupancy
  Yb  Yb0  1  0.340512  0.670224  0.500000  1
  Yb  Yb1  1  0.659488  0.329776  0.500000  1
  Yb  Yb2  1  0.329776  0.340512  0.500000  1
  Yb  Yb3  1  0.670224  0.659488  0.500000  1
  Yb  Yb4  1  0.500000  0.000000  0.500000  1
  Yb  Yb5  1  0.000000  0.500000  0.500000  1
  Ho  Ho6  1  0.000000  0.000000  0.000000  1
  Co  Co7  1  0.117906  0.727461  0.000000  1
  Co  Co8  1  0.882094  0.272539  0.000000  1
  Co  Co9  1  0.272539  0.117906  0.000000  1
  Co  Co10  1  0.727461  0.882094  0.000000  1
  Sn  Sn11  1  0.284204  0.888177  0.000000  1
  Sn  Sn12  1  0.715796  0.111823  0.000000  1
  Sn  Sn13  1  0.111823  0.284204  0.000000  1
  Sn  Sn14  1  0.888177  0.715796  0.000000  1
  Sn  Sn15  1  0.077884  0.804667  0.500000  1
  Sn  Sn16  1  0.922116  0.195333  0.500000  1
  Sn  Sn17  1  0.195333  0.077884  0.500000  1
  Sn  Sn18  1  0.804667  0.922116  0.500000  1
  Sn  Sn19  1  0.523357  0.786842  0.000000  1
  Sn  Sn20  1  0.476643  0.213158  0.000000  1
  Sn  Sn21  1  0.213158  0.523357  0.000000  1
  Sn  Sn22  1  0.786842  0.476643  0.000000  1
  Sn  Sn23  1  0.500000  0.500000  0.000000  1
