# generated using pymatgen
data_La2Pr2Y2OsI10
_symmetry_space_group_name_H-M   'P 1'
_cell_length_a   7.98086528
_cell_length_b   10.15430387
_cell_length_c   9.95386337
_cell_angle_alpha   107.09892202
_cell_angle_beta   95.61134931
_cell_angle_gamma   105.10899257
_symmetry_Int_Tables_number   1
_chemical_formula_structural   La2Pr2Y2OsI10
_chemical_formula_sum   'La2 Pr2 Y2 Os1 I10'
_cell_volume   730.93623754
_cell_formula_units_Z   1
loop_
 _symmetry_equiv_pos_site_id
 _symmetry_equiv_pos_as_xyz
  1  'x, y, z'
loop_
 _atom_site_type_symbol
 _atom_site_label
 _atom_site_symmetry_multiplicity
 _atom_site_fract_x
 _atom_site_fract_y
 _atom_site_fract_z
 _atom_site_occupancy
  La  La0  1  0.113710  0.041451  0.769592  1
  La  La1  1  0.886290  0.958549  0.230408  1
  Pr  Pr2  1  0.967973  0.293350  0.089824  1
  Pr  Pr3  1  0.032027  0.706650  0.910176  1
  Y  Y4  1  0.351192  0.127138  0.166847  1
  Y  Y5  1  0.648808  0.872862  0.833153  1
  Os  Os6  1  0.000000  0.000000  0.000000  1
  I  I7  1  0.355222  0.442559  0.270081  1
  I  I8  1  0.644778  0.557441  0.729919  1
  I  I9  1  0.264794  0.087464  0.450974  1
  I  I10  1  0.735206  0.912536  0.549026  1
  I  I11  1  0.086353  0.370766  0.817718  1
  I  I12  1  0.913647  0.629234  0.182282  1
  I  I13  1  0.455066  0.824581  0.089545  1
  I  I14  1  0.544934  0.175419  0.910455  1
  I  I15  1  0.765133  0.255148  0.344677  1
  I  I16  1  0.234867  0.744852  0.655323  1
