# generated using pymatgen
data_KHo(AuO2)4
_symmetry_space_group_name_H-M   'P 1'
_cell_length_a   6.06053400
_cell_length_b   7.02073700
_cell_length_c   5.67184600
_cell_angle_alpha   90.00000000
_cell_angle_beta   90.00000000
_cell_angle_gamma   90.00000000
_symmetry_Int_Tables_number   1
_chemical_formula_structural   KHo(AuO2)4
_chemical_formula_sum   'K1 Ho1 Au4 O8'
_cell_volume   241.33373094
_cell_formula_units_Z   1
loop_
 _symmetry_equiv_pos_site_id
 _symmetry_equiv_pos_as_xyz
  1  'x, y, z'
loop_
 _atom_site_type_symbol
 _atom_site_label
 _atom_site_symmetry_multiplicity
 _atom_site_fract_x
 _atom_site_fract_y
 _atom_site_fract_z
 _atom_site_occupancy
  K  K0  1  0.000000  0.500000  0.500000  1
  Ho  Ho1  1  0.500000  0.000000  0.000000  1
  Au  Au2  1  0.000000  0.800270  0.000000  1
  Au  Au3  1  0.000000  0.199730  0.000000  1
  Au  Au4  1  0.234976  0.000000  0.500000  1
  Au  Au5  1  0.765024  0.000000  0.500000  1
  O  O6  1  0.255400  0.197476  0.235807  1
  O  O7  1  0.255400  0.197476  0.764193  1
  O  O8  1  0.255400  0.802524  0.235807  1
  O  O9  1  0.255400  0.802524  0.764193  1
  O  O10  1  0.744600  0.802524  0.235807  1
  O  O11  1  0.744600  0.197476  0.764193  1
  O  O12  1  0.744600  0.802524  0.764193  1
  O  O13  1  0.744600  0.197476  0.235807  1
