# generated using pymatgen
data_Eu4ZrNb3O14
_symmetry_space_group_name_H-M   'P 1'
_cell_length_a   7.62900778
_cell_length_b   7.62900882
_cell_length_c   7.62900815
_cell_angle_alpha   60.05069015
_cell_angle_beta   60.05068402
_cell_angle_gamma   60.05068286
_symmetry_Int_Tables_number   1
_chemical_formula_structural   Eu4ZrNb3O14
_chemical_formula_sum   'Eu4 Zr1 Nb3 O14'
_cell_volume   314.33148779
_cell_formula_units_Z   1
loop_
 _symmetry_equiv_pos_site_id
 _symmetry_equiv_pos_as_xyz
  1  'x, y, z'
loop_
 _atom_site_type_symbol
 _atom_site_label
 _atom_site_symmetry_multiplicity
 _atom_site_fract_x
 _atom_site_fract_y
 _atom_site_fract_z
 _atom_site_occupancy
  Eu  Eu0  1  0.625000  0.125000  0.625000  1
  Eu  Eu1  1  0.625000  0.625000  0.125000  1
  Eu  Eu2  1  0.125000  0.625000  0.625000  1
  Eu  Eu3  1  0.625000  0.625000  0.625000  1
  Zr  Zr4  1  0.125000  0.125000  0.125000  1
  Nb  Nb5  1  0.625000  0.125000  0.125000  1
  Nb  Nb6  1  0.125000  0.125000  0.625000  1
  Nb  Nb7  1  0.125000  0.625000  0.125000  1
  O  O8  1  0.196036  0.809253  0.809253  1
  O  O9  1  0.809253  0.809253  0.196036  1
  O  O10  1  0.809253  0.196036  0.809253  1
  O  O11  1  0.199370  0.792894  0.199370  1
  O  O12  1  0.199370  0.199370  0.792894  1
  O  O13  1  0.792894  0.199370  0.199370  1
  O  O14  1  0.457106  0.050630  0.050630  1
  O  O15  1  0.050630  0.050630  0.457106  1
  O  O16  1  0.050630  0.457106  0.050630  1
  O  O17  1  0.440747  0.053964  0.440747  1
  O  O18  1  0.749260  0.749260  0.749260  1
  O  O19  1  0.440747  0.440747  0.053964  1
  O  O20  1  0.053964  0.440747  0.440747  1
  O  O21  1  0.500740  0.500740  0.500740  1
