# generated using pymatgen
data_Dy3ErTm4(CdIr)2
_symmetry_space_group_name_H-M   'P 1'
_cell_length_a   9.55589042
_cell_length_b   9.55589049
_cell_length_c   9.56370100
_cell_angle_alpha   59.97295513
_cell_angle_beta   59.97295489
_cell_angle_gamma   59.94556332
_symmetry_Int_Tables_number   1
_chemical_formula_structural   Dy3ErTm4(CdIr)2
_chemical_formula_sum   'Dy6 Er2 Tm8 Cd4 Ir4'
_cell_volume   617.01655974
_cell_formula_units_Z   2
loop_
 _symmetry_equiv_pos_site_id
 _symmetry_equiv_pos_as_xyz
  1  'x, y, z'
loop_
 _atom_site_type_symbol
 _atom_site_label
 _atom_site_symmetry_multiplicity
 _atom_site_fract_x
 _atom_site_fract_y
 _atom_site_fract_z
 _atom_site_occupancy
  Dy  Dy0  1  0.189294  0.811080  0.810980  1
  Dy  Dy1  1  0.811080  0.189294  0.188646  1
  Dy  Dy2  1  0.811080  0.189294  0.810980  1
  Dy  Dy3  1  0.189294  0.811080  0.188646  1
  Dy  Dy4  1  0.811274  0.811274  0.188726  1
  Dy  Dy5  1  0.189149  0.189149  0.810851  1
  Er  Er6  1  0.598888  0.598888  0.598300  1
  Er  Er7  1  0.598888  0.598888  0.203925  1
  Tm  Tm8  1  0.599340  0.203571  0.598545  1
  Tm  Tm9  1  0.203571  0.599340  0.598545  1
  Tm  Tm10  1  0.060789  0.437984  0.439306  1
  Tm  Tm11  1  0.437984  0.060789  0.061921  1
  Tm  Tm12  1  0.437984  0.060789  0.439306  1
  Tm  Tm13  1  0.060789  0.437984  0.061921  1
  Tm  Tm14  1  0.438619  0.438619  0.061381  1
  Tm  Tm15  1  0.061337  0.061337  0.438663  1
  Cd  Cd16  1  0.830503  0.830503  0.830460  1
  Cd  Cd17  1  0.830503  0.830503  0.508533  1
  Cd  Cd18  1  0.830866  0.507569  0.830783  1
  Cd  Cd19  1  0.507569  0.830866  0.830783  1
  Ir  Ir20  1  0.391915  0.391915  0.391440  1
  Ir  Ir21  1  0.391915  0.391915  0.824731  1
  Ir  Ir22  1  0.391821  0.825551  0.391315  1
  Ir  Ir23  1  0.825551  0.391821  0.391315  1
