# generated using pymatgen
data_AcCe(BO3)2
_symmetry_space_group_name_H-M   'P 1'
_cell_length_a   5.13589700
_cell_length_b   5.88899100
_cell_length_c   8.30345500
_cell_angle_alpha   90.06676249
_cell_angle_beta   90.00000000
_cell_angle_gamma   90.00000000
_symmetry_Int_Tables_number   1
_chemical_formula_structural   AcCe(BO3)2
_chemical_formula_sum   'Ac2 Ce2 B4 O12'
_cell_volume   251.13991180
_cell_formula_units_Z   2
loop_
 _symmetry_equiv_pos_site_id
 _symmetry_equiv_pos_as_xyz
  1  'x, y, z'
loop_
 _atom_site_type_symbol
 _atom_site_label
 _atom_site_symmetry_multiplicity
 _atom_site_fract_x
 _atom_site_fract_y
 _atom_site_fract_z
 _atom_site_occupancy
  Ac  Ac0  1  0.250000  0.256013  0.412125  1
  Ac  Ac1  1  0.750000  0.743987  0.587875  1
  Ce  Ce2  1  0.250000  0.758376  0.081380  1
  Ce  Ce3  1  0.750000  0.241624  0.918620  1
  B  B4  1  0.250000  0.411597  0.767411  1
  B  B5  1  0.750000  0.588403  0.232589  1
  B  B6  1  0.250000  0.922272  0.746466  1
  B  B7  1  0.750000  0.077728  0.253534  1
  O  O8  1  0.750000  0.101255  0.418703  1
  O  O9  1  0.250000  0.898745  0.581297  1
  O  O10  1  0.750000  0.593241  0.067040  1
  O  O11  1  0.250000  0.406759  0.932960  1
  O  O12  1  0.981319  0.078785  0.168966  1
  O  O13  1  0.481319  0.921215  0.831034  1
  O  O14  1  0.517442  0.595789  0.316790  1
  O  O15  1  0.017442  0.404211  0.683210  1
  O  O16  1  0.018681  0.921215  0.831034  1
  O  O17  1  0.518681  0.078785  0.168966  1
  O  O18  1  0.482558  0.404211  0.683210  1
  O  O19  1  0.982558  0.595789  0.316790  1
