# generated using pymatgen
data_TbFe3CoMoP3
_symmetry_space_group_name_H-M   'P 1'
_cell_length_a   3.71698600
_cell_length_b   10.47062200
_cell_length_c   11.96744800
_cell_angle_alpha   90.00000000
_cell_angle_beta   90.00000000
_cell_angle_gamma   90.00000000
_symmetry_Int_Tables_number   1
_chemical_formula_structural   TbFe3CoMoP3
_chemical_formula_sum   'Tb4 Fe12 Co4 Mo4 P12'
_cell_volume   465.76296828
_cell_formula_units_Z   4
loop_
 _symmetry_equiv_pos_site_id
 _symmetry_equiv_pos_as_xyz
  1  'x, y, z'
loop_
 _atom_site_type_symbol
 _atom_site_label
 _atom_site_symmetry_multiplicity
 _atom_site_fract_x
 _atom_site_fract_y
 _atom_site_fract_z
 _atom_site_occupancy
  Tb  Tb0  1  0.250000  0.581822  0.705915  1
  Tb  Tb1  1  0.250000  0.918178  0.205915  1
  Tb  Tb2  1  0.750000  0.418178  0.294085  1
  Tb  Tb3  1  0.750000  0.081822  0.794085  1
  Fe  Fe4  1  0.250000  0.216425  0.177546  1
  Fe  Fe5  1  0.250000  0.283575  0.677546  1
  Fe  Fe6  1  0.750000  0.783575  0.822454  1
  Fe  Fe7  1  0.750000  0.716425  0.322454  1
  Fe  Fe8  1  0.250000  0.877083  0.701458  1
  Fe  Fe9  1  0.250000  0.622917  0.201458  1
  Fe  Fe10  1  0.750000  0.122917  0.298542  1
  Fe  Fe11  1  0.750000  0.377083  0.798542  1
  Fe  Fe12  1  0.250000  0.462984  0.933063  1
  Fe  Fe13  1  0.250000  0.037016  0.433063  1
  Fe  Fe14  1  0.750000  0.537016  0.066937  1
  Fe  Fe15  1  0.750000  0.962984  0.566937  1
  Co  Co16  1  0.250000  0.406194  0.487951  1
  Co  Co17  1  0.250000  0.093806  0.987951  1
  Co  Co18  1  0.750000  0.593806  0.512049  1
  Co  Co19  1  0.750000  0.906194  0.012049  1
  Mo  Mo20  1  0.250000  0.704927  0.986455  1
  Mo  Mo21  1  0.250000  0.795073  0.486455  1
  Mo  Mo22  1  0.750000  0.295073  0.013545  1
  Mo  Mo23  1  0.750000  0.204927  0.513545  1
  P  P24  1  0.250000  0.425209  0.113454  1
  P  P25  1  0.250000  0.074791  0.613454  1
  P  P26  1  0.750000  0.574791  0.886546  1
  P  P27  1  0.750000  0.925209  0.386546  1
  P  P28  1  0.250000  0.267265  0.866924  1
  P  P29  1  0.250000  0.232735  0.366924  1
  P  P30  1  0.750000  0.732735  0.133076  1
  P  P31  1  0.750000  0.767265  0.633076  1
  P  P32  1  0.250000  0.594564  0.392384  1
  P  P33  1  0.250000  0.905436  0.892384  1
  P  P34  1  0.750000  0.405436  0.607616  1
  P  P35  1  0.750000  0.094564  0.107616  1
