# generated using pymatgen
data_RbSrDy2(SbAu)4
_symmetry_space_group_name_H-M   'P 1'
_cell_length_a   4.63822400
_cell_length_b   4.63822330
_cell_length_c   18.34043700
_cell_angle_alpha   90.00000000
_cell_angle_beta   90.00000000
_cell_angle_gamma   120.00000502
_symmetry_Int_Tables_number   1
_chemical_formula_structural   RbSrDy2(SbAu)4
_chemical_formula_sum   'Rb1 Sr1 Dy2 Sb4 Au4'
_cell_volume   341.69896305
_cell_formula_units_Z   1
loop_
 _symmetry_equiv_pos_site_id
 _symmetry_equiv_pos_as_xyz
  1  'x, y, z'
loop_
 _atom_site_type_symbol
 _atom_site_label
 _atom_site_symmetry_multiplicity
 _atom_site_fract_x
 _atom_site_fract_y
 _atom_site_fract_z
 _atom_site_occupancy
  Rb  Rb0  1  0.000000  0.000000  0.255520  1
  Sr  Sr1  1  0.000000  0.000000  0.979255  1
  Dy  Dy2  1  0.000000  0.000000  0.517058  1
  Dy  Dy3  1  0.000000  0.000000  0.744508  1
  Sb  Sb4  1  0.333333  0.666667  0.402875  1
  Sb  Sb5  1  0.666667  0.333333  0.614152  1
  Sb  Sb6  1  0.666667  0.333333  0.863056  1
  Sb  Sb7  1  0.333333  0.666667  0.109050  1
  Au  Au8  1  0.666667  0.333333  0.441530  1
  Au  Au9  1  0.333333  0.666667  0.660825  1
  Au  Au10  1  0.333333  0.666667  0.820215  1
  Au  Au11  1  0.666667  0.333333  0.091957  1
