# generated using pymatgen
data_OsRu5W2
_symmetry_space_group_name_H-M   'P 1'
_cell_length_a   5.53448900
_cell_length_b   5.53428308
_cell_length_c   4.37502700
_cell_angle_alpha   90.00000000
_cell_angle_beta   90.00000000
_cell_angle_gamma   120.00123684
_symmetry_Int_Tables_number   1
_chemical_formula_structural   OsRu5W2
_chemical_formula_sum   'Os1 Ru5 W2'
_cell_volume   116.04992238
_cell_formula_units_Z   1
loop_
 _symmetry_equiv_pos_site_id
 _symmetry_equiv_pos_as_xyz
  1  'x, y, z'
loop_
 _atom_site_type_symbol
 _atom_site_label
 _atom_site_symmetry_multiplicity
 _atom_site_fract_x
 _atom_site_fract_y
 _atom_site_fract_z
 _atom_site_occupancy
  Os  Os0  1  0.166692  0.333384  0.250000  1
  Ru  Ru1  1  0.667061  0.830806  0.250000  1
  Ru  Ru2  1  0.163745  0.830806  0.250000  1
  Ru  Ru3  1  0.833117  0.666234  0.750000  1
  Ru  Ru4  1  0.334299  0.167841  0.750000  1
  Ru  Ru5  1  0.833542  0.167841  0.750000  1
  W  W6  1  0.333793  0.667586  0.750000  1
  W  W7  1  0.667751  0.335501  0.250000  1
