# generated using pymatgen
data_Y5Tc4(P4Ir5)3
_symmetry_space_group_name_H-M   'P 1'
_cell_length_a   12.70920149
_cell_length_b   12.60268554
_cell_length_c   3.98407300
_cell_angle_alpha   90.00000000
_cell_angle_beta   90.00000000
_cell_angle_gamma   119.82998861
_symmetry_Int_Tables_number   1
_chemical_formula_structural   Y5Tc4(P4Ir5)3
_chemical_formula_sum   'Y5 Tc4 P12 Ir15'
_cell_volume   553.58045492
_cell_formula_units_Z   1
loop_
 _symmetry_equiv_pos_site_id
 _symmetry_equiv_pos_as_xyz
  1  'x, y, z'
loop_
 _atom_site_type_symbol
 _atom_site_label
 _atom_site_symmetry_multiplicity
 _atom_site_fract_x
 _atom_site_fract_y
 _atom_site_fract_z
 _atom_site_occupancy
  Y  Y0  1  0.332305  0.664346  0.000000  1
  Y  Y1  1  0.666822  0.333435  0.000000  1
  Y  Y2  1  0.816913  0.001825  0.500000  1
  Y  Y3  1  0.001202  0.816145  0.500000  1
  Y  Y4  1  0.186472  0.187913  0.500000  1
  Tc  Tc5  1  0.454464  0.998845  0.000000  1
  Tc  Tc6  1  0.994281  0.452097  0.000000  1
  Tc  Tc7  1  0.549263  0.543888  0.000000  1
  Tc  Tc8  1  0.177509  0.379423  0.000000  1
  P  P9  1  0.178270  0.002101  0.000000  1
  P  P10  1  0.004339  0.183300  0.000000  1
  P  P11  1  0.823355  0.824815  0.000000  1
  P  P12  1  0.171747  0.479591  0.500000  1
  P  P13  1  0.516961  0.684745  0.500000  1
  P  P14  1  0.312833  0.827866  0.500000  1
  P  P15  1  0.684824  0.516415  0.500000  1
  P  P16  1  0.829459  0.314586  0.500000  1
  P  P17  1  0.483695  0.168164  0.500000  1
  P  P18  1  0.637189  0.998969  0.000000  1
  P  P19  1  0.000720  0.638006  0.000000  1
  P  P20  1  0.358720  0.364738  0.000000  1
  Ir  Ir21  1  0.364068  0.489890  0.500000  1
  Ir  Ir22  1  0.508381  0.866741  0.500000  1
  Ir  Ir23  1  0.130080  0.638278  0.500000  1
  Ir  Ir24  1  0.866715  0.510501  0.500000  1
  Ir  Ir25  1  0.640063  0.130302  0.500000  1
  Ir  Ir26  1  0.492765  0.356872  0.500000  1
  Ir  Ir27  1  0.625611  0.804660  0.000000  1
  Ir  Ir28  1  0.195394  0.820512  0.000000  1
  Ir  Ir29  1  0.808226  0.629202  0.000000  1
  Ir  Ir30  1  0.816303  0.192610  0.000000  1
  Ir  Ir31  1  0.374378  0.179878  0.000000  1
  Ir  Ir32  1  0.289757  0.999620  0.500000  1
  Ir  Ir33  1  0.994436  0.286710  0.500000  1
  Ir  Ir34  1  0.711784  0.711868  0.500000  1
  Ir  Ir35  1  0.000697  0.001145  0.000000  1
