# generated using pymatgen
data_Sc3BeSiPIr3
_symmetry_space_group_name_H-M   'P 1'
_cell_length_a   6.52752300
_cell_length_b   6.52752397
_cell_length_c   3.67654300
_cell_angle_alpha   90.00000000
_cell_angle_beta   90.00000000
_cell_angle_gamma   120.00001027
_symmetry_Int_Tables_number   1
_chemical_formula_structural   Sc3BeSiPIr3
_chemical_formula_sum   'Sc3 Be1 Si1 P1 Ir3'
_cell_volume   135.66478247
_cell_formula_units_Z   1
loop_
 _symmetry_equiv_pos_site_id
 _symmetry_equiv_pos_as_xyz
  1  'x, y, z'
loop_
 _atom_site_type_symbol
 _atom_site_label
 _atom_site_symmetry_multiplicity
 _atom_site_fract_x
 _atom_site_fract_y
 _atom_site_fract_z
 _atom_site_occupancy
  Sc  Sc0  1  0.004060  0.410614  0.500000  1
  Sc  Sc1  1  0.589386  0.593446  0.500000  1
  Sc  Sc2  1  0.406554  0.995940  0.500000  1
  Be  Be3  1  0.000000  0.000000  0.500000  1
  Si  Si4  1  0.666667  0.333333  0.000000  1
  P  P5  1  0.333333  0.666667  0.000000  1
  Ir  Ir6  1  0.001003  0.757885  0.000000  1
  Ir  Ir7  1  0.242115  0.243118  0.000000  1
  Ir  Ir8  1  0.756882  0.998997  0.000000  1
