# generated using pymatgen
data_Ac9Tm11Si15Os
_symmetry_space_group_name_H-M   'P 1'
_cell_length_a   7.70862753
_cell_length_b   8.09294682
_cell_length_c   15.16562500
_cell_angle_alpha   90.05078990
_cell_angle_beta   89.96388459
_cell_angle_gamma   90.14978235
_symmetry_Int_Tables_number   1
_chemical_formula_structural   Ac9Tm11Si15Os
_chemical_formula_sum   'Ac9 Tm11 Si15 Os1'
_cell_volume   946.11149953
_cell_formula_units_Z   1
loop_
 _symmetry_equiv_pos_site_id
 _symmetry_equiv_pos_as_xyz
  1  'x, y, z'
loop_
 _atom_site_type_symbol
 _atom_site_label
 _atom_site_symmetry_multiplicity
 _atom_site_fract_x
 _atom_site_fract_y
 _atom_site_fract_z
 _atom_site_occupancy
  Ac  Ac0  1  0.191078  0.326004  0.623211  1
  Ac  Ac1  1  0.520230  0.674016  0.601103  1
  Ac  Ac2  1  0.017829  0.827387  0.906569  1
  Ac  Ac3  1  0.481418  0.321818  0.099658  1
  Ac  Ac4  1  0.981789  0.175034  0.398700  1
  Ac  Ac5  1  0.484783  0.322947  0.398545  1
  Ac  Ac6  1  0.981067  0.171838  0.097332  1
  Ac  Ac7  1  0.517515  0.668233  0.904512  1
  Ac  Ac8  1  0.019043  0.825394  0.597267  1
  Tm  Tm9  1  0.672510  0.183745  0.628526  1
  Tm  Tm10  1  0.190029  0.329240  0.874751  1
  Tm  Tm11  1  0.315567  0.824610  0.125035  1
  Tm  Tm12  1  0.815455  0.671677  0.368924  1
  Tm  Tm13  1  0.315434  0.827027  0.372850  1
  Tm  Tm14  1  0.817255  0.669645  0.126637  1
  Tm  Tm15  1  0.666650  0.186706  0.874825  1
  Tm  Tm16  1  0.835028  0.495661  0.753867  1
  Tm  Tm17  1  0.360129  0.006200  0.755028  1
  Tm  Tm18  1  0.151990  0.496981  0.248518  1
  Tm  Tm19  1  0.649309  0.999430  0.249356  1
  Si  Si20  1  0.646826  0.960557  0.457765  1
  Si  Si21  1  0.142871  0.532950  0.041346  1
  Si  Si22  1  0.355814  0.028520  0.963107  1
  Si  Si23  1  0.846670  0.472342  0.531435  1
  Si  Si24  1  0.371416  0.020837  0.535420  1
  Si  Si25  1  0.860915  0.468007  0.962228  1
  Si  Si26  1  0.639816  0.963140  0.041259  1
  Si  Si27  1  0.134005  0.542481  0.450628  1
  Si  Si28  1  0.970745  0.112143  0.755145  1
  Si  Si29  1  0.515727  0.636534  0.248533  1
  Si  Si30  1  0.018601  0.870872  0.247878  1
  Si  Si31  1  0.730558  0.888692  0.752287  1
  Si  Si32  1  0.228000  0.624065  0.755747  1
  Si  Si33  1  0.284454  0.120207  0.248693  1
  Si  Si34  1  0.789659  0.374898  0.248412  1
  Os  Os35  1  0.479816  0.380161  0.754903  1
