# generated using pymatgen
data_Gd4MgGaNi4
_symmetry_space_group_name_H-M   'P 1'
_cell_length_a   7.31514721
_cell_length_b   7.31461821
_cell_length_c   3.72692000
_cell_angle_alpha   90.00000000
_cell_angle_beta   90.00000000
_cell_angle_gamma   89.97238166
_symmetry_Int_Tables_number   1
_chemical_formula_structural   Gd4MgGaNi4
_chemical_formula_sum   'Gd4 Mg1 Ga1 Ni4'
_cell_volume   199.41818238
_cell_formula_units_Z   1
loop_
 _symmetry_equiv_pos_site_id
 _symmetry_equiv_pos_as_xyz
  1  'x, y, z'
loop_
 _atom_site_type_symbol
 _atom_site_label
 _atom_site_symmetry_multiplicity
 _atom_site_fract_x
 _atom_site_fract_y
 _atom_site_fract_z
 _atom_site_occupancy
  Gd  Gd0  1  0.688288  0.160958  0.500000  1
  Gd  Gd1  1  0.311712  0.839042  0.500000  1
  Gd  Gd2  1  0.160972  0.311722  0.500000  1
  Gd  Gd3  1  0.839028  0.688278  0.500000  1
  Mg  Mg4  1  0.500000  0.500000  0.000000  1
  Ga  Ga5  1  0.000000  0.000000  0.000000  1
  Ni  Ni6  1  0.125770  0.622544  0.000000  1
  Ni  Ni7  1  0.874230  0.377456  0.000000  1
  Ni  Ni8  1  0.620223  0.876083  0.000000  1
  Ni  Ni9  1  0.379777  0.123917  0.000000  1
