# generated using pymatgen
data_Dy3Ho(MnOs)4
_symmetry_space_group_name_H-M   'P 1'
_cell_length_a   5.32081407
_cell_length_b   5.20780364
_cell_length_c   9.21856933
_cell_angle_alpha   73.59276949
_cell_angle_beta   89.76899293
_cell_angle_gamma   119.29986408
_symmetry_Int_Tables_number   1
_chemical_formula_structural   Dy3Ho(MnOs)4
_chemical_formula_sum   'Dy3 Ho1 Mn4 Os4'
_cell_volume   210.58138381
_cell_formula_units_Z   1
loop_
 _symmetry_equiv_pos_site_id
 _symmetry_equiv_pos_as_xyz
  1  'x, y, z'
loop_
 _atom_site_type_symbol
 _atom_site_label
 _atom_site_symmetry_multiplicity
 _atom_site_fract_x
 _atom_site_fract_y
 _atom_site_fract_z
 _atom_site_occupancy
  Dy  Dy0  1  0.378518  0.752246  0.874025  1
  Dy  Dy1  1  0.996570  0.997809  0.000951  1
  Dy  Dy2  1  0.496435  0.997715  0.501005  1
  Ho  Ho3  1  0.878457  0.752206  0.374045  1
  Mn  Mn4  1  0.187595  0.375046  0.437503  1
  Mn  Mn5  1  0.687468  0.374998  0.937472  1
  Mn  Mn6  1  0.937460  0.375126  0.187206  1
  Mn  Mn7  1  0.437592  0.374910  0.687772  1
  Os  Os8  1  0.437448  0.374930  0.187518  1
  Os  Os9  1  0.937505  0.375074  0.687492  1
  Os  Os10  1  0.437448  0.875000  0.187518  1
  Os  Os11  1  0.937505  0.874939  0.687492  1
