# generated using pymatgen
data_Tb2Sm2YSn4
_symmetry_space_group_name_H-M   'P 1'
_cell_length_a   8.10962500
_cell_length_b   8.26814600
_cell_length_c   15.62281600
_cell_angle_alpha   90.00000000
_cell_angle_beta   90.00000000
_cell_angle_gamma   90.00000000
_symmetry_Int_Tables_number   1
_chemical_formula_structural   Tb2Sm2YSn4
_chemical_formula_sum   'Tb8 Sm8 Y4 Sn16'
_cell_volume   1047.53423915
_cell_formula_units_Z   4
loop_
 _symmetry_equiv_pos_site_id
 _symmetry_equiv_pos_as_xyz
  1  'x, y, z'
loop_
 _atom_site_type_symbol
 _atom_site_label
 _atom_site_symmetry_multiplicity
 _atom_site_fract_x
 _atom_site_fract_y
 _atom_site_fract_z
 _atom_site_occupancy
  Tb  Tb0  1  0.366087  0.835599  0.878267  1
  Tb  Tb1  1  0.866087  0.664401  0.621733  1
  Tb  Tb2  1  0.633913  0.164401  0.378267  1
  Tb  Tb3  1  0.133913  0.335599  0.121733  1
  Tb  Tb4  1  0.633913  0.164401  0.121733  1
  Tb  Tb5  1  0.133913  0.335599  0.378267  1
  Tb  Tb6  1  0.366087  0.835599  0.621733  1
  Tb  Tb7  1  0.866087  0.664401  0.878267  1
  Sm  Sm8  1  0.518440  0.320504  0.902076  1
  Sm  Sm9  1  0.018440  0.179496  0.597924  1
  Sm  Sm10  1  0.481560  0.679496  0.402076  1
  Sm  Sm11  1  0.981560  0.820504  0.097924  1
  Sm  Sm12  1  0.481560  0.679496  0.097924  1
  Sm  Sm13  1  0.981560  0.820504  0.402076  1
  Sm  Sm14  1  0.518440  0.320504  0.597924  1
  Sm  Sm15  1  0.018440  0.179496  0.902076  1
  Y  Y16  1  0.198258  0.502335  0.750000  1
  Y  Y17  1  0.698258  0.997665  0.750000  1
  Y  Y18  1  0.801742  0.497665  0.250000  1
  Y  Y19  1  0.301742  0.002335  0.250000  1
  Sn  Sn20  1  0.295691  0.036865  0.041866  1
  Sn  Sn21  1  0.795691  0.463135  0.458134  1
  Sn  Sn22  1  0.704309  0.963135  0.541866  1
  Sn  Sn23  1  0.204309  0.536865  0.958134  1
  Sn  Sn24  1  0.704309  0.963135  0.958134  1
  Sn  Sn25  1  0.204309  0.536865  0.541866  1
  Sn  Sn26  1  0.295691  0.036865  0.458134  1
  Sn  Sn27  1  0.795691  0.463135  0.041866  1
  Sn  Sn28  1  0.564855  0.620284  0.750000  1
  Sn  Sn29  1  0.064855  0.879716  0.750000  1
  Sn  Sn30  1  0.435145  0.379716  0.250000  1
  Sn  Sn31  1  0.935145  0.120284  0.250000  1
  Sn  Sn32  1  0.326482  0.144047  0.750000  1
  Sn  Sn33  1  0.826482  0.355953  0.750000  1
  Sn  Sn34  1  0.673518  0.855953  0.250000  1
  Sn  Sn35  1  0.173518  0.644047  0.250000  1
