# generated using pymatgen
data_Nd5Th3(CdOs)2
_symmetry_space_group_name_H-M   'P 1'
_cell_length_a   9.88974123
_cell_length_b   10.02077450
_cell_length_c   10.01967524
_cell_angle_alpha   58.95289096
_cell_angle_beta   60.43040969
_cell_angle_gamma   60.43292916
_symmetry_Int_Tables_number   1
_chemical_formula_structural   Nd5Th3(CdOs)2
_chemical_formula_sum   'Nd10 Th6 Cd4 Os4'
_cell_volume   700.85741837
_cell_formula_units_Z   2
loop_
 _symmetry_equiv_pos_site_id
 _symmetry_equiv_pos_as_xyz
  1  'x, y, z'
loop_
 _atom_site_type_symbol
 _atom_site_label
 _atom_site_symmetry_multiplicity
 _atom_site_fract_x
 _atom_site_fract_y
 _atom_site_fract_z
 _atom_site_occupancy
  Nd  Nd0  1  0.190999  0.809109  0.190635  1
  Nd  Nd1  1  0.808320  0.190651  0.808186  1
  Nd  Nd2  1  0.190980  0.190714  0.809060  1
  Nd  Nd3  1  0.808312  0.808172  0.190677  1
  Nd  Nd4  1  0.941177  0.562089  0.562038  1
  Nd  Nd5  1  0.558609  0.939728  0.939664  1
  Nd  Nd6  1  0.558878  0.943743  0.559790  1
  Nd  Nd7  1  0.942371  0.558625  0.940364  1
  Nd  Nd8  1  0.558900  0.559816  0.943744  1
  Nd  Nd9  1  0.942356  0.940331  0.558590  1
  Th  Th10  1  0.341051  0.347438  0.347459  1
  Th  Th11  1  0.348289  0.343079  0.960337  1
  Th  Th12  1  0.348291  0.960287  0.343060  1
  Th  Th13  1  0.960640  0.348408  0.348455  1
  Th  Th14  1  0.813032  0.187007  0.186976  1
  Th  Th15  1  0.186515  0.813894  0.813936  1
  Cd  Cd16  1  0.581454  0.579036  0.579028  1
  Cd  Cd17  1  0.579975  0.579719  0.259131  1
  Cd  Cd18  1  0.580005  0.259143  0.579692  1
  Cd  Cd19  1  0.258589  0.580205  0.580167  1
  Os  Os20  1  0.128480  0.149859  0.149834  1
  Os  Os21  1  0.150313  0.127309  0.571566  1
  Os  Os22  1  0.150287  0.571484  0.127446  1
  Os  Os23  1  0.572171  0.150154  0.150162  1
