# generated using pymatgen
data_Hf4CoPdN
_symmetry_space_group_name_H-M   'P 1'
_cell_length_a   8.61976298
_cell_length_b   8.61976266
_cell_length_c   8.61976400
_cell_angle_alpha   60.00000255
_cell_angle_beta   60.00000377
_cell_angle_gamma   60.00000351
_symmetry_Int_Tables_number   1
_chemical_formula_structural   Hf4CoPdN
_chemical_formula_sum   'Hf16 Co4 Pd4 N4'
_cell_volume   452.86738275
_cell_formula_units_Z   4
loop_
 _symmetry_equiv_pos_site_id
 _symmetry_equiv_pos_as_xyz
  1  'x, y, z'
loop_
 _atom_site_type_symbol
 _atom_site_label
 _atom_site_symmetry_multiplicity
 _atom_site_fract_x
 _atom_site_fract_y
 _atom_site_fract_z
 _atom_site_occupancy
  Hf  Hf0  1  0.165550  0.611483  0.611483  1
  Hf  Hf1  1  0.611483  0.165550  0.611483  1
  Hf  Hf2  1  0.611483  0.611483  0.165550  1
  Hf  Hf3  1  0.611483  0.611483  0.611483  1
  Hf  Hf4  1  0.815441  0.815441  0.184559  1
  Hf  Hf5  1  0.184559  0.184559  0.815441  1
  Hf  Hf6  1  0.815441  0.184559  0.815441  1
  Hf  Hf7  1  0.184559  0.815441  0.184559  1
  Hf  Hf8  1  0.184559  0.815441  0.815441  1
  Hf  Hf9  1  0.815441  0.184559  0.184559  1
  Hf  Hf10  1  0.432719  0.432719  0.067281  1
  Hf  Hf11  1  0.067281  0.067281  0.432719  1
  Hf  Hf12  1  0.432719  0.067281  0.432719  1
  Hf  Hf13  1  0.067281  0.432719  0.067281  1
  Hf  Hf14  1  0.067281  0.432719  0.432719  1
  Hf  Hf15  1  0.432719  0.067281  0.067281  1
  Co  Co16  1  0.799137  0.400288  0.400288  1
  Co  Co17  1  0.400288  0.799137  0.400288  1
  Co  Co18  1  0.400288  0.400288  0.799137  1
  Co  Co19  1  0.400288  0.400288  0.400288  1
  Pd  Pd20  1  0.493679  0.835440  0.835440  1
  Pd  Pd21  1  0.835440  0.493679  0.835440  1
  Pd  Pd22  1  0.835440  0.835440  0.493679  1
  Pd  Pd23  1  0.835440  0.835440  0.835440  1
  N  N24  1  0.626270  0.124577  0.124577  1
  N  N25  1  0.124577  0.626270  0.124577  1
  N  N26  1  0.124577  0.124577  0.626270  1
  N  N27  1  0.124577  0.124577  0.124577  1
