# generated using pymatgen
data_NdPd2PtAu2
_symmetry_space_group_name_H-M   'P 1'
_cell_length_a   5.44706522
_cell_length_b   5.43965432
_cell_length_c   5.44706482
_cell_angle_alpha   119.83840673
_cell_angle_beta   120.29165646
_cell_angle_gamma   89.92652553
_symmetry_Int_Tables_number   1
_chemical_formula_structural   NdPd2PtAu2
_chemical_formula_sum   'Nd1 Pd2 Pt1 Au2'
_cell_volume   113.97205003
_cell_formula_units_Z   1
loop_
 _symmetry_equiv_pos_site_id
 _symmetry_equiv_pos_as_xyz
  1  'x, y, z'
loop_
 _atom_site_type_symbol
 _atom_site_label
 _atom_site_symmetry_multiplicity
 _atom_site_fract_x
 _atom_site_fract_y
 _atom_site_fract_z
 _atom_site_occupancy
  Nd  Nd0  1  0.000128  0.003945  0.003817  1
  Pd  Pd1  1  0.624974  0.375044  0.248942  1
  Pd  Pd2  1  0.126102  0.375044  0.750070  1
  Pt  Pt3  1  0.624463  0.374039  0.749577  1
  Au  Au4  1  0.624775  0.873158  0.248383  1
  Au  Au5  1  0.249559  0.748769  0.499211  1
