# generated using pymatgen
data_Ga2(Se2O5)3
_symmetry_space_group_name_H-M   'P 1'
_cell_length_a   11.64486000
_cell_length_b   11.18337772
_cell_length_c   15.63951300
_cell_angle_alpha   49.69718803
_cell_angle_beta   90.00000000
_cell_angle_gamma   90.00000000
_symmetry_Int_Tables_number   1
_chemical_formula_structural   Ga2(Se2O5)3
_chemical_formula_sum   'Ga8 Se24 O60'
_cell_volume   1553.27419111
_cell_formula_units_Z   4
loop_
 _symmetry_equiv_pos_site_id
 _symmetry_equiv_pos_as_xyz
  1  'x, y, z'
loop_
 _atom_site_type_symbol
 _atom_site_label
 _atom_site_symmetry_multiplicity
 _atom_site_fract_x
 _atom_site_fract_y
 _atom_site_fract_z
 _atom_site_occupancy
  Ga  Ga0  1  0.000000  0.500000  0.500000  1
  Ga  Ga1  1  0.500000  0.500000  0.000000  1
  Ga  Ga2  1  0.000000  0.000000  0.500000  1
  Ga  Ga3  1  0.500000  0.000000  0.000000  1
  Ga  Ga4  1  0.500000  0.500000  0.500000  1
  Ga  Ga5  1  0.000000  0.500000  0.000000  1
  Ga  Ga6  1  0.500000  0.000000  0.500000  1
  Ga  Ga7  1  0.000000  0.000000  0.000000  1
  Se  Se8  1  0.032157  0.119817  0.741957  1
  Se  Se9  1  0.467843  0.119817  0.241957  1
  Se  Se10  1  0.967843  0.880183  0.258043  1
  Se  Se11  1  0.532157  0.880183  0.758043  1
  Se  Se12  1  0.953822  0.833904  0.752899  1
  Se  Se13  1  0.546178  0.833904  0.252899  1
  Se  Se14  1  0.046178  0.166096  0.247101  1
  Se  Se15  1  0.453822  0.166096  0.747101  1
  Se  Se16  1  0.607796  0.659268  0.607636  1
  Se  Se17  1  0.892204  0.659268  0.107636  1
  Se  Se18  1  0.392204  0.340732  0.392364  1
  Se  Se19  1  0.107796  0.340732  0.892364  1
  Se  Se20  1  0.871013  0.703272  0.546538  1
  Se  Se21  1  0.628987  0.703272  0.046538  1
  Se  Se22  1  0.128987  0.296728  0.453462  1
  Se  Se23  1  0.371013  0.296728  0.953462  1
  Se  Se24  1  0.748139  0.386213  0.486687  1
  Se  Se25  1  0.751861  0.386213  0.986687  1
  Se  Se26  1  0.251861  0.613787  0.513313  1
  Se  Se27  1  0.248139  0.613787  0.013313  1
  Se  Se28  1  0.746553  0.167090  0.420984  1
  Se  Se29  1  0.753447  0.167090  0.920984  1
  Se  Se30  1  0.253447  0.832910  0.579016  1
  Se  Se31  1  0.246553  0.832910  0.079016  1
  O  O32  1  0.927498  0.967601  0.780783  1
  O  O33  1  0.572502  0.967601  0.280783  1
  O  O34  1  0.072502  0.032399  0.219217  1
  O  O35  1  0.427498  0.032399  0.719217  1
  O  O36  1  0.970614  0.267833  0.615777  1
  O  O37  1  0.529386  0.267833  0.115777  1
  O  O38  1  0.029386  0.732167  0.384223  1
  O  O39  1  0.470614  0.732167  0.884223  1
  O  O40  1  0.981928  0.147976  0.829473  1
  O  O41  1  0.518072  0.147976  0.329473  1
  O  O42  1  0.018072  0.852024  0.170527  1
  O  O43  1  0.481928  0.852024  0.670527  1
  O  O44  1  0.050357  0.704838  0.854624  1
  O  O45  1  0.449643  0.704838  0.354624  1
  O  O46  1  0.949643  0.295162  0.145376  1
  O  O47  1  0.550357  0.295162  0.645376  1
  O  O48  1  0.047553  0.949495  0.642183  1
  O  O49  1  0.452447  0.949495  0.142183  1
  O  O50  1  0.952447  0.050505  0.357817  1
  O  O51  1  0.547553  0.050505  0.857817  1
  O  O52  1  0.756510  0.620757  0.654518  1
  O  O53  1  0.743490  0.620757  0.154518  1
  O  O54  1  0.243490  0.379243  0.345482  1
  O  O55  1  0.256510  0.379243  0.845482  1
  O  O56  1  0.615666  0.860121  0.512371  1
  O  O57  1  0.884334  0.860121  0.012371  1
  O  O58  1  0.384334  0.139879  0.487629  1
  O  O59  1  0.115666  0.139879  0.987629  1
  O  O60  1  0.615444  0.611956  0.523662  1
  O  O61  1  0.884556  0.611956  0.023662  1
  O  O62  1  0.384556  0.388044  0.476338  1
  O  O63  1  0.115444  0.388044  0.976338  1
  O  O64  1  0.956579  0.771345  0.595488  1
  O  O65  1  0.543421  0.771345  0.095488  1
  O  O66  1  0.043421  0.228655  0.404512  1
  O  O67  1  0.456579  0.228655  0.904512  1
  O  O68  1  0.933835  0.528776  0.603603  1
  O  O69  1  0.566165  0.528776  0.103603  1
  O  O70  1  0.066165  0.471224  0.396397  1
  O  O71  1  0.433835  0.471224  0.896397  1
  O  O72  1  0.786137  0.348306  0.390992  1
  O  O73  1  0.713863  0.348306  0.890992  1
  O  O74  1  0.213863  0.651694  0.609008  1
  O  O75  1  0.286137  0.651694  0.109008  1
  O  O76  1  0.624335  0.487345  0.419623  1
  O  O77  1  0.875665  0.487345  0.919623  1
  O  O78  1  0.375665  0.512655  0.580377  1
  O  O79  1  0.124335  0.512655  0.080377  1
  O  O80  1  0.844433  0.534774  0.431117  1
  O  O81  1  0.655567  0.534774  0.931117  1
  O  O82  1  0.155567  0.465226  0.568883  1
  O  O83  1  0.344433  0.465226  0.068883  1
  O  O84  1  0.840607  0.037902  0.525308  1
  O  O85  1  0.659393  0.037902  0.025308  1
  O  O86  1  0.159393  0.962098  0.474692  1
  O  O87  1  0.340607  0.962098  0.974692  1
  O  O88  1  0.624495  0.124442  0.497944  1
  O  O89  1  0.875505  0.124442  0.997944  1
  O  O90  1  0.375505  0.875558  0.502056  1
  O  O91  1  0.124495  0.875558  0.002056  1
