# generated using pymatgen
data_Th7FeNiRh
_symmetry_space_group_name_H-M   'P 1'
_cell_length_a   9.81709336
_cell_length_b   9.91072633
_cell_length_c   6.21226315
_cell_angle_alpha   89.98093463
_cell_angle_beta   90.03849441
_cell_angle_gamma   119.68797028
_symmetry_Int_Tables_number   1
_chemical_formula_structural   Th7FeNiRh
_chemical_formula_sum   'Th14 Fe2 Ni2 Rh2'
_cell_volume   525.08030721
_cell_formula_units_Z   2
loop_
 _symmetry_equiv_pos_site_id
 _symmetry_equiv_pos_as_xyz
  1  'x, y, z'
loop_
 _atom_site_type_symbol
 _atom_site_label
 _atom_site_symmetry_multiplicity
 _atom_site_fract_x
 _atom_site_fract_y
 _atom_site_fract_z
 _atom_site_occupancy
  Th  Th0  1  0.328800  0.666375  0.054350  1
  Th  Th1  1  0.662427  0.333625  0.554350  1
  Th  Th2  1  0.131446  0.877352  0.242687  1
  Th  Th3  1  0.254094  0.122648  0.742687  1
  Th  Th4  1  0.887303  0.753317  0.746784  1
  Th  Th5  1  0.133986  0.246683  0.246784  1
  Th  Th6  1  0.744693  0.868531  0.253701  1
  Th  Th7  1  0.876162  0.131469  0.753701  1
  Th  Th8  1  0.540166  0.451631  0.043409  1
  Th  Th9  1  0.088535  0.548369  0.543409  1
  Th  Th10  1  0.446737  0.910340  0.548931  1
  Th  Th11  1  0.536396  0.089660  0.048931  1
  Th  Th12  1  0.913539  0.460815  0.042310  1
  Th  Th13  1  0.452724  0.539185  0.542310  1
  Fe  Fe14  1  0.371064  0.189737  0.292001  1
  Fe  Fe15  1  0.181325  0.810263  0.792001  1
  Ni  Ni16  1  0.187352  0.372399  0.803432  1
  Ni  Ni17  1  0.814954  0.627601  0.303432  1
  Rh  Rh18  1  0.817507  0.186715  0.302397  1
  Rh  Rh19  1  0.630792  0.813285  0.802397  1
