# generated using pymatgen
data_CeY3Fe4(Co4P3)4
_symmetry_space_group_name_H-M   'P 1'
_cell_length_a   3.67539600
_cell_length_b   10.29476901
_cell_length_c   11.78841401
_cell_angle_alpha   90.00399767
_cell_angle_beta   90.00000000
_cell_angle_gamma   90.00000000
_symmetry_Int_Tables_number   1
_chemical_formula_structural   CeY3Fe4(Co4P3)4
_chemical_formula_sum   'Ce1 Y3 Fe4 Co16 P12'
_cell_volume   446.04237897
_cell_formula_units_Z   1
loop_
 _symmetry_equiv_pos_site_id
 _symmetry_equiv_pos_as_xyz
  1  'x, y, z'
loop_
 _atom_site_type_symbol
 _atom_site_label
 _atom_site_symmetry_multiplicity
 _atom_site_fract_x
 _atom_site_fract_y
 _atom_site_fract_z
 _atom_site_occupancy
  Ce  Ce0  1  0.250000  0.919140  0.202240  1
  Y  Y1  1  0.750000  0.081486  0.797687  1
  Y  Y2  1  0.750000  0.418596  0.297042  1
  Y  Y3  1  0.250000  0.581553  0.702634  1
  Fe  Fe4  1  0.250000  0.790398  0.487194  1
  Fe  Fe5  1  0.750000  0.209986  0.512369  1
  Fe  Fe6  1  0.750000  0.291447  0.011157  1
  Fe  Fe7  1  0.250000  0.709121  0.986480  1
  Co  Co8  1  0.250000  0.094285  0.987376  1
  Co  Co9  1  0.750000  0.906244  0.014183  1
  Co  Co10  1  0.750000  0.594473  0.512320  1
  Co  Co11  1  0.250000  0.406228  0.487581  1
  Co  Co12  1  0.250000  0.278182  0.676099  1
  Co  Co13  1  0.750000  0.721608  0.323456  1
  Co  Co14  1  0.750000  0.778111  0.824175  1
  Co  Co15  1  0.250000  0.222467  0.176478  1
  Co  Co16  1  0.250000  0.617477  0.197681  1
  Co  Co17  1  0.750000  0.382152  0.801306  1
  Co  Co18  1  0.750000  0.117002  0.302198  1
  Co  Co19  1  0.250000  0.881695  0.698576  1
  Co  Co20  1  0.250000  0.033852  0.433826  1
  Co  Co21  1  0.750000  0.967075  0.568095  1
  Co  Co22  1  0.750000  0.531735  0.066093  1
  Co  Co23  1  0.250000  0.466368  0.932669  1
  P  P24  1  0.250000  0.080639  0.614011  1
  P  P25  1  0.750000  0.918573  0.389631  1
  P  P26  1  0.750000  0.580176  0.886509  1
  P  P27  1  0.250000  0.419285  0.112872  1
  P  P28  1  0.250000  0.230450  0.368352  1
  P  P29  1  0.750000  0.769913  0.632134  1
  P  P30  1  0.750000  0.726086  0.131458  1
  P  P31  1  0.250000  0.270130  0.867303  1
  P  P32  1  0.250000  0.897033  0.892300  1
  P  P33  1  0.750000  0.106882  0.106706  1
  P  P34  1  0.750000  0.397682  0.607321  1
  P  P35  1  0.250000  0.602470  0.392487  1
