# generated using pymatgen
data_PrTi2GaAu3
_symmetry_space_group_name_H-M   'P 1'
_cell_length_a   5.73984612
_cell_length_b   5.73984768
_cell_length_c   5.67508459
_cell_angle_alpha   101.95313428
_cell_angle_beta   101.95312670
_cell_angle_gamma   126.18898810
_symmetry_Int_Tables_number   1
_chemical_formula_structural   PrTi2GaAu3
_chemical_formula_sum   'Pr1 Ti2 Ga1 Au3'
_cell_volume   134.16648598
_cell_formula_units_Z   1
loop_
 _symmetry_equiv_pos_site_id
 _symmetry_equiv_pos_as_xyz
  1  'x, y, z'
loop_
 _atom_site_type_symbol
 _atom_site_label
 _atom_site_symmetry_multiplicity
 _atom_site_fract_x
 _atom_site_fract_y
 _atom_site_fract_z
 _atom_site_occupancy
  Pr  Pr0  1  0.003658  0.996342  0.000000  1
  Ti  Ti1  1  0.247640  0.752360  0.500000  1
  Ti  Ti2  1  0.747640  0.252360  0.500000  1
  Ga  Ga3  1  0.304039  0.695961  0.000000  1
  Au  Au4  1  0.307820  0.316344  0.624163  1
  Au  Au5  1  0.683656  0.692180  0.375837  1
  Au  Au6  1  0.705548  0.294452  0.000000  1
