# generated using pymatgen
data_Tb5YbIn3
_symmetry_space_group_name_H-M   'P 1'
_cell_length_a   9.38179500
_cell_length_b   9.38179592
_cell_length_c   6.79113100
_cell_angle_alpha   90.00000000
_cell_angle_beta   90.00000000
_cell_angle_gamma   120.00000733
_symmetry_Int_Tables_number   1
_chemical_formula_structural   Tb5YbIn3
_chemical_formula_sum   'Tb10 Yb2 In6'
_cell_volume   517.66002419
_cell_formula_units_Z   2
loop_
 _symmetry_equiv_pos_site_id
 _symmetry_equiv_pos_as_xyz
  1  'x, y, z'
loop_
 _atom_site_type_symbol
 _atom_site_label
 _atom_site_symmetry_multiplicity
 _atom_site_fract_x
 _atom_site_fract_y
 _atom_site_fract_z
 _atom_site_occupancy
  Tb  Tb0  1  0.667193  0.667193  0.250000  1
  Tb  Tb1  1  0.000000  0.667193  0.750000  1
  Tb  Tb2  1  0.667193  0.000000  0.750000  1
  Tb  Tb3  1  0.333333  0.666667  0.500000  1
  Tb  Tb4  1  0.332807  0.332807  0.750000  1
  Tb  Tb5  1  0.000000  0.332807  0.250000  1
  Tb  Tb6  1  0.666667  0.333333  0.500000  1
  Tb  Tb7  1  0.332807  0.000000  0.250000  1
  Tb  Tb8  1  0.333333  0.666667  0.000000  1
  Tb  Tb9  1  0.666667  0.333333  0.000000  1
  Yb  Yb10  1  0.000000  0.000000  0.500000  1
  Yb  Yb11  1  0.000000  0.000000  0.000000  1
  In  In12  1  0.334153  0.000000  0.750000  1
  In  In13  1  0.000000  0.665847  0.250000  1
  In  In14  1  0.665847  0.000000  0.250000  1
  In  In15  1  0.000000  0.334153  0.750000  1
  In  In16  1  0.334153  0.334153  0.250000  1
  In  In17  1  0.665847  0.665847  0.750000  1
