# generated using pymatgen
data_Dy2TlCuSe4
_symmetry_space_group_name_H-M   'P 1'
_cell_length_a   7.33066000
_cell_length_b   7.33065933
_cell_length_c   14.35407200
_cell_angle_alpha   90.00000000
_cell_angle_beta   90.00000000
_cell_angle_gamma   147.27921807
_symmetry_Int_Tables_number   1
_chemical_formula_structural   Dy2TlCuSe4
_chemical_formula_sum   'Dy4 Tl2 Cu2 Se8'
_cell_volume   416.95914235
_cell_formula_units_Z   2
loop_
 _symmetry_equiv_pos_site_id
 _symmetry_equiv_pos_as_xyz
  1  'x, y, z'
loop_
 _atom_site_type_symbol
 _atom_site_label
 _atom_site_symmetry_multiplicity
 _atom_site_fract_x
 _atom_site_fract_y
 _atom_site_fract_z
 _atom_site_occupancy
  Dy  Dy0  1  0.634481  0.365519  0.934867  1
  Dy  Dy1  1  0.365519  0.634481  0.434867  1
  Dy  Dy2  1  0.634481  0.365519  0.565133  1
  Dy  Dy3  1  0.365519  0.634481  0.065133  1
  Tl  Tl4  1  0.110777  0.889223  0.250000  1
  Tl  Tl5  1  0.889223  0.110777  0.750000  1
  Cu  Cu6  1  0.161306  0.838694  0.750000  1
  Cu  Cu7  1  0.838694  0.161306  0.250000  1
  Se  Se8  1  0.000000  0.000000  0.500000  1
  Se  Se9  1  0.000000  0.000000  0.000000  1
  Se  Se10  1  0.734695  0.265305  0.111645  1
  Se  Se11  1  0.265305  0.734695  0.888355  1
  Se  Se12  1  0.564756  0.435244  0.750000  1
  Se  Se13  1  0.734695  0.265305  0.388355  1
  Se  Se14  1  0.435244  0.564756  0.250000  1
  Se  Se15  1  0.265305  0.734695  0.611645  1
