# generated using pymatgen
data_LaZn2CuRh2
_symmetry_space_group_name_H-M   'P 1'
_cell_length_a   3.98815500
_cell_length_b   5.37895231
_cell_length_c   5.37895106
_cell_angle_alpha   64.74087100
_cell_angle_beta   90.00000000
_cell_angle_gamma   90.00000000
_symmetry_Int_Tables_number   1
_chemical_formula_structural   LaZn2CuRh2
_chemical_formula_sum   'La1 Zn2 Cu1 Rh2'
_cell_volume   104.35702924
_cell_formula_units_Z   1
loop_
 _symmetry_equiv_pos_site_id
 _symmetry_equiv_pos_as_xyz
  1  'x, y, z'
loop_
 _atom_site_type_symbol
 _atom_site_label
 _atom_site_symmetry_multiplicity
 _atom_site_fract_x
 _atom_site_fract_y
 _atom_site_fract_z
 _atom_site_occupancy
  La  La0  1  0.000000  0.999988  0.000012  1
  Zn  Zn1  1  0.000000  0.336684  0.336710  1
  Zn  Zn2  1  0.000000  0.663290  0.663316  1
  Cu  Cu3  1  0.500000  0.499978  0.500022  1
  Rh  Rh4  1  0.500000  0.499974  0.000015  1
  Rh  Rh5  1  0.500000  0.999985  0.500026  1
