# generated using pymatgen
data_Gd3(Al3Co)4
_symmetry_space_group_name_H-M   'P 1'
_cell_length_a   8.63498900
_cell_length_b   8.63498803
_cell_length_c   9.31512500
_cell_angle_alpha   90.00000000
_cell_angle_beta   90.00000000
_cell_angle_gamma   119.99999990
_symmetry_Int_Tables_number   1
_chemical_formula_structural   Gd3(Al3Co)4
_chemical_formula_sum   'Gd6 Al24 Co8'
_cell_volume   601.50999416
_cell_formula_units_Z   2
loop_
 _symmetry_equiv_pos_site_id
 _symmetry_equiv_pos_as_xyz
  1  'x, y, z'
loop_
 _atom_site_type_symbol
 _atom_site_label
 _atom_site_symmetry_multiplicity
 _atom_site_fract_x
 _atom_site_fract_y
 _atom_site_fract_z
 _atom_site_occupancy
  Gd  Gd0  1  0.193339  0.386679  0.250000  1
  Gd  Gd1  1  0.806661  0.613321  0.750000  1
  Gd  Gd2  1  0.613321  0.806661  0.250000  1
  Gd  Gd3  1  0.386679  0.193339  0.750000  1
  Gd  Gd4  1  0.193339  0.806661  0.250000  1
  Gd  Gd5  1  0.806661  0.193339  0.750000  1
  Al  Al6  1  0.333333  0.666667  0.015997  1
  Al  Al7  1  0.666667  0.333333  0.984003  1
  Al  Al8  1  0.666667  0.333333  0.515997  1
  Al  Al9  1  0.333333  0.666667  0.484003  1
  Al  Al10  1  0.162720  0.325441  0.575398  1
  Al  Al11  1  0.837280  0.674559  0.424602  1
  Al  Al12  1  0.674559  0.837280  0.575398  1
  Al  Al13  1  0.837280  0.674559  0.075398  1
  Al  Al14  1  0.325441  0.162720  0.424602  1
  Al  Al15  1  0.162720  0.325441  0.924602  1
  Al  Al16  1  0.162720  0.837280  0.575398  1
  Al  Al17  1  0.325441  0.162720  0.075398  1
  Al  Al18  1  0.837280  0.162720  0.424602  1
  Al  Al19  1  0.674559  0.837280  0.924602  1
  Al  Al20  1  0.837280  0.162720  0.075398  1
  Al  Al21  1  0.162720  0.837280  0.924602  1
  Al  Al22  1  0.559854  0.119709  0.250000  1
  Al  Al23  1  0.440146  0.880291  0.750000  1
  Al  Al24  1  0.880291  0.440146  0.250000  1
  Al  Al25  1  0.119709  0.559854  0.750000  1
  Al  Al26  1  0.559854  0.440146  0.250000  1
  Al  Al27  1  0.440146  0.559854  0.750000  1
  Al  Al28  1  0.000000  0.000000  0.250000  1
  Al  Al29  1  0.000000  0.000000  0.750000  1
  Co  Co30  1  0.000000  0.000000  0.000000  1
  Co  Co31  1  0.000000  0.000000  0.500000  1
  Co  Co32  1  0.500000  0.000000  0.000000  1
  Co  Co33  1  0.000000  0.500000  0.000000  1
  Co  Co34  1  0.500000  0.000000  0.500000  1
  Co  Co35  1  0.500000  0.500000  0.000000  1
  Co  Co36  1  0.000000  0.500000  0.500000  1
  Co  Co37  1  0.500000  0.500000  0.500000  1
