# generated using pymatgen
data_SmTh3(AlRu)4
_symmetry_space_group_name_H-M   'P 1'
_cell_length_a   3.99168301
_cell_length_b   7.45961586
_cell_length_c   16.40552184
_cell_angle_alpha   90.00185402
_cell_angle_beta   90.00095805
_cell_angle_gamma   90.00120355
_symmetry_Int_Tables_number   1
_chemical_formula_structural   SmTh3(AlRu)4
_chemical_formula_sum   'Sm2 Th6 Al8 Ru8'
_cell_volume   488.49773894
_cell_formula_units_Z   2
loop_
 _symmetry_equiv_pos_site_id
 _symmetry_equiv_pos_as_xyz
  1  'x, y, z'
loop_
 _atom_site_type_symbol
 _atom_site_label
 _atom_site_symmetry_multiplicity
 _atom_site_fract_x
 _atom_site_fract_y
 _atom_site_fract_z
 _atom_site_occupancy
  Sm  Sm0  1  0.750081  0.953186  0.217686  1
  Sm  Sm1  1  0.249934  0.162169  0.558876  1
  Th  Th2  1  0.750042  0.825390  0.440557  1
  Th  Th3  1  0.750067  0.454526  0.282494  1
  Th  Th4  1  0.750037  0.332127  0.061497  1
  Th  Th5  1  0.249977  0.675458  0.939795  1
  Th  Th6  1  0.249914  0.050356  0.780629  1
  Th  Th7  1  0.249903  0.545961  0.717201  1
  Al  Al8  1  0.749941  0.489072  0.560976  1
  Al  Al9  1  0.749950  0.371660  0.849527  1
  Al  Al10  1  0.749991  0.007895  0.938666  1
  Al  Al11  1  0.749918  0.873517  0.648169  1
  Al  Al12  1  0.250030  0.488207  0.439148  1
  Al  Al13  1  0.250061  0.998545  0.065166  1
  Al  Al14  1  0.250073  0.635786  0.152168  1
  Al  Al15  1  0.250059  0.121651  0.345590  1
  Ru  Ru16  1  0.749913  0.756645  0.817400  1
  Ru  Ru17  1  0.249989  0.242538  0.939236  1
  Ru  Ru18  1  0.750032  0.259520  0.429707  1
  Ru  Ru19  1  0.250153  0.744173  0.322063  1
  Ru  Ru20  1  0.750053  0.760937  0.060589  1
  Ru  Ru21  1  0.749892  0.250213  0.689311  1
  Ru  Ru22  1  0.250035  0.268975  0.180068  1
  Ru  Ru23  1  0.249954  0.731496  0.563481  1
