# generated using pymatgen
data_Gd9LuRu3Rh
_symmetry_space_group_name_H-M   'P 1'
_cell_length_a   6.36874328
_cell_length_b   7.32443547
_cell_length_c   8.51430200
_cell_angle_alpha   96.67161224
_cell_angle_beta   112.06362455
_cell_angle_gamma   90.07215638
_symmetry_Int_Tables_number   1
_chemical_formula_structural   Gd9LuRu3Rh
_chemical_formula_sum   'Gd9 Lu1 Ru3 Rh1'
_cell_volume   365.15686268
_cell_formula_units_Z   1
loop_
 _symmetry_equiv_pos_site_id
 _symmetry_equiv_pos_as_xyz
  1  'x, y, z'
loop_
 _atom_site_type_symbol
 _atom_site_label
 _atom_site_symmetry_multiplicity
 _atom_site_fract_x
 _atom_site_fract_y
 _atom_site_fract_z
 _atom_site_occupancy
  Gd  Gd0  1  0.524244  0.082914  0.815262  1
  Gd  Gd1  1  0.478319  0.917006  0.183613  1
  Gd  Gd2  1  0.710792  0.416629  0.183781  1
  Gd  Gd3  1  0.291510  0.585259  0.810894  1
  Gd  Gd4  1  0.291739  0.312641  0.436716  1
  Gd  Gd5  1  0.709842  0.685210  0.569468  1
  Gd  Gd6  1  0.855182  0.184563  0.564641  1
  Gd  Gd7  1  0.139169  0.817335  0.434469  1
  Gd  Gd8  1  0.080696  0.247826  0.998569  1
  Lu  Lu9  1  0.922560  0.750627  0.999744  1
  Ru  Ru10  1  0.677849  0.427249  0.782599  1
  Ru  Ru11  1  0.103673  0.920719  0.782087  1
  Ru  Ru12  1  0.895984  0.073603  0.217146  1
  Rh  Rh13  1  0.318438  0.578420  0.221014  1
