# generated using pymatgen
data_Pr2AlZn3
_symmetry_space_group_name_H-M   'P 1'
_cell_length_a   5.91008710
_cell_length_b   5.80480846
_cell_length_c   5.80480826
_cell_angle_alpha   132.66556773
_cell_angle_beta   99.29558154
_cell_angle_gamma   98.91757740
_symmetry_Int_Tables_number   1
_chemical_formula_structural   Pr2AlZn3
_chemical_formula_sum   'Pr2 Al1 Zn3'
_cell_volume   134.57250101
_cell_formula_units_Z   1
loop_
 _symmetry_equiv_pos_site_id
 _symmetry_equiv_pos_as_xyz
  1  'x, y, z'
loop_
 _atom_site_type_symbol
 _atom_site_label
 _atom_site_symmetry_multiplicity
 _atom_site_fract_x
 _atom_site_fract_y
 _atom_site_fract_z
 _atom_site_occupancy
  Pr  Pr0  1  0.708365  0.458467  0.249898  1
  Pr  Pr1  1  0.291844  0.538622  0.753221  1
  Al  Al2  1  0.893356  0.837507  0.055849  1
  Zn  Zn3  1  0.107981  0.164045  0.943936  1
  Zn  Zn4  1  0.721238  0.165354  0.555884  1
  Zn  Zn5  1  0.277217  0.836004  0.441212  1
