# generated using pymatgen
data_TmLu7Ga3Os
_symmetry_space_group_name_H-M   'P 1'
_cell_length_a   9.82918500
_cell_length_b   9.82918496
_cell_length_c   6.90538400
_cell_angle_alpha   90.00000000
_cell_angle_beta   90.00000000
_cell_angle_gamma   120.00001022
_symmetry_Int_Tables_number   1
_chemical_formula_structural   TmLu7Ga3Os
_chemical_formula_sum   'Tm2 Lu14 Ga6 Os2'
_cell_volume   577.76793803
_cell_formula_units_Z   2
loop_
 _symmetry_equiv_pos_site_id
 _symmetry_equiv_pos_as_xyz
  1  'x, y, z'
loop_
 _atom_site_type_symbol
 _atom_site_label
 _atom_site_symmetry_multiplicity
 _atom_site_fract_x
 _atom_site_fract_y
 _atom_site_fract_z
 _atom_site_occupancy
  Tm  Tm0  1  0.000000  0.000000  0.265660  1
  Tm  Tm1  1  0.000000  0.000000  0.765660  1
  Lu  Lu2  1  0.172154  0.827846  0.989670  1
  Lu  Lu3  1  0.344309  0.172154  0.489670  1
  Lu  Lu4  1  0.827846  0.655691  0.489670  1
  Lu  Lu5  1  0.172154  0.344309  0.989670  1
  Lu  Lu6  1  0.655691  0.827846  0.989670  1
  Lu  Lu7  1  0.827846  0.172154  0.489670  1
  Lu  Lu8  1  0.333333  0.666667  0.660942  1
  Lu  Lu9  1  0.666667  0.333333  0.160942  1
  Lu  Lu10  1  0.466176  0.533824  0.295016  1
  Lu  Lu11  1  0.932352  0.466176  0.795016  1
  Lu  Lu12  1  0.533824  0.067648  0.795016  1
  Lu  Lu13  1  0.466176  0.932352  0.295016  1
  Lu  Lu14  1  0.067648  0.533824  0.295016  1
  Lu  Lu15  1  0.533824  0.466176  0.795016  1
  Ga  Ga16  1  0.163822  0.836178  0.541475  1
  Ga  Ga17  1  0.327643  0.163822  0.041475  1
  Ga  Ga18  1  0.836178  0.672357  0.041475  1
  Ga  Ga19  1  0.163822  0.327643  0.541475  1
  Ga  Ga20  1  0.672357  0.836178  0.541475  1
  Ga  Ga21  1  0.836178  0.163822  0.041475  1
  Os  Os22  1  0.333333  0.666667  0.056921  1
  Os  Os23  1  0.666667  0.333333  0.556921  1
