# generated using pymatgen
data_LiAl3Ni4
_symmetry_space_group_name_H-M   'P 1'
_cell_length_a   4.95075171
_cell_length_b   4.95075139
_cell_length_c   4.06317200
_cell_angle_alpha   90.00000000
_cell_angle_beta   90.00000000
_cell_angle_gamma   109.44819849
_symmetry_Int_Tables_number   1
_chemical_formula_structural   LiAl3Ni4
_chemical_formula_sum   'Li1 Al3 Ni4'
_cell_volume   93.90589727
_cell_formula_units_Z   1
loop_
 _symmetry_equiv_pos_site_id
 _symmetry_equiv_pos_as_xyz
  1  'x, y, z'
loop_
 _atom_site_type_symbol
 _atom_site_label
 _atom_site_symmetry_multiplicity
 _atom_site_fract_x
 _atom_site_fract_y
 _atom_site_fract_z
 _atom_site_occupancy
  Li  Li0  1  0.500000  0.500000  0.000000  1
  Al  Al1  1  0.743332  0.256668  0.500000  1
  Al  Al2  1  0.256668  0.743332  0.500000  1
  Al  Al3  1  0.000000  0.000000  0.000000  1
  Ni  Ni4  1  0.757830  0.757830  0.500000  1
  Ni  Ni5  1  0.242170  0.242170  0.500000  1
  Ni  Ni6  1  0.500000  0.000000  0.000000  1
  Ni  Ni7  1  0.000000  0.500000  0.000000  1
