# generated using pymatgen
data_Ta2CdFe2(PO4)6
_symmetry_space_group_name_H-M   'P 1'
_cell_length_a   8.72533782
_cell_length_b   8.72533792
_cell_length_c   8.89081108
_cell_angle_alpha   119.38620855
_cell_angle_beta   60.61378432
_cell_angle_gamma   120.00000013
_symmetry_Int_Tables_number   1
_chemical_formula_structural   Ta2CdFe2(PO4)6
_chemical_formula_sum   'Ta2 Cd1 Fe2 P6 O24'
_cell_volume   483.01244534
_cell_formula_units_Z   1
loop_
 _symmetry_equiv_pos_site_id
 _symmetry_equiv_pos_as_xyz
  1  'x, y, z'
loop_
 _atom_site_type_symbol
 _atom_site_label
 _atom_site_symmetry_multiplicity
 _atom_site_fract_x
 _atom_site_fract_y
 _atom_site_fract_z
 _atom_site_occupancy
  Ta  Ta0  1  0.639532  0.360467  0.081401  1
  Ta  Ta1  1  0.360467  0.639532  0.918599  1
  Cd  Cd2  1  0.000000  0.000000  0.000000  1
  Fe  Fe3  1  0.853326  0.146674  0.440021  1
  Fe  Fe4  1  0.146674  0.853326  0.559979  1
  P  P5  1  0.241302  0.032824  0.250946  1
  P  P6  1  0.967176  0.459426  0.250946  1
  P  P7  1  0.540574  0.758697  0.250946  1
  P  P8  1  0.459426  0.241303  0.749053  1
  P  P9  1  0.032824  0.540574  0.749053  1
  P  P10  1  0.758697  0.967176  0.749053  1
  O  O11  1  0.138261  0.496818  0.079748  1
  O  O12  1  0.503182  0.721190  0.079748  1
  O  O13  1  0.278810  0.861739  0.079748  1
  O  O14  1  0.424062  0.206723  0.228125  1
  O  O15  1  0.793278  0.445465  0.228125  1
  O  O16  1  0.554536  0.575938  0.228125  1
  O  O17  1  0.086318  0.066453  0.246205  1
  O  O18  1  0.933548  0.266072  0.246205  1
  O  O19  1  0.733928  0.913682  0.246205  1
  O  O20  1  0.197767  0.005436  0.425064  1
  O  O21  1  0.994563  0.617393  0.425064  1
  O  O22  1  0.382606  0.802233  0.425064  1
  O  O23  1  0.617393  0.197767  0.574937  1
  O  O24  1  0.005436  0.382607  0.574937  1
  O  O25  1  0.802232  0.994563  0.574937  1
  O  O26  1  0.266071  0.086318  0.753795  1
  O  O27  1  0.066453  0.733929  0.753795  1
  O  O28  1  0.913682  0.933548  0.753795  1
  O  O29  1  0.445465  0.424063  0.771875  1
  O  O30  1  0.206724  0.554536  0.771875  1
  O  O31  1  0.575937  0.793277  0.771875  1
  O  O32  1  0.721190  0.138261  0.920253  1
  O  O33  1  0.496817  0.278810  0.920253  1
  O  O34  1  0.861739  0.503183  0.920253  1
