# generated using pymatgen
data_LaTb3(PrRh9)2
_symmetry_space_group_name_H-M   'P 1'
_cell_length_a   5.33036300
_cell_length_b   5.33036208
_cell_length_c   17.60923200
_cell_angle_alpha   90.00000000
_cell_angle_beta   90.00000000
_cell_angle_gamma   119.99999948
_symmetry_Int_Tables_number   1
_chemical_formula_structural   LaTb3(PrRh9)2
_chemical_formula_sum   'La1 Tb3 Pr2 Rh18'
_cell_volume   433.29586642
_cell_formula_units_Z   1
loop_
 _symmetry_equiv_pos_site_id
 _symmetry_equiv_pos_as_xyz
  1  'x, y, z'
loop_
 _atom_site_type_symbol
 _atom_site_label
 _atom_site_symmetry_multiplicity
 _atom_site_fract_x
 _atom_site_fract_y
 _atom_site_fract_z
 _atom_site_occupancy
  La  La0  1  0.666667  0.333333  0.250775  1
  Tb  Tb1  1  0.333333  0.666667  0.541525  1
  Tb  Tb2  1  0.666667  0.333333  0.043382  1
  Tb  Tb3  1  0.666667  0.333333  0.458592  1
  Pr  Pr4  1  0.333333  0.666667  0.958701  1
  Pr  Pr5  1  0.333333  0.666667  0.748711  1
  Rh  Rh6  1  0.166827  0.333655  0.126560  1
  Rh  Rh7  1  0.832603  0.665208  0.624063  1
  Rh  Rh8  1  0.666345  0.833173  0.126560  1
  Rh  Rh9  1  0.166827  0.833173  0.126560  1
  Rh  Rh10  1  0.832603  0.167397  0.624063  1
  Rh  Rh11  1  0.334792  0.167397  0.624063  1
  Rh  Rh12  1  0.833021  0.666042  0.872793  1
  Rh  Rh13  1  0.833021  0.166979  0.872793  1
  Rh  Rh14  1  0.333958  0.166979  0.872793  1
  Rh  Rh15  1  0.665202  0.832601  0.376035  1
  Rh  Rh16  1  0.167399  0.832601  0.376035  1
  Rh  Rh17  1  0.167399  0.334798  0.376035  1
  Rh  Rh18  1  0.000000  0.000000  0.251608  1
  Rh  Rh19  1  0.000000  0.000000  0.748274  1
  Rh  Rh20  1  0.333333  0.666667  0.251069  1
  Rh  Rh21  1  0.666667  0.333333  0.748483  1
  Rh  Rh22  1  0.000000  0.000000  0.000428  1
  Rh  Rh23  1  0.000000  0.000000  0.500104  1
