# generated using pymatgen
data_Y3Ho13MgIn3Pd4
_symmetry_space_group_name_H-M   'P 1'
_cell_length_a   9.74781331
_cell_length_b   9.71152899
_cell_length_c   9.70552540
_cell_angle_alpha   59.71673010
_cell_angle_beta   59.83333651
_cell_angle_gamma   59.92482336
_symmetry_Int_Tables_number   1
_chemical_formula_structural   Y3Ho13MgIn3Pd4
_chemical_formula_sum   'Y3 Ho13 Mg1 In3 Pd4'
_cell_volume   647.09365775
_cell_formula_units_Z   1
loop_
 _symmetry_equiv_pos_site_id
 _symmetry_equiv_pos_as_xyz
  1  'x, y, z'
loop_
 _atom_site_type_symbol
 _atom_site_label
 _atom_site_symmetry_multiplicity
 _atom_site_fract_x
 _atom_site_fract_y
 _atom_site_fract_z
 _atom_site_occupancy
  Y  Y0  1  0.935685  0.563739  0.935684  1
  Y  Y1  1  0.564906  0.565149  0.934572  1
  Y  Y2  1  0.935017  0.935258  0.564197  1
  Ho  Ho3  1  0.351189  0.350982  0.351242  1
  Ho  Ho4  1  0.352360  0.350937  0.944430  1
  Ho  Ho5  1  0.352760  0.944305  0.351280  1
  Ho  Ho6  1  0.940771  0.353050  0.352916  1
  Ho  Ho7  1  0.808861  0.190408  0.190992  1
  Ho  Ho8  1  0.188513  0.811418  0.811198  1
  Ho  Ho9  1  0.187895  0.812368  0.188777  1
  Ho  Ho10  1  0.809262  0.191061  0.809223  1
  Ho  Ho11  1  0.188093  0.188487  0.812269  1
  Ho  Ho12  1  0.809298  0.809297  0.191394  1
  Ho  Ho13  1  0.935488  0.565170  0.564723  1
  Ho  Ho14  1  0.563155  0.936713  0.936590  1
  Ho  Ho15  1  0.564694  0.935323  0.564287  1
  Mg  Mg16  1  0.266351  0.577786  0.577778  1
  In  In17  1  0.582908  0.583771  0.583508  1
  In  In18  1  0.582045  0.583485  0.251136  1
  In  In19  1  0.582001  0.251092  0.583363  1
  Pd  Pd20  1  0.143927  0.144078  0.144074  1
  Pd  Pd21  1  0.142861  0.144231  0.568450  1
  Pd  Pd22  1  0.142816  0.568534  0.144346  1
  Pd  Pd23  1  0.569138  0.143358  0.143571  1
