# generated using pymatgen
data_YPa7S12
_symmetry_space_group_name_H-M   'P 1'
_cell_length_a   3.82756800
_cell_length_b   10.37777410
_cell_length_c   10.57804293
_cell_angle_alpha   90.26969384
_cell_angle_beta   90.00000000
_cell_angle_gamma   90.00000000
_symmetry_Int_Tables_number   1
_chemical_formula_structural   YPa7S12
_chemical_formula_sum   'Y1 Pa7 S12'
_cell_volume   420.17251681
_cell_formula_units_Z   1
loop_
 _symmetry_equiv_pos_site_id
 _symmetry_equiv_pos_as_xyz
  1  'x, y, z'
loop_
 _atom_site_type_symbol
 _atom_site_label
 _atom_site_symmetry_multiplicity
 _atom_site_fract_x
 _atom_site_fract_y
 _atom_site_fract_z
 _atom_site_occupancy
  Y  Y0  1  0.250000  0.984708  0.808426  1
  Pa  Pa1  1  0.250000  0.186793  0.488575  1
  Pa  Pa2  1  0.250000  0.318326  0.988775  1
  Pa  Pa3  1  0.750000  0.814838  0.509523  1
  Pa  Pa4  1  0.750000  0.682452  0.012037  1
  Pa  Pa5  1  0.750000  0.496928  0.691028  1
  Pa  Pa6  1  0.750000  0.006282  0.194257  1
  Pa  Pa7  1  0.250000  0.506599  0.308264  1
  S  S8  1  0.250000  0.629970  0.552242  1
  S  S9  1  0.250000  0.871166  0.053459  1
  S  S10  1  0.750000  0.372099  0.446573  1
  S  S11  1  0.750000  0.126200  0.949684  1
  S  S12  1  0.750000  0.056091  0.625849  1
  S  S13  1  0.750000  0.442151  0.126801  1
  S  S14  1  0.250000  0.944305  0.375574  1
  S  S15  1  0.250000  0.557784  0.874403  1
  S  S16  1  0.250000  0.299572  0.725404  1
  S  S17  1  0.250000  0.206542  0.226591  1
  S  S18  1  0.750000  0.707921  0.271497  1
  S  S19  1  0.750000  0.789273  0.771038  1
