# generated using pymatgen
data_Nd16Ag4Pt3Rh
_symmetry_space_group_name_H-M   'P 1'
_cell_length_a   9.92924692
_cell_length_b   9.91616532
_cell_length_c   9.91615200
_cell_angle_alpha   59.99994904
_cell_angle_beta   60.04365408
_cell_angle_gamma   60.04357421
_symmetry_Int_Tables_number   1
_chemical_formula_structural   Nd16Ag4Pt3Rh
_chemical_formula_sum   'Nd16 Ag4 Pt3 Rh1'
_cell_volume   690.83457303
_cell_formula_units_Z   1
loop_
 _symmetry_equiv_pos_site_id
 _symmetry_equiv_pos_as_xyz
  1  'x, y, z'
loop_
 _atom_site_type_symbol
 _atom_site_label
 _atom_site_symmetry_multiplicity
 _atom_site_fract_x
 _atom_site_fract_y
 _atom_site_fract_z
 _atom_site_occupancy
  Nd  Nd0  1  0.607488  0.603122  0.603121  1
  Nd  Nd1  1  0.607488  0.603122  0.186269  1
  Nd  Nd2  1  0.607488  0.186268  0.603122  1
  Nd  Nd3  1  0.178933  0.607022  0.607022  1
  Nd  Nd4  1  0.058454  0.438522  0.438521  1
  Nd  Nd5  1  0.438468  0.060784  0.060784  1
  Nd  Nd6  1  0.438469  0.060783  0.439964  1
  Nd  Nd7  1  0.058454  0.438522  0.064502  1
  Nd  Nd8  1  0.438467  0.439964  0.060783  1
  Nd  Nd9  1  0.058454  0.064503  0.438522  1
  Nd  Nd10  1  0.186840  0.813887  0.813889  1
  Nd  Nd11  1  0.815742  0.185091  0.185091  1
  Nd  Nd12  1  0.815744  0.185088  0.814079  1
  Nd  Nd13  1  0.186840  0.813888  0.185383  1
  Nd  Nd14  1  0.815741  0.814073  0.185093  1
  Nd  Nd15  1  0.186839  0.185384  0.813889  1
  Ag  Ag16  1  0.832184  0.833342  0.833342  1
  Ag  Ag17  1  0.832185  0.833343  0.501132  1
  Ag  Ag18  1  0.832185  0.501132  0.833342  1
  Ag  Ag19  1  0.504453  0.831850  0.831849  1
  Pt  Pt20  1  0.393154  0.395443  0.395443  1
  Pt  Pt21  1  0.393153  0.395444  0.815959  1
  Pt  Pt22  1  0.393153  0.815960  0.395443  1
  Rh  Rh23  1  0.819625  0.393459  0.393458  1
