# generated using pymatgen
data_PaI5F6
_symmetry_space_group_name_H-M   'P 1'
_cell_length_a   9.08228399
_cell_length_b   9.15426412
_cell_length_c   15.94025785
_cell_angle_alpha   101.04970532
_cell_angle_beta   93.43227054
_cell_angle_gamma   111.43105731
_symmetry_Int_Tables_number   1
_chemical_formula_structural   PaI5F6
_chemical_formula_sum   'Pa3 I15 F18'
_cell_volume   1198.49338052
_cell_formula_units_Z   3
loop_
 _symmetry_equiv_pos_site_id
 _symmetry_equiv_pos_as_xyz
  1  'x, y, z'
loop_
 _atom_site_type_symbol
 _atom_site_label
 _atom_site_symmetry_multiplicity
 _atom_site_fract_x
 _atom_site_fract_y
 _atom_site_fract_z
 _atom_site_occupancy
  Pa  Pa0  1  0.473339  0.145018  0.348504  1
  Pa  Pa1  1  0.526661  0.854982  0.651496  1
  Pa  Pa2  1  0.000000  0.000000  0.000000  1
  I  I3  1  0.054622  0.361071  0.261082  1
  I  I4  1  0.670361  0.441297  0.095473  1
  I  I5  1  0.434419  0.796401  0.058757  1
  I  I6  1  0.565581  0.203599  0.941243  1
  I  I7  1  0.245405  0.585595  0.161725  1
  I  I8  1  0.754595  0.414405  0.838275  1
  I  I9  1  0.329639  0.558703  0.904527  1
  I  I10  1  0.945378  0.638929  0.738918  1
  I  I11  1  0.168384  0.549395  0.421950  1
  I  I12  1  0.831616  0.450605  0.578050  1
  I  I13  1  0.000000  0.000000  0.500000  1
  I  I14  1  0.278640  0.258445  0.609648  1
  I  I15  1  0.721360  0.741555  0.390352  1
  I  I16  1  0.161872  0.243103  0.764270  1
  I  I17  1  0.838128  0.756897  0.235730  1
  F  F18  1  0.761137  0.957792  0.715807  1
  F  F19  1  0.288944  0.741468  0.580865  1
  F  F20  1  0.711056  0.258532  0.419135  1
  F  F21  1  0.042160  0.161173  0.915364  1
  F  F22  1  0.957840  0.838827  0.084636  1
  F  F23  1  0.056548  0.837379  0.905397  1
  F  F24  1  0.943452  0.162621  0.094603  1
  F  F25  1  0.240512  0.109188  0.053616  1
  F  F26  1  0.759488  0.890812  0.946384  1
  F  F27  1  0.388756  0.247719  0.460241  1
  F  F28  1  0.238863  0.042208  0.284193  1
  F  F29  1  0.560715  0.045253  0.241399  1
  F  F30  1  0.439285  0.954747  0.758601  1
  F  F31  1  0.438587  0.939911  0.396159  1
  F  F32  1  0.561413  0.060089  0.603841  1
  F  F33  1  0.513090  0.355914  0.303647  1
  F  F34  1  0.486910  0.644086  0.696353  1
  F  F35  1  0.611244  0.752281  0.539759  1
