# generated using pymatgen
data_Y3Er13(In3Tc)2
_symmetry_space_group_name_H-M   'P 1'
_cell_length_a   10.34792911
_cell_length_b   10.35053327
_cell_length_c   7.01825200
_cell_angle_alpha   89.99990061
_cell_angle_beta   90.00043373
_cell_angle_gamma   120.00884511
_symmetry_Int_Tables_number   1
_chemical_formula_structural   Y3Er13(In3Tc)2
_chemical_formula_sum   'Y3 Er13 In6 Tc2'
_cell_volume   650.93413242
_cell_formula_units_Z   1
loop_
 _symmetry_equiv_pos_site_id
 _symmetry_equiv_pos_as_xyz
  1  'x, y, z'
loop_
 _atom_site_type_symbol
 _atom_site_label
 _atom_site_symmetry_multiplicity
 _atom_site_fract_x
 _atom_site_fract_y
 _atom_site_fract_z
 _atom_site_occupancy
  Y  Y0  1  0.530276  0.060540  0.796554  1
  Y  Y1  1  0.939440  0.469720  0.796593  1
  Y  Y2  1  0.530282  0.469741  0.796549  1
  Er  Er3  1  0.468522  0.937014  0.296716  1
  Er  Er4  1  0.062954  0.531477  0.296762  1
  Er  Er5  1  0.468523  0.531509  0.296717  1
  Er  Er6  1  0.822775  0.645542  0.498291  1
  Er  Er7  1  0.354462  0.177230  0.498274  1
  Er  Er8  1  0.822773  0.177233  0.498294  1
  Er  Er9  1  0.177537  0.355098  0.000929  1
  Er  Er10  1  0.644897  0.822450  0.000934  1
  Er  Er11  1  0.177537  0.822440  0.000931  1
  Er  Er12  1  0.666649  0.333324  0.170445  1
  Er  Er13  1  0.333333  0.666667  0.667695  1
  Er  Er14  1  0.999941  0.999970  0.775374  1
  Er  Er15  1  0.000037  0.000019  0.276215  1
  In  In16  1  0.836918  0.674020  0.038831  1
  In  In17  1  0.325977  0.162995  0.038609  1
  In  In18  1  0.836921  0.162904  0.038828  1
  In  In19  1  0.163138  0.326067  0.538566  1
  In  In20  1  0.673965  0.836978  0.538470  1
  In  In21  1  0.163139  0.837069  0.538566  1
  Tc  Tc22  1  0.666693  0.333340  0.566272  1
  Tc  Tc23  1  0.333310  0.666651  0.070488  1
