# generated using pymatgen
data_Gd5Dy2CoI12
_symmetry_space_group_name_H-M   'P 1'
_cell_length_a   9.68400395
_cell_length_b   9.60608413
_cell_length_c   9.60573400
_cell_angle_alpha   106.96262382
_cell_angle_beta   106.88555451
_cell_angle_gamma   107.29175894
_symmetry_Int_Tables_number   1
_chemical_formula_structural   Gd5Dy2CoI12
_chemical_formula_sum   'Gd5 Dy2 Co1 I12'
_cell_volume   743.22222293
_cell_formula_units_Z   1
loop_
 _symmetry_equiv_pos_site_id
 _symmetry_equiv_pos_as_xyz
  1  'x, y, z'
loop_
 _atom_site_type_symbol
 _atom_site_label
 _atom_site_symmetry_multiplicity
 _atom_site_fract_x
 _atom_site_fract_y
 _atom_site_fract_z
 _atom_site_occupancy
  Gd  Gd0  1  0.024872  0.095689  0.296659  1
  Gd  Gd1  1  0.095231  0.296431  0.024373  1
  Gd  Gd2  1  0.297876  0.025255  0.096409  1
  Gd  Gd3  1  0.975894  0.903731  0.703799  1
  Gd  Gd4  1  0.902994  0.702390  0.975025  1
  Dy  Dy5  1  0.499630  0.500732  0.500093  1
  Dy  Dy6  1  0.706745  0.974316  0.904185  1
  Co  Co7  1  0.000044  0.999570  0.000193  1
  I  I8  1  0.161295  0.472882  0.392248  1
  I  I9  1  0.470959  0.393036  0.158949  1
  I  I10  1  0.390300  0.159505  0.472532  1
  I  I11  1  0.837157  0.526818  0.607406  1
  I  I12  1  0.528689  0.611646  0.841513  1
  I  I13  1  0.610379  0.843249  0.531370  1
  I  I14  1  0.677290  0.072421  0.227780  1
  I  I15  1  0.073336  0.232044  0.675945  1
  I  I16  1  0.229362  0.676053  0.072919  1
  I  I17  1  0.325080  0.927604  0.768967  1
  I  I18  1  0.925880  0.767404  0.323910  1
  I  I19  1  0.766985  0.319226  0.925725  1
