# generated using pymatgen
data_Eu(GaCl4)2
_symmetry_space_group_name_H-M   'P 1'
_cell_length_a   7.10563900
_cell_length_b   7.85320087
_cell_length_c   12.91000419
_cell_angle_alpha   85.59251135
_cell_angle_beta   90.00000000
_cell_angle_gamma   90.00000000
_symmetry_Int_Tables_number   1
_chemical_formula_structural   Eu(GaCl4)2
_chemical_formula_sum   'Eu2 Ga4 Cl16'
_cell_volume   718.27374860
_cell_formula_units_Z   2
loop_
 _symmetry_equiv_pos_site_id
 _symmetry_equiv_pos_as_xyz
  1  'x, y, z'
loop_
 _atom_site_type_symbol
 _atom_site_label
 _atom_site_symmetry_multiplicity
 _atom_site_fract_x
 _atom_site_fract_y
 _atom_site_fract_z
 _atom_site_occupancy
  Eu  Eu0  1  0.842259  0.500000  0.750000  1
  Eu  Eu1  1  0.157741  0.500000  0.250000  1
  Ga  Ga2  1  0.260734  0.674944  0.580094  1
  Ga  Ga3  1  0.739266  0.674944  0.080094  1
  Ga  Ga4  1  0.739266  0.325056  0.419906  1
  Ga  Ga5  1  0.260734  0.325056  0.919906  1
  Cl  Cl6  1  0.824587  0.406457  0.116841  1
  Cl  Cl7  1  0.824587  0.593543  0.383159  1
  Cl  Cl8  1  0.301755  0.732468  0.411201  1
  Cl  Cl9  1  0.301755  0.267532  0.088799  1
  Cl  Cl10  1  0.698245  0.267532  0.588799  1
  Cl  Cl11  1  0.698245  0.732468  0.911201  1
  Cl  Cl12  1  0.022268  0.819584  0.640304  1
  Cl  Cl13  1  0.022268  0.180416  0.859696  1
  Cl  Cl14  1  0.977732  0.180416  0.359696  1
  Cl  Cl15  1  0.977732  0.819584  0.140304  1
  Cl  Cl16  1  0.528926  0.735334  0.655875  1
  Cl  Cl17  1  0.528926  0.264666  0.844125  1
  Cl  Cl18  1  0.471074  0.264666  0.344125  1
  Cl  Cl19  1  0.471074  0.735334  0.155875  1
  Cl  Cl20  1  0.175413  0.406457  0.616841  1
  Cl  Cl21  1  0.175413  0.593543  0.883159  1
