# generated using pymatgen
data_Tb8Tm8Tl5GaCo2
_symmetry_space_group_name_H-M   'P 1'
_cell_length_a   10.18024176
_cell_length_b   10.18023962
_cell_length_c   7.18077007
_cell_angle_alpha   89.99831456
_cell_angle_beta   90.00168670
_cell_angle_gamma   119.99877980
_symmetry_Int_Tables_number   1
_chemical_formula_structural   Tb8Tm8Tl5GaCo2
_chemical_formula_sum   'Tb8 Tm8 Tl5 Ga1 Co2'
_cell_volume   644.50024079
_cell_formula_units_Z   1
loop_
 _symmetry_equiv_pos_site_id
 _symmetry_equiv_pos_as_xyz
  1  'x, y, z'
loop_
 _atom_site_type_symbol
 _atom_site_label
 _atom_site_symmetry_multiplicity
 _atom_site_fract_x
 _atom_site_fract_y
 _atom_site_fract_z
 _atom_site_occupancy
  Tb  Tb0  1  0.537466  0.073910  0.787418  1
  Tb  Tb1  1  0.926090  0.462534  0.787418  1
  Tb  Tb2  1  0.536941  0.463059  0.783581  1
  Tb  Tb3  1  0.455644  0.922847  0.289318  1
  Tb  Tb4  1  0.077153  0.544356  0.289318  1
  Tb  Tb5  1  0.463567  0.536433  0.288645  1
  Tb  Tb6  1  0.002141  0.997859  0.770448  1
  Tb  Tb7  1  0.003336  0.996664  0.274349  1
  Tm  Tm8  1  0.829594  0.646814  0.492177  1
  Tm  Tm9  1  0.353186  0.170406  0.492177  1
  Tm  Tm10  1  0.821466  0.178534  0.486224  1
  Tm  Tm11  1  0.178938  0.359082  0.988705  1
  Tm  Tm12  1  0.640918  0.821062  0.988705  1
  Tm  Tm13  1  0.178122  0.821878  0.977562  1
  Tm  Tm14  1  0.666448  0.333552  0.185021  1
  Tm  Tm15  1  0.330206  0.669794  0.679224  1
  Tl  Tl16  1  0.835894  0.672449  0.042545  1
  Tl  Tl17  1  0.327551  0.164106  0.042545  1
  Tl  Tl18  1  0.836901  0.163099  0.043060  1
  Tl  Tl19  1  0.164512  0.327348  0.541607  1
  Tl  Tl20  1  0.672652  0.835488  0.541607  1
  Ga  Ga21  1  0.162764  0.837236  0.543938  1
  Co  Co22  1  0.666338  0.333662  0.556045  1
  Co  Co23  1  0.332174  0.667826  0.054444  1
