# generated using pymatgen
data_La4PdPt3Pb2
_symmetry_space_group_name_H-M   'P 1'
_cell_length_a   8.16044762
_cell_length_b   8.16044762
_cell_length_c   3.85913400
_cell_angle_alpha   90.00000000
_cell_angle_beta   90.00000000
_cell_angle_gamma   89.82409188
_symmetry_Int_Tables_number   1
_chemical_formula_structural   La4PdPt3Pb2
_chemical_formula_sum   'La4 Pd1 Pt3 Pb2'
_cell_volume   256.98973372
_cell_formula_units_Z   1
loop_
 _symmetry_equiv_pos_site_id
 _symmetry_equiv_pos_as_xyz
  1  'x, y, z'
loop_
 _atom_site_type_symbol
 _atom_site_label
 _atom_site_symmetry_multiplicity
 _atom_site_fract_x
 _atom_site_fract_y
 _atom_site_fract_z
 _atom_site_occupancy
  La  La0  1  0.671492  0.171492  0.500000  1
  La  La1  1  0.181135  0.326115  0.500000  1
  La  La2  1  0.826115  0.681135  0.500000  1
  La  La3  1  0.323826  0.823826  0.500000  1
  Pd  Pd4  1  0.871758  0.371758  0.000000  1
  Pt  Pt5  1  0.373781  0.126099  0.000000  1
  Pt  Pt6  1  0.121730  0.621730  0.000000  1
  Pt  Pt7  1  0.626099  0.873781  0.000000  1
  Pb  Pb8  1  0.999474  0.004590  0.000000  1
  Pb  Pb9  1  0.504590  0.499474  0.000000  1
