# generated using pymatgen
data_Th4IBr15
_symmetry_space_group_name_H-M   'P 1'
_cell_length_a   7.73498922
_cell_length_b   7.87549446
_cell_length_c   13.50064766
_cell_angle_alpha   67.88462004
_cell_angle_beta   89.45012343
_cell_angle_gamma   89.81901875
_symmetry_Int_Tables_number   1
_chemical_formula_structural   Th4IBr15
_chemical_formula_sum   'Th4 I1 Br15'
_cell_volume   761.87475251
_cell_formula_units_Z   1
loop_
 _symmetry_equiv_pos_site_id
 _symmetry_equiv_pos_as_xyz
  1  'x, y, z'
loop_
 _atom_site_type_symbol
 _atom_site_label
 _atom_site_symmetry_multiplicity
 _atom_site_fract_x
 _atom_site_fract_y
 _atom_site_fract_z
 _atom_site_occupancy
  Th  Th0  1  0.516427  0.007689  0.318388  1
  Th  Th1  1  0.013743  0.999069  0.177756  1
  Th  Th2  1  0.487203  0.996269  0.681879  1
  Th  Th3  1  0.984947  0.003784  0.818867  1
  I  I4  1  0.182946  0.767720  0.408742  1
  Br  Br5  1  0.857202  0.142086  0.343748  1
  Br  Br6  1  0.357706  0.869802  0.150671  1
  Br  Br7  1  0.143132  0.864681  0.655104  1
  Br  Br8  1  0.641679  0.136047  0.847250  1
  Br  Br9  1  0.079318  0.230918  0.945176  1
  Br  Br10  1  0.586379  0.775551  0.553193  1
  Br  Br11  1  0.920757  0.772299  0.051236  1
  Br  Br12  1  0.420786  0.228058  0.448016  1
  Br  Br13  1  0.746586  0.716210  0.810012  1
  Br  Br14  1  0.246334  0.283699  0.690521  1
  Br  Br15  1  0.253145  0.282321  0.191070  1
  Br  Br16  1  0.748904  0.721005  0.305974  1
  Br  Br17  1  0.311046  0.803299  0.895384  1
  Br  Br18  1  0.811318  0.197715  0.604277  1
  Br  Br19  1  0.690441  0.201779  0.102736  1
