# generated using pymatgen
data_Li5Dy8Sc7Sn16
_symmetry_space_group_name_H-M   'P 1'
_cell_length_a   7.43516057
_cell_length_b   7.97101745
_cell_length_c   15.01491808
_cell_angle_alpha   89.99692755
_cell_angle_beta   90.06121720
_cell_angle_gamma   90.03992201
_symmetry_Int_Tables_number   1
_chemical_formula_structural   Li5Dy8Sc7Sn16
_chemical_formula_sum   'Li5 Dy8 Sc7 Sn16'
_cell_volume   889.87032775
_cell_formula_units_Z   1
loop_
 _symmetry_equiv_pos_site_id
 _symmetry_equiv_pos_as_xyz
  1  'x, y, z'
loop_
 _atom_site_type_symbol
 _atom_site_label
 _atom_site_symmetry_multiplicity
 _atom_site_fract_x
 _atom_site_fract_y
 _atom_site_fract_z
 _atom_site_occupancy
  Li  Li0  1  0.162600  0.498826  0.749828  1
  Li  Li1  1  0.836134  0.501144  0.250245  1
  Li  Li2  1  0.336426  0.999213  0.250029  1
  Li  Li3  1  0.662765  0.001224  0.748958  1
  Li  Li4  1  0.335523  0.160448  0.625738  1
  Dy  Dy5  1  0.997398  0.181979  0.093258  1
  Dy  Dy6  1  0.003809  0.819968  0.906315  1
  Dy  Dy7  1  0.502671  0.683368  0.905709  1
  Dy  Dy8  1  0.003515  0.819517  0.594998  1
  Dy  Dy9  1  0.497240  0.318150  0.093184  1
  Dy  Dy10  1  0.997738  0.181740  0.406591  1
  Dy  Dy11  1  0.496706  0.316828  0.407944  1
  Dy  Dy12  1  0.501575  0.683444  0.593510  1
  Sc  Sc13  1  0.664735  0.837658  0.374306  1
  Sc  Sc14  1  0.168902  0.664562  0.374636  1
  Sc  Sc15  1  0.666932  0.836475  0.125965  1
  Sc  Sc16  1  0.833248  0.337202  0.627049  1
  Sc  Sc17  1  0.333397  0.164037  0.873871  1
  Sc  Sc18  1  0.833879  0.335034  0.872436  1
  Sc  Sc19  1  0.166148  0.663810  0.126824  1
  Sn  Sn20  1  0.026502  0.115782  0.749194  1
  Sn  Sn21  1  0.976251  0.884258  0.250557  1
  Sn  Sn22  1  0.475996  0.615645  0.250146  1
  Sn  Sn23  1  0.520916  0.383095  0.747069  1
  Sn  Sn24  1  0.300053  0.856317  0.749388  1
  Sn  Sn25  1  0.697535  0.143293  0.249950  1
  Sn  Sn26  1  0.198091  0.356638  0.249803  1
  Sn  Sn27  1  0.801692  0.641449  0.750260  1
  Sn  Sn28  1  0.176383  0.452770  0.543305  1
  Sn  Sn29  1  0.823122  0.542375  0.458384  1
  Sn  Sn30  1  0.323548  0.959949  0.458871  1
  Sn  Sn31  1  0.821908  0.541916  0.041523  1
  Sn  Sn32  1  0.677489  0.042880  0.541869  1
  Sn  Sn33  1  0.178338  0.458901  0.958361  1
  Sn  Sn34  1  0.679829  0.042797  0.958073  1
  Sn  Sn35  1  0.321007  0.957308  0.041852  1
