# generated using pymatgen
data_LiRh(SeO3)2
_symmetry_space_group_name_H-M   'P 1'
_cell_length_a   9.09429444
_cell_length_b   9.09429539
_cell_length_c   9.09429500
_cell_angle_alpha   107.66506913
_cell_angle_beta   107.66507103
_cell_angle_gamma   113.14725147
_symmetry_Int_Tables_number   1
_chemical_formula_structural   LiRh(SeO3)2
_chemical_formula_sum   'Li4 Rh4 Se8 O24'
_cell_volume   577.20910590
_cell_formula_units_Z   4
loop_
 _symmetry_equiv_pos_site_id
 _symmetry_equiv_pos_as_xyz
  1  'x, y, z'
loop_
 _atom_site_type_symbol
 _atom_site_label
 _atom_site_symmetry_multiplicity
 _atom_site_fract_x
 _atom_site_fract_y
 _atom_site_fract_z
 _atom_site_occupancy
  Li  Li0  1  0.691086  0.875000  0.316086  1
  Li  Li1  1  0.558914  0.375000  0.683914  1
  Li  Li2  1  0.625000  0.308914  0.183914  1
  Li  Li3  1  0.125000  0.441086  0.816086  1
  Rh  Rh4  1  0.415386  0.875000  0.040386  1
  Rh  Rh5  1  0.834614  0.375000  0.959614  1
  Rh  Rh6  1  0.625000  0.584614  0.459614  1
  Rh  Rh7  1  0.125000  0.165386  0.540386  1
  Se  Se8  1  0.854059  0.132148  0.171687  1
  Se  Se9  1  0.289539  0.617852  0.221912  1
  Se  Se10  1  0.960461  0.682372  0.828313  1
  Se  Se11  1  0.395941  0.067628  0.778088  1
  Se  Se12  1  0.317628  0.145941  0.278088  1
  Se  Se13  1  0.382148  0.604059  0.671687  1
  Se  Se14  1  0.867852  0.039539  0.721912  1
  Se  Se15  1  0.932372  0.710461  0.328313  1
  O  O16  1  0.686116  0.052586  0.234210  1
  O  O17  1  0.431624  0.697414  0.133530  1
  O  O18  1  0.818376  0.451906  0.765790  1
  O  O19  1  0.563884  0.298094  0.866470  1
  O  O20  1  0.548094  0.313884  0.366470  1
  O  O21  1  0.302586  0.436116  0.734210  1
  O  O22  1  0.947414  0.181624  0.633530  1
  O  O23  1  0.701906  0.568376  0.265790  1
  O  O24  1  0.835147  0.312951  0.158203  1
  O  O25  1  0.095252  0.437049  0.022197  1
  O  O26  1  0.154748  0.676944  0.841796  1
  O  O27  1  0.414853  0.073056  0.977803  1
  O  O28  1  0.323056  0.164853  0.477803  1
  O  O29  1  0.562951  0.585147  0.658203  1
  O  O30  1  0.687049  0.845252  0.522197  1
  O  O31  1  0.926944  0.904748  0.341796  1
  O  O32  1  0.046417  0.263836  0.376813  1
  O  O33  1  0.362976  0.486164  0.282580  1
  O  O34  1  0.887024  0.669604  0.623187  1
  O  O35  1  0.203583  0.080396  0.717420  1
  O  O36  1  0.330396  0.953583  0.217420  1
  O  O37  1  0.513836  0.796417  0.876813  1
  O  O38  1  0.736164  0.112976  0.782580  1
  O  O39  1  0.919604  0.637024  0.123187  1
