# generated using pymatgen
data_Tm2Fe3Ni3(P3Ru2)2
_symmetry_space_group_name_H-M   'P 1'
_cell_length_a   3.74835700
_cell_length_b   10.51680800
_cell_length_c   11.88128500
_cell_angle_alpha   90.00000000
_cell_angle_beta   90.00000000
_cell_angle_gamma   90.00000000
_symmetry_Int_Tables_number   1
_chemical_formula_structural   Tm2Fe3Ni3(P3Ru2)2
_chemical_formula_sum   'Tm4 Fe6 Ni6 P12 Ru8'
_cell_volume   468.36917617
_cell_formula_units_Z   2
loop_
 _symmetry_equiv_pos_site_id
 _symmetry_equiv_pos_as_xyz
  1  'x, y, z'
loop_
 _atom_site_type_symbol
 _atom_site_label
 _atom_site_symmetry_multiplicity
 _atom_site_fract_x
 _atom_site_fract_y
 _atom_site_fract_z
 _atom_site_occupancy
  Tm  Tm0  1  0.250000  0.579914  0.709030  1
  Tm  Tm1  1  0.250000  0.920086  0.209030  1
  Tm  Tm2  1  0.750000  0.412056  0.291508  1
  Tm  Tm3  1  0.750000  0.087944  0.791508  1
  Fe  Fe4  1  0.750000  0.119496  0.298989  1
  Fe  Fe5  1  0.750000  0.380504  0.798989  1
  Fe  Fe6  1  0.250000  0.464646  0.935667  1
  Fe  Fe7  1  0.250000  0.035354  0.435667  1
  Fe  Fe8  1  0.750000  0.537668  0.068833  1
  Fe  Fe9  1  0.750000  0.962332  0.568833  1
  Ni  Ni10  1  0.250000  0.227601  0.176877  1
  Ni  Ni11  1  0.250000  0.272399  0.676877  1
  Ni  Ni12  1  0.750000  0.768402  0.819068  1
  Ni  Ni13  1  0.750000  0.731598  0.319068  1
  Ni  Ni14  1  0.250000  0.879817  0.703330  1
  Ni  Ni15  1  0.250000  0.620183  0.203330  1
  P  P16  1  0.250000  0.428276  0.114518  1
  P  P17  1  0.250000  0.071724  0.614518  1
  P  P18  1  0.750000  0.569378  0.886796  1
  P  P19  1  0.750000  0.930622  0.386796  1
  P  P20  1  0.250000  0.275955  0.864353  1
  P  P21  1  0.250000  0.224045  0.364353  1
  P  P22  1  0.750000  0.732201  0.130231  1
  P  P23  1  0.750000  0.767799  0.630231  1
  P  P24  1  0.250000  0.598382  0.389959  1
  P  P25  1  0.250000  0.901618  0.889959  1
  P  P26  1  0.750000  0.400533  0.612688  1
  P  P27  1  0.750000  0.099467  0.112688  1
  Ru  Ru28  1  0.250000  0.706551  0.986580  1
  Ru  Ru29  1  0.250000  0.793449  0.486580  1
  Ru  Ru30  1  0.750000  0.296110  0.017727  1
  Ru  Ru31  1  0.750000  0.203890  0.517727  1
  Ru  Ru32  1  0.250000  0.400254  0.483418  1
  Ru  Ru33  1  0.250000  0.099746  0.983418  1
  Ru  Ru34  1  0.750000  0.594438  0.510428  1
  Ru  Ru35  1  0.750000  0.905562  0.010428  1
