# generated using pymatgen
data_Yb3ErTi4O12
_symmetry_space_group_name_H-M   'P 1'
_cell_length_a   5.32865349
_cell_length_b   5.51310154
_cell_length_c   7.62995100
_cell_angle_alpha   90.00000000
_cell_angle_beta   90.00000000
_cell_angle_gamma   89.83650473
_symmetry_Int_Tables_number   1
_chemical_formula_structural   Yb3ErTi4O12
_chemical_formula_sum   'Yb3 Er1 Ti4 O12'
_cell_volume   224.14726928
_cell_formula_units_Z   1
loop_
 _symmetry_equiv_pos_site_id
 _symmetry_equiv_pos_as_xyz
  1  'x, y, z'
loop_
 _atom_site_type_symbol
 _atom_site_label
 _atom_site_symmetry_multiplicity
 _atom_site_fract_x
 _atom_site_fract_y
 _atom_site_fract_z
 _atom_site_occupancy
  Yb  Yb0  1  0.513200  0.944610  0.750000  1
  Yb  Yb1  1  0.485499  0.055504  0.250000  1
  Yb  Yb2  1  0.012474  0.552906  0.250000  1
  Er  Er3  1  0.985454  0.436899  0.750000  1
  Ti  Ti4  1  0.001851  0.997664  0.002137  1
  Ti  Ti5  1  0.001851  0.997664  0.497863  1
  Ti  Ti6  1  0.497538  0.501306  0.002308  1
  Ti  Ti7  1  0.497538  0.501306  0.497692  1
  O  O8  1  0.090372  0.031447  0.750000  1
  O  O9  1  0.201138  0.296548  0.043682  1
  O  O10  1  0.201138  0.296548  0.456318  1
  O  O11  1  0.300180  0.797358  0.453493  1
  O  O12  1  0.300180  0.797358  0.046507  1
  O  O13  1  0.395910  0.527349  0.750000  1
  O  O14  1  0.585903  0.476058  0.250000  1
  O  O15  1  0.707013  0.209400  0.948635  1
  O  O16  1  0.707013  0.209400  0.551365  1
  O  O17  1  0.803091  0.698881  0.553284  1
  O  O18  1  0.803091  0.698881  0.946716  1
  O  O19  1  0.909568  0.972917  0.250000  1
