# generated using pymatgen
data_DyEr5(ReB7)2
_symmetry_space_group_name_H-M   'P 1'
_cell_length_a   8.03375701
_cell_length_b   8.03375717
_cell_length_c   9.32513100
_cell_angle_alpha   90.00000000
_cell_angle_beta   90.00000000
_cell_angle_gamma   154.68970209
_symmetry_Int_Tables_number   1
_chemical_formula_structural   DyEr5(ReB7)2
_chemical_formula_sum   'Dy1 Er5 Re2 B14'
_cell_volume   257.30553308
_cell_formula_units_Z   1
loop_
 _symmetry_equiv_pos_site_id
 _symmetry_equiv_pos_as_xyz
  1  'x, y, z'
loop_
 _atom_site_type_symbol
 _atom_site_label
 _atom_site_symmetry_multiplicity
 _atom_site_fract_x
 _atom_site_fract_y
 _atom_site_fract_z
 _atom_site_occupancy
  Dy  Dy0  1  0.243227  0.756773  0.250000  1
  Er  Er1  1  0.894689  0.105311  0.440390  1
  Er  Er2  1  0.105422  0.894578  0.560129  1
  Er  Er3  1  0.894689  0.105311  0.059610  1
  Er  Er4  1  0.105422  0.894578  0.939871  1
  Er  Er5  1  0.757398  0.242602  0.750000  1
  Re  Re6  1  0.052259  0.947741  0.250000  1
  Re  Re7  1  0.947547  0.052453  0.750000  1
  B  B8  1  0.727311  0.272689  0.467346  1
  B  B9  1  0.272609  0.727391  0.534136  1
  B  B10  1  0.727311  0.272689  0.032654  1
  B  B11  1  0.272609  0.727391  0.965864  1
  B  B12  1  0.632099  0.367901  0.150254  1
  B  B13  1  0.367746  0.632254  0.849473  1
  B  B14  1  0.632099  0.367901  0.349746  1
  B  B15  1  0.367746  0.632254  0.650527  1
  B  B16  1  0.520303  0.479697  0.094766  1
  B  B17  1  0.479656  0.520344  0.905228  1
  B  B18  1  0.520303  0.479697  0.405234  1
  B  B19  1  0.479656  0.520344  0.594772  1
  B  B20  1  0.455514  0.544486  0.250000  1
  B  B21  1  0.544384  0.455616  0.750000  1
