# generated using pymatgen
data_Rb2Pr3Y(CuSe4)2
_symmetry_space_group_name_H-M   'P 1'
_cell_length_a   7.61998988
_cell_length_b   7.61998795
_cell_length_c   14.67788901
_cell_angle_alpha   90.24628279
_cell_angle_beta   89.75371656
_cell_angle_gamma   147.67535131
_symmetry_Int_Tables_number   1
_chemical_formula_structural   Rb2Pr3Y(CuSe4)2
_chemical_formula_sum   'Rb2 Pr3 Y1 Cu2 Se8'
_cell_volume   455.71261827
_cell_formula_units_Z   1
loop_
 _symmetry_equiv_pos_site_id
 _symmetry_equiv_pos_as_xyz
  1  'x, y, z'
loop_
 _atom_site_type_symbol
 _atom_site_label
 _atom_site_symmetry_multiplicity
 _atom_site_fract_x
 _atom_site_fract_y
 _atom_site_fract_z
 _atom_site_occupancy
  Rb  Rb0  1  0.108877  0.891123  0.248185  1
  Rb  Rb1  1  0.891117  0.108883  0.751004  1
  Pr  Pr2  1  0.632409  0.367591  0.939741  1
  Pr  Pr3  1  0.365930  0.634070  0.434255  1
  Pr  Pr4  1  0.634917  0.365083  0.563102  1
  Y  Y5  1  0.363729  0.636271  0.062818  1
  Cu  Cu6  1  0.163053  0.836947  0.751138  1
  Cu  Cu7  1  0.839478  0.160522  0.251019  1
  Se  Se8  1  0.999947  0.000053  0.499347  1
  Se  Se9  1  0.994144  0.005856  0.003256  1
  Se  Se10  1  0.742494  0.257506  0.112228  1
  Se  Se11  1  0.263594  0.736406  0.889377  1
  Se  Se12  1  0.570664  0.429336  0.751523  1
  Se  Se13  1  0.735873  0.264127  0.384396  1
  Se  Se14  1  0.429617  0.570383  0.244237  1
  Se  Se15  1  0.264158  0.735842  0.614373  1
