# generated using pymatgen
data_Tb3Zn3Pd2Rh
_symmetry_space_group_name_H-M   'P 1'
_cell_length_a   7.30571900
_cell_length_b   7.30571940
_cell_length_c   3.85629100
_cell_angle_alpha   90.00000000
_cell_angle_beta   90.00000000
_cell_angle_gamma   119.99999365
_symmetry_Int_Tables_number   1
_chemical_formula_structural   Tb3Zn3Pd2Rh
_chemical_formula_sum   'Tb3 Zn3 Pd2 Rh1'
_cell_volume   178.24871596
_cell_formula_units_Z   1
loop_
 _symmetry_equiv_pos_site_id
 _symmetry_equiv_pos_as_xyz
  1  'x, y, z'
loop_
 _atom_site_type_symbol
 _atom_site_label
 _atom_site_symmetry_multiplicity
 _atom_site_fract_x
 _atom_site_fract_y
 _atom_site_fract_z
 _atom_site_occupancy
  Tb  Tb0  1  0.009315  0.411455  0.000000  1
  Tb  Tb1  1  0.588545  0.597860  0.000000  1
  Tb  Tb2  1  0.402140  0.990685  0.000000  1
  Zn  Zn3  1  0.001701  0.748136  0.500000  1
  Zn  Zn4  1  0.251864  0.253565  0.500000  1
  Zn  Zn5  1  0.746435  0.998299  0.500000  1
  Pd  Pd6  1  0.000000  0.000000  0.000000  1
  Pd  Pd7  1  0.666667  0.333333  0.500000  1
  Rh  Rh8  1  0.333333  0.666667  0.500000  1
