# generated using pymatgen
data_TbY7(Ti3Si4)4
_symmetry_space_group_name_H-M   'P 1'
_cell_length_a   7.06063001
_cell_length_b   7.06080801
_cell_length_c   12.97948501
_cell_angle_alpha   89.99651176
_cell_angle_beta   90.00241855
_cell_angle_gamma   89.99420612
_symmetry_Int_Tables_number   1
_chemical_formula_structural   TbY7(Ti3Si4)4
_chemical_formula_sum   'Tb1 Y7 Ti12 Si16'
_cell_volume   647.07603398
_cell_formula_units_Z   1
loop_
 _symmetry_equiv_pos_site_id
 _symmetry_equiv_pos_as_xyz
  1  'x, y, z'
loop_
 _atom_site_type_symbol
 _atom_site_label
 _atom_site_symmetry_multiplicity
 _atom_site_fract_x
 _atom_site_fract_y
 _atom_site_fract_z
 _atom_site_occupancy
  Tb  Tb0  1  0.997512  0.660098  0.033439  1
  Y  Y1  1  0.339946  0.002417  0.466570  1
  Y  Y2  1  0.497595  0.839947  0.716556  1
  Y  Y3  1  0.502412  0.160061  0.216569  1
  Y  Y4  1  0.839935  0.497565  0.283445  1
  Y  Y5  1  0.160077  0.502411  0.783422  1
  Y  Y6  1  0.660063  0.997572  0.966570  1
  Y  Y7  1  0.002416  0.339933  0.533433  1
  Ti  Ti8  1  0.327325  0.327327  0.000011  1
  Ti  Ti9  1  0.172685  0.827292  0.249994  1
  Ti  Ti10  1  0.827278  0.172685  0.749990  1
  Ti  Ti11  1  0.672695  0.672709  0.499994  1
  Ti  Ti12  1  0.152854  0.008787  0.876542  1
  Ti  Ti13  1  0.491201  0.652791  0.126547  1
  Ti  Ti14  1  0.508772  0.347189  0.626524  1
  Ti  Ti15  1  0.652812  0.491175  0.873467  1
  Ti  Ti16  1  0.347229  0.508765  0.373490  1
  Ti  Ti17  1  0.847160  0.991222  0.376552  1
  Ti  Ti18  1  0.008806  0.152900  0.123470  1
  Ti  Ti19  1  0.991184  0.847173  0.623449  1
  Si  Si20  1  0.202501  0.129349  0.685000  1
  Si  Si21  1  0.370715  0.702479  0.935006  1
  Si  Si22  1  0.629348  0.297511  0.435011  1
  Si  Si23  1  0.702452  0.370633  0.064982  1
  Si  Si24  1  0.297514  0.629355  0.564988  1
  Si  Si25  1  0.797462  0.870668  0.185048  1
  Si  Si26  1  0.129354  0.202494  0.314995  1
  Si  Si27  1  0.870663  0.797512  0.814959  1
  Si  Si28  1  0.290571  0.953428  0.064872  1
  Si  Si29  1  0.546616  0.790549  0.314875  1
  Si  Si30  1  0.453399  0.209463  0.814880  1
  Si  Si31  1  0.790538  0.546632  0.685121  1
  Si  Si32  1  0.209476  0.453358  0.185128  1
  Si  Si33  1  0.709470  0.046591  0.564872  1
  Si  Si34  1  0.953378  0.290479  0.935106  1
  Si  Si35  1  0.046588  0.709478  0.435127  1
