# generated using pymatgen
data_Ca20Si9SnHg2
_symmetry_space_group_name_H-M   'P 1'
_cell_length_a   7.73317200
_cell_length_b   7.73317200
_cell_length_c   15.12444300
_cell_angle_alpha   90.00000000
_cell_angle_beta   90.00000000
_cell_angle_gamma   90.00000000
_symmetry_Int_Tables_number   1
_chemical_formula_structural   Ca20Si9SnHg2
_chemical_formula_sum   'Ca20 Si9 Sn1 Hg2'
_cell_volume   904.47117169
_cell_formula_units_Z   1
loop_
 _symmetry_equiv_pos_site_id
 _symmetry_equiv_pos_as_xyz
  1  'x, y, z'
loop_
 _atom_site_type_symbol
 _atom_site_label
 _atom_site_symmetry_multiplicity
 _atom_site_fract_x
 _atom_site_fract_y
 _atom_site_fract_z
 _atom_site_occupancy
  Ca  Ca0  1  0.684640  0.171236  0.109666  1
  Ca  Ca1  1  0.175781  0.673934  0.614949  1
  Ca  Ca2  1  0.315360  0.828764  0.109666  1
  Ca  Ca3  1  0.824219  0.326066  0.614949  1
  Ca  Ca4  1  0.828764  0.684640  0.109666  1
  Ca  Ca5  1  0.326066  0.175781  0.614949  1
  Ca  Ca6  1  0.171236  0.315360  0.109666  1
  Ca  Ca7  1  0.673934  0.824219  0.614949  1
  Ca  Ca8  1  0.828764  0.315360  0.890334  1
  Ca  Ca9  1  0.326066  0.824219  0.385051  1
  Ca  Ca10  1  0.171236  0.684640  0.890334  1
  Ca  Ca11  1  0.673934  0.175781  0.385051  1
  Ca  Ca12  1  0.684640  0.828764  0.890334  1
  Ca  Ca13  1  0.175781  0.326066  0.385051  1
  Ca  Ca14  1  0.315360  0.171236  0.890334  1
  Ca  Ca15  1  0.824219  0.673934  0.385051  1
  Ca  Ca16  1  0.500000  0.500000  0.758099  1
  Ca  Ca17  1  0.000000  0.000000  0.249223  1
  Ca  Ca18  1  0.000000  0.000000  0.750777  1
  Ca  Ca19  1  0.500000  0.500000  0.241901  1
  Si  Si20  1  0.611243  0.112504  0.752805  1
  Si  Si21  1  0.112504  0.611243  0.247195  1
  Si  Si22  1  0.887496  0.388757  0.247195  1
  Si  Si23  1  0.388757  0.887496  0.752805  1
  Si  Si24  1  0.887496  0.611243  0.752805  1
  Si  Si25  1  0.388757  0.112504  0.247195  1
  Si  Si26  1  0.112504  0.388757  0.752805  1
  Si  Si27  1  0.611243  0.887496  0.247195  1
  Si  Si28  1  0.000000  0.000000  0.000000  1
  Sn  Sn29  1  0.500000  0.500000  0.000000  1
  Hg  Hg30  1  0.500000  0.500000  0.500000  1
  Hg  Hg31  1  0.000000  0.000000  0.500000  1
