# generated using pymatgen
data_HfZr13Au20
_symmetry_space_group_name_H-M   'P 1'
_cell_length_a   8.37550383
_cell_length_b   8.37550409
_cell_length_c   10.03199507
_cell_angle_alpha   89.99214421
_cell_angle_beta   89.99214710
_cell_angle_gamma   106.63835963
_symmetry_Int_Tables_number   1
_chemical_formula_structural   HfZr13Au20
_chemical_formula_sum   'Hf1 Zr13 Au20'
_cell_volume   674.27045152
_cell_formula_units_Z   1
loop_
 _symmetry_equiv_pos_site_id
 _symmetry_equiv_pos_as_xyz
  1  'x, y, z'
loop_
 _atom_site_type_symbol
 _atom_site_label
 _atom_site_symmetry_multiplicity
 _atom_site_fract_x
 _atom_site_fract_y
 _atom_site_fract_z
 _atom_site_occupancy
  Hf  Hf0  1  0.500000  0.500000  0.500000  1
  Zr  Zr1  1  0.690194  0.309806  0.000000  1
  Zr  Zr2  1  0.309806  0.690194  0.000000  1
  Zr  Zr3  1  0.809872  0.190128  0.500000  1
  Zr  Zr4  1  0.190128  0.809872  0.500000  1
  Zr  Zr5  1  0.000000  0.000000  0.000000  1
  Zr  Zr6  1  0.006355  0.506412  0.250153  1
  Zr  Zr7  1  0.993645  0.493588  0.749847  1
  Zr  Zr8  1  0.493588  0.993645  0.749847  1
  Zr  Zr9  1  0.506412  0.006355  0.250153  1
  Zr  Zr10  1  0.311726  0.311726  0.190497  1
  Zr  Zr11  1  0.688274  0.688274  0.809503  1
  Zr  Zr12  1  0.188690  0.188690  0.690288  1
  Zr  Zr13  1  0.811310  0.811310  0.309712  1
  Au  Au14  1  0.858801  0.151634  0.207350  1
  Au  Au15  1  0.141199  0.848366  0.792650  1
  Au  Au16  1  0.639927  0.349792  0.706262  1
  Au  Au17  1  0.650208  0.360073  0.293738  1
  Au  Au18  1  0.360073  0.650208  0.293738  1
  Au  Au19  1  0.349792  0.639927  0.706262  1
  Au  Au20  1  0.848366  0.141199  0.792650  1
  Au  Au21  1  0.151634  0.858801  0.207350  1
  Au  Au22  1  0.941375  0.647393  0.002133  1
  Au  Au23  1  0.058625  0.352607  0.997867  1
  Au  Au24  1  0.558556  0.850835  0.502276  1
  Au  Au25  1  0.149165  0.441444  0.497724  1
  Au  Au26  1  0.441444  0.149165  0.497724  1
  Au  Au27  1  0.850835  0.558556  0.502276  1
  Au  Au28  1  0.352607  0.058625  0.997867  1
  Au  Au29  1  0.647393  0.941375  0.002133  1
  Au  Au30  1  0.104624  0.104624  0.397357  1
  Au  Au31  1  0.895376  0.895376  0.602643  1
  Au  Au32  1  0.395016  0.395016  0.897782  1
  Au  Au33  1  0.604984  0.604984  0.102218  1
