# generated using pymatgen
data_LaDyY3(FeB3)2
_symmetry_space_group_name_H-M   'P 1'
_cell_length_a   5.44869854
_cell_length_b   5.44869848
_cell_length_c   8.27614792
_cell_angle_alpha   70.78094608
_cell_angle_beta   70.78094408
_cell_angle_gamma   59.99999386
_symmetry_Int_Tables_number   1
_chemical_formula_structural   LaDyY3(FeB3)2
_chemical_formula_sum   'La1 Dy1 Y3 Fe2 B6'
_cell_volume   196.81559769
_cell_formula_units_Z   1
loop_
 _symmetry_equiv_pos_site_id
 _symmetry_equiv_pos_as_xyz
  1  'x, y, z'
loop_
 _atom_site_type_symbol
 _atom_site_label
 _atom_site_symmetry_multiplicity
 _atom_site_fract_x
 _atom_site_fract_y
 _atom_site_fract_z
 _atom_site_occupancy
  La  La0  1  0.000113  0.000113  0.999660  1
  Dy  Dy1  1  0.749847  0.749847  0.750461  1
  Y  Y2  1  0.250255  0.250255  0.249235  1
  Y  Y3  1  0.582761  0.582761  0.251717  1
  Y  Y4  1  0.417235  0.417235  0.748296  1
  Fe  Fe5  1  0.884508  0.884508  0.346474  1
  Fe  Fe6  1  0.115485  0.115485  0.653546  1
  B  B7  1  0.500075  0.167035  0.500102  1
  B  B8  1  0.832788  0.500075  0.500102  1
  B  B9  1  0.167035  0.832788  0.500102  1
  B  B10  1  0.167035  0.500075  0.500102  1
  B  B11  1  0.832788  0.167035  0.500102  1
  B  B12  1  0.500075  0.832788  0.500102  1
