# generated using pymatgen
data_CePr3(ZnSi3)2
_symmetry_space_group_name_H-M   'P 1'
_cell_length_a   8.24133500
_cell_length_b   8.24134290
_cell_length_c   8.59243500
_cell_angle_alpha   90.00000000
_cell_angle_beta   90.00000000
_cell_angle_gamma   120.00000440
_symmetry_Int_Tables_number   1
_chemical_formula_structural   CePr3(ZnSi3)2
_chemical_formula_sum   'Ce2 Pr6 Zn4 Si12'
_cell_volume   505.40835903
_cell_formula_units_Z   2
loop_
 _symmetry_equiv_pos_site_id
 _symmetry_equiv_pos_as_xyz
  1  'x, y, z'
loop_
 _atom_site_type_symbol
 _atom_site_label
 _atom_site_symmetry_multiplicity
 _atom_site_fract_x
 _atom_site_fract_y
 _atom_site_fract_z
 _atom_site_occupancy
  Ce  Ce0  1  0.000000  0.000000  0.750000  1
  Ce  Ce1  1  0.000000  0.000000  0.250000  1
  Pr  Pr2  1  0.499993  0.500007  0.750000  1
  Pr  Pr3  1  0.500007  0.499993  0.250000  1
  Pr  Pr4  1  0.000013  0.500007  0.750000  1
  Pr  Pr5  1  0.999987  0.499993  0.250000  1
  Pr  Pr6  1  0.499993  0.999987  0.750000  1
  Pr  Pr7  1  0.500007  0.000013  0.250000  1
  Zn  Zn8  1  0.666667  0.333333  0.998855  1
  Zn  Zn9  1  0.333333  0.666667  0.001145  1
  Zn  Zn10  1  0.333333  0.666667  0.498855  1
  Zn  Zn11  1  0.666667  0.333333  0.501145  1
  Si  Si12  1  0.834890  0.165110  0.999925  1
  Si  Si13  1  0.165110  0.834890  0.000075  1
  Si  Si14  1  0.330222  0.165110  0.999925  1
  Si  Si15  1  0.165110  0.834890  0.499925  1
  Si  Si16  1  0.669778  0.834890  0.000075  1
  Si  Si17  1  0.834890  0.165110  0.500075  1
  Si  Si18  1  0.834890  0.669778  0.999925  1
  Si  Si19  1  0.669778  0.834890  0.499925  1
  Si  Si20  1  0.165110  0.330222  0.000075  1
  Si  Si21  1  0.330222  0.165110  0.500075  1
  Si  Si22  1  0.165110  0.330222  0.499925  1
  Si  Si23  1  0.834890  0.669778  0.500075  1
