# generated using pymatgen
data_PrDyHoTaO7
_symmetry_space_group_name_H-M   'P 1'
_cell_length_a   6.51532788
_cell_length_b   6.52403480
_cell_length_c   7.60485600
_cell_angle_alpha   90.00000000
_cell_angle_beta   90.00000000
_cell_angle_gamma   109.10829736
_symmetry_Int_Tables_number   1
_chemical_formula_structural   PrDyHoTaO7
_chemical_formula_sum   'Pr2 Dy2 Ho2 Ta2 O14'
_cell_volume   305.44293608
_cell_formula_units_Z   2
loop_
 _symmetry_equiv_pos_site_id
 _symmetry_equiv_pos_as_xyz
  1  'x, y, z'
loop_
 _atom_site_type_symbol
 _atom_site_label
 _atom_site_symmetry_multiplicity
 _atom_site_fract_x
 _atom_site_fract_y
 _atom_site_fract_z
 _atom_site_occupancy
  Pr  Pr0  1  0.513965  0.514228  0.499994  1
  Pr  Pr1  1  0.486035  0.485772  0.999994  1
  Dy  Dy2  1  0.000702  0.534043  0.245098  1
  Dy  Dy3  1  0.999298  0.465957  0.745098  1
  Ho  Ho4  1  0.532836  0.001021  0.754864  1
  Ho  Ho5  1  0.467164  0.998979  0.254864  1
  Ta  Ta6  1  0.001472  0.001453  0.499977  1
  Ta  Ta7  1  0.998528  0.998547  0.999977  1
  O  O8  1  0.935135  0.063879  0.749987  1
  O  O9  1  0.064865  0.936121  0.249987  1
  O  O10  1  0.356590  0.645296  0.249986  1
  O  O11  1  0.643410  0.354704  0.749986  1
  O  O12  1  0.363947  0.639212  0.750129  1
  O  O13  1  0.636053  0.360788  0.250129  1
  O  O14  1  0.323096  0.071696  0.971951  1
  O  O15  1  0.676904  0.928304  0.471951  1
  O  O16  1  0.314530  0.060320  0.538695  1
  O  O17  1  0.685470  0.939680  0.038695  1
  O  O18  1  0.061876  0.314750  0.461704  1
  O  O19  1  0.938124  0.685250  0.961704  1
  O  O20  1  0.926578  0.676709  0.527615  1
  O  O21  1  0.073422  0.323291  0.027615  1
