# generated using pymatgen
data_Tm12Co8Si7Pt
_symmetry_space_group_name_H-M   'P 1'
_cell_length_a   5.41851371
_cell_length_b   7.51500776
_cell_length_c   12.55030100
_cell_angle_alpha   90.00000000
_cell_angle_beta   90.00000000
_cell_angle_gamma   90.56958272
_symmetry_Int_Tables_number   1
_chemical_formula_structural   Tm12Co8Si7Pt
_chemical_formula_sum   'Tm12 Co8 Si7 Pt1'
_cell_volume   511.02517090
_cell_formula_units_Z   1
loop_
 _symmetry_equiv_pos_site_id
 _symmetry_equiv_pos_as_xyz
  1  'x, y, z'
loop_
 _atom_site_type_symbol
 _atom_site_label
 _atom_site_symmetry_multiplicity
 _atom_site_fract_x
 _atom_site_fract_y
 _atom_site_fract_z
 _atom_site_occupancy
  Tm  Tm0  1  0.638608  0.247605  0.250000  1
  Tm  Tm1  1  0.370399  0.747864  0.750000  1
  Tm  Tm2  1  0.368031  0.757235  0.250000  1
  Tm  Tm3  1  0.631048  0.244372  0.750000  1
  Tm  Tm4  1  0.142470  0.396296  0.101114  1
  Tm  Tm5  1  0.859171  0.602782  0.898556  1
  Tm  Tm6  1  0.859171  0.602782  0.601444  1
  Tm  Tm7  1  0.855238  0.897288  0.400575  1
  Tm  Tm8  1  0.142470  0.396296  0.398886  1
  Tm  Tm9  1  0.141066  0.104723  0.601335  1
  Tm  Tm10  1  0.141066  0.104723  0.898665  1
  Tm  Tm11  1  0.855238  0.897288  0.099425  1
  Co  Co12  1  0.368591  0.027813  0.080367  1
  Co  Co13  1  0.641003  0.971587  0.910239  1
  Co  Co14  1  0.641003  0.971587  0.589761  1
  Co  Co15  1  0.632318  0.529287  0.411842  1
  Co  Co16  1  0.368591  0.027813  0.419633  1
  Co  Co17  1  0.364191  0.470504  0.589020  1
  Co  Co18  1  0.364191  0.470504  0.910980  1
  Co  Co19  1  0.632318  0.529287  0.088158  1
  Si  Si20  1  0.851352  0.896700  0.750000  1
  Si  Si21  1  0.844931  0.600990  0.250000  1
  Si  Si22  1  0.151455  0.397655  0.750000  1
  Si  Si23  1  0.614550  0.253261  0.997251  1
  Si  Si24  1  0.386220  0.748143  0.998006  1
  Si  Si25  1  0.386220  0.748143  0.501994  1
  Si  Si26  1  0.614550  0.253261  0.502749  1
  Pt  Pt27  1  0.134542  0.104210  0.250000  1
