# generated using pymatgen
data_Be3CoTcMo
_symmetry_space_group_name_H-M   'P 1'
_cell_length_a   4.52504400
_cell_length_b   4.52504395
_cell_length_c   7.10589900
_cell_angle_alpha   90.00000000
_cell_angle_beta   90.00000000
_cell_angle_gamma   120.00000036
_symmetry_Int_Tables_number   1
_chemical_formula_structural   Be3CoTcMo
_chemical_formula_sum   'Be6 Co2 Tc2 Mo2'
_cell_volume   126.00717314
_cell_formula_units_Z   2
loop_
 _symmetry_equiv_pos_site_id
 _symmetry_equiv_pos_as_xyz
  1  'x, y, z'
loop_
 _atom_site_type_symbol
 _atom_site_label
 _atom_site_symmetry_multiplicity
 _atom_site_fract_x
 _atom_site_fract_y
 _atom_site_fract_z
 _atom_site_occupancy
  Be  Be0  1  0.831289  0.168711  0.253343  1
  Be  Be1  1  0.831289  0.662577  0.253343  1
  Be  Be2  1  0.337423  0.168711  0.253343  1
  Be  Be3  1  0.168711  0.831289  0.746657  1
  Be  Be4  1  0.168711  0.337423  0.746657  1
  Be  Be5  1  0.662577  0.831289  0.746657  1
  Co  Co6  1  0.000000  0.000000  0.500000  1
  Co  Co7  1  0.000000  0.000000  0.000000  1
  Tc  Tc8  1  0.333333  0.666667  0.428972  1
  Tc  Tc9  1  0.666667  0.333333  0.571028  1
  Mo  Mo10  1  0.666667  0.333333  0.926684  1
  Mo  Mo11  1  0.333333  0.666667  0.073316  1
