# generated using pymatgen
data_Tb7Pr(Ga3Pd)4
_symmetry_space_group_name_H-M   'P 1'
_cell_length_a   8.96094800
_cell_length_b   8.93852037
_cell_length_c   7.05511700
_cell_angle_alpha   90.00000000
_cell_angle_beta   90.00000000
_cell_angle_gamma   120.08304248
_symmetry_Int_Tables_number   1
_chemical_formula_structural   Tb7Pr(Ga3Pd)4
_chemical_formula_sum   'Tb7 Pr1 Ga12 Pd4'
_cell_volume   488.97924011
_cell_formula_units_Z   1
loop_
 _symmetry_equiv_pos_site_id
 _symmetry_equiv_pos_as_xyz
  1  'x, y, z'
loop_
 _atom_site_type_symbol
 _atom_site_label
 _atom_site_symmetry_multiplicity
 _atom_site_fract_x
 _atom_site_fract_y
 _atom_site_fract_z
 _atom_site_occupancy
  Tb  Tb0  1  0.482761  0.965522  0.750000  1
  Tb  Tb1  1  0.967443  0.483786  0.250000  1
  Tb  Tb2  1  0.034059  0.517336  0.750000  1
  Tb  Tb3  1  0.516343  0.483786  0.250000  1
  Tb  Tb4  1  0.483277  0.517336  0.750000  1
  Tb  Tb5  1  0.999806  0.999615  0.250000  1
  Tb  Tb6  1  0.999874  0.999748  0.750000  1
  Pr  Pr7  1  0.517571  0.035140  0.250000  1
  Ga  Ga8  1  0.166717  0.333434  0.044265  1
  Ga  Ga9  1  0.832997  0.665994  0.956191  1
  Ga  Ga10  1  0.666565  0.831090  0.040891  1
  Ga  Ga11  1  0.832997  0.665994  0.543809  1
  Ga  Ga12  1  0.333948  0.168280  0.953603  1
  Ga  Ga13  1  0.166717  0.333434  0.455735  1
  Ga  Ga14  1  0.164523  0.831090  0.040891  1
  Ga  Ga15  1  0.333948  0.168280  0.546397  1
  Ga  Ga16  1  0.834332  0.168280  0.953603  1
  Ga  Ga17  1  0.666565  0.831090  0.459109  1
  Ga  Ga18  1  0.834332  0.168280  0.546397  1
  Ga  Ga19  1  0.164523  0.831090  0.459109  1
  Pd  Pd20  1  0.332196  0.664394  0.026485  1
  Pd  Pd21  1  0.668153  0.336305  0.965320  1
  Pd  Pd22  1  0.668153  0.336305  0.534680  1
  Pd  Pd23  1  0.332196  0.664394  0.473515  1
