# generated using pymatgen
data_Zr6Fe2Co13Si7Ni
_symmetry_space_group_name_H-M   'P 1'
_cell_length_a   8.08179984
_cell_length_b   8.07973962
_cell_length_c   8.08423077
_cell_angle_alpha   60.02309840
_cell_angle_beta   60.03027579
_cell_angle_gamma   60.00132666
_symmetry_Int_Tables_number   1
_chemical_formula_structural   Zr6Fe2Co13Si7Ni
_chemical_formula_sum   'Zr6 Fe2 Co13 Si7 Ni1'
_cell_volume   373.42946292
_cell_formula_units_Z   1
loop_
 _symmetry_equiv_pos_site_id
 _symmetry_equiv_pos_as_xyz
  1  'x, y, z'
loop_
 _atom_site_type_symbol
 _atom_site_label
 _atom_site_symmetry_multiplicity
 _atom_site_fract_x
 _atom_site_fract_y
 _atom_site_fract_z
 _atom_site_occupancy
  Zr  Zr0  1  0.791417  0.204418  0.793471  1
  Zr  Zr1  1  0.793159  0.794910  0.206685  1
  Zr  Zr2  1  0.207204  0.792434  0.792828  1
  Zr  Zr3  1  0.211697  0.205551  0.791605  1
  Zr  Zr4  1  0.792212  0.203460  0.209914  1
  Zr  Zr5  1  0.205611  0.793425  0.207463  1
  Fe  Fe6  1  0.825484  0.824957  0.525498  1
  Fe  Fe7  1  0.476827  0.176037  0.173097  1
  Co  Co8  1  0.171665  0.174121  0.170618  1
  Co  Co9  1  0.620153  0.619309  0.140868  1
  Co  Co10  1  0.381751  0.379735  0.378617  1
  Co  Co11  1  0.172520  0.483599  0.171037  1
  Co  Co12  1  0.171347  0.174252  0.482273  1
  Co  Co13  1  0.140081  0.620386  0.618564  1
  Co  Co14  1  0.621162  0.140393  0.617435  1
  Co  Co15  1  0.829253  0.829993  0.828324  1
  Co  Co16  1  0.859086  0.380828  0.379532  1
  Co  Co17  1  0.381287  0.379693  0.860064  1
  Co  Co18  1  0.381347  0.860788  0.378746  1
  Co  Co19  1  0.513603  0.829663  0.828995  1
  Co  Co20  1  0.621038  0.620588  0.618089  1
  Si  Si21  1  0.998840  0.501584  0.999711  1
  Si  Si22  1  0.499218  0.500056  0.500703  1
  Si  Si23  1  0.500761  0.503016  0.998037  1
  Si  Si24  1  0.497915  0.999216  0.501320  1
  Si  Si25  1  0.001100  0.499169  0.498269  1
  Si  Si26  1  0.002618  0.000780  0.498691  1
  Si  Si27  1  0.500587  0.997864  0.000142  1
  Ni  Ni28  1  0.831060  0.509779  0.829407  1
