# generated using pymatgen
data_EuHo4Er(SbO7)2
_symmetry_space_group_name_H-M   'P 1'
_cell_length_a   6.45853719
_cell_length_b   6.45927957
_cell_length_c   7.52873403
_cell_angle_alpha   90.03137208
_cell_angle_beta   89.96965088
_cell_angle_gamma   109.04114358
_symmetry_Int_Tables_number   1
_chemical_formula_structural   EuHo4Er(SbO7)2
_chemical_formula_sum   'Eu1 Ho4 Er1 Sb2 O14'
_cell_volume   296.89484968
_cell_formula_units_Z   1
loop_
 _symmetry_equiv_pos_site_id
 _symmetry_equiv_pos_as_xyz
  1  'x, y, z'
loop_
 _atom_site_type_symbol
 _atom_site_label
 _atom_site_symmetry_multiplicity
 _atom_site_fract_x
 _atom_site_fract_y
 _atom_site_fract_z
 _atom_site_occupancy
  Eu  Eu0  1  0.499954  0.499977  0.999945  1
  Ho  Ho1  1  0.499943  0.499976  0.500057  1
  Ho  Ho2  1  0.531392  0.000288  0.748531  1
  Ho  Ho3  1  0.000254  0.531346  0.251473  1
  Ho  Ho4  1  0.468640  0.999758  0.251472  1
  Er  Er5  1  0.999492  0.468807  0.748467  1
  Sb  Sb6  1  0.000017  0.999982  0.500131  1
  Sb  Sb7  1  0.000006  0.999992  0.999865  1
  O  O8  1  0.677894  0.928185  0.470054  1
  O  O9  1  0.928461  0.677656  0.530374  1
  O  O10  1  0.678250  0.932700  0.030252  1
  O  O11  1  0.932951  0.677988  0.969325  1
  O  O12  1  0.322165  0.071797  0.529954  1
  O  O13  1  0.071628  0.322253  0.470416  1
  O  O14  1  0.321800  0.067291  0.969754  1
  O  O15  1  0.067150  0.321900  0.029895  1
  O  O16  1  0.929103  0.071344  0.750088  1
  O  O17  1  0.070908  0.928997  0.249910  1
  O  O18  1  0.366570  0.632151  0.741859  1
  O  O19  1  0.632526  0.367461  0.258167  1
  O  O20  1  0.639692  0.361354  0.743636  1
  O  O21  1  0.361204  0.638797  0.256376  1
