# generated using pymatgen
data_Cs7B12(IrPt2)4
_symmetry_space_group_name_H-M   'P 1'
_cell_length_a   9.52618628
_cell_length_b   9.52619337
_cell_length_c   9.52406108
_cell_angle_alpha   111.62689953
_cell_angle_beta   111.62687322
_cell_angle_gamma   112.23927558
_symmetry_Int_Tables_number   1
_chemical_formula_structural   Cs7B12(IrPt2)4
_chemical_formula_sum   'Cs7 B12 Ir4 Pt8'
_cell_volume   600.20744336
_cell_formula_units_Z   1
loop_
 _symmetry_equiv_pos_site_id
 _symmetry_equiv_pos_as_xyz
  1  'x, y, z'
loop_
 _atom_site_type_symbol
 _atom_site_label
 _atom_site_symmetry_multiplicity
 _atom_site_fract_x
 _atom_site_fract_y
 _atom_site_fract_z
 _atom_site_occupancy
  Cs  Cs0  1  0.994938  0.735427  0.730812  1
  Cs  Cs1  1  0.735413  0.732335  0.996685  1
  Cs  Cs2  1  0.729239  0.996524  0.731299  1
  Cs  Cs3  1  0.264574  0.005062  0.269189  1
  Cs  Cs4  1  0.003476  0.270761  0.268702  1
  Cs  Cs5  1  0.267665  0.264586  0.003315  1
  Cs  Cs6  1  0.499584  0.500415  0.500000  1
  B  B7  1  0.268427  0.731573  0.500000  1
  B  B8  1  0.733928  0.498435  0.267035  1
  B  B9  1  0.501565  0.266072  0.732965  1
  B  B10  1  0.726285  0.273716  0.500000  1
  B  B11  1  0.281016  0.502817  0.737733  1
  B  B12  1  0.497182  0.718984  0.262267  1
  B  B13  1  0.062669  0.937331  0.500000  1
  B  B14  1  0.939293  0.504593  0.059966  1
  B  B15  1  0.495407  0.060707  0.940034  1
  B  B16  1  0.946472  0.053527  0.500000  1
  B  B17  1  0.061384  0.515947  0.947152  1
  B  B18  1  0.484053  0.938616  0.052848  1
  Ir  Ir19  1  0.673810  0.326190  0.000000  1
  Ir  Ir20  1  0.328366  0.998348  0.673436  1
  Ir  Ir21  1  0.001652  0.671634  0.326563  1
  Ir  Ir22  1  0.327377  0.672622  0.000000  1
  Pt  Pt23  1  0.675891  0.999965  0.327887  1
  Pt  Pt24  1  0.000035  0.324109  0.672114  1
  Pt  Pt25  1  0.641124  0.248957  0.251835  1
  Pt  Pt26  1  0.251298  0.250449  0.644058  1
  Pt  Pt27  1  0.249691  0.642408  0.247223  1
  Pt  Pt28  1  0.751043  0.358878  0.748165  1
  Pt  Pt29  1  0.357592  0.750311  0.752777  1
  Pt  Pt30  1  0.749551  0.748702  0.355943  1
