# generated using pymatgen
data_LaPrEr6(WO6)4
_symmetry_space_group_name_H-M   'P 1'
_cell_length_a   5.43641700
_cell_length_b   7.76051928
_cell_length_c   11.52932631
_cell_angle_alpha   75.50617991
_cell_angle_beta   90.00000000
_cell_angle_gamma   90.00000000
_symmetry_Int_Tables_number   1
_chemical_formula_structural   LaPrEr6(WO6)4
_chemical_formula_sum   'La1 Pr1 Er6 W4 O24'
_cell_volume   470.93522732
_cell_formula_units_Z   1
loop_
 _symmetry_equiv_pos_site_id
 _symmetry_equiv_pos_as_xyz
  1  'x, y, z'
loop_
 _atom_site_type_symbol
 _atom_site_label
 _atom_site_symmetry_multiplicity
 _atom_site_fract_x
 _atom_site_fract_y
 _atom_site_fract_z
 _atom_site_occupancy
  La  La0  1  0.686837  0.500000  0.250000  1
  Pr  Pr1  1  0.313934  0.500000  0.750000  1
  Er  Er2  1  0.185484  0.201736  0.423570  1
  Er  Er3  1  0.185484  0.798264  0.076430  1
  Er  Er4  1  0.814729  0.797446  0.576991  1
  Er  Er5  1  0.814729  0.202554  0.923009  1
  Er  Er6  1  0.743056  0.000000  0.250000  1
  Er  Er7  1  0.257024  0.000000  0.750000  1
  W  W8  1  0.253871  0.270358  0.115946  1
  W  W9  1  0.253871  0.729642  0.384054  1
  W  W10  1  0.746059  0.729327  0.883450  1
  W  W11  1  0.746059  0.270673  0.616550  1
  O  O12  1  0.454208  0.201631  0.273854  1
  O  O13  1  0.454208  0.798369  0.226146  1
  O  O14  1  0.544565  0.797547  0.725858  1
  O  O15  1  0.544565  0.202453  0.774142  1
  O  O16  1  0.042098  0.057422  0.103712  1
  O  O17  1  0.042098  0.942578  0.396288  1
  O  O18  1  0.957463  0.942943  0.895656  1
  O  O19  1  0.957463  0.057057  0.604344  1
  O  O20  1  0.986739  0.276289  0.231647  1
  O  O21  1  0.986739  0.723711  0.268353  1
  O  O22  1  0.014049  0.722202  0.768559  1
  O  O23  1  0.014049  0.277798  0.731441  1
  O  O24  1  0.857359  0.356839  0.455689  1
  O  O25  1  0.857359  0.643161  0.044311  1
  O  O26  1  0.144440  0.643198  0.545604  1
  O  O27  1  0.144440  0.356802  0.954396  1
  O  O28  1  0.654272  0.506335  0.612994  1
  O  O29  1  0.654272  0.493665  0.887006  1
  O  O30  1  0.343776  0.493786  0.387469  1
  O  O31  1  0.343776  0.506214  0.112531  1
  O  O32  1  0.463045  0.155166  0.569780  1
  O  O33  1  0.463045  0.844834  0.930220  1
  O  O34  1  0.537416  0.844741  0.430337  1
  O  O35  1  0.537416  0.155259  0.069663  1
