# generated using pymatgen
data_Ac2PRhI2
_symmetry_space_group_name_H-M   'P 1'
_cell_length_a   4.43154000
_cell_length_b   4.43154068
_cell_length_c   12.08275900
_cell_angle_alpha   90.00000000
_cell_angle_beta   90.00000000
_cell_angle_gamma   119.99999494
_symmetry_Int_Tables_number   1
_chemical_formula_structural   Ac2PRhI2
_chemical_formula_sum   'Ac2 P1 Rh1 I2'
_cell_volume   205.49732872
_cell_formula_units_Z   1
loop_
 _symmetry_equiv_pos_site_id
 _symmetry_equiv_pos_as_xyz
  1  'x, y, z'
loop_
 _atom_site_type_symbol
 _atom_site_label
 _atom_site_symmetry_multiplicity
 _atom_site_fract_x
 _atom_site_fract_y
 _atom_site_fract_z
 _atom_site_occupancy
  Ac  Ac0  1  0.000000  0.000000  0.154289  1
  Ac  Ac1  1  0.000000  0.000000  0.843997  1
  P  P2  1  0.333333  0.666667  0.990948  1
  Rh  Rh3  1  0.666667  0.333333  0.007751  1
  I  I4  1  0.666667  0.333333  0.659046  1
  I  I5  1  0.333333  0.666667  0.343968  1
