# generated using pymatgen
data_Nd3Sm5Cu2(Si6Pd)2
_symmetry_space_group_name_H-M   'P 1'
_cell_length_a   8.16484800
_cell_length_b   8.16412556
_cell_length_c   8.44236900
_cell_angle_alpha   90.00067889
_cell_angle_beta   90.00000000
_cell_angle_gamma   120.00293534
_symmetry_Int_Tables_number   1
_chemical_formula_structural   Nd3Sm5Cu2(Si6Pd)2
_chemical_formula_sum   'Nd3 Sm5 Cu2 Si12 Pd2'
_cell_volume   487.34879358
_cell_formula_units_Z   1
loop_
 _symmetry_equiv_pos_site_id
 _symmetry_equiv_pos_as_xyz
  1  'x, y, z'
loop_
 _atom_site_type_symbol
 _atom_site_label
 _atom_site_symmetry_multiplicity
 _atom_site_fract_x
 _atom_site_fract_y
 _atom_site_fract_z
 _atom_site_occupancy
  Nd  Nd0  1  0.500173  0.000347  0.249664  1
  Nd  Nd1  1  0.000014  0.000028  0.750649  1
  Nd  Nd2  1  0.000000  0.000000  0.249449  1
  Sm  Sm3  1  0.499781  0.500232  0.750115  1
  Sm  Sm4  1  0.500208  0.499802  0.249939  1
  Sm  Sm5  1  0.000451  0.500232  0.750115  1
  Sm  Sm6  1  0.999595  0.499803  0.249939  1
  Sm  Sm7  1  0.499787  0.999574  0.750186  1
  Cu  Cu8  1  0.666799  0.333598  0.997067  1
  Cu  Cu9  1  0.333209  0.666417  0.999505  1
  Si  Si10  1  0.830911  0.169752  0.998967  1
  Si  Si11  1  0.169095  0.830269  0.999316  1
  Si  Si12  1  0.338841  0.169752  0.998967  1
  Si  Si13  1  0.165947  0.833617  0.500591  1
  Si  Si14  1  0.661173  0.830269  0.999316  1
  Si  Si15  1  0.834045  0.166373  0.501201  1
  Si  Si16  1  0.830445  0.660890  0.999820  1
  Si  Si17  1  0.667669  0.833617  0.500591  1
  Si  Si18  1  0.169560  0.339120  0.000193  1
  Si  Si19  1  0.332328  0.166373  0.501201  1
  Si  Si20  1  0.166165  0.332329  0.499830  1
  Si  Si21  1  0.833822  0.667644  0.500486  1
  Pd  Pd22  1  0.333036  0.666072  0.500789  1
  Pd  Pd23  1  0.666944  0.333887  0.502103  1
