# generated using pymatgen
data_Zr6SiPN2
_symmetry_space_group_name_H-M   'P 1'
_cell_length_a   5.83387577
_cell_length_b   5.83387430
_cell_length_c   8.53747500
_cell_angle_alpha   90.00000000
_cell_angle_beta   90.00000000
_cell_angle_gamma   145.35876341
_symmetry_Int_Tables_number   1
_chemical_formula_structural   Zr6SiPN2
_chemical_formula_sum   'Zr6 Si1 P1 N2'
_cell_volume   165.16776031
_cell_formula_units_Z   1
loop_
 _symmetry_equiv_pos_site_id
 _symmetry_equiv_pos_as_xyz
  1  'x, y, z'
loop_
 _atom_site_type_symbol
 _atom_site_label
 _atom_site_symmetry_multiplicity
 _atom_site_fract_x
 _atom_site_fract_y
 _atom_site_fract_z
 _atom_site_occupancy
  Zr  Zr0  1  0.633378  0.366622  0.941257  1
  Zr  Zr1  1  0.368624  0.631376  0.446217  1
  Zr  Zr2  1  0.368624  0.631376  0.053783  1
  Zr  Zr3  1  0.633378  0.366622  0.558743  1
  Zr  Zr4  1  0.934322  0.065678  0.750000  1
  Zr  Zr5  1  0.059199  0.940801  0.250000  1
  Si  Si6  1  0.745054  0.254946  0.250000  1
  P  P7  1  0.255441  0.744559  0.750000  1
  N  N8  1  0.000989  0.999011  0.997851  1
  N  N9  1  0.000989  0.999011  0.502149  1
