# generated using pymatgen
data_Pa8Zn7GaRh8
_symmetry_space_group_name_H-M   'P 1'
_cell_length_a   3.85575500
_cell_length_b   7.31820772
_cell_length_c   16.29759507
_cell_angle_alpha   90.09861262
_cell_angle_beta   90.00000000
_cell_angle_gamma   90.00000000
_symmetry_Int_Tables_number   1
_chemical_formula_structural   Pa8Zn7GaRh8
_chemical_formula_sum   'Pa8 Zn7 Ga1 Rh8'
_cell_volume   459.87207955
_cell_formula_units_Z   1
loop_
 _symmetry_equiv_pos_site_id
 _symmetry_equiv_pos_as_xyz
  1  'x, y, z'
loop_
 _atom_site_type_symbol
 _atom_site_label
 _atom_site_symmetry_multiplicity
 _atom_site_fract_x
 _atom_site_fract_y
 _atom_site_fract_z
 _atom_site_occupancy
  Pa  Pa0  1  0.250000  0.168395  0.940398  1
  Pa  Pa1  1  0.250000  0.661429  0.559288  1
  Pa  Pa2  1  0.750000  0.337328  0.440739  1
  Pa  Pa3  1  0.750000  0.944395  0.283609  1
  Pa  Pa4  1  0.750000  0.831427  0.059760  1
  Pa  Pa5  1  0.750000  0.443594  0.216087  1
  Pa  Pa6  1  0.250000  0.056093  0.716599  1
  Pa  Pa7  1  0.250000  0.557087  0.784468  1
  Zn  Zn8  1  0.250000  0.616142  0.345313  1
  Zn  Zn9  1  0.750000  0.385924  0.654984  1
  Zn  Zn10  1  0.250000  0.495128  0.061691  1
  Zn  Zn11  1  0.750000  0.505000  0.938475  1
  Zn  Zn12  1  0.250000  0.996145  0.436254  1
  Zn  Zn13  1  0.250000  0.115371  0.154557  1
  Zn  Zn14  1  0.750000  0.885182  0.845417  1
  Ga  Ga15  1  0.750000  0.002330  0.561721  1
  Rh  Rh16  1  0.750000  0.741621  0.441319  1
  Rh  Rh17  1  0.250000  0.243594  0.313172  1
  Rh  Rh18  1  0.750000  0.257591  0.813241  1
  Rh  Rh19  1  0.750000  0.758870  0.686157  1
  Rh  Rh20  1  0.250000  0.253561  0.560047  1
  Rh  Rh21  1  0.250000  0.743677  0.186865  1
  Rh  Rh22  1  0.750000  0.236799  0.057967  1
  Rh  Rh23  1  0.250000  0.763317  0.941869  1
