# generated using pymatgen
data_K4TiVPO4F9
_symmetry_space_group_name_H-M   'P 1'
_cell_length_a   11.16271500
_cell_length_b   5.93705218
_cell_length_c   20.49010500
_cell_angle_alpha   74.14203170
_cell_angle_beta   90.00000000
_cell_angle_gamma   90.00000000
_symmetry_Int_Tables_number   1
_chemical_formula_structural   K4TiVPO4F9
_chemical_formula_sum   'K16 Ti4 V4 P4 O16 F36'
_cell_volume   1306.27250363
_cell_formula_units_Z   4
loop_
 _symmetry_equiv_pos_site_id
 _symmetry_equiv_pos_as_xyz
  1  'x, y, z'
loop_
 _atom_site_type_symbol
 _atom_site_label
 _atom_site_symmetry_multiplicity
 _atom_site_fract_x
 _atom_site_fract_y
 _atom_site_fract_z
 _atom_site_occupancy
  K  K0  1  0.046336  0.661460  0.831993  1
  K  K1  1  0.453664  0.661460  0.331993  1
  K  K2  1  0.267057  0.454336  0.516278  1
  K  K3  1  0.732943  0.545664  0.483722  1
  K  K4  1  0.755609  0.129432  0.859312  1
  K  K5  1  0.767057  0.545664  0.983722  1
  K  K6  1  0.455154  0.638825  0.847707  1
  K  K7  1  0.044846  0.638825  0.347707  1
  K  K8  1  0.244391  0.870568  0.140688  1
  K  K9  1  0.955154  0.361175  0.652293  1
  K  K10  1  0.544846  0.361175  0.152293  1
  K  K11  1  0.546336  0.338540  0.668007  1
  K  K12  1  0.255609  0.870568  0.640688  1
  K  K13  1  0.232943  0.454336  0.016278  1
  K  K14  1  0.744391  0.129432  0.359312  1
  K  K15  1  0.953664  0.338540  0.168007  1
  Ti  Ti16  1  0.746587  0.722169  0.754556  1
  Ti  Ti17  1  0.253413  0.277831  0.245444  1
  Ti  Ti18  1  0.246587  0.277831  0.745444  1
  Ti  Ti19  1  0.753413  0.722169  0.254556  1
  V  V20  1  0.000000  0.000000  0.500000  1
  V  V21  1  0.500000  0.000000  0.000000  1
  V  V22  1  0.000000  0.000000  0.000000  1
  V  V23  1  0.500000  0.000000  0.500000  1
  P  P24  1  0.752745  0.954662  0.589859  1
  P  P25  1  0.252745  0.045338  0.910141  1
  P  P26  1  0.747255  0.954662  0.089859  1
  P  P27  1  0.247255  0.045338  0.410141  1
  O  O28  1  0.160972  0.090047  0.963427  1
  O  O29  1  0.376731  0.128235  0.931374  1
  O  O30  1  0.748431  0.201433  0.096641  1
  O  O31  1  0.623269  0.871765  0.068626  1
  O  O32  1  0.839028  0.909953  0.036573  1
  O  O33  1  0.248431  0.798567  0.403359  1
  O  O34  1  0.339028  0.090047  0.463427  1
  O  O35  1  0.221125  0.231186  0.841111  1
  O  O36  1  0.721125  0.768814  0.658889  1
  O  O37  1  0.278875  0.231186  0.341111  1
  O  O38  1  0.123269  0.128235  0.431374  1
  O  O39  1  0.251569  0.798567  0.903359  1
  O  O40  1  0.660972  0.909953  0.536573  1
  O  O41  1  0.751569  0.201433  0.596641  1
  O  O42  1  0.876731  0.871765  0.568626  1
  O  O43  1  0.778875  0.768814  0.158889  1
  F  F44  1  0.960521  0.854609  0.930982  1
  F  F45  1  0.439227  0.720879  0.556321  1
  F  F46  1  0.770756  0.667098  0.851141  1
  F  F47  1  0.131013  0.053695  0.257429  1
  F  F48  1  0.127663  0.517679  0.724599  1
  F  F49  1  0.137899  0.519338  0.239367  1
  F  F50  1  0.039479  0.145391  0.069018  1
  F  F51  1  0.368987  0.053695  0.757429  1
  F  F52  1  0.901641  0.256612  0.454510  1
  F  F53  1  0.939227  0.279121  0.943679  1
  F  F54  1  0.460521  0.145391  0.569018  1
  F  F55  1  0.868987  0.946305  0.742571  1
  F  F56  1  0.372337  0.517679  0.224599  1
  F  F57  1  0.362101  0.519338  0.739367  1
  F  F58  1  0.932666  0.831008  0.444232  1
  F  F59  1  0.868841  0.946123  0.262541  1
  F  F60  1  0.729244  0.667098  0.351141  1
  F  F61  1  0.098359  0.743388  0.545490  1
  F  F62  1  0.067334  0.168992  0.555768  1
  F  F63  1  0.401641  0.743388  0.045490  1
  F  F64  1  0.539479  0.854609  0.430982  1
  F  F65  1  0.560773  0.279121  0.443679  1
  F  F66  1  0.631013  0.946305  0.242571  1
  F  F67  1  0.270756  0.332902  0.648859  1
  F  F68  1  0.432666  0.168992  0.055768  1
  F  F69  1  0.862101  0.480662  0.760633  1
  F  F70  1  0.131159  0.053877  0.737459  1
  F  F71  1  0.060773  0.720879  0.056321  1
  F  F72  1  0.229244  0.332902  0.148859  1
  F  F73  1  0.872337  0.482321  0.275401  1
  F  F74  1  0.631159  0.946123  0.762541  1
  F  F75  1  0.637899  0.480662  0.260633  1
  F  F76  1  0.598359  0.256612  0.954510  1
  F  F77  1  0.368841  0.053877  0.237459  1
  F  F78  1  0.567334  0.831008  0.944232  1
  F  F79  1  0.627663  0.482321  0.775401  1
