# generated using pymatgen
data_Pr8Zn2Si12PdRh
_symmetry_space_group_name_H-M   'P 1'
_cell_length_a   8.24666100
_cell_length_b   8.24666268
_cell_length_c   8.61991100
_cell_angle_alpha   90.00000000
_cell_angle_beta   90.00000000
_cell_angle_gamma   120.00000528
_symmetry_Int_Tables_number   1
_chemical_formula_structural   Pr8Zn2Si12PdRh
_chemical_formula_sum   'Pr8 Zn2 Si12 Pd1 Rh1'
_cell_volume   507.67965931
_cell_formula_units_Z   1
loop_
 _symmetry_equiv_pos_site_id
 _symmetry_equiv_pos_as_xyz
  1  'x, y, z'
loop_
 _atom_site_type_symbol
 _atom_site_label
 _atom_site_symmetry_multiplicity
 _atom_site_fract_x
 _atom_site_fract_y
 _atom_site_fract_z
 _atom_site_occupancy
  Pr  Pr0  1  0.498211  0.501789  0.747249  1
  Pr  Pr1  1  0.499552  0.500448  0.252891  1
  Pr  Pr2  1  0.003579  0.501789  0.747249  1
  Pr  Pr3  1  0.000896  0.500448  0.252891  1
  Pr  Pr4  1  0.498211  0.996421  0.747249  1
  Pr  Pr5  1  0.499552  0.999104  0.252891  1
  Pr  Pr6  1  0.000000  0.000000  0.747795  1
  Pr  Pr7  1  0.000000  0.000000  0.252059  1
  Zn  Zn8  1  0.666667  0.333333  0.992956  1
  Zn  Zn9  1  0.333333  0.666667  0.006369  1
  Si  Si10  1  0.833785  0.166215  0.001594  1
  Si  Si11  1  0.166332  0.833668  0.998482  1
  Si  Si12  1  0.332430  0.166215  0.001594  1
  Si  Si13  1  0.168131  0.831869  0.499638  1
  Si  Si14  1  0.667335  0.833668  0.998482  1
  Si  Si15  1  0.834821  0.165179  0.500220  1
  Si  Si16  1  0.833785  0.667570  0.001594  1
  Si  Si17  1  0.663738  0.831869  0.499638  1
  Si  Si18  1  0.166332  0.332665  0.998482  1
  Si  Si19  1  0.330358  0.165179  0.500220  1
  Si  Si20  1  0.168131  0.336262  0.499638  1
  Si  Si21  1  0.834821  0.669642  0.500220  1
  Pd  Pd22  1  0.666667  0.333333  0.502625  1
  Rh  Rh23  1  0.333333  0.666667  0.497976  1
