# generated using pymatgen
data_Ho2Al9Ni2Ru
_symmetry_space_group_name_H-M   'P 1'
_cell_length_a   7.44930900
_cell_length_b   7.44930845
_cell_length_c   9.36937700
_cell_angle_alpha   90.00000000
_cell_angle_beta   90.00000000
_cell_angle_gamma   118.83242132
_symmetry_Int_Tables_number   1
_chemical_formula_structural   Ho2Al9Ni2Ru
_chemical_formula_sum   'Ho4 Al18 Ni4 Ru2'
_cell_volume   455.47399997
_cell_formula_units_Z   2
loop_
 _symmetry_equiv_pos_site_id
 _symmetry_equiv_pos_as_xyz
  1  'x, y, z'
loop_
 _atom_site_type_symbol
 _atom_site_label
 _atom_site_symmetry_multiplicity
 _atom_site_fract_x
 _atom_site_fract_y
 _atom_site_fract_z
 _atom_site_occupancy
  Ho  Ho0  1  0.994152  0.675563  0.250000  1
  Ho  Ho1  1  0.005848  0.324437  0.750000  1
  Ho  Ho2  1  0.675563  0.994152  0.250000  1
  Ho  Ho3  1  0.324437  0.005848  0.750000  1
  Al  Al4  1  0.132120  0.132120  0.250000  1
  Al  Al5  1  0.867880  0.867880  0.750000  1
  Al  Al6  1  0.998212  0.337256  0.073281  1
  Al  Al7  1  0.001788  0.662744  0.926719  1
  Al  Al8  1  0.001788  0.662744  0.573281  1
  Al  Al9  1  0.337256  0.998212  0.426719  1
  Al  Al10  1  0.998212  0.337256  0.426719  1
  Al  Al11  1  0.662744  0.001788  0.573281  1
  Al  Al12  1  0.662744  0.001788  0.926719  1
  Al  Al13  1  0.337256  0.998212  0.073281  1
  Al  Al14  1  0.333617  0.333617  0.547199  1
  Al  Al15  1  0.666383  0.666383  0.452801  1
  Al  Al16  1  0.666383  0.666383  0.047199  1
  Al  Al17  1  0.333617  0.333617  0.952801  1
  Al  Al18  1  0.342351  0.555834  0.250000  1
  Al  Al19  1  0.657649  0.444166  0.750000  1
  Al  Al20  1  0.555834  0.342351  0.250000  1
  Al  Al21  1  0.444166  0.657649  0.750000  1
  Ni  Ni22  1  0.670589  0.329411  0.000000  1
  Ni  Ni23  1  0.329411  0.670589  0.000000  1
  Ni  Ni24  1  0.329411  0.670589  0.500000  1
  Ni  Ni25  1  0.670589  0.329411  0.500000  1
  Ru  Ru26  1  0.000000  0.000000  0.000000  1
  Ru  Ru27  1  0.000000  0.000000  0.500000  1
