# generated using pymatgen
data_YbY2Sc(Pt2O7)2
_symmetry_space_group_name_H-M   'P 1'
_cell_length_a   7.19437364
_cell_length_b   7.21727177
_cell_length_c   7.19437473
_cell_angle_alpha   60.26258901
_cell_angle_beta   60.33684092
_cell_angle_gamma   60.26258920
_symmetry_Int_Tables_number   1
_chemical_formula_structural   YbY2Sc(Pt2O7)2
_chemical_formula_sum   'Yb1 Y2 Sc1 Pt4 O14'
_cell_volume   265.86343489
_cell_formula_units_Z   1
loop_
 _symmetry_equiv_pos_site_id
 _symmetry_equiv_pos_as_xyz
  1  'x, y, z'
loop_
 _atom_site_type_symbol
 _atom_site_label
 _atom_site_symmetry_multiplicity
 _atom_site_fract_x
 _atom_site_fract_y
 _atom_site_fract_z
 _atom_site_occupancy
  Yb  Yb0  1  0.625000  0.125000  0.625000  1
  Y  Y1  1  0.625000  0.625000  0.125000  1
  Y  Y2  1  0.125000  0.625000  0.625000  1
  Sc  Sc3  1  0.625000  0.625000  0.625000  1
  Pt  Pt4  1  0.625000  0.125000  0.125000  1
  Pt  Pt5  1  0.125000  0.125000  0.125000  1
  Pt  Pt6  1  0.125000  0.625000  0.125000  1
  Pt  Pt7  1  0.125000  0.125000  0.625000  1
  O  O8  1  0.027526  0.465868  0.465541  1
  O  O9  1  0.784459  0.784132  0.222474  1
  O  O10  1  0.785638  0.218267  0.209795  1
  O  O11  1  0.034021  0.466182  0.034021  1
  O  O12  1  0.462794  0.024311  0.462794  1
  O  O13  1  0.744761  0.738534  0.744761  1
  O  O14  1  0.040205  0.031733  0.464362  1
  O  O15  1  0.787206  0.225689  0.787206  1
  O  O16  1  0.505239  0.511466  0.505239  1
  O  O17  1  0.209795  0.218267  0.785638  1
  O  O18  1  0.215979  0.783818  0.215979  1
  O  O19  1  0.464362  0.031733  0.040205  1
  O  O20  1  0.465541  0.465868  0.027526  1
  O  O21  1  0.222474  0.784132  0.784459  1
