# generated using pymatgen
data_Er2Lu4ReSb2
_symmetry_space_group_name_H-M   'P 1'
_cell_length_a   8.00763000
_cell_length_b   8.01142262
_cell_length_c   4.27008700
_cell_angle_alpha   90.00000000
_cell_angle_beta   90.00000000
_cell_angle_gamma   119.98434123
_symmetry_Int_Tables_number   1
_chemical_formula_structural   Er2Lu4ReSb2
_chemical_formula_sum   'Er2 Lu4 Re1 Sb2'
_cell_volume   237.27364419
_cell_formula_units_Z   1
loop_
 _symmetry_equiv_pos_site_id
 _symmetry_equiv_pos_as_xyz
  1  'x, y, z'
loop_
 _atom_site_type_symbol
 _atom_site_label
 _atom_site_symmetry_multiplicity
 _atom_site_fract_x
 _atom_site_fract_y
 _atom_site_fract_z
 _atom_site_occupancy
  Er  Er0  1  0.000619  0.608167  0.500000  1
  Er  Er1  1  0.392452  0.391833  0.500000  1
  Lu  Lu2  1  0.233720  0.000000  0.000000  1
  Lu  Lu3  1  0.764839  0.765141  0.000000  1
  Lu  Lu4  1  0.999698  0.234859  0.000000  1
  Lu  Lu5  1  0.610540  0.000000  0.500000  1
  Re  Re6  1  0.997496  0.000000  0.500000  1
  Sb  Sb7  1  0.334315  0.667994  0.000000  1
  Sb  Sb8  1  0.666322  0.332006  0.000000  1
