# generated using pymatgen
data_Li4SmEr3Si8
_symmetry_space_group_name_H-M   'P 1'
_cell_length_a   3.78844300
_cell_length_b   7.58758843
_cell_length_c   10.16387406
_cell_angle_alpha   89.94874889
_cell_angle_beta   90.00000000
_cell_angle_gamma   90.00000000
_symmetry_Int_Tables_number   1
_chemical_formula_structural   Li4SmEr3Si8
_chemical_formula_sum   'Li4 Sm1 Er3 Si8'
_cell_volume   292.16192993
_cell_formula_units_Z   1
loop_
 _symmetry_equiv_pos_site_id
 _symmetry_equiv_pos_as_xyz
  1  'x, y, z'
loop_
 _atom_site_type_symbol
 _atom_site_label
 _atom_site_symmetry_multiplicity
 _atom_site_fract_x
 _atom_site_fract_y
 _atom_site_fract_z
 _atom_site_occupancy
  Li  Li0  1  0.250000  0.993115  0.391989  1
  Li  Li1  1  0.750000  0.010745  0.609596  1
  Li  Li2  1  0.250000  0.488740  0.107636  1
  Li  Li3  1  0.750000  0.510420  0.893112  1
  Sm  Sm4  1  0.750000  0.360215  0.363398  1
  Er  Er5  1  0.250000  0.135326  0.863000  1
  Er  Er6  1  0.750000  0.861431  0.135710  1
  Er  Er7  1  0.250000  0.638557  0.636669  1
  Si  Si8  1  0.750000  0.263164  0.063292  1
  Si  Si9  1  0.250000  0.732373  0.932789  1
  Si  Si10  1  0.750000  0.771710  0.432789  1
  Si  Si11  1  0.250000  0.232000  0.571915  1
  Si  Si12  1  0.750000  0.842336  0.819666  1
  Si  Si13  1  0.250000  0.153490  0.176115  1
  Si  Si14  1  0.750000  0.344163  0.682932  1
  Si  Si15  1  0.250000  0.662213  0.319392  1
