# generated using pymatgen
data_CeHo2P4Pd7
_symmetry_space_group_name_H-M   'P 1'
_cell_length_a   7.95611301
_cell_length_b   7.95611331
_cell_length_c   9.46582710
_cell_angle_alpha   55.66285561
_cell_angle_beta   55.66285548
_cell_angle_gamma   29.15800137
_symmetry_Int_Tables_number   1
_chemical_formula_structural   CeHo2P4Pd7
_chemical_formula_sum   'Ce1 Ho2 P4 Pd7'
_cell_volume   237.22466606
_cell_formula_units_Z   1
loop_
 _symmetry_equiv_pos_site_id
 _symmetry_equiv_pos_as_xyz
  1  'x, y, z'
loop_
 _atom_site_type_symbol
 _atom_site_label
 _atom_site_symmetry_multiplicity
 _atom_site_fract_x
 _atom_site_fract_y
 _atom_site_fract_z
 _atom_site_occupancy
  Ce  Ce0  1  0.500000  0.500000  0.500000  1
  Ho  Ho1  1  0.820684  0.820684  0.176107  1
  Ho  Ho2  1  0.179316  0.179316  0.823893  1
  P  P3  1  0.393953  0.393953  0.319694  1
  P  P4  1  0.606047  0.606047  0.680306  1
  P  P5  1  0.840415  0.840415  0.752837  1
  P  P6  1  0.159585  0.159585  0.247163  1
  Pd  Pd7  1  0.668711  0.668711  0.075742  1
  Pd  Pd8  1  0.009858  0.009858  0.213367  1
  Pd  Pd9  1  0.990142  0.990142  0.786633  1
  Pd  Pd10  1  0.500000  0.500000  0.000000  1
  Pd  Pd11  1  0.194834  0.194834  0.470278  1
  Pd  Pd12  1  0.805166  0.805166  0.529722  1
  Pd  Pd13  1  0.331289  0.331289  0.924258  1
