# generated using pymatgen
data_Yb2SiPd13Au
_symmetry_space_group_name_H-M   'P 1'
_cell_length_a   9.01459583
_cell_length_b   8.96181700
_cell_length_c   7.08577500
_cell_angle_alpha   90.00000000
_cell_angle_beta   90.61649509
_cell_angle_gamma   90.00000000
_symmetry_Int_Tables_number   1
_chemical_formula_structural   Yb2SiPd13Au
_chemical_formula_sum   'Yb4 Si2 Pd26 Au2'
_cell_volume   572.40648865
_cell_formula_units_Z   2
loop_
 _symmetry_equiv_pos_site_id
 _symmetry_equiv_pos_as_xyz
  1  'x, y, z'
loop_
 _atom_site_type_symbol
 _atom_site_label
 _atom_site_symmetry_multiplicity
 _atom_site_fract_x
 _atom_site_fract_y
 _atom_site_fract_z
 _atom_site_occupancy
  Yb  Yb0  1  0.505636  0.000000  0.937408  1
  Yb  Yb1  1  0.994364  0.500000  0.062592  1
  Yb  Yb2  1  0.997031  0.000000  0.499471  1
  Yb  Yb3  1  0.502969  0.500000  0.500529  1
  Si  Si4  1  0.504825  0.000000  0.444036  1
  Si  Si5  1  0.995175  0.500000  0.555964  1
  Pd  Pd6  1  0.339443  0.835826  0.611243  1
  Pd  Pd7  1  0.339443  0.164174  0.611243  1
  Pd  Pd8  1  0.667875  0.834248  0.617913  1
  Pd  Pd9  1  0.667875  0.165752  0.617913  1
  Pd  Pd10  1  0.160557  0.664174  0.388757  1
  Pd  Pd11  1  0.160557  0.335826  0.388757  1
  Pd  Pd12  1  0.832125  0.665752  0.382087  1
  Pd  Pd13  1  0.832125  0.334248  0.382087  1
  Pd  Pd14  1  0.504993  0.769716  0.256422  1
  Pd  Pd15  1  0.504993  0.230284  0.256422  1
  Pd  Pd16  1  0.270582  0.000000  0.259307  1
  Pd  Pd17  1  0.732077  0.000000  0.255872  1
  Pd  Pd18  1  0.995007  0.730284  0.743578  1
  Pd  Pd19  1  0.995007  0.269716  0.743578  1
  Pd  Pd20  1  0.229418  0.500000  0.740693  1
  Pd  Pd21  1  0.767923  0.500000  0.744128  1
  Pd  Pd22  1  0.500169  0.349447  0.852269  1
  Pd  Pd23  1  0.500169  0.650553  0.852269  1
  Pd  Pd24  1  0.850099  0.000000  0.856950  1
  Pd  Pd25  1  0.150074  0.000000  0.845044  1
  Pd  Pd26  1  0.999831  0.150553  0.147731  1
  Pd  Pd27  1  0.999831  0.849447  0.147731  1
  Pd  Pd28  1  0.649901  0.500000  0.143050  1
  Pd  Pd29  1  0.349926  0.500000  0.154956  1
  Pd  Pd30  1  0.750000  0.750000  0.000000  1
  Pd  Pd31  1  0.750000  0.250000  0.000000  1
  Au  Au32  1  0.250000  0.750000  0.000000  1
  Au  Au33  1  0.250000  0.250000  0.000000  1
