# generated using pymatgen
data_Tb12Y8Co3TcBi8
_symmetry_space_group_name_H-M   'P 1'
_cell_length_a   8.03851425
_cell_length_b   8.91916400
_cell_length_c   12.47903476
_cell_angle_alpha   90.00001286
_cell_angle_beta   90.25246346
_cell_angle_gamma   89.99998710
_symmetry_Int_Tables_number   1
_chemical_formula_structural   Tb12Y8Co3TcBi8
_chemical_formula_sum   'Tb12 Y8 Co3 Tc1 Bi8'
_cell_volume   894.69851002
_cell_formula_units_Z   1
loop_
 _symmetry_equiv_pos_site_id
 _symmetry_equiv_pos_as_xyz
  1  'x, y, z'
loop_
 _atom_site_type_symbol
 _atom_site_label
 _atom_site_symmetry_multiplicity
 _atom_site_fract_x
 _atom_site_fract_y
 _atom_site_fract_z
 _atom_site_occupancy
  Tb  Tb0  1  0.380306  0.750000  0.695244  1
  Tb  Tb1  1  0.118130  0.749999  0.189057  1
  Tb  Tb2  1  0.947593  0.750000  0.503353  1
  Tb  Tb3  1  0.549127  0.750000  0.002589  1
  Tb  Tb4  1  0.678086  0.043704  0.564081  1
  Tb  Tb5  1  0.324623  0.965823  0.438350  1
  Tb  Tb6  1  0.175769  0.965581  0.936911  1
  Tb  Tb7  1  0.324623  0.534177  0.438350  1
  Tb  Tb8  1  0.822945  0.036934  0.062766  1
  Tb  Tb9  1  0.678085  0.456296  0.564081  1
  Tb  Tb10  1  0.822944  0.463067  0.062766  1
  Tb  Tb11  1  0.175769  0.534420  0.936911  1
  Y  Y12  1  0.844973  0.750001  0.796625  1
  Y  Y13  1  0.151516  0.250000  0.200115  1
  Y  Y14  1  0.346848  0.250000  0.701722  1
  Y  Y15  1  0.652877  0.750000  0.293386  1
  Y  Y16  1  0.619029  0.249999  0.306842  1
  Y  Y17  1  0.880427  0.250000  0.808355  1
  Y  Y18  1  0.050687  0.250000  0.496319  1
  Y  Y19  1  0.453310  0.250000  0.997683  1
  Co  Co20  1  0.429165  0.249999  0.488806  1
  Co  Co21  1  0.060350  0.250000  0.991129  1
  Co  Co22  1  0.936267  0.750000  0.008436  1
  Tc  Tc23  1  0.577470  0.750000  0.514778  1
  Bi  Bi24  1  0.572764  0.490580  0.827333  1
  Bi  Bi25  1  0.426287  0.507398  0.173083  1
  Bi  Bi26  1  0.072910  0.507465  0.673957  1
  Bi  Bi27  1  0.426286  0.992602  0.173083  1
  Bi  Bi28  1  0.927580  0.491223  0.326298  1
  Bi  Bi29  1  0.572764  0.009420  0.827334  1
  Bi  Bi30  1  0.927580  0.008777  0.326298  1
  Bi  Bi31  1  0.072909  0.992536  0.673957  1
