# generated using pymatgen
data_Pa4H15
_symmetry_space_group_name_H-M   'P 1'
_cell_length_a   7.51153678
_cell_length_b   7.51153632
_cell_length_c   7.51153700
_cell_angle_alpha   109.47121709
_cell_angle_beta   109.47121584
_cell_angle_gamma   109.47122286
_symmetry_Int_Tables_number   1
_chemical_formula_structural   Pa4H15
_chemical_formula_sum   'Pa8 H30'
_cell_volume   326.26051849
_cell_formula_units_Z   2
loop_
 _symmetry_equiv_pos_site_id
 _symmetry_equiv_pos_as_xyz
  1  'x, y, z'
loop_
 _atom_site_type_symbol
 _atom_site_label
 _atom_site_symmetry_multiplicity
 _atom_site_fract_x
 _atom_site_fract_y
 _atom_site_fract_z
 _atom_site_occupancy
  Pa  Pa0  1  0.920387  0.920387  0.920387  1
  Pa  Pa1  1  0.500000  0.000000  0.079613  1
  Pa  Pa2  1  0.000000  0.079613  0.500000  1
  Pa  Pa3  1  0.079613  0.500000  0.000000  1
  Pa  Pa4  1  0.000000  0.579613  0.500000  1
  Pa  Pa5  1  0.579613  0.500000  0.000000  1
  Pa  Pa6  1  0.500000  0.000000  0.579613  1
  Pa  Pa7  1  0.420387  0.420387  0.420387  1
  H  H8  1  0.649396  0.965625  0.365612  1
  H  H9  1  0.216216  0.316231  0.850604  1
  H  H10  1  0.183769  0.399987  0.534375  1
  H  H11  1  0.100013  0.283784  0.134388  1
  H  H12  1  0.283784  0.134388  0.100013  1
  H  H13  1  0.134388  0.100013  0.283784  1
  H  H14  1  0.465625  0.149396  0.865612  1
  H  H15  1  0.716216  0.350604  0.816231  1
  H  H16  1  0.625000  0.375000  0.250000  1
  H  H17  1  0.250000  0.625000  0.375000  1
  H  H18  1  0.750000  0.875000  0.125000  1
  H  H19  1  0.125000  0.750000  0.875000  1
  H  H20  1  0.375000  0.250000  0.625000  1
  H  H21  1  0.875000  0.125000  0.750000  1
  H  H22  1  0.783784  0.600013  0.634388  1
  H  H23  1  0.316231  0.850604  0.216216  1
  H  H24  1  0.365612  0.649396  0.965625  1
  H  H25  1  0.965625  0.365612  0.649396  1
  H  H26  1  0.534375  0.183769  0.399987  1
  H  H27  1  0.399987  0.534375  0.183769  1
  H  H28  1  0.850604  0.216216  0.316231  1
  H  H29  1  0.899987  0.683769  0.034375  1
  H  H30  1  0.816231  0.716216  0.350604  1
  H  H31  1  0.149396  0.865612  0.465625  1
  H  H32  1  0.683769  0.034375  0.899987  1
  H  H33  1  0.350604  0.816231  0.716216  1
  H  H34  1  0.865612  0.465625  0.149396  1
  H  H35  1  0.634388  0.783784  0.600013  1
  H  H36  1  0.600013  0.634388  0.783784  1
  H  H37  1  0.034375  0.899987  0.683769  1
