# generated using pymatgen
data_Tb7Co5Sn23Rh
_symmetry_space_group_name_H-M   'P 1'
_cell_length_a   9.74386095
_cell_length_b   9.74386103
_cell_length_c   10.00734071
_cell_angle_alpha   89.99552588
_cell_angle_beta   90.00447515
_cell_angle_gamma   119.98245202
_symmetry_Int_Tables_number   1
_chemical_formula_structural   Tb7Co5Sn23Rh
_chemical_formula_sum   'Tb7 Co5 Sn23 Rh1'
_cell_volume   822.97803086
_cell_formula_units_Z   1
loop_
 _symmetry_equiv_pos_site_id
 _symmetry_equiv_pos_as_xyz
  1  'x, y, z'
loop_
 _atom_site_type_symbol
 _atom_site_label
 _atom_site_symmetry_multiplicity
 _atom_site_fract_x
 _atom_site_fract_y
 _atom_site_fract_z
 _atom_site_occupancy
  Tb  Tb0  1  0.997820  0.002180  0.001980  1
  Tb  Tb1  1  0.477954  0.522046  0.306927  1
  Tb  Tb2  1  0.522658  0.477342  0.693481  1
  Tb  Tb3  1  0.477183  0.954904  0.306413  1
  Tb  Tb4  1  0.521193  0.044145  0.693920  1
  Tb  Tb5  1  0.045096  0.522817  0.306413  1
  Tb  Tb6  1  0.955855  0.478807  0.693920  1
  Co  Co7  1  0.167492  0.832508  0.803794  1
  Co  Co8  1  0.833030  0.664606  0.195721  1
  Co  Co9  1  0.168911  0.334210  0.802162  1
  Co  Co10  1  0.335394  0.166970  0.195721  1
  Co  Co11  1  0.665790  0.831089  0.802162  1
  Sn  Sn12  1  0.344215  0.999562  0.000097  1
  Sn  Sn13  1  0.647727  0.994458  0.994976  1
  Sn  Sn14  1  0.005542  0.352273  0.994976  1
  Sn  Sn15  1  0.000438  0.655785  0.000097  1
  Sn  Sn16  1  0.654380  0.653843  0.999642  1
  Sn  Sn17  1  0.346157  0.345620  0.999642  1
  Sn  Sn18  1  0.333613  0.666387  0.817221  1
  Sn  Sn19  1  0.664178  0.335822  0.181287  1
  Sn  Sn20  1  0.999443  0.000557  0.500286  1
  Sn  Sn21  1  0.778500  0.221500  0.455773  1
  Sn  Sn22  1  0.218582  0.781418  0.549753  1
  Sn  Sn23  1  0.781584  0.562813  0.450243  1
  Sn  Sn24  1  0.218456  0.437469  0.550077  1
  Sn  Sn25  1  0.437187  0.218416  0.450243  1
  Sn  Sn26  1  0.562531  0.781544  0.550077  1
  Sn  Sn27  1  0.333832  0.666168  0.115195  1
  Sn  Sn28  1  0.667297  0.332703  0.884627  1
  Sn  Sn29  1  0.117463  0.882537  0.274084  1
  Sn  Sn30  1  0.882293  0.117707  0.725513  1
  Sn  Sn31  1  0.124680  0.237611  0.278055  1
  Sn  Sn32  1  0.883227  0.764833  0.725631  1
  Sn  Sn33  1  0.762389  0.875320  0.278055  1
  Sn  Sn34  1  0.235167  0.116773  0.725631  1
  Rh  Rh35  1  0.832741  0.167259  0.196205  1
