# generated using pymatgen
data_Dy20Ir5Ru5Rh2
_symmetry_space_group_name_H-M   'P 1'
_cell_length_a   10.85769417
_cell_length_b   10.85769442
_cell_length_c   6.40786710
_cell_angle_alpha   89.95882238
_cell_angle_beta   89.95882302
_cell_angle_gamma   89.97024932
_symmetry_Int_Tables_number   1
_chemical_formula_structural   Dy20Ir5Ru5Rh2
_chemical_formula_sum   'Dy20 Ir5 Ru5 Rh2'
_cell_volume   755.41991894
_cell_formula_units_Z   1
loop_
 _symmetry_equiv_pos_site_id
 _symmetry_equiv_pos_as_xyz
  1  'x, y, z'
loop_
 _atom_site_type_symbol
 _atom_site_label
 _atom_site_symmetry_multiplicity
 _atom_site_fract_x
 _atom_site_fract_y
 _atom_site_fract_z
 _atom_site_occupancy
  Dy  Dy0  1  0.294017  0.087641  0.379368  1
  Dy  Dy1  1  0.293527  0.913668  0.878387  1
  Dy  Dy2  1  0.707474  0.086167  0.879673  1
  Dy  Dy3  1  0.707054  0.913616  0.378326  1
  Dy  Dy4  1  0.586684  0.793536  0.879110  1
  Dy  Dy5  1  0.587107  0.205994  0.378579  1
  Dy  Dy6  1  0.414155  0.793297  0.379263  1
  Dy  Dy7  1  0.412073  0.205780  0.878905  1
  Dy  Dy8  1  0.206464  0.413316  0.620890  1
  Dy  Dy9  1  0.206703  0.585845  0.120737  1
  Dy  Dy10  1  0.794006  0.412893  0.121421  1
  Dy  Dy11  1  0.794220  0.587927  0.621095  1
  Dy  Dy12  1  0.912359  0.705983  0.120632  1
  Dy  Dy13  1  0.913833  0.292526  0.620327  1
  Dy  Dy14  1  0.086332  0.706473  0.621613  1
  Dy  Dy15  1  0.086384  0.292946  0.121674  1
  Dy  Dy16  1  0.999291  0.001343  0.499944  1
  Dy  Dy17  1  0.998657  0.000709  0.000056  1
  Dy  Dy18  1  0.499844  0.500323  0.000532  1
  Dy  Dy19  1  0.499677  0.500156  0.499468  1
  Ir  Ir20  1  0.847263  0.846650  0.749780  1
  Ir  Ir21  1  0.153350  0.152737  0.750220  1
  Ir  Ir22  1  0.652974  0.652309  0.249819  1
  Ir  Ir23  1  0.347691  0.347026  0.250181  1
  Ir  Ir24  1  0.347165  0.652835  0.750000  1
  Ru  Ru25  1  0.847657  0.152343  0.250000  1
  Ru  Ru26  1  0.499998  0.000329  0.123730  1
  Ru  Ru27  1  0.499708  0.000247  0.623838  1
  Ru  Ru28  1  0.999753  0.500292  0.876162  1
  Ru  Ru29  1  0.999671  0.500002  0.376270  1
  Rh  Rh30  1  0.152946  0.847054  0.250000  1
  Rh  Rh31  1  0.651959  0.348041  0.750000  1
