# generated using pymatgen
data_TbSm2Al12Ru3Au
_symmetry_space_group_name_H-M   'P 1'
_cell_length_a   8.92011483
_cell_length_b   8.87276317
_cell_length_c   9.61661730
_cell_angle_alpha   90.00000144
_cell_angle_beta   89.91676035
_cell_angle_gamma   119.82455410
_symmetry_Int_Tables_number   1
_chemical_formula_structural   TbSm2Al12Ru3Au
_chemical_formula_sum   'Tb2 Sm4 Al24 Ru6 Au2'
_cell_volume   660.30832408
_cell_formula_units_Z   2
loop_
 _symmetry_equiv_pos_site_id
 _symmetry_equiv_pos_as_xyz
  1  'x, y, z'
loop_
 _atom_site_type_symbol
 _atom_site_label
 _atom_site_symmetry_multiplicity
 _atom_site_fract_x
 _atom_site_fract_y
 _atom_site_fract_z
 _atom_site_occupancy
  Tb  Tb0  1  0.190984  0.806286  0.753232  1
  Tb  Tb1  1  0.190984  0.384698  0.753232  1
  Sm  Sm2  1  0.381490  0.190745  0.252769  1
  Sm  Sm3  1  0.809412  0.191851  0.247248  1
  Sm  Sm4  1  0.809412  0.617561  0.247248  1
  Sm  Sm5  1  0.618150  0.809076  0.747076  1
  Al  Al6  1  0.434593  0.870898  0.242402  1
  Al  Al7  1  0.122237  0.561119  0.250283  1
  Al  Al8  1  0.434593  0.563695  0.242402  1
  Al  Al9  1  0.564200  0.128292  0.757178  1
  Al  Al10  1  0.879332  0.439666  0.749916  1
  Al  Al11  1  0.564200  0.435908  0.757178  1
  Al  Al12  1  0.151993  0.828273  0.420555  1
  Al  Al13  1  0.151993  0.323723  0.420555  1
  Al  Al14  1  0.681200  0.840600  0.417203  1
  Al  Al15  1  0.849085  0.172134  0.581196  1
  Al  Al16  1  0.849085  0.676949  0.581196  1
  Al  Al17  1  0.317957  0.158979  0.584182  1
  Al  Al18  1  0.836664  0.164093  0.924287  1
  Al  Al19  1  0.836664  0.672571  0.924287  1
  Al  Al20  1  0.326285  0.163142  0.928368  1
  Al  Al21  1  0.164050  0.836194  0.073810  1
  Al  Al22  1  0.164050  0.327857  0.073810  1
  Al  Al23  1  0.672607  0.836303  0.070065  1
  Al  Al24  1  0.320446  0.660223  0.528459  1
  Al  Al25  1  0.679189  0.339595  0.474503  1
  Al  Al26  1  0.666344  0.333172  0.023662  1
  Al  Al27  1  0.332990  0.666495  0.973966  1
  Al  Al28  1  0.003330  0.001664  0.249037  1
  Al  Al29  1  0.998592  0.999297  0.751048  1
  Ru  Ru30  1  0.000065  0.000033  0.500223  1
  Ru  Ru31  1  0.999906  0.999953  0.999857  1
  Ru  Ru32  1  0.000621  0.500310  0.501021  1
  Ru  Ru33  1  0.499062  0.999399  0.999310  1
  Ru  Ru34  1  0.000623  0.500312  0.999071  1
  Ru  Ru35  1  0.499062  0.499663  0.999310  1
  Au  Au36  1  0.499273  0.999442  0.500428  1
  Au  Au37  1  0.499273  0.499831  0.500428  1
