# generated using pymatgen
data_Nb6Fe5OsN2
_symmetry_space_group_name_H-M   'P 1'
_cell_length_a   8.06614264
_cell_length_b   8.06614246
_cell_length_c   8.00628800
_cell_angle_alpha   60.24516465
_cell_angle_beta   60.24516539
_cell_angle_gamma   60.41724951
_symmetry_Int_Tables_number   1
_chemical_formula_structural   Nb6Fe5OsN2
_chemical_formula_sum   'Nb12 Fe10 Os2 N4'
_cell_volume   370.85862215
_cell_formula_units_Z   2
loop_
 _symmetry_equiv_pos_site_id
 _symmetry_equiv_pos_as_xyz
  1  'x, y, z'
loop_
 _atom_site_type_symbol
 _atom_site_label
 _atom_site_symmetry_multiplicity
 _atom_site_fract_x
 _atom_site_fract_y
 _atom_site_fract_z
 _atom_site_occupancy
  Nb  Nb0  1  0.801471  0.801471  0.198529  1
  Nb  Nb1  1  0.194889  0.194889  0.805111  1
  Nb  Nb2  1  0.803354  0.198146  0.803716  1
  Nb  Nb3  1  0.198146  0.803354  0.194783  1
  Nb  Nb4  1  0.198146  0.803354  0.803716  1
  Nb  Nb5  1  0.803354  0.198146  0.194783  1
  Nb  Nb6  1  0.448529  0.448529  0.051471  1
  Nb  Nb7  1  0.055111  0.055111  0.444889  1
  Nb  Nb8  1  0.446646  0.051854  0.446284  1
  Nb  Nb9  1  0.051854  0.446646  0.055217  1
  Nb  Nb10  1  0.051854  0.446646  0.446284  1
  Nb  Nb11  1  0.446646  0.051854  0.055217  1
  Fe  Fe12  1  0.625000  0.625000  0.125000  1
  Fe  Fe13  1  0.625000  0.625000  0.625000  1
  Fe  Fe14  1  0.728966  0.431770  0.419633  1
  Fe  Fe15  1  0.431770  0.728966  0.419633  1
  Fe  Fe16  1  0.427028  0.427028  0.729165  1
  Fe  Fe17  1  0.427028  0.427028  0.416780  1
  Fe  Fe18  1  0.521034  0.818230  0.830367  1
  Fe  Fe19  1  0.818230  0.521034  0.830367  1
  Fe  Fe20  1  0.822972  0.822972  0.520835  1
  Fe  Fe21  1  0.822972  0.822972  0.833220  1
  Os  Os22  1  0.125000  0.625000  0.625000  1
  Os  Os23  1  0.625000  0.125000  0.625000  1
  N  N24  1  0.625000  0.125000  0.125000  1
  N  N25  1  0.125000  0.625000  0.125000  1
  N  N26  1  0.125000  0.125000  0.625000  1
  N  N27  1  0.125000  0.125000  0.125000  1
