# generated using pymatgen
data_SrPa2F12
_symmetry_space_group_name_H-M   'P 1'
_cell_length_a   8.50963862
_cell_length_b   8.50963881
_cell_length_c   8.62037694
_cell_angle_alpha   63.20922738
_cell_angle_beta   63.20922464
_cell_angle_gamma   80.46264086
_symmetry_Int_Tables_number   1
_chemical_formula_structural   SrPa2F12
_chemical_formula_sum   'Sr2 Pa4 F24'
_cell_volume   496.86500365
_cell_formula_units_Z   2
loop_
 _symmetry_equiv_pos_site_id
 _symmetry_equiv_pos_as_xyz
  1  'x, y, z'
loop_
 _atom_site_type_symbol
 _atom_site_label
 _atom_site_symmetry_multiplicity
 _atom_site_fract_x
 _atom_site_fract_y
 _atom_site_fract_z
 _atom_site_occupancy
  Sr  Sr0  1  0.787443  0.212557  0.250000  1
  Sr  Sr1  1  0.212557  0.787443  0.750000  1
  Pa  Pa2  1  0.636050  0.777312  0.167133  1
  Pa  Pa3  1  0.777312  0.636050  0.667133  1
  Pa  Pa4  1  0.363950  0.222688  0.832867  1
  Pa  Pa5  1  0.222688  0.363950  0.332867  1
  F  F6  1  0.741171  0.683542  0.394622  1
  F  F7  1  0.579952  0.199483  0.591550  1
  F  F8  1  0.720969  0.515167  0.222701  1
  F  F9  1  0.316458  0.258829  0.105378  1
  F  F10  1  0.089387  0.172472  0.028518  1
  F  F11  1  0.199483  0.579952  0.091550  1
  F  F12  1  0.420048  0.800517  0.408450  1
  F  F13  1  0.395256  0.604744  0.250000  1
  F  F14  1  0.604744  0.395256  0.750000  1
  F  F15  1  0.515167  0.720969  0.722701  1
  F  F16  1  0.827528  0.910613  0.471482  1
  F  F17  1  0.172472  0.089387  0.528518  1
  F  F18  1  0.279031  0.484833  0.777299  1
  F  F19  1  0.258829  0.316458  0.605378  1
  F  F20  1  0.710908  0.017197  0.146611  1
  F  F21  1  0.000000  0.500000  0.500000  1
  F  F22  1  0.982803  0.289092  0.353389  1
  F  F23  1  0.800517  0.420048  0.908450  1
  F  F24  1  0.484833  0.279031  0.277299  1
  F  F25  1  0.910613  0.827528  0.971482  1
  F  F26  1  0.289092  0.982803  0.853389  1
  F  F27  1  0.683542  0.741171  0.894622  1
  F  F28  1  0.017197  0.710908  0.646611  1
  F  F29  1  0.500000  0.000000  0.000000  1
