# generated using pymatgen
data_Ba14(SnAs4)3
_symmetry_space_group_name_H-M   'P 1'
_cell_length_a   10.06709052
_cell_length_b   10.06709063
_cell_length_c   10.06709094
_cell_angle_alpha   86.84275877
_cell_angle_beta   86.84276023
_cell_angle_gamma   86.84275292
_symmetry_Int_Tables_number   1
_chemical_formula_structural   Ba14(SnAs4)3
_chemical_formula_sum   'Ba14 Sn3 As12'
_cell_volume   1015.78084530
_cell_formula_units_Z   1
loop_
 _symmetry_equiv_pos_site_id
 _symmetry_equiv_pos_as_xyz
  1  'x, y, z'
loop_
 _atom_site_type_symbol
 _atom_site_label
 _atom_site_symmetry_multiplicity
 _atom_site_fract_x
 _atom_site_fract_y
 _atom_site_fract_z
 _atom_site_occupancy
  Ba  Ba0  1  0.412620  0.272068  0.773841  1
  Ba  Ba1  1  0.773841  0.412620  0.272068  1
  Ba  Ba2  1  0.272068  0.773841  0.412620  1
  Ba  Ba3  1  0.984883  0.538811  0.653609  1
  Ba  Ba4  1  0.653609  0.984883  0.538811  1
  Ba  Ba5  1  0.538811  0.653609  0.984883  1
  Ba  Ba6  1  0.173501  0.539514  0.019773  1
  Ba  Ba7  1  0.019773  0.173501  0.539514  1
  Ba  Ba8  1  0.539514  0.019773  0.173501  1
  Ba  Ba9  1  0.765353  0.264734  0.909692  1
  Ba  Ba10  1  0.909692  0.765353  0.264734  1
  Ba  Ba11  1  0.264734  0.909692  0.765353  1
  Ba  Ba12  1  0.185820  0.185820  0.185820  1
  Ba  Ba13  1  0.400006  0.400006  0.400006  1
  Sn  Sn14  1  0.999895  0.999895  0.999895  1
  Sn  Sn15  1  0.839474  0.839474  0.839474  1
  Sn  Sn16  1  0.604989  0.604989  0.604989  1
  As  As17  1  0.701850  0.337053  0.587076  1
  As  As18  1  0.587076  0.701850  0.337053  1
  As  As19  1  0.337053  0.587076  0.701850  1
  As  As20  1  0.597442  0.966948  0.857205  1
  As  As21  1  0.857205  0.597442  0.966948  1
  As  As22  1  0.966948  0.857205  0.597442  1
  As  As23  1  0.473345  0.340558  0.083919  1
  As  As24  1  0.083919  0.473345  0.340558  1
  As  As25  1  0.340558  0.083919  0.473345  1
  As  As26  1  0.095088  0.216411  0.859249  1
  As  As27  1  0.859249  0.095088  0.216411  1
  As  As28  1  0.216411  0.859249  0.095088  1
