# generated using pymatgen
data_LaTb2As4Pd7
_symmetry_space_group_name_H-M   'P 1'
_cell_length_a   8.17540139
_cell_length_b   8.17540319
_cell_length_c   9.75283109
_cell_angle_alpha   55.83895069
_cell_angle_beta   55.83894173
_cell_angle_gamma   29.43579460
_symmetry_Int_Tables_number   1
_chemical_formula_structural   LaTb2As4Pd7
_chemical_formula_sum   'La1 Tb2 As4 Pd7'
_cell_volume   260.83322680
_cell_formula_units_Z   1
loop_
 _symmetry_equiv_pos_site_id
 _symmetry_equiv_pos_as_xyz
  1  'x, y, z'
loop_
 _atom_site_type_symbol
 _atom_site_label
 _atom_site_symmetry_multiplicity
 _atom_site_fract_x
 _atom_site_fract_y
 _atom_site_fract_z
 _atom_site_occupancy
  La  La0  1  0.000000  0.000000  0.000000  1
  Tb  Tb1  1  0.676225  0.676225  0.330419  1
  Tb  Tb2  1  0.323775  0.323775  0.669581  1
  As  As3  1  0.336591  0.336591  0.258832  1
  As  As4  1  0.663409  0.663409  0.741168  1
  As  As5  1  0.892552  0.892552  0.819285  1
  As  As6  1  0.107448  0.107448  0.180715  1
  Pd  Pd7  1  0.305926  0.305926  0.026119  1
  Pd  Pd8  1  0.694074  0.694074  0.973881  1
  Pd  Pd9  1  0.512233  0.512233  0.703859  1
  Pd  Pd10  1  0.831677  0.831677  0.430321  1
  Pd  Pd11  1  0.487767  0.487767  0.296141  1
  Pd  Pd12  1  0.168323  0.168323  0.569679  1
  Pd  Pd13  1  0.000000  0.000000  0.500000  1
