# generated using pymatgen
data_KAg4HgTe8
_symmetry_space_group_name_H-M   'P 1'
_cell_length_a   12.15276680
_cell_length_b   12.15276679
_cell_length_c   10.79257200
_cell_angle_alpha   90.43658353
_cell_angle_beta   90.43658353
_cell_angle_gamma   14.63823031
_symmetry_Int_Tables_number   1
_chemical_formula_structural   KAg4HgTe8
_chemical_formula_sum   'K1 Ag4 Hg1 Te8'
_cell_volume   402.80373505
_cell_formula_units_Z   1
loop_
 _symmetry_equiv_pos_site_id
 _symmetry_equiv_pos_as_xyz
  1  'x, y, z'
loop_
 _atom_site_type_symbol
 _atom_site_label
 _atom_site_symmetry_multiplicity
 _atom_site_fract_x
 _atom_site_fract_y
 _atom_site_fract_z
 _atom_site_occupancy
  K  K0  1  0.000000  0.000000  0.000000  1
  Ag  Ag1  1  0.241201  0.241201  0.114221  1
  Ag  Ag2  1  0.840050  0.840050  0.464572  1
  Ag  Ag3  1  0.159950  0.159950  0.535428  1
  Ag  Ag4  1  0.758799  0.758799  0.885779  1
  Hg  Hg5  1  0.500000  0.500000  0.500000  1
  Te  Te6  1  0.918082  0.918082  0.662111  1
  Te  Te7  1  0.081918  0.081918  0.337889  1
  Te  Te8  1  0.584674  0.584674  0.727520  1
  Te  Te9  1  0.415326  0.415326  0.272480  1
  Te  Te10  1  0.644930  0.644930  0.982439  1
  Te  Te11  1  0.355070  0.355070  0.017561  1
  Te  Te12  1  0.738041  0.738041  0.339012  1
  Te  Te13  1  0.261959  0.261959  0.660988  1
