# generated using pymatgen
data_Nd16Mg3CdOs3Pt
_symmetry_space_group_name_H-M   'P 1'
_cell_length_a   9.97307750
_cell_length_b   10.06501273
_cell_length_c   10.06506103
_cell_angle_alpha   59.83466620
_cell_angle_beta   59.53218889
_cell_angle_gamma   59.53254463
_symmetry_Int_Tables_number   1
_chemical_formula_structural   Nd16Mg3CdOs3Pt
_chemical_formula_sum   'Nd16 Mg3 Cd1 Os3 Pt1'
_cell_volume   708.43658914
_cell_formula_units_Z   1
loop_
 _symmetry_equiv_pos_site_id
 _symmetry_equiv_pos_as_xyz
  1  'x, y, z'
loop_
 _atom_site_type_symbol
 _atom_site_label
 _atom_site_symmetry_multiplicity
 _atom_site_fract_x
 _atom_site_fract_y
 _atom_site_fract_z
 _atom_site_occupancy
  Nd  Nd0  1  0.341897  0.348448  0.348454  1
  Nd  Nd1  1  0.343088  0.348855  0.960549  1
  Nd  Nd2  1  0.343083  0.960548  0.348861  1
  Nd  Nd3  1  0.970100  0.343321  0.343318  1
  Nd  Nd4  1  0.815363  0.189292  0.189288  1
  Nd  Nd5  1  0.188386  0.810369  0.810371  1
  Nd  Nd6  1  0.189228  0.810190  0.190393  1
  Nd  Nd7  1  0.816152  0.188625  0.805738  1
  Nd  Nd8  1  0.189231  0.190396  0.810186  1
  Nd  Nd9  1  0.816158  0.805731  0.188618  1
  Nd  Nd10  1  0.938464  0.561214  0.561214  1
  Nd  Nd11  1  0.556922  0.939201  0.939201  1
  Nd  Nd12  1  0.557597  0.937387  0.566025  1
  Nd  Nd13  1  0.939873  0.560732  0.939141  1
  Nd  Nd14  1  0.557585  0.566029  0.937392  1
  Nd  Nd15  1  0.939875  0.939143  0.560731  1
  Mg  Mg16  1  0.576243  0.577971  0.577968  1
  Mg  Mg17  1  0.575518  0.578029  0.266769  1
  Mg  Mg18  1  0.575520  0.266769  0.578026  1
  Cd  Cd19  1  0.258303  0.579887  0.579886  1
  Os  Os20  1  0.144442  0.137332  0.137337  1
  Os  Os21  1  0.144447  0.137234  0.582011  1
  Os  Os22  1  0.144463  0.582005  0.137225  1
  Pt  Pt23  1  0.578066  0.141292  0.141300  1
