# generated using pymatgen
data_Ho6Si5SnRh12
_symmetry_space_group_name_H-M   'P 1'
_cell_length_a   5.59259600
_cell_length_b   5.59259582
_cell_length_c   15.27948200
_cell_angle_alpha   90.00000000
_cell_angle_beta   90.00000000
_cell_angle_gamma   120.00000107
_symmetry_Int_Tables_number   1
_chemical_formula_structural   Ho6Si5SnRh12
_chemical_formula_sum   'Ho6 Si5 Sn1 Rh12'
_cell_volume   413.87208945
_cell_formula_units_Z   1
loop_
 _symmetry_equiv_pos_site_id
 _symmetry_equiv_pos_as_xyz
  1  'x, y, z'
loop_
 _atom_site_type_symbol
 _atom_site_label
 _atom_site_symmetry_multiplicity
 _atom_site_fract_x
 _atom_site_fract_y
 _atom_site_fract_z
 _atom_site_occupancy
  Ho  Ho0  1  0.666667  0.333333  0.963349  1
  Ho  Ho1  1  0.666667  0.333333  0.539377  1
  Ho  Ho2  1  0.333333  0.666667  0.036651  1
  Ho  Ho3  1  0.666667  0.333333  0.752021  1
  Ho  Ho4  1  0.333333  0.666667  0.460623  1
  Ho  Ho5  1  0.333333  0.666667  0.247979  1
  Si  Si6  1  0.666667  0.333333  0.243708  1
  Si  Si7  1  0.000000  0.000000  0.245505  1
  Si  Si8  1  0.000000  0.000000  0.754495  1
  Si  Si9  1  0.333333  0.666667  0.756292  1
  Si  Si10  1  0.000000  0.000000  0.000000  1
  Sn  Sn11  1  0.000000  0.000000  0.500000  1
  Rh  Rh12  1  0.166259  0.332518  0.872551  1
  Rh  Rh13  1  0.169011  0.338020  0.640114  1
  Rh  Rh14  1  0.667482  0.833741  0.872551  1
  Rh  Rh15  1  0.338020  0.169011  0.359886  1
  Rh  Rh16  1  0.830989  0.661980  0.359886  1
  Rh  Rh17  1  0.830989  0.169011  0.359886  1
  Rh  Rh18  1  0.833741  0.166259  0.127449  1
  Rh  Rh19  1  0.332518  0.166259  0.127449  1
  Rh  Rh20  1  0.661980  0.830989  0.640114  1
  Rh  Rh21  1  0.169011  0.830989  0.640114  1
  Rh  Rh22  1  0.833741  0.667482  0.127449  1
  Rh  Rh23  1  0.166259  0.833741  0.872551  1
