# generated using pymatgen
data_LiDyCo2P3Rh2
_symmetry_space_group_name_H-M   'P 1'
_cell_length_a   3.75392000
_cell_length_b   10.60337800
_cell_length_c   12.44959100
_cell_angle_alpha   90.00000000
_cell_angle_beta   90.00000000
_cell_angle_gamma   90.00000000
_symmetry_Int_Tables_number   1
_chemical_formula_structural   LiDyCo2P3Rh2
_chemical_formula_sum   'Li4 Dy4 Co8 P12 Rh8'
_cell_volume   495.54641770
_cell_formula_units_Z   4
loop_
 _symmetry_equiv_pos_site_id
 _symmetry_equiv_pos_as_xyz
  1  'x, y, z'
loop_
 _atom_site_type_symbol
 _atom_site_label
 _atom_site_symmetry_multiplicity
 _atom_site_fract_x
 _atom_site_fract_y
 _atom_site_fract_z
 _atom_site_occupancy
  Li  Li0  1  0.250000  0.706089  0.989241  1
  Li  Li1  1  0.250000  0.793911  0.489241  1
  Li  Li2  1  0.750000  0.293911  0.010759  1
  Li  Li3  1  0.750000  0.206089  0.510759  1
  Dy  Dy4  1  0.250000  0.578720  0.708757  1
  Dy  Dy5  1  0.250000  0.921280  0.208757  1
  Dy  Dy6  1  0.750000  0.421280  0.291243  1
  Dy  Dy7  1  0.750000  0.078720  0.791243  1
  Co  Co8  1  0.250000  0.879874  0.692833  1
  Co  Co9  1  0.250000  0.620126  0.192833  1
  Co  Co10  1  0.750000  0.120126  0.307167  1
  Co  Co11  1  0.750000  0.379874  0.807167  1
  Co  Co12  1  0.250000  0.464030  0.935561  1
  Co  Co13  1  0.250000  0.035970  0.435561  1
  Co  Co14  1  0.750000  0.535970  0.064439  1
  Co  Co15  1  0.750000  0.964030  0.564439  1
  P  P16  1  0.250000  0.432622  0.112426  1
  P  P17  1  0.250000  0.067378  0.612426  1
  P  P18  1  0.750000  0.567378  0.887574  1
  P  P19  1  0.750000  0.932622  0.387574  1
  P  P20  1  0.250000  0.274060  0.863261  1
  P  P21  1  0.250000  0.225940  0.363261  1
  P  P22  1  0.750000  0.725940  0.136739  1
  P  P23  1  0.750000  0.774060  0.636739  1
  P  P24  1  0.250000  0.599844  0.382547  1
  P  P25  1  0.250000  0.900156  0.882547  1
  P  P26  1  0.750000  0.400156  0.617453  1
  P  P27  1  0.750000  0.099844  0.117453  1
  Rh  Rh28  1  0.250000  0.402671  0.478008  1
  Rh  Rh29  1  0.250000  0.097329  0.978008  1
  Rh  Rh30  1  0.750000  0.597329  0.521992  1
  Rh  Rh31  1  0.750000  0.902671  0.021992  1
  Rh  Rh32  1  0.250000  0.224244  0.176036  1
  Rh  Rh33  1  0.250000  0.275756  0.676036  1
  Rh  Rh34  1  0.750000  0.775756  0.823964  1
  Rh  Rh35  1  0.750000  0.724244  0.323964  1
