# generated using pymatgen
data_NaEu5Al4(SbAs)4
_symmetry_space_group_name_H-M   'P 1'
_cell_length_a   8.70484951
_cell_length_b   8.73715126
_cell_length_c   6.93884790
_cell_angle_alpha   90.00990314
_cell_angle_beta   89.54247324
_cell_angle_gamma   75.42466691
_symmetry_Int_Tables_number   1
_chemical_formula_structural   NaEu5Al4(SbAs)4
_chemical_formula_sum   'Na1 Eu5 Al4 Sb4 As4'
_cell_volume   510.73668662
_cell_formula_units_Z   1
loop_
 _symmetry_equiv_pos_site_id
 _symmetry_equiv_pos_as_xyz
  1  'x, y, z'
loop_
 _atom_site_type_symbol
 _atom_site_label
 _atom_site_symmetry_multiplicity
 _atom_site_fract_x
 _atom_site_fract_y
 _atom_site_fract_z
 _atom_site_occupancy
  Na  Na0  1  0.736587  0.001495  0.981120  1
  Eu  Eu1  1  0.996102  0.260942  0.520385  1
  Eu  Eu2  1  0.265241  0.999988  0.018615  1
  Eu  Eu3  1  0.999641  0.743604  0.483864  1
  Eu  Eu4  1  0.591814  0.400933  0.247735  1
  Eu  Eu5  1  0.409694  0.587879  0.750556  1
  Al  Al6  1  0.589824  0.815623  0.398648  1
  Al  Al7  1  0.185029  0.415989  0.091618  1
  Al  Al8  1  0.412824  0.186812  0.597660  1
  Al  Al9  1  0.815714  0.589720  0.906248  1
  Sb  Sb10  1  0.716126  0.063341  0.482373  1
  Sb  Sb11  1  0.939097  0.282696  0.019971  1
  Sb  Sb12  1  0.283541  0.937383  0.520339  1
  Sb  Sb13  1  0.062328  0.720258  0.981179  1
  As  As14  1  0.562012  0.730250  0.063957  1
  As  As15  1  0.257865  0.434547  0.438628  1
  As  As16  1  0.436744  0.261343  0.937130  1
  As  As17  1  0.739817  0.567196  0.559973  1
