# generated using pymatgen
data_Rb12GaSiAs6
_symmetry_space_group_name_H-M   'P 1'
_cell_length_a   5.60325000
_cell_length_b   12.55837054
_cell_length_c   13.01101700
_cell_angle_alpha   66.11486527
_cell_angle_beta   90.00000000
_cell_angle_gamma   90.00000000
_symmetry_Int_Tables_number   1
_chemical_formula_structural   Rb12GaSiAs6
_chemical_formula_sum   'Rb12 Ga1 Si1 As6'
_cell_volume   837.14617842
_cell_formula_units_Z   1
loop_
 _symmetry_equiv_pos_site_id
 _symmetry_equiv_pos_as_xyz
  1  'x, y, z'
loop_
 _atom_site_type_symbol
 _atom_site_label
 _atom_site_symmetry_multiplicity
 _atom_site_fract_x
 _atom_site_fract_y
 _atom_site_fract_z
 _atom_site_occupancy
  Rb  Rb0  1  0.750000  0.479327  0.112373  1
  Rb  Rb1  1  0.250000  0.517369  0.889965  1
  Rb  Rb2  1  0.750000  0.716389  0.266563  1
  Rb  Rb3  1  0.250000  0.284802  0.733196  1
  Rb  Rb4  1  0.250000  0.606115  0.525759  1
  Rb  Rb5  1  0.750000  0.394263  0.468737  1
  Rb  Rb6  1  0.250000  0.786569  0.990011  1
  Rb  Rb7  1  0.750000  0.209805  0.014398  1
  Rb  Rb8  1  0.250000  0.862597  0.649048  1
  Rb  Rb9  1  0.750000  0.140299  0.352984  1
  Rb  Rb10  1  0.250000  0.961805  0.336365  1
  Rb  Rb11  1  0.750000  0.041913  0.666894  1
  Ga  Ga12  1  0.250000  0.335848  0.308244  1
  Si  Si13  1  0.750000  0.664864  0.689494  1
  As  As14  1  0.250000  0.187356  0.507186  1
  As  As15  1  0.750000  0.804829  0.503514  1
  As  As16  1  0.250000  0.546887  0.266166  1
  As  As17  1  0.750000  0.466684  0.727375  1
  As  As18  1  0.750000  0.730161  0.833773  1
  As  As19  1  0.250000  0.262118  0.157954  1
