# generated using pymatgen
data_YMn3As(PN2)6
_symmetry_space_group_name_H-M   'P 1'
_cell_length_a   7.36924543
_cell_length_b   7.36924515
_cell_length_c   7.36924546
_cell_angle_alpha   109.58787237
_cell_angle_beta   109.58788601
_cell_angle_gamma   109.58787735
_symmetry_Int_Tables_number   1
_chemical_formula_structural   YMn3As(PN2)6
_chemical_formula_sum   'Y1 Mn3 As1 P6 N12'
_cell_volume   306.73059608
_cell_formula_units_Z   1
loop_
 _symmetry_equiv_pos_site_id
 _symmetry_equiv_pos_as_xyz
  1  'x, y, z'
loop_
 _atom_site_type_symbol
 _atom_site_label
 _atom_site_symmetry_multiplicity
 _atom_site_fract_x
 _atom_site_fract_y
 _atom_site_fract_z
 _atom_site_occupancy
  Y  Y0  1  0.332013  0.332013  0.332013  1
  Mn  Mn1  1  0.654668  0.006201  0.006201  1
  Mn  Mn2  1  0.006201  0.006201  0.654668  1
  Mn  Mn3  1  0.006201  0.654668  0.006201  1
  As  As4  1  0.957964  0.957964  0.957964  1
  P  P5  1  0.251943  0.755406  0.504972  1
  P  P6  1  0.755406  0.251943  0.504972  1
  P  P7  1  0.755406  0.504972  0.251943  1
  P  P8  1  0.251943  0.504972  0.755406  1
  P  P9  1  0.504972  0.755406  0.251943  1
  P  P10  1  0.504972  0.251943  0.755406  1
  N  N11  1  0.703058  0.284577  0.284577  1
  N  N12  1  0.284577  0.703058  0.284577  1
  N  N13  1  0.280709  0.572542  0.572542  1
  N  N14  1  0.572542  0.572542  0.280709  1
  N  N15  1  0.431933  0.724909  0.003310  1
  N  N16  1  0.003310  0.724909  0.431933  1
  N  N17  1  0.572542  0.280709  0.572542  1
  N  N18  1  0.724909  0.003310  0.431933  1
  N  N19  1  0.431933  0.003310  0.724909  1
  N  N20  1  0.724909  0.431933  0.003310  1
  N  N21  1  0.284577  0.284577  0.703058  1
  N  N22  1  0.003310  0.431933  0.724909  1
