# generated using pymatgen
data_Hf3Zn2PdC
_symmetry_space_group_name_H-M   'P 1'
_cell_length_a   8.59931454
_cell_length_b   8.59931439
_cell_length_c   8.59931600
_cell_angle_alpha   60.00000150
_cell_angle_beta   60.00000207
_cell_angle_gamma   60.00000303
_symmetry_Int_Tables_number   1
_chemical_formula_structural   Hf3Zn2PdC
_chemical_formula_sum   'Hf12 Zn8 Pd4 C4'
_cell_volume   449.65206631
_cell_formula_units_Z   4
loop_
 _symmetry_equiv_pos_site_id
 _symmetry_equiv_pos_as_xyz
  1  'x, y, z'
loop_
 _atom_site_type_symbol
 _atom_site_label
 _atom_site_symmetry_multiplicity
 _atom_site_fract_x
 _atom_site_fract_y
 _atom_site_fract_z
 _atom_site_occupancy
  Hf  Hf0  1  0.438078  0.438078  0.061922  1
  Hf  Hf1  1  0.061922  0.438078  0.061922  1
  Hf  Hf2  1  0.438078  0.061922  0.061922  1
  Hf  Hf3  1  0.061922  0.061922  0.438078  1
  Hf  Hf4  1  0.438078  0.061922  0.438078  1
  Hf  Hf5  1  0.061922  0.438078  0.438078  1
  Hf  Hf6  1  0.811922  0.811922  0.188078  1
  Hf  Hf7  1  0.188078  0.811922  0.188078  1
  Hf  Hf8  1  0.811922  0.188078  0.188078  1
  Hf  Hf9  1  0.188078  0.188078  0.811922  1
  Hf  Hf10  1  0.811922  0.188078  0.811922  1
  Hf  Hf11  1  0.188078  0.811922  0.811922  1
  Zn  Zn12  1  0.833790  0.833790  0.498631  1
  Zn  Zn13  1  0.833790  0.498631  0.833790  1
  Zn  Zn14  1  0.498631  0.833790  0.833790  1
  Zn  Zn15  1  0.833790  0.833790  0.833790  1
  Zn  Zn16  1  0.416210  0.416210  0.751369  1
  Zn  Zn17  1  0.416210  0.751369  0.416210  1
  Zn  Zn18  1  0.751369  0.416210  0.416210  1
  Zn  Zn19  1  0.416210  0.416210  0.416210  1
  Pd  Pd20  1  0.625000  0.625000  0.125000  1
  Pd  Pd21  1  0.625000  0.125000  0.625000  1
  Pd  Pd22  1  0.125000  0.625000  0.625000  1
  Pd  Pd23  1  0.625000  0.625000  0.625000  1
  C  C24  1  0.125000  0.125000  0.625000  1
  C  C25  1  0.125000  0.625000  0.125000  1
  C  C26  1  0.625000  0.125000  0.125000  1
  C  C27  1  0.125000  0.125000  0.125000  1
