# generated using pymatgen
data_Ca10Si3GeSb2
_symmetry_space_group_name_H-M   'P 1'
_cell_length_a   9.23987627
_cell_length_b   9.23987718
_cell_length_c   9.24818478
_cell_angle_alpha   130.10907361
_cell_angle_beta   130.10907293
_cell_angle_gamma   73.16311634
_symmetry_Int_Tables_number   1
_chemical_formula_structural   Ca10Si3GeSb2
_chemical_formula_sum   'Ca10 Si3 Ge1 Sb2'
_cell_volume   451.11769864
_cell_formula_units_Z   1
loop_
 _symmetry_equiv_pos_site_id
 _symmetry_equiv_pos_as_xyz
  1  'x, y, z'
loop_
 _atom_site_type_symbol
 _atom_site_label
 _atom_site_symmetry_multiplicity
 _atom_site_fract_x
 _atom_site_fract_y
 _atom_site_fract_z
 _atom_site_occupancy
  Ca  Ca0  1  0.499446  0.500997  0.000443  1
  Ca  Ca1  1  0.000997  0.999446  0.000443  1
  Ca  Ca2  1  0.310837  0.810837  0.843954  1
  Ca  Ca3  1  0.810919  0.965212  0.499046  1
  Ca  Ca4  1  0.465212  0.310919  0.499046  1
  Ca  Ca5  1  0.188127  0.033835  0.499046  1
  Ca  Ca6  1  0.533835  0.688127  0.499046  1
  Ca  Ca7  1  0.033117  0.533117  0.843954  1
  Ca  Ca8  1  0.689611  0.189611  0.157997  1
  Ca  Ca9  1  0.968386  0.468386  0.157997  1
  Si  Si10  1  0.383073  0.883073  0.266145  1
  Si  Si11  1  0.885937  0.613867  0.499804  1
  Si  Si12  1  0.113867  0.385937  0.499804  1
  Ge  Ge13  1  0.617120  0.117120  0.734238  1
  Sb  Sb14  1  0.749759  0.749759  0.999517  1
  Sb  Sb15  1  0.249759  0.249759  0.999517  1
