# generated using pymatgen
data_Sr2Li3VN4
_symmetry_space_group_name_H-M   'P 1'
_cell_length_a   5.99712489
_cell_length_b   5.99712506
_cell_length_c   10.51176660
_cell_angle_alpha   63.58096723
_cell_angle_beta   63.58096630
_cell_angle_gamma   53.73409883
_symmetry_Int_Tables_number   1
_chemical_formula_structural   Sr2Li3VN4
_chemical_formula_sum   'Sr4 Li6 V2 N8'
_cell_volume   264.20054002
_cell_formula_units_Z   2
loop_
 _symmetry_equiv_pos_site_id
 _symmetry_equiv_pos_as_xyz
  1  'x, y, z'
loop_
 _atom_site_type_symbol
 _atom_site_label
 _atom_site_symmetry_multiplicity
 _atom_site_fract_x
 _atom_site_fract_y
 _atom_site_fract_z
 _atom_site_occupancy
  Sr  Sr0  1  0.055970  0.634192  0.110838  1
  Sr  Sr1  1  0.944030  0.365808  0.889162  1
  Sr  Sr2  1  0.365808  0.944030  0.389162  1
  Sr  Sr3  1  0.634192  0.055970  0.610838  1
  Li  Li4  1  0.370670  0.629330  0.250000  1
  Li  Li5  1  0.629330  0.370670  0.750000  1
  Li  Li6  1  0.525504  0.131677  0.039334  1
  Li  Li7  1  0.868323  0.474496  0.460666  1
  Li  Li8  1  0.131677  0.525504  0.539334  1
  Li  Li9  1  0.474496  0.868323  0.960666  1
  V  V10  1  0.848435  0.151565  0.250000  1
  V  V11  1  0.151565  0.848435  0.750000  1
  N  N12  1  0.087100  0.187868  0.611233  1
  N  N13  1  0.726337  0.428215  0.334554  1
  N  N14  1  0.273663  0.571785  0.665446  1
  N  N15  1  0.571785  0.273663  0.165446  1
  N  N16  1  0.187868  0.087100  0.111233  1
  N  N17  1  0.428215  0.726337  0.834554  1
  N  N18  1  0.912900  0.812132  0.388767  1
  N  N19  1  0.812132  0.912900  0.888767  1
