# generated using pymatgen
data_Li5AlSi2
_symmetry_space_group_name_H-M   'P 1'
_cell_length_a   4.31305969
_cell_length_b   6.13586836
_cell_length_c   4.31135602
_cell_angle_alpha   90.23169516
_cell_angle_beta   89.99176341
_cell_angle_gamma   90.01488561
_symmetry_Int_Tables_number   1
_chemical_formula_structural   Li5AlSi2
_chemical_formula_sum   'Li5 Al1 Si2'
_cell_volume   114.09636785
_cell_formula_units_Z   1
loop_
 _symmetry_equiv_pos_site_id
 _symmetry_equiv_pos_as_xyz
  1  'x, y, z'
loop_
 _atom_site_type_symbol
 _atom_site_label
 _atom_site_symmetry_multiplicity
 _atom_site_fract_x
 _atom_site_fract_y
 _atom_site_fract_z
 _atom_site_occupancy
  Li  Li0  1  0.129884  0.951900  0.189927  1
  Li  Li1  1  0.630775  0.451784  0.678841  1
  Li  Li2  1  0.630405  0.952139  0.677780  1
  Li  Li3  1  0.131283  0.187434  0.689571  1
  Li  Li4  1  0.629775  0.717058  0.164630  1
  Al  Al5  1  0.130035  0.452804  0.192696  1
  Si  Si6  1  0.130351  0.697271  0.693774  1
  Si  Si7  1  0.629871  0.207238  0.180447  1
