# generated using pymatgen
data_Zn22FePd3
_symmetry_space_group_name_H-M   'P 1'
_cell_length_a   7.91068759
_cell_length_b   7.87644037
_cell_length_c   7.91069724
_cell_angle_alpha   109.38381197
_cell_angle_beta   109.55865936
_cell_angle_gamma   109.38339465
_symmetry_Int_Tables_number   1
_chemical_formula_structural   Zn22FePd3
_chemical_formula_sum   'Zn22 Fe1 Pd3'
_cell_volume   379.84442540
_cell_formula_units_Z   1
loop_
 _symmetry_equiv_pos_site_id
 _symmetry_equiv_pos_as_xyz
  1  'x, y, z'
loop_
 _atom_site_type_symbol
 _atom_site_label
 _atom_site_symmetry_multiplicity
 _atom_site_fract_x
 _atom_site_fract_y
 _atom_site_fract_z
 _atom_site_occupancy
  Zn  Zn0  1  0.000000  0.779476  0.000000  1
  Zn  Zn1  1  0.787817  0.007042  0.000000  1
  Zn  Zn2  1  0.000000  0.007042  0.787817  1
  Zn  Zn3  1  0.212183  0.219225  0.212184  1
  Zn  Zn4  1  0.344787  0.619752  0.344787  1
  Zn  Zn5  1  0.272284  0.998418  0.648980  1
  Zn  Zn6  1  0.648980  0.998419  0.272284  1
  Zn  Zn7  1  0.265032  0.643129  0.000000  1
  Zn  Zn8  1  0.727716  0.726134  0.376696  1
  Zn  Zn9  1  0.376696  0.726134  0.727716  1
  Zn  Zn10  1  0.000000  0.643129  0.265032  1
  Zn  Zn11  1  0.000000  0.274964  0.655212  1
  Zn  Zn12  1  0.655213  0.274965  0.000000  1
  Zn  Zn13  1  0.351020  0.349439  0.623304  1
  Zn  Zn14  1  0.623304  0.349439  0.351021  1
  Zn  Zn15  1  0.734968  0.378097  0.734968  1
  Zn  Zn16  1  0.355721  0.357711  0.000000  1
  Zn  Zn17  1  0.000000  0.644664  0.641936  1
  Zn  Zn18  1  0.000000  0.357711  0.355721  1
  Zn  Zn19  1  0.358064  0.002728  0.358064  1
  Zn  Zn20  1  0.644279  0.001990  0.644279  1
  Zn  Zn21  1  0.641936  0.644664  0.000000  1
  Fe  Fe22  1  0.000000  0.344146  0.000001  1
  Pd  Pd23  1  0.346832  0.999471  0.000000  1
  Pd  Pd24  1  0.000000  0.999470  0.346832  1
  Pd  Pd25  1  0.653168  0.652639  0.653168  1
