# generated using pymatgen
data_Ho3Co9SiGeB4
_symmetry_space_group_name_H-M   'P 1'
_cell_length_a   5.12379502
_cell_length_b   5.12213304
_cell_length_c   9.40882200
_cell_angle_alpha   90.00075470
_cell_angle_beta   89.99723823
_cell_angle_gamma   120.00337499
_symmetry_Int_Tables_number   1
_chemical_formula_structural   Ho3Co9SiGeB4
_chemical_formula_sum   'Ho3 Co9 Si1 Ge1 B4'
_cell_volume   213.84234814
_cell_formula_units_Z   1
loop_
 _symmetry_equiv_pos_site_id
 _symmetry_equiv_pos_as_xyz
  1  'x, y, z'
loop_
 _atom_site_type_symbol
 _atom_site_label
 _atom_site_symmetry_multiplicity
 _atom_site_fract_x
 _atom_site_fract_y
 _atom_site_fract_z
 _atom_site_occupancy
  Ho  Ho0  1  0.999987  0.999997  0.000013  1
  Ho  Ho1  1  0.999999  0.000004  0.339335  1
  Ho  Ho2  1  0.000009  0.000005  0.660700  1
  Co  Co3  1  0.499889  0.999775  0.500005  1
  Co  Co4  1  0.499891  0.500116  0.499995  1
  Co  Co5  1  0.000229  0.500118  0.500013  1
  Co  Co6  1  0.501267  0.002556  0.199262  1
  Co  Co7  1  0.501270  0.498724  0.199254  1
  Co  Co8  1  0.997419  0.498719  0.199278  1
  Co  Co9  1  0.501286  0.002558  0.800727  1
  Co  Co10  1  0.501282  0.498722  0.800733  1
  Co  Co11  1  0.997428  0.498709  0.800721  1
  Si  Si12  1  0.666548  0.333235  0.999978  1
  Ge  Ge13  1  0.333410  0.666756  0.999978  1
  B  B14  1  0.333329  0.666661  0.346177  1
  B  B15  1  0.666660  0.333341  0.347055  1
  B  B16  1  0.666669  0.333334  0.652949  1
  B  B17  1  0.333329  0.666669  0.653826  1
