# generated using pymatgen
data_Sm4Co3SiBr2
_symmetry_space_group_name_H-M   'P 1'
_cell_length_a   3.99835800
_cell_length_b   3.99835661
_cell_length_c   16.64521400
_cell_angle_alpha   90.00000000
_cell_angle_beta   90.00000000
_cell_angle_gamma   120.00001147
_symmetry_Int_Tables_number   1
_chemical_formula_structural   Sm4Co3SiBr2
_chemical_formula_sum   'Sm4 Co3 Si1 Br2'
_cell_volume   230.45342531
_cell_formula_units_Z   1
loop_
 _symmetry_equiv_pos_site_id
 _symmetry_equiv_pos_as_xyz
  1  'x, y, z'
loop_
 _atom_site_type_symbol
 _atom_site_label
 _atom_site_symmetry_multiplicity
 _atom_site_fract_x
 _atom_site_fract_y
 _atom_site_fract_z
 _atom_site_occupancy
  Sm  Sm0  1  0.000000  0.000000  0.108349  1
  Sm  Sm1  1  0.000000  0.000000  0.891354  1
  Sm  Sm2  1  0.000000  0.000000  0.611019  1
  Sm  Sm3  1  0.000000  0.000000  0.391392  1
  Co  Co4  1  0.666667  0.333333  0.495622  1
  Co  Co5  1  0.666667  0.333333  0.001199  1
  Co  Co6  1  0.333333  0.666667  0.998305  1
  Si  Si7  1  0.333333  0.666667  0.503557  1
  Br  Br8  1  0.333333  0.666667  0.251386  1
  Br  Br9  1  0.666667  0.333333  0.747817  1
