# generated using pymatgen
data_KMo2Br11
_symmetry_space_group_name_H-M   'P 1'
_cell_length_a   7.43029016
_cell_length_b   7.53514928
_cell_length_c   18.56357200
_cell_angle_alpha   79.57429175
_cell_angle_beta   80.00304859
_cell_angle_gamma   88.97617298
_symmetry_Int_Tables_number   1
_chemical_formula_structural   KMo2Br11
_chemical_formula_sum   'K2 Mo4 Br22'
_cell_volume   1006.56621850
_cell_formula_units_Z   2
loop_
 _symmetry_equiv_pos_site_id
 _symmetry_equiv_pos_as_xyz
  1  'x, y, z'
loop_
 _atom_site_type_symbol
 _atom_site_label
 _atom_site_symmetry_multiplicity
 _atom_site_fract_x
 _atom_site_fract_y
 _atom_site_fract_z
 _atom_site_occupancy
  K  K0  1  0.749159  0.752782  0.504139  1
  K  K1  1  0.250841  0.247218  0.495861  1
  Mo  Mo2  1  0.321502  0.823188  0.349072  1
  Mo  Mo3  1  0.678498  0.176812  0.650928  1
  Mo  Mo4  1  0.836012  0.331422  0.086076  1
  Mo  Mo5  1  0.163988  0.668578  0.913924  1
  Br  Br6  1  0.252644  0.789941  0.494384  1
  Br  Br7  1  0.747356  0.210059  0.505616  1
  Br  Br8  1  0.585437  0.024869  0.348045  1
  Br  Br9  1  0.414563  0.975131  0.651955  1
  Br  Br10  1  0.527355  0.552467  0.366238  1
  Br  Br11  1  0.472645  0.447533  0.633762  1
  Br  Br12  1  0.380580  0.848466  0.214452  1
  Br  Br13  1  0.619420  0.151534  0.785548  1
  Br  Br14  1  0.051507  0.608246  0.365142  1
  Br  Br15  1  0.948493  0.391754  0.634858  1
  Br  Br16  1  0.111024  0.087162  0.343037  1
  Br  Br17  1  0.888976  0.912838  0.656963  1
  Br  Br18  1  0.883054  0.032113  0.152844  1
  Br  Br19  1  0.116946  0.967887  0.847156  1
  Br  Br20  1  0.531601  0.368968  0.152657  1
  Br  Br21  1  0.468399  0.631032  0.847343  1
  Br  Br22  1  0.726052  0.221004  0.984575  1
  Br  Br23  1  0.273948  0.778996  0.015425  1
  Br  Br24  1  0.986303  0.485040  0.165889  1
  Br  Br25  1  0.013697  0.514960  0.834111  1
  Br  Br26  1  0.170367  0.337242  0.999972  1
  Br  Br27  1  0.829633  0.662758  0.000028  1
