# generated using pymatgen
data_Er2TaSi2Ru5
_symmetry_space_group_name_H-M   'P 1'
_cell_length_a   10.03077900
_cell_length_b   10.03077900
_cell_length_c   3.23748800
_cell_angle_alpha   90.00000000
_cell_angle_beta   90.00000000
_cell_angle_gamma   90.00000000
_symmetry_Int_Tables_number   1
_chemical_formula_structural   Er2TaSi2Ru5
_chemical_formula_sum   'Er4 Ta2 Si4 Ru10'
_cell_volume   325.74479989
_cell_formula_units_Z   2
loop_
 _symmetry_equiv_pos_site_id
 _symmetry_equiv_pos_as_xyz
  1  'x, y, z'
loop_
 _atom_site_type_symbol
 _atom_site_label
 _atom_site_symmetry_multiplicity
 _atom_site_fract_x
 _atom_site_fract_y
 _atom_site_fract_z
 _atom_site_occupancy
  Er  Er0  1  0.826538  0.673462  0.000000  1
  Er  Er1  1  0.173462  0.326538  0.000000  1
  Er  Er2  1  0.326538  0.826538  0.000000  1
  Er  Er3  1  0.673462  0.173462  0.000000  1
  Ta  Ta4  1  0.500000  0.500000  0.000000  1
  Ta  Ta5  1  0.000000  0.000000  0.000000  1
  Si  Si6  1  0.626155  0.873845  0.000000  1
  Si  Si7  1  0.373845  0.126155  0.000000  1
  Si  Si8  1  0.126155  0.626155  0.000000  1
  Si  Si9  1  0.873845  0.373845  0.000000  1
  Ru  Ru10  1  0.566805  0.708445  0.500000  1
  Ru  Ru11  1  0.433195  0.291555  0.500000  1
  Ru  Ru12  1  0.066805  0.791555  0.500000  1
  Ru  Ru13  1  0.933195  0.208445  0.500000  1
  Ru  Ru14  1  0.291555  0.566805  0.500000  1
  Ru  Ru15  1  0.708445  0.433195  0.500000  1
  Ru  Ru16  1  0.208445  0.066805  0.500000  1
  Ru  Ru17  1  0.791555  0.933195  0.500000  1
  Ru  Ru18  1  0.500000  0.000000  0.500000  1
  Ru  Ru19  1  0.000000  0.500000  0.500000  1
