# generated using pymatgen
data_La3Yb2Sb3O14
_symmetry_space_group_name_H-M   'P 1'
_cell_length_a   7.57944262
_cell_length_b   7.57944567
_cell_length_c   7.57944500
_cell_angle_alpha   59.53084607
_cell_angle_beta   59.53093777
_cell_angle_gamma   59.53088619
_symmetry_Int_Tables_number   1
_chemical_formula_structural   La3Yb2Sb3O14
_chemical_formula_sum   'La3 Yb2 Sb3 O14'
_cell_volume   304.60687192
_cell_formula_units_Z   1
loop_
 _symmetry_equiv_pos_site_id
 _symmetry_equiv_pos_as_xyz
  1  'x, y, z'
loop_
 _atom_site_type_symbol
 _atom_site_label
 _atom_site_symmetry_multiplicity
 _atom_site_fract_x
 _atom_site_fract_y
 _atom_site_fract_z
 _atom_site_occupancy
  La  La0  1  0.000054  0.000203  0.499908  1
  La  La1  1  0.500072  0.000153  0.000152  1
  La  La2  1  0.500012  0.499900  0.499834  1
  Yb  Yb3  1  0.999994  0.499975  0.000021  1
  Yb  Yb4  1  0.499994  0.000008  0.499985  1
  Sb  Sb5  1  0.499999  0.500070  0.999927  1
  Sb  Sb6  1  0.999946  0.500030  0.500066  1
  Sb  Sb7  1  0.000066  0.999940  0.000008  1
  O  O8  1  0.620570  0.120571  0.620590  1
  O  O9  1  0.379413  0.879415  0.379423  1
  O  O10  1  0.091011  0.181398  0.681363  1
  O  O11  1  0.681360  0.181378  0.091064  1
  O  O12  1  0.681411  0.590968  0.681395  1
  O  O13  1  0.908954  0.818623  0.318586  1
  O  O14  1  0.318580  0.818606  0.908978  1
  O  O15  1  0.318629  0.408915  0.318617  1
  O  O16  1  0.634782  0.591353  0.091440  1
  O  O17  1  0.091430  0.591368  0.634769  1
  O  O18  1  0.091366  0.134784  0.091410  1
  O  O19  1  0.365205  0.408557  0.908639  1
  O  O20  1  0.908597  0.408565  0.365212  1
  O  O21  1  0.908557  0.865217  0.908613  1
