# generated using pymatgen
data_Dy3Y3Lu14(Cd3Ru)2
_symmetry_space_group_name_H-M   'P 1'
_cell_length_a   9.46788500
_cell_length_b   9.46788568
_cell_length_c   9.67794800
_cell_angle_alpha   90.00000000
_cell_angle_beta   90.00000000
_cell_angle_gamma   119.99999414
_symmetry_Int_Tables_number   1
_chemical_formula_structural   Dy3Y3Lu14(Cd3Ru)2
_chemical_formula_sum   'Dy3 Y3 Lu14 Cd6 Ru2'
_cell_volume   751.31130041
_cell_formula_units_Z   1
loop_
 _symmetry_equiv_pos_site_id
 _symmetry_equiv_pos_as_xyz
  1  'x, y, z'
loop_
 _atom_site_type_symbol
 _atom_site_label
 _atom_site_symmetry_multiplicity
 _atom_site_fract_x
 _atom_site_fract_y
 _atom_site_fract_z
 _atom_site_occupancy
  Dy  Dy0  1  0.539758  0.460242  0.249988  1
  Dy  Dy1  1  0.539758  0.079515  0.249988  1
  Dy  Dy2  1  0.920485  0.460242  0.249988  1
  Y  Y3  1  0.460384  0.539616  0.750026  1
  Y  Y4  1  0.460384  0.920768  0.750026  1
  Y  Y5  1  0.079232  0.539616  0.750026  1
  Lu  Lu6  1  0.000000  0.000000  0.500057  1
  Lu  Lu7  1  0.000000  0.000000  0.999928  1
  Lu  Lu8  1  0.210112  0.789888  0.440332  1
  Lu  Lu9  1  0.210112  0.420225  0.440332  1
  Lu  Lu10  1  0.579775  0.789888  0.440332  1
  Lu  Lu11  1  0.789740  0.210260  0.559319  1
  Lu  Lu12  1  0.789740  0.579480  0.559319  1
  Lu  Lu13  1  0.420520  0.210260  0.559319  1
  Lu  Lu14  1  0.789690  0.210310  0.940763  1
  Lu  Lu15  1  0.789690  0.579380  0.940763  1
  Lu  Lu16  1  0.420620  0.210310  0.940763  1
  Lu  Lu17  1  0.210138  0.789862  0.059616  1
  Lu  Lu18  1  0.210138  0.420276  0.059616  1
  Lu  Lu19  1  0.579724  0.789862  0.059616  1
  Cd  Cd20  1  0.886466  0.113534  0.250080  1
  Cd  Cd21  1  0.886466  0.772933  0.250080  1
  Cd  Cd22  1  0.227067  0.113534  0.250080  1
  Cd  Cd23  1  0.113479  0.886521  0.749906  1
  Cd  Cd24  1  0.113479  0.226958  0.749906  1
  Cd  Cd25  1  0.773042  0.886521  0.749906  1
  Ru  Ru26  1  0.333333  0.666667  0.249985  1
  Ru  Ru27  1  0.666667  0.333333  0.749937  1
