# generated using pymatgen
data_La8Si12Pd2PtRh
_symmetry_space_group_name_H-M   'P 1'
_cell_length_a   8.33418000
_cell_length_b   8.33412844
_cell_length_c   8.74912300
_cell_angle_alpha   89.99995188
_cell_angle_beta   90.00005500
_cell_angle_gamma   119.99990300
_symmetry_Int_Tables_number   1
_chemical_formula_structural   La8Si12Pd2PtRh
_chemical_formula_sum   'La8 Si12 Pd2 Pt1 Rh1'
_cell_volume   526.28215390
_cell_formula_units_Z   1
loop_
 _symmetry_equiv_pos_site_id
 _symmetry_equiv_pos_as_xyz
  1  'x, y, z'
loop_
 _atom_site_type_symbol
 _atom_site_label
 _atom_site_symmetry_multiplicity
 _atom_site_fract_x
 _atom_site_fract_y
 _atom_site_fract_z
 _atom_site_occupancy
  La  La0  1  0.501082  0.498917  0.752278  1
  La  La1  1  0.501030  0.498975  0.247775  1
  La  La2  1  0.997841  0.498921  0.752276  1
  La  La3  1  0.997941  0.498971  0.247774  1
  La  La4  1  0.501081  0.002166  0.752275  1
  La  La5  1  0.501029  0.002056  0.247774  1
  La  La6  1  0.999998  0.999999  0.749655  1
  La  La7  1  0.999995  0.999997  0.250258  1
  Si  Si8  1  0.832838  0.167163  0.000236  1
  Si  Si9  1  0.164789  0.835212  0.999936  1
  Si  Si10  1  0.334324  0.167161  0.000235  1
  Si  Si11  1  0.164767  0.835230  0.499758  1
  Si  Si12  1  0.670426  0.835213  0.999937  1
  Si  Si13  1  0.835663  0.164336  0.499996  1
  Si  Si14  1  0.832840  0.665679  0.000236  1
  Si  Si15  1  0.670463  0.835232  0.499757  1
  Si  Si16  1  0.164788  0.329575  0.999936  1
  Si  Si17  1  0.328670  0.164336  0.499996  1
  Si  Si18  1  0.164766  0.329535  0.499757  1
  Si  Si19  1  0.835664  0.671328  0.499997  1
  Pd  Pd20  1  0.333333  0.666666  0.501027  1
  Pd  Pd21  1  0.666665  0.333332  0.499652  1
  Pt  Pt22  1  0.333333  0.666665  0.000465  1
  Rh  Rh23  1  0.666671  0.333338  0.999014  1
