# generated using pymatgen
data_Tb8Sc12Ga13Si3
_symmetry_space_group_name_H-M   'P 1'
_cell_length_a   7.26557296
_cell_length_b   7.48856410
_cell_length_c   14.49261800
_cell_angle_alpha   90.00000000
_cell_angle_beta   90.00000000
_cell_angle_gamma   90.10385773
_symmetry_Int_Tables_number   1
_chemical_formula_structural   Tb8Sc12Ga13Si3
_chemical_formula_sum   'Tb8 Sc12 Ga13 Si3'
_cell_volume   788.52333763
_cell_formula_units_Z   1
loop_
 _symmetry_equiv_pos_site_id
 _symmetry_equiv_pos_as_xyz
  1  'x, y, z'
loop_
 _atom_site_type_symbol
 _atom_site_label
 _atom_site_symmetry_multiplicity
 _atom_site_fract_x
 _atom_site_fract_y
 _atom_site_fract_z
 _atom_site_occupancy
  Tb  Tb0  1  0.011960  0.176433  0.097490  1
  Tb  Tb1  1  0.987513  0.823551  0.903639  1
  Tb  Tb2  1  0.489428  0.675357  0.903754  1
  Tb  Tb3  1  0.987513  0.823551  0.596361  1
  Tb  Tb4  1  0.511685  0.323413  0.097245  1
  Tb  Tb5  1  0.011960  0.176433  0.402510  1
  Tb  Tb6  1  0.511685  0.323413  0.402755  1
  Tb  Tb7  1  0.489428  0.675357  0.596246  1
  Sc  Sc8  1  0.160654  0.503960  0.750000  1
  Sc  Sc9  1  0.838679  0.494206  0.250000  1
  Sc  Sc10  1  0.338900  0.005888  0.250000  1
  Sc  Sc11  1  0.662983  0.994672  0.750000  1
  Sc  Sc12  1  0.330060  0.175379  0.622945  1
  Sc  Sc13  1  0.670194  0.826294  0.376940  1
  Sc  Sc14  1  0.170219  0.673577  0.376653  1
  Sc  Sc15  1  0.670194  0.826294  0.123060  1
  Sc  Sc16  1  0.829506  0.326479  0.623377  1
  Sc  Sc17  1  0.330060  0.175379  0.877055  1
  Sc  Sc18  1  0.829506  0.326479  0.876623  1
  Sc  Sc19  1  0.170219  0.673577  0.123347  1
  Ga  Ga20  1  0.032649  0.119167  0.750000  1
  Ga  Ga21  1  0.966347  0.884164  0.250000  1
  Ga  Ga22  1  0.466490  0.616138  0.250000  1
  Ga  Ga23  1  0.534027  0.384303  0.750000  1
  Ga  Ga24  1  0.285420  0.873826  0.750000  1
  Ga  Ga25  1  0.158338  0.464362  0.540048  1
  Ga  Ga26  1  0.841223  0.535381  0.459416  1
  Ga  Ga27  1  0.340998  0.964370  0.459438  1
  Ga  Ga28  1  0.841223  0.535381  0.040584  1
  Ga  Ga29  1  0.659142  0.035558  0.540084  1
  Ga  Ga30  1  0.158338  0.464362  0.959952  1
  Ga  Ga31  1  0.659142  0.035558  0.959916  1
  Ga  Ga32  1  0.340998  0.964370  0.040562  1
  Si  Si33  1  0.714415  0.123902  0.250000  1
  Si  Si34  1  0.214257  0.375887  0.250000  1
  Si  Si35  1  0.784649  0.623579  0.750000  1
