# generated using pymatgen
data_Sr11Th(GeAu)12
_symmetry_space_group_name_H-M   'P 1'
_cell_length_a   4.65340100
_cell_length_b   7.99001815
_cell_length_c   23.36761914
_cell_angle_alpha   89.99526130
_cell_angle_beta   90.00000000
_cell_angle_gamma   90.00000000
_symmetry_Int_Tables_number   1
_chemical_formula_structural   Sr11Th(GeAu)12
_chemical_formula_sum   'Sr11 Th1 Ge12 Au12'
_cell_volume   868.82579936
_cell_formula_units_Z   1
loop_
 _symmetry_equiv_pos_site_id
 _symmetry_equiv_pos_as_xyz
  1  'x, y, z'
loop_
 _atom_site_type_symbol
 _atom_site_label
 _atom_site_symmetry_multiplicity
 _atom_site_fract_x
 _atom_site_fract_y
 _atom_site_fract_z
 _atom_site_occupancy
  Sr  Sr0  1  0.250000  0.793752  0.167628  1
  Sr  Sr1  1  0.250000  0.781733  0.501296  1
  Sr  Sr2  1  0.250000  0.708848  0.332755  1
  Sr  Sr3  1  0.750000  0.221960  0.498337  1
  Sr  Sr4  1  0.750000  0.288806  0.666756  1
  Sr  Sr5  1  0.750000  0.277574  0.000651  1
  Sr  Sr6  1  0.250000  0.784759  0.831200  1
  Sr  Sr7  1  0.250000  0.731423  0.999703  1
  Sr  Sr8  1  0.750000  0.211673  0.167818  1
  Sr  Sr9  1  0.750000  0.294756  0.333151  1
  Sr  Sr10  1  0.250000  0.708813  0.667221  1
  Th  Th11  1  0.750000  0.212033  0.834492  1
  Ge  Ge12  1  0.250000  0.409920  0.895177  1
  Ge  Ge13  1  0.750000  0.915688  0.730495  1
  Ge  Ge14  1  0.750000  0.582541  0.225295  1
  Ge  Ge15  1  0.250000  0.088850  0.067360  1
  Ge  Ge16  1  0.750000  0.911889  0.912958  1
  Ge  Ge17  1  0.750000  0.916210  0.607172  1
  Ge  Ge18  1  0.250000  0.408373  0.573235  1
  Ge  Ge19  1  0.250000  0.083929  0.393400  1
  Ge  Ge20  1  0.250000  0.082333  0.274592  1
  Ge  Ge21  1  0.750000  0.590709  0.431437  1
  Ge  Ge22  1  0.250000  0.411059  0.774215  1
  Ge  Ge23  1  0.750000  0.583599  0.106022  1
  Au  Au24  1  0.750000  0.579605  0.905216  1
  Au  Au25  1  0.250000  0.417813  0.427092  1
  Au  Au26  1  0.750000  0.583059  0.571034  1
  Au  Au27  1  0.750000  0.915807  0.405074  1
  Au  Au28  1  0.250000  0.417709  0.093583  1
  Au  Au29  1  0.250000  0.417316  0.237792  1
  Au  Au30  1  0.750000  0.917652  0.262057  1
  Au  Au31  1  0.250000  0.084888  0.743923  1
  Au  Au32  1  0.250000  0.085036  0.927442  1
  Au  Au33  1  0.750000  0.917259  0.076800  1
  Au  Au34  1  0.250000  0.083781  0.595172  1
  Au  Au35  1  0.750000  0.578844  0.762445  1
