# generated using pymatgen
data_SrDy2Ir7Rh2
_symmetry_space_group_name_H-M   'P 1'
_cell_length_a   5.35167100
_cell_length_b   5.35166985
_cell_length_c   17.52172300
_cell_angle_alpha   90.00000000
_cell_angle_beta   90.00000000
_cell_angle_gamma   120.00000092
_symmetry_Int_Tables_number   1
_chemical_formula_structural   SrDy2Ir7Rh2
_chemical_formula_sum   'Sr2 Dy4 Ir14 Rh4'
_cell_volume   434.59643388
_cell_formula_units_Z   2
loop_
 _symmetry_equiv_pos_site_id
 _symmetry_equiv_pos_as_xyz
  1  'x, y, z'
loop_
 _atom_site_type_symbol
 _atom_site_label
 _atom_site_symmetry_multiplicity
 _atom_site_fract_x
 _atom_site_fract_y
 _atom_site_fract_z
 _atom_site_occupancy
  Sr  Sr0  1  0.333333  0.666667  0.750000  1
  Sr  Sr1  1  0.666667  0.333333  0.250000  1
  Dy  Dy2  1  0.333333  0.666667  0.541059  1
  Dy  Dy3  1  0.666667  0.333333  0.041059  1
  Dy  Dy4  1  0.666667  0.333333  0.458941  1
  Dy  Dy5  1  0.333333  0.666667  0.958941  1
  Ir  Ir6  1  0.167639  0.335278  0.124507  1
  Ir  Ir7  1  0.832361  0.664722  0.624507  1
  Ir  Ir8  1  0.664722  0.832361  0.124507  1
  Ir  Ir9  1  0.167639  0.832361  0.124507  1
  Ir  Ir10  1  0.832361  0.167639  0.624507  1
  Ir  Ir11  1  0.335278  0.167639  0.624507  1
  Ir  Ir12  1  0.832361  0.664722  0.875493  1
  Ir  Ir13  1  0.832361  0.167639  0.875493  1
  Ir  Ir14  1  0.335278  0.167639  0.875493  1
  Ir  Ir15  1  0.664722  0.832361  0.375493  1
  Ir  Ir16  1  0.167639  0.832361  0.375493  1
  Ir  Ir17  1  0.167639  0.335278  0.375493  1
  Ir  Ir18  1  0.000000  0.000000  0.000000  1
  Ir  Ir19  1  0.000000  0.000000  0.500000  1
  Rh  Rh20  1  0.000000  0.000000  0.250000  1
  Rh  Rh21  1  0.000000  0.000000  0.750000  1
  Rh  Rh22  1  0.333333  0.666667  0.250000  1
  Rh  Rh23  1  0.666667  0.333333  0.750000  1
