# generated using pymatgen
data_YHo5Al24PdRu7
_symmetry_space_group_name_H-M   'P 1'
_cell_length_a   8.81085158
_cell_length_b   8.81058869
_cell_length_c   9.54238910
_cell_angle_alpha   89.80165911
_cell_angle_beta   90.19585383
_cell_angle_gamma   119.69675181
_symmetry_Int_Tables_number   1
_chemical_formula_structural   YHo5Al24PdRu7
_chemical_formula_sum   'Y1 Ho5 Al24 Pd1 Ru7'
_cell_volume   643.46676561
_cell_formula_units_Z   1
loop_
 _symmetry_equiv_pos_site_id
 _symmetry_equiv_pos_as_xyz
  1  'x, y, z'
loop_
 _atom_site_type_symbol
 _atom_site_label
 _atom_site_symmetry_multiplicity
 _atom_site_fract_x
 _atom_site_fract_y
 _atom_site_fract_z
 _atom_site_occupancy
  Y  Y0  1  0.191575  0.386737  0.250833  1
  Ho  Ho1  1  0.808389  0.613118  0.749129  1
  Ho  Ho2  1  0.613180  0.808447  0.250861  1
  Ho  Ho3  1  0.386886  0.191620  0.749119  1
  Ho  Ho4  1  0.194313  0.805746  0.251854  1
  Ho  Ho5  1  0.805684  0.194341  0.748154  1
  Al  Al6  1  0.330367  0.669732  0.019701  1
  Al  Al7  1  0.669671  0.330349  0.980225  1
  Al  Al8  1  0.666802  0.333213  0.516500  1
  Al  Al9  1  0.333240  0.666863  0.483571  1
  Al  Al10  1  0.162848  0.324007  0.578637  1
  Al  Al11  1  0.837154  0.675980  0.421430  1
  Al  Al12  1  0.675993  0.837142  0.578580  1
  Al  Al13  1  0.843755  0.677310  0.079350  1
  Al  Al14  1  0.324035  0.162807  0.421466  1
  Al  Al15  1  0.156244  0.322676  0.920587  1
  Al  Al16  1  0.162610  0.837365  0.578536  1
  Al  Al17  1  0.322699  0.156212  0.079320  1
  Al  Al18  1  0.837322  0.162588  0.421506  1
  Al  Al19  1  0.677322  0.843744  0.920640  1
  Al  Al20  1  0.837373  0.162538  0.077887  1
  Al  Al21  1  0.162558  0.837415  0.922068  1
  Al  Al22  1  0.560540  0.121679  0.248974  1
  Al  Al23  1  0.439455  0.878305  0.751027  1
  Al  Al24  1  0.878240  0.439487  0.248972  1
  Al  Al25  1  0.121681  0.560536  0.751025  1
  Al  Al26  1  0.561800  0.438327  0.252316  1
  Al  Al27  1  0.438299  0.561693  0.747685  1
  Al  Al28  1  0.999304  0.000461  0.250135  1
  Al  Al29  1  0.000619  0.999372  0.749864  1
  Pd  Pd30  1  0.500010  0.500004  0.999993  1
  Ru  Ru31  1  0.500013  0.000021  0.999994  1
  Ru  Ru32  1  0.999956  0.500028  0.999937  1
  Ru  Ru33  1  0.500013  0.000024  0.500004  1
  Ru  Ru34  1  0.999955  0.500033  0.500067  1
  Ru  Ru35  1  0.500072  0.500029  0.500054  1
  Ru  Ru36  1  0.000012  0.000022  0.000026  1
  Ru  Ru37  1  0.000013  0.000029  0.499971  1
