# generated using pymatgen
data_Cs3Ag2Cl7
_symmetry_space_group_name_H-M   'P 1'
_cell_length_a   13.77969627
_cell_length_b   13.77969606
_cell_length_c   7.79492100
_cell_angle_alpha   90.00000000
_cell_angle_beta   90.00000000
_cell_angle_gamma   147.11376060
_symmetry_Int_Tables_number   1
_chemical_formula_structural   Cs3Ag2Cl7
_chemical_formula_sum   'Cs6 Ag4 Cl14'
_cell_volume   803.65391273
_cell_formula_units_Z   2
loop_
 _symmetry_equiv_pos_site_id
 _symmetry_equiv_pos_as_xyz
  1  'x, y, z'
loop_
 _atom_site_type_symbol
 _atom_site_label
 _atom_site_symmetry_multiplicity
 _atom_site_fract_x
 _atom_site_fract_y
 _atom_site_fract_z
 _atom_site_occupancy
  Cs  Cs0  1  0.821277  0.178723  0.500000  1
  Cs  Cs1  1  0.178723  0.821277  0.500000  1
  Cs  Cs2  1  0.678723  0.321277  0.000000  1
  Cs  Cs3  1  0.321277  0.678723  0.000000  1
  Cs  Cs4  1  0.000000  0.000000  0.500000  1
  Cs  Cs5  1  0.500000  0.500000  0.000000  1
  Ag  Ag6  1  0.594490  0.405510  0.500000  1
  Ag  Ag7  1  0.405510  0.594490  0.500000  1
  Ag  Ag8  1  0.905510  0.094490  0.000000  1
  Ag  Ag9  1  0.094490  0.905510  0.000000  1
  Cl  Cl10  1  0.312392  0.128643  0.779493  1
  Cl  Cl11  1  0.128643  0.312392  0.220507  1
  Cl  Cl12  1  0.687608  0.871357  0.779493  1
  Cl  Cl13  1  0.871357  0.687608  0.220507  1
  Cl  Cl14  1  0.187608  0.371357  0.720507  1
  Cl  Cl15  1  0.371357  0.187608  0.279493  1
  Cl  Cl16  1  0.812392  0.628643  0.720507  1
  Cl  Cl17  1  0.628643  0.812392  0.279493  1
  Cl  Cl18  1  0.689983  0.310017  0.500000  1
  Cl  Cl19  1  0.310017  0.689983  0.500000  1
  Cl  Cl20  1  0.500000  0.500000  0.500000  1
  Cl  Cl21  1  0.000000  0.000000  0.000000  1
  Cl  Cl22  1  0.189983  0.810017  0.000000  1
  Cl  Cl23  1  0.810017  0.189983  0.000000  1
