# generated using pymatgen
data_Pr2UTc2
_symmetry_space_group_name_H-M   'P 1'
_cell_length_a   6.21183348
_cell_length_b   6.21183338
_cell_length_c   6.21183332
_cell_angle_alpha   140.42438102
_cell_angle_beta   125.05565893
_cell_angle_gamma   69.80866110
_symmetry_Int_Tables_number   1
_chemical_formula_structural   Pr2UTc2
_chemical_formula_sum   'Pr2 U1 Tc2'
_cell_volume   122.79989192
_cell_formula_units_Z   1
loop_
 _symmetry_equiv_pos_site_id
 _symmetry_equiv_pos_as_xyz
  1  'x, y, z'
loop_
 _atom_site_type_symbol
 _atom_site_label
 _atom_site_symmetry_multiplicity
 _atom_site_fract_x
 _atom_site_fract_y
 _atom_site_fract_z
 _atom_site_occupancy
  Pr  Pr0  1  0.699250  0.199251  0.500000  1
  Pr  Pr1  1  0.300749  0.800749  0.500000  1
  U  U2  1  0.000000  0.000000  0.000000  1
  Tc  Tc3  1  0.757945  0.500000  0.257945  1
  Tc  Tc4  1  0.242054  0.500000  0.742055  1
