# generated using pymatgen
data_Ta6ReSi6Mo2W3
_symmetry_space_group_name_H-M   'P 1'
_cell_length_a   7.68792381
_cell_length_b   7.69695290
_cell_length_c   7.69376287
_cell_angle_alpha   126.45574939
_cell_angle_beta   128.50846925
_cell_angle_gamma   77.46263761
_symmetry_Int_Tables_number   1
_chemical_formula_structural   Ta6ReSi6Mo2W3
_chemical_formula_sum   'Ta6 Re1 Si6 Mo2 W3'
_cell_volume   277.95796527
_cell_formula_units_Z   1
loop_
 _symmetry_equiv_pos_site_id
 _symmetry_equiv_pos_as_xyz
  1  'x, y, z'
loop_
 _atom_site_type_symbol
 _atom_site_label
 _atom_site_symmetry_multiplicity
 _atom_site_fract_x
 _atom_site_fract_y
 _atom_site_fract_z
 _atom_site_occupancy
  Ta  Ta0  1  0.550289  0.090920  0.041024  1
  Ta  Ta1  1  0.448929  0.495881  0.548091  1
  Ta  Ta2  1  0.947870  0.495867  0.046975  1
  Ta  Ta3  1  0.049944  0.090857  0.540651  1
  Ta  Ta4  1  0.753330  0.904301  0.652690  1
  Ta  Ta5  1  0.251750  0.904321  0.151139  1
  Re  Re6  1  0.370084  0.495998  0.125731  1
  Si  Si7  1  0.747015  0.498784  0.250273  1
  Si  Si8  1  0.248425  0.498759  0.751673  1
  Si  Si9  1  0.333908  0.825585  0.491822  1
  Si  Si10  1  0.667984  0.164116  0.496070  1
  Si  Si11  1  0.833482  0.827683  0.994299  1
  Si  Si12  1  0.169389  0.166460  0.997064  1
  Mo  Mo13  1  0.869394  0.496005  0.626375  1
  Mo  Mo14  1  0.628619  0.753979  0.125255  1
  W  W15  1  0.499322  0.238060  0.738750  1
  W  W16  1  0.000699  0.239299  0.238605  1
  W  W17  1  0.129568  0.755324  0.625708  1
