# generated using pymatgen
data_Y2Si5PdPt2
_symmetry_space_group_name_H-M   'P 1'
_cell_length_a   8.17841197
_cell_length_b   8.17841184
_cell_length_c   6.02369592
_cell_angle_alpha   68.37319044
_cell_angle_beta   68.37319305
_cell_angle_gamma   88.89476202
_symmetry_Int_Tables_number   1
_chemical_formula_structural   Y2Si5PdPt2
_chemical_formula_sum   'Y4 Si10 Pd2 Pt4'
_cell_volume   344.99358148
_cell_formula_units_Z   2
loop_
 _symmetry_equiv_pos_site_id
 _symmetry_equiv_pos_as_xyz
  1  'x, y, z'
loop_
 _atom_site_type_symbol
 _atom_site_label
 _atom_site_symmetry_multiplicity
 _atom_site_fract_x
 _atom_site_fract_y
 _atom_site_fract_z
 _atom_site_occupancy
  Y  Y0  1  0.859619  0.601656  0.769382  1
  Y  Y1  1  0.140381  0.398344  0.230618  1
  Y  Y2  1  0.398344  0.140381  0.730618  1
  Y  Y3  1  0.601656  0.859619  0.269382  1
  Si  Si4  1  0.772995  0.227005  0.750000  1
  Si  Si5  1  0.227005  0.772995  0.250000  1
  Si  Si6  1  0.500146  0.499854  0.750000  1
  Si  Si7  1  0.499854  0.500146  0.250000  1
  Si  Si8  1  0.226968  0.773032  0.750000  1
  Si  Si9  1  0.773032  0.226968  0.250000  1
  Si  Si10  1  0.265165  0.038441  0.347725  1
  Si  Si11  1  0.734835  0.961559  0.652275  1
  Si  Si12  1  0.961559  0.734835  0.152275  1
  Si  Si13  1  0.038441  0.265165  0.847725  1
  Pd  Pd14  1  0.999645  0.000355  0.250000  1
  Pd  Pd15  1  0.000355  0.999645  0.750000  1
  Pt  Pt16  1  0.525524  0.250604  0.112278  1
  Pt  Pt17  1  0.749396  0.474476  0.387722  1
  Pt  Pt18  1  0.474476  0.749396  0.887722  1
  Pt  Pt19  1  0.250604  0.525524  0.612278  1
