# generated using pymatgen
data_Ca6CdCo(SeO3)8
_symmetry_space_group_name_H-M   'P 1'
_cell_length_a   12.63793325
_cell_length_b   7.79224017
_cell_length_c   7.79274401
_cell_angle_alpha   89.99970130
_cell_angle_beta   107.96316597
_cell_angle_gamma   107.95895289
_symmetry_Int_Tables_number   1
_chemical_formula_structural   Ca6CdCo(SeO3)8
_chemical_formula_sum   'Ca6 Cd1 Co1 Se8 O24'
_cell_volume   690.59277065
_cell_formula_units_Z   1
loop_
 _symmetry_equiv_pos_site_id
 _symmetry_equiv_pos_as_xyz
  1  'x, y, z'
loop_
 _atom_site_type_symbol
 _atom_site_label
 _atom_site_symmetry_multiplicity
 _atom_site_fract_x
 _atom_site_fract_y
 _atom_site_fract_z
 _atom_site_occupancy
  Ca  Ca0  1  0.898364  0.449234  0.199192  1
  Ca  Ca1  1  0.249991  0.624895  0.374989  1
  Ca  Ca2  1  0.393028  0.196534  0.446561  1
  Ca  Ca3  1  0.601638  0.800793  0.550777  1
  Ca  Ca4  1  0.750002  0.375054  0.624970  1
  Ca  Ca5  1  0.106991  0.553531  0.803518  1
  Cd  Cd6  1  0.749967  0.875080  0.125001  1
  Co  Co7  1  0.250016  0.124926  0.875038  1
  Se  Se8  1  0.383683  0.509896  0.116573  1
  Se  Se9  1  0.116400  0.883505  0.126494  1
  Se  Se10  1  0.612933  0.135592  0.230909  1
  Se  Se11  1  0.116236  0.232817  0.490068  1
  Se  Se12  1  0.887058  0.769064  0.522464  1
  Se  Se13  1  0.383723  0.873593  0.767078  1
  Se  Se14  1  0.887002  0.118147  0.864436  1
  Se  Se15  1  0.612970  0.477504  0.881912  1
  O  O16  1  0.251391  0.546315  0.074578  1
  O  O17  1  0.865923  0.133453  0.075556  1
  O  O18  1  0.345289  0.272488  0.113375  1
  O  O19  1  0.061531  0.653561  0.130390  1
  O  O20  1  0.634017  0.924467  0.267421  1
  O  O21  1  0.865904  0.732557  0.290248  1
  O  O22  1  0.248703  0.925403  0.295129  1
  O  O23  1  0.752399  0.287521  0.322044  1
  O  O24  1  0.438474  0.568545  0.346494  1
  O  O25  1  0.560971  0.155150  0.404608  1
  O  O26  1  0.061497  0.408014  0.431439  1
  O  O27  1  0.248490  0.322962  0.453518  1
  O  O28  1  0.747624  0.678020  0.535055  1
  O  O29  1  0.939024  0.595338  0.594092  1
  O  O30  1  0.438493  0.869698  0.591958  1
  O  O31  1  0.561045  0.405899  0.656239  1
  O  O32  1  0.251412  0.704882  0.676825  1
  O  O33  1  0.747538  0.069763  0.712494  1
  O  O34  1  0.154722  0.268018  0.727506  1
  O  O35  1  0.345324  0.072593  0.731937  1
  O  O36  1  0.938986  0.343861  0.844880  1
  O  O37  1  0.634110  0.709710  0.866526  1
  O  O38  1  0.154707  0.886643  0.927395  1
  O  O39  1  0.752422  0.464969  0.930312  1
