# generated using pymatgen
data_ErLuSb5
_symmetry_space_group_name_H-M   'P 1'
_cell_length_a   4.19452500
_cell_length_b   13.12047359
_cell_length_c   14.53036494
_cell_angle_alpha   78.35268478
_cell_angle_beta   90.00000000
_cell_angle_gamma   90.00000000
_symmetry_Int_Tables_number   1
_chemical_formula_structural   ErLuSb5
_chemical_formula_sum   'Er4 Lu4 Sb20'
_cell_volume   783.20031082
_cell_formula_units_Z   4
loop_
 _symmetry_equiv_pos_site_id
 _symmetry_equiv_pos_as_xyz
  1  'x, y, z'
loop_
 _atom_site_type_symbol
 _atom_site_label
 _atom_site_symmetry_multiplicity
 _atom_site_fract_x
 _atom_site_fract_y
 _atom_site_fract_z
 _atom_site_occupancy
  Er  Er0  1  0.750000  0.338838  0.143949  1
  Er  Er1  1  0.250000  0.954077  0.358371  1
  Er  Er2  1  0.250000  0.661430  0.856285  1
  Er  Er3  1  0.250000  0.669563  0.575731  1
  Lu  Lu4  1  0.750000  0.046197  0.641058  1
  Lu  Lu5  1  0.750000  0.330335  0.424136  1
  Lu  Lu6  1  0.250000  0.394405  0.770184  1
  Lu  Lu7  1  0.750000  0.605291  0.229610  1
  Sb  Sb8  1  0.750000  0.846956  0.829637  1
  Sb  Sb9  1  0.250000  0.861544  0.677855  1
  Sb  Sb10  1  0.250000  0.143305  0.484791  1
  Sb  Sb11  1  0.750000  0.278458  0.935938  1
  Sb  Sb12  1  0.250000  0.142701  0.777852  1
  Sb  Sb13  1  0.750000  0.571496  0.446661  1
  Sb  Sb14  1  0.750000  0.140137  0.322403  1
  Sb  Sb15  1  0.250000  0.715318  0.346237  1
  Sb  Sb16  1  0.750000  0.283860  0.653315  1
  Sb  Sb17  1  0.750000  0.856546  0.221741  1
  Sb  Sb18  1  0.250000  0.420285  0.974921  1
  Sb  Sb19  1  0.250000  0.427607  0.552745  1
  Sb  Sb20  1  0.750000  0.574988  0.734172  1
  Sb  Sb21  1  0.250000  0.424326  0.266981  1
  Sb  Sb22  1  0.750000  0.857621  0.516056  1
  Sb  Sb23  1  0.750000  0.028272  0.912315  1
  Sb  Sb24  1  0.250000  0.721585  0.064004  1
  Sb  Sb25  1  0.250000  0.971708  0.087651  1
  Sb  Sb26  1  0.250000  0.153356  0.170325  1
  Sb  Sb27  1  0.750000  0.579795  0.025075  1
