# generated using pymatgen
data_ErNbP7Ru12
_symmetry_space_group_name_H-M   'P 1'
_cell_length_a   9.39568100
_cell_length_b   9.39568038
_cell_length_c   3.90381500
_cell_angle_alpha   90.00000000
_cell_angle_beta   90.00000000
_cell_angle_gamma   120.00000477
_symmetry_Int_Tables_number   1
_chemical_formula_structural   ErNbP7Ru12
_chemical_formula_sum   'Er1 Nb1 P7 Ru12'
_cell_volume   298.45326684
_cell_formula_units_Z   1
loop_
 _symmetry_equiv_pos_site_id
 _symmetry_equiv_pos_as_xyz
  1  'x, y, z'
loop_
 _atom_site_type_symbol
 _atom_site_label
 _atom_site_symmetry_multiplicity
 _atom_site_fract_x
 _atom_site_fract_y
 _atom_site_fract_z
 _atom_site_occupancy
  Er  Er0  1  0.333333  0.666667  0.000000  1
  Nb  Nb1  1  0.666667  0.333333  0.500000  1
  P  P2  1  0.597338  0.718861  0.500000  1
  P  P3  1  0.000000  0.000000  0.000000  1
  P  P4  1  0.281139  0.878477  0.500000  1
  P  P5  1  0.121523  0.402662  0.500000  1
  P  P6  1  0.886306  0.574581  0.000000  1
  P  P7  1  0.425419  0.311726  0.000000  1
  P  P8  1  0.688274  0.113694  0.000000  1
  Ru  Ru9  1  0.557683  0.955669  0.500000  1
  Ru  Ru10  1  0.397987  0.442317  0.500000  1
  Ru  Ru11  1  0.912879  0.124256  0.500000  1
  Ru  Ru12  1  0.211378  0.087121  0.500000  1
  Ru  Ru13  1  0.875744  0.788622  0.500000  1
  Ru  Ru14  1  0.725745  0.887921  0.000000  1
  Ru  Ru15  1  0.112079  0.837824  0.000000  1
  Ru  Ru16  1  0.162176  0.274255  0.000000  1
  Ru  Ru17  1  0.431774  0.078116  0.000000  1
  Ru  Ru18  1  0.921884  0.353659  0.000000  1
  Ru  Ru19  1  0.646341  0.568226  0.000000  1
  Ru  Ru20  1  0.044331  0.602013  0.500000  1
