# generated using pymatgen
data_Ho8Ta11Si16W
_symmetry_space_group_name_H-M   'P 1'
_cell_length_a   7.01313075
_cell_length_b   7.01313001
_cell_length_c   12.97258592
_cell_angle_alpha   90.04147258
_cell_angle_beta   89.95852837
_cell_angle_gamma   89.95666745
_symmetry_Int_Tables_number   1
_chemical_formula_structural   Ho8Ta11Si16W
_chemical_formula_sum   'Ho8 Ta11 Si16 W1'
_cell_volume   638.04311909
_cell_formula_units_Z   1
loop_
 _symmetry_equiv_pos_site_id
 _symmetry_equiv_pos_as_xyz
  1  'x, y, z'
loop_
 _atom_site_type_symbol
 _atom_site_label
 _atom_site_symmetry_multiplicity
 _atom_site_fract_x
 _atom_site_fract_y
 _atom_site_fract_z
 _atom_site_occupancy
  Ho  Ho0  1  0.341077  0.002793  0.468515  1
  Ho  Ho1  1  0.496625  0.841341  0.719016  1
  Ho  Ho2  1  0.501720  0.159182  0.217360  1
  Ho  Ho3  1  0.841341  0.496625  0.280984  1
  Ho  Ho4  1  0.159182  0.501720  0.782640  1
  Ho  Ho5  1  0.657975  0.998152  0.968748  1
  Ho  Ho6  1  0.002793  0.341077  0.531485  1
  Ho  Ho7  1  0.998152  0.657975  0.031252  1
  Ta  Ta8  1  0.172103  0.828781  0.249048  1
  Ta  Ta9  1  0.828781  0.172103  0.750952  1
  Ta  Ta10  1  0.671576  0.671576  0.500000  1
  Ta  Ta11  1  0.152008  0.006244  0.874683  1
  Ta  Ta12  1  0.493129  0.652948  0.123644  1
  Ta  Ta13  1  0.506181  0.347523  0.624855  1
  Ta  Ta14  1  0.652948  0.493129  0.876356  1
  Ta  Ta15  1  0.347523  0.506181  0.375145  1
  Ta  Ta16  1  0.847322  0.993310  0.374285  1
  Ta  Ta17  1  0.006244  0.152008  0.125317  1
  Ta  Ta18  1  0.993310  0.847322  0.625715  1
  Si  Si19  1  0.203660  0.135008  0.682395  1
  Si  Si20  1  0.365627  0.702581  0.931832  1
  Si  Si21  1  0.634934  0.296434  0.432081  1
  Si  Si22  1  0.702581  0.365627  0.068168  1
  Si  Si23  1  0.296434  0.634934  0.567919  1
  Si  Si24  1  0.796058  0.865379  0.181785  1
  Si  Si25  1  0.135008  0.203660  0.317605  1
  Si  Si26  1  0.865379  0.796058  0.818215  1
  Si  Si27  1  0.294620  0.956283  0.063320  1
  Si  Si28  1  0.545098  0.795452  0.313718  1
  Si  Si29  1  0.453294  0.206162  0.815550  1
  Si  Si30  1  0.795452  0.545098  0.686282  1
  Si  Si31  1  0.206162  0.453294  0.184450  1
  Si  Si32  1  0.705045  0.045314  0.564316  1
  Si  Si33  1  0.956283  0.294620  0.936680  1
  Si  Si34  1  0.045314  0.705045  0.435684  1
  W  W35  1  0.329061  0.329061  0.000000  1
