# generated using pymatgen
data_Ho3Be2Ir5
_symmetry_space_group_name_H-M   'P 1'
_cell_length_a   9.80943300
_cell_length_b   9.80943300
_cell_length_c   3.37213400
_cell_angle_alpha   90.00000000
_cell_angle_beta   90.00000000
_cell_angle_gamma   90.00000000
_symmetry_Int_Tables_number   1
_chemical_formula_structural   Ho3Be2Ir5
_chemical_formula_sum   'Ho6 Be4 Ir10'
_cell_volume   324.48351248
_cell_formula_units_Z   2
loop_
 _symmetry_equiv_pos_site_id
 _symmetry_equiv_pos_as_xyz
  1  'x, y, z'
loop_
 _atom_site_type_symbol
 _atom_site_label
 _atom_site_symmetry_multiplicity
 _atom_site_fract_x
 _atom_site_fract_y
 _atom_site_fract_z
 _atom_site_occupancy
  Ho  Ho0  1  0.175501  0.675501  0.000000  1
  Ho  Ho1  1  0.324499  0.175501  0.000000  1
  Ho  Ho2  1  0.824499  0.324499  0.000000  1
  Ho  Ho3  1  0.500000  0.500000  0.000000  1
  Ho  Ho4  1  0.675501  0.824499  0.000000  1
  Ho  Ho5  1  0.000000  0.000000  0.000000  1
  Be  Be6  1  0.379305  0.879305  0.000000  1
  Be  Be7  1  0.120695  0.379305  0.000000  1
  Be  Be8  1  0.879305  0.620695  0.000000  1
  Be  Be9  1  0.620695  0.120695  0.000000  1
  Ir  Ir10  1  0.222725  0.929263  0.500000  1
  Ir  Ir11  1  0.929263  0.777275  0.500000  1
  Ir  Ir12  1  0.429263  0.722725  0.500000  1
  Ir  Ir13  1  0.570737  0.277275  0.500000  1
  Ir  Ir14  1  0.722725  0.570737  0.500000  1
  Ir  Ir15  1  0.277275  0.429263  0.500000  1
  Ir  Ir16  1  0.070737  0.222725  0.500000  1
  Ir  Ir17  1  0.000000  0.500000  0.500000  1
  Ir  Ir18  1  0.500000  0.000000  0.500000  1
  Ir  Ir19  1  0.777275  0.070737  0.500000  1
