# generated using pymatgen
data_Lu10BiRh4Au
_symmetry_space_group_name_H-M   'P 1'
_cell_length_a   8.59060884
_cell_length_b   8.59060755
_cell_length_c   8.59017283
_cell_angle_alpha   128.13910514
_cell_angle_beta   128.13910512
_cell_angle_gamma   76.39491860
_symmetry_Int_Tables_number   1
_chemical_formula_structural   Lu10BiRh4Au
_chemical_formula_sum   'Lu10 Bi1 Rh4 Au1'
_cell_volume   381.05449042
_cell_formula_units_Z   1
loop_
 _symmetry_equiv_pos_site_id
 _symmetry_equiv_pos_as_xyz
  1  'x, y, z'
loop_
 _atom_site_type_symbol
 _atom_site_label
 _atom_site_symmetry_multiplicity
 _atom_site_fract_x
 _atom_site_fract_y
 _atom_site_fract_z
 _atom_site_occupancy
  Lu  Lu0  1  0.993397  0.993247  0.999990  1
  Lu  Lu1  1  0.506753  0.506603  0.000010  1
  Lu  Lu2  1  0.805389  0.285250  0.818516  1
  Lu  Lu3  1  0.214750  0.694611  0.181484  1
  Lu  Lu4  1  0.466372  0.986262  0.181068  1
  Lu  Lu5  1  0.285588  0.466628  0.480040  1
  Lu  Lu6  1  0.033372  0.214412  0.519960  1
  Lu  Lu7  1  0.513738  0.033628  0.818932  1
  Lu  Lu8  1  0.694986  0.513399  0.480009  1
  Lu  Lu9  1  0.986601  0.805014  0.519991  1
  Bi  Bi10  1  0.749922  0.750078  0.000000  1
  Rh  Rh11  1  0.140242  0.640125  0.781421  1
  Rh  Rh12  1  0.859875  0.359758  0.218579  1
  Rh  Rh13  1  0.640391  0.859609  0.500000  1
  Rh  Rh14  1  0.358600  0.141400  0.500000  1
  Au  Au15  1  0.250023  0.249977  0.000000  1
