# generated using pymatgen
data_Tb3HoAl18(NiIr)3
_symmetry_space_group_name_H-M   'P 1'
_cell_length_a   7.50520327
_cell_length_b   7.50691437
_cell_length_c   9.36593355
_cell_angle_alpha   89.97372880
_cell_angle_beta   89.97561562
_cell_angle_gamma   119.58559115
_symmetry_Int_Tables_number   1
_chemical_formula_structural   Tb3HoAl18(NiIr)3
_chemical_formula_sum   'Tb3 Ho1 Al18 Ni3 Ir3'
_cell_volume   458.88504573
_cell_formula_units_Z   1
loop_
 _symmetry_equiv_pos_site_id
 _symmetry_equiv_pos_as_xyz
  1  'x, y, z'
loop_
 _atom_site_type_symbol
 _atom_site_label
 _atom_site_symmetry_multiplicity
 _atom_site_fract_x
 _atom_site_fract_y
 _atom_site_fract_z
 _atom_site_occupancy
  Tb  Tb0  1  0.994527  0.670756  0.249705  1
  Tb  Tb1  1  0.005435  0.329088  0.750364  1
  Tb  Tb2  1  0.670525  0.994379  0.249668  1
  Ho  Ho3  1  0.328875  0.005418  0.749927  1
  Al  Al4  1  0.127337  0.127151  0.245974  1
  Al  Al5  1  0.873449  0.873129  0.754094  1
  Al  Al6  1  0.998437  0.334779  0.073352  1
  Al  Al7  1  0.002270  0.665806  0.925999  1
  Al  Al8  1  0.999490  0.665423  0.573845  1
  Al  Al9  1  0.334835  0.000670  0.427287  1
  Al  Al10  1  0.000691  0.334814  0.426891  1
  Al  Al11  1  0.664729  0.999205  0.573831  1
  Al  Al12  1  0.664430  0.001587  0.925949  1
  Al  Al13  1  0.334701  0.998355  0.072705  1
  Al  Al14  1  0.333671  0.333451  0.550756  1
  Al  Al15  1  0.666384  0.666357  0.450079  1
  Al  Al16  1  0.667606  0.667596  0.050054  1
  Al  Al17  1  0.332386  0.331872  0.949074  1
  Al  Al18  1  0.340192  0.550048  0.246523  1
  Al  Al19  1  0.659315  0.449398  0.753730  1
  Al  Al20  1  0.549973  0.340011  0.246468  1
  Al  Al21  1  0.449924  0.660389  0.753725  1
  Ni  Ni22  1  0.671560  0.328330  0.999634  1
  Ni  Ni23  1  0.328536  0.671859  0.999693  1
  Ni  Ni24  1  0.000784  0.000177  0.999564  1
  Ir  Ir25  1  0.328469  0.671356  0.500437  1
  Ir  Ir26  1  0.671288  0.328446  0.500443  1
  Ir  Ir27  1  0.000182  0.000150  0.500230  1
