# generated using pymatgen
data_Tb8TiNb11Si15Sn
_symmetry_space_group_name_H-M   'P 1'
_cell_length_a   7.14533431
_cell_length_b   7.10542534
_cell_length_c   13.13652912
_cell_angle_alpha   90.02208296
_cell_angle_beta   89.84506130
_cell_angle_gamma   89.90999794
_symmetry_Int_Tables_number   1
_chemical_formula_structural   Tb8TiNb11Si15Sn
_chemical_formula_sum   'Tb8 Ti1 Nb11 Si15 Sn1'
_cell_volume   666.94667130
_cell_formula_units_Z   1
loop_
 _symmetry_equiv_pos_site_id
 _symmetry_equiv_pos_as_xyz
  1  'x, y, z'
loop_
 _atom_site_type_symbol
 _atom_site_label
 _atom_site_symmetry_multiplicity
 _atom_site_fract_x
 _atom_site_fract_y
 _atom_site_fract_z
 _atom_site_occupancy
  Tb  Tb0  1  0.345059  0.999629  0.462330  1
  Tb  Tb1  1  0.505496  0.837979  0.719620  1
  Tb  Tb2  1  0.502274  0.158076  0.217559  1
  Tb  Tb3  1  0.841904  0.498100  0.281500  1
  Tb  Tb4  1  0.158573  0.507722  0.785385  1
  Tb  Tb5  1  0.659187  0.996299  0.969452  1
  Tb  Tb6  1  0.993679  0.348573  0.526653  1
  Tb  Tb7  1  0.998632  0.658591  0.033517  1
  Ti  Ti8  1  0.978825  0.833546  0.620842  1
  Nb  Nb9  1  0.329066  0.328855  0.001079  1
  Nb  Nb10  1  0.171108  0.828121  0.249810  1
  Nb  Nb11  1  0.818114  0.173940  0.751588  1
  Nb  Nb12  1  0.671940  0.671375  0.499914  1
  Nb  Nb13  1  0.153419  0.005533  0.880837  1
  Nb  Nb14  1  0.493985  0.652241  0.125181  1
  Nb  Nb15  1  0.514457  0.353357  0.623653  1
  Nb  Nb16  1  0.654857  0.492627  0.877857  1
  Nb  Nb17  1  0.347441  0.507594  0.375031  1
  Nb  Nb18  1  0.844656  0.991825  0.373697  1
  Nb  Nb19  1  0.008303  0.153606  0.125467  1
  Si  Si20  1  0.369469  0.704931  0.934614  1
  Si  Si21  1  0.630653  0.296440  0.431865  1
  Si  Si22  1  0.704656  0.367336  0.067976  1
  Si  Si23  1  0.294101  0.633613  0.566752  1
  Si  Si24  1  0.797377  0.867619  0.182837  1
  Si  Si25  1  0.132045  0.203561  0.316510  1
  Si  Si26  1  0.869219  0.800226  0.816837  1
  Si  Si27  1  0.294299  0.952923  0.065541  1
  Si  Si28  1  0.547951  0.791060  0.312771  1
  Si  Si29  1  0.457952  0.208187  0.817868  1
  Si  Si30  1  0.796639  0.545263  0.687512  1
  Si  Si31  1  0.207758  0.453617  0.186625  1
  Si  Si32  1  0.707174  0.047796  0.563900  1
  Si  Si33  1  0.953521  0.293323  0.936193  1
  Si  Si34  1  0.047648  0.710211  0.434948  1
  Sn  Sn35  1  0.198564  0.126305  0.676274  1
