# generated using pymatgen
data_Tm8Re5Si16Tc7
_symmetry_space_group_name_H-M   'P 1'
_cell_length_a   6.75329177
_cell_length_b   6.75017264
_cell_length_c   12.62296627
_cell_angle_alpha   89.95404601
_cell_angle_beta   90.05110352
_cell_angle_gamma   90.18811288
_symmetry_Int_Tables_number   1
_chemical_formula_structural   Tm8Re5Si16Tc7
_chemical_formula_sum   'Tm8 Re5 Si16 Tc7'
_cell_volume   575.42557843
_cell_formula_units_Z   1
loop_
 _symmetry_equiv_pos_site_id
 _symmetry_equiv_pos_as_xyz
  1  'x, y, z'
loop_
 _atom_site_type_symbol
 _atom_site_label
 _atom_site_symmetry_multiplicity
 _atom_site_fract_x
 _atom_site_fract_y
 _atom_site_fract_z
 _atom_site_occupancy
  Tm  Tm0  1  0.004963  0.661068  0.030160  1
  Tm  Tm1  1  0.995367  0.339468  0.530412  1
  Tm  Tm2  1  0.340328  0.994964  0.469348  1
  Tm  Tm3  1  0.161514  0.491900  0.781108  1
  Tm  Tm4  1  0.838324  0.508343  0.280815  1
  Tm  Tm5  1  0.492012  0.162214  0.219050  1
  Tm  Tm6  1  0.507867  0.837368  0.719006  1
  Tm  Tm7  1  0.659370  0.005427  0.969485  1
  Re  Re8  1  0.667954  0.666749  0.499997  1
  Re  Re9  1  0.165192  0.835363  0.249956  1
  Re  Re10  1  0.331486  0.332034  0.999927  1
  Re  Re11  1  0.185930  0.975619  0.868844  1
  Re  Re12  1  0.835402  0.164196  0.749911  1
  Si  Si13  1  0.022957  0.728374  0.437233  1
  Si  Si14  1  0.616298  0.307796  0.435244  1
  Si  Si15  1  0.385061  0.691685  0.935097  1
  Si  Si16  1  0.195752  0.115228  0.683532  1
  Si  Si17  1  0.307966  0.615832  0.564560  1
  Si  Si18  1  0.691589  0.384766  0.064795  1
  Si  Si19  1  0.805100  0.885617  0.184359  1
  Si  Si20  1  0.115415  0.195541  0.315962  1
  Si  Si21  1  0.977069  0.271461  0.938037  1
  Si  Si22  1  0.728822  0.022182  0.563042  1
  Si  Si23  1  0.222047  0.477661  0.187013  1
  Si  Si24  1  0.778369  0.522277  0.686495  1
  Si  Si25  1  0.476443  0.221417  0.812334  1
  Si  Si26  1  0.523423  0.778281  0.313026  1
  Si  Si27  1  0.270590  0.977941  0.063420  1
  Si  Si28  1  0.883452  0.803803  0.815787  1
  Tc  Tc29  1  0.025758  0.812939  0.631010  1
  Tc  Tc30  1  0.974139  0.188306  0.132021  1
  Tc  Tc31  1  0.813995  0.024719  0.369426  1
  Tc  Tc32  1  0.319176  0.481519  0.379201  1
  Tc  Tc33  1  0.681220  0.517059  0.878734  1
  Tc  Tc34  1  0.480658  0.318596  0.620800  1
  Tc  Tc35  1  0.518990  0.682287  0.120856  1
