# generated using pymatgen
data_Nd5Er3Ti6Ge2(BiO5)8
_symmetry_space_group_name_H-M   'P 1'
_cell_length_a   5.47587094
_cell_length_b   11.36129094
_cell_length_c   15.50360200
_cell_angle_alpha   89.83153098
_cell_angle_beta   90.03355586
_cell_angle_gamma   90.02201080
_symmetry_Int_Tables_number   1
_chemical_formula_structural   Nd5Er3Ti6Ge2(BiO5)8
_chemical_formula_sum   'Nd5 Er3 Ti6 Ge2 Bi8 O40'
_cell_volume   964.52061077
_cell_formula_units_Z   1
loop_
 _symmetry_equiv_pos_site_id
 _symmetry_equiv_pos_as_xyz
  1  'x, y, z'
loop_
 _atom_site_type_symbol
 _atom_site_label
 _atom_site_symmetry_multiplicity
 _atom_site_fract_x
 _atom_site_fract_y
 _atom_site_fract_z
 _atom_site_occupancy
  Nd  Nd0  1  0.014021  0.858117  0.556163  1
  Nd  Nd1  1  0.514402  0.144498  0.945978  1
  Nd  Nd2  1  0.485819  0.361682  0.447178  1
  Nd  Nd3  1  0.486279  0.855265  0.053812  1
  Nd  Nd4  1  0.985850  0.140167  0.444704  1
  Er  Er5  1  0.510612  0.642855  0.555499  1
  Er  Er6  1  0.011004  0.361550  0.946785  1
  Er  Er7  1  0.990743  0.637443  0.053508  1
  Ti  Ti8  1  0.004484  0.409040  0.598197  1
  Ti  Ti9  1  0.993148  0.598321  0.404554  1
  Ti  Ti10  1  0.506827  0.591889  0.905534  1
  Ti  Ti11  1  0.493140  0.899486  0.400707  1
  Ti  Ti12  1  0.996816  0.098297  0.097362  1
  Ti  Ti13  1  0.004296  0.900153  0.900995  1
  Ge  Ge14  1  0.495260  0.406993  0.095488  1
  Ge  Ge15  1  0.507684  0.096763  0.601406  1
  Bi  Bi16  1  0.547996  0.646269  0.236023  1
  Bi  Bi17  1  0.048788  0.351751  0.259332  1
  Bi  Bi18  1  0.549923  0.153318  0.260083  1
  Bi  Bi19  1  0.453490  0.845669  0.738536  1
  Bi  Bi20  1  0.952645  0.153943  0.762934  1
  Bi  Bi21  1  0.448259  0.352163  0.763079  1
  Bi  Bi22  1  0.949525  0.647006  0.737918  1
  Bi  Bi23  1  0.047342  0.845582  0.235990  1
  O  O24  1  0.194630  0.974916  0.129841  1
  O  O25  1  0.241614  0.238528  0.848884  1
  O  O26  1  0.690682  0.526669  0.125531  1
  O  O27  1  0.758864  0.758819  0.150497  1
  O  O28  1  0.197205  0.956123  0.434482  1
  O  O29  1  0.926662  0.675279  0.302555  1
  O  O30  1  0.795802  0.042806  0.567290  1
  O  O31  1  0.936684  0.175286  0.199296  1
  O  O32  1  0.203949  0.459359  0.060173  1
  O  O33  1  0.753805  0.269064  0.345411  1
  O  O34  1  0.808450  0.538675  0.941601  1
  O  O35  1  0.064437  0.823376  0.798401  1
  O  O36  1  0.256446  0.235232  0.344383  1
  O  O37  1  0.866992  0.312897  0.519669  1
  O  O38  1  0.863846  0.801755  0.979758  1
  O  O39  1  0.435321  0.331747  0.195418  1
  O  O40  1  0.807723  0.024194  0.868809  1
  O  O41  1  0.741501  0.761999  0.652696  1
  O  O42  1  0.700943  0.040744  0.064613  1
  O  O43  1  0.640516  0.805203  0.480189  1
  O  O44  1  0.751737  0.272270  0.848489  1
  O  O45  1  0.686950  0.024176  0.367363  1
  O  O46  1  0.364929  0.187474  0.524108  1
  O  O47  1  0.251091  0.729139  0.652635  1
  O  O48  1  0.065773  0.330105  0.699802  1
  O  O49  1  0.299383  0.958224  0.934141  1
  O  O50  1  0.651025  0.315824  0.022329  1
  O  O51  1  0.134319  0.196971  0.018681  1
  O  O52  1  0.570031  0.669799  0.803479  1
  O  O53  1  0.304369  0.470611  0.872616  1
  O  O54  1  0.695220  0.547054  0.442872  1
  O  O55  1  0.315288  0.976494  0.632016  1
  O  O56  1  0.300668  0.468196  0.565235  1
  O  O57  1  0.182306  0.474056  0.369153  1
  O  O58  1  0.564013  0.173587  0.700755  1
  O  O59  1  0.795920  0.528684  0.629121  1
  O  O60  1  0.342475  0.687078  0.978267  1
  O  O61  1  0.160922  0.690750  0.478692  1
  O  O62  1  0.432056  0.822479  0.297842  1
  O  O63  1  0.247102  0.726133  0.151143  1
