# generated using pymatgen
data_Tm8ZnIn3
_symmetry_space_group_name_H-M   'P 1'
_cell_length_a   10.52720000
_cell_length_b   10.52720032
_cell_length_c   6.70297900
_cell_angle_alpha   90.00000000
_cell_angle_beta   90.00000000
_cell_angle_gamma   119.99999900
_symmetry_Int_Tables_number   1
_chemical_formula_structural   Tm8ZnIn3
_chemical_formula_sum   'Tm16 Zn2 In6'
_cell_volume   643.31585626
_cell_formula_units_Z   2
loop_
 _symmetry_equiv_pos_site_id
 _symmetry_equiv_pos_as_xyz
  1  'x, y, z'
loop_
 _atom_site_type_symbol
 _atom_site_label
 _atom_site_symmetry_multiplicity
 _atom_site_fract_x
 _atom_site_fract_y
 _atom_site_fract_z
 _atom_site_occupancy
  Tm  Tm0  1  0.520024  0.040049  0.518611  1
  Tm  Tm1  1  0.959951  0.479976  0.518611  1
  Tm  Tm2  1  0.520024  0.479976  0.518611  1
  Tm  Tm3  1  0.479976  0.959951  0.018611  1
  Tm  Tm4  1  0.040049  0.520024  0.018611  1
  Tm  Tm5  1  0.479976  0.520024  0.018611  1
  Tm  Tm6  1  0.173244  0.346489  0.734713  1
  Tm  Tm7  1  0.653511  0.826756  0.734713  1
  Tm  Tm8  1  0.173244  0.826756  0.734713  1
  Tm  Tm9  1  0.826756  0.653511  0.234713  1
  Tm  Tm10  1  0.346489  0.173244  0.234713  1
  Tm  Tm11  1  0.826756  0.173244  0.234713  1
  Tm  Tm12  1  0.666667  0.333333  0.867656  1
  Tm  Tm13  1  0.333333  0.666667  0.367656  1
  Tm  Tm14  1  0.000000  0.000000  0.497470  1
  Tm  Tm15  1  0.000000  0.000000  0.997470  1
  Zn  Zn16  1  0.666667  0.333333  0.303928  1
  Zn  Zn17  1  0.333333  0.666667  0.803928  1
  In  In18  1  0.835563  0.671127  0.749992  1
  In  In19  1  0.328873  0.164437  0.749992  1
  In  In20  1  0.835563  0.164437  0.749992  1
  In  In21  1  0.164437  0.328873  0.249992  1
  In  In22  1  0.671127  0.835563  0.249992  1
  In  In23  1  0.164437  0.835563  0.249992  1
