# generated using pymatgen
data_LiYbHoCdBi4
_symmetry_space_group_name_H-M   'P 1'
_cell_length_a   4.55858500
_cell_length_b   4.55270900
_cell_length_c   10.81536200
_cell_angle_alpha   90.00000000
_cell_angle_beta   90.00000000
_cell_angle_gamma   90.00000000
_symmetry_Int_Tables_number   1
_chemical_formula_structural   LiYbHoCdBi4
_chemical_formula_sum   'Li1 Yb1 Ho1 Cd1 Bi4'
_cell_volume   224.46105991
_cell_formula_units_Z   1
loop_
 _symmetry_equiv_pos_site_id
 _symmetry_equiv_pos_as_xyz
  1  'x, y, z'
loop_
 _atom_site_type_symbol
 _atom_site_label
 _atom_site_symmetry_multiplicity
 _atom_site_fract_x
 _atom_site_fract_y
 _atom_site_fract_z
 _atom_site_occupancy
  Li  Li0  1  0.500000  0.500000  0.002280  1
  Yb  Yb1  1  0.000000  0.500000  0.260344  1
  Ho  Ho2  1  0.500000  0.000000  0.733494  1
  Cd  Cd3  1  0.000000  0.000000  0.001256  1
  Bi  Bi4  1  0.000000  0.500000  0.811521  1
  Bi  Bi5  1  0.500000  0.000000  0.180953  1
  Bi  Bi6  1  0.000000  0.000000  0.504762  1
  Bi  Bi7  1  0.500000  0.500000  0.505389  1
