# generated using pymatgen
data_Dy8Y4AlCo5
_symmetry_space_group_name_H-M   'P 1'
_cell_length_a   8.27706624
_cell_length_b   8.27706077
_cell_length_c   8.27706489
_cell_angle_alpha   110.64498679
_cell_angle_beta   110.66304102
_cell_angle_gamma   107.13071278
_symmetry_Int_Tables_number   1
_chemical_formula_structural   Dy8Y4AlCo5
_chemical_formula_sum   'Dy8 Y4 Al1 Co5'
_cell_volume   435.97921304
_cell_formula_units_Z   1
loop_
 _symmetry_equiv_pos_site_id
 _symmetry_equiv_pos_as_xyz
  1  'x, y, z'
loop_
 _atom_site_type_symbol
 _atom_site_label
 _atom_site_symmetry_multiplicity
 _atom_site_fract_x
 _atom_site_fract_y
 _atom_site_fract_z
 _atom_site_occupancy
  Dy  Dy0  1  0.685012  0.380682  0.695671  1
  Dy  Dy1  1  0.314988  0.619318  0.304329  1
  Dy  Dy2  1  0.685011  0.989341  0.304330  1
  Dy  Dy3  1  0.314989  0.010659  0.695670  1
  Dy  Dy4  1  0.599377  0.790076  0.809303  1
  Dy  Dy5  1  0.400623  0.209924  0.190697  1
  Dy  Dy6  1  0.980773  0.790076  0.190699  1
  Dy  Dy7  1  0.019227  0.209924  0.809301  1
  Y  Y8  1  0.811731  0.706773  0.518505  1
  Y  Y9  1  0.188269  0.293227  0.481495  1
  Y  Y10  1  0.188269  0.706773  0.895041  1
  Y  Y11  1  0.811731  0.293227  0.104959  1
  Al  Al12  1  0.500000  0.500000  0.000000  1
  Co  Co13  1  0.621275  0.000000  0.621275  1
  Co  Co14  1  0.378725  0.000000  0.378725  1
  Co  Co15  1  0.112960  0.612959  0.499999  1
  Co  Co16  1  0.887040  0.387041  0.500001  1
  Co  Co17  1  0.000000  0.000000  0.000000  1
