# generated using pymatgen
data_SnBi4I3
_symmetry_space_group_name_H-M   'P 1'
_cell_length_a   24.30075039
_cell_length_b   24.30075096
_cell_length_c   6.83846614
_cell_angle_alpha   80.05412773
_cell_angle_beta   80.05412668
_cell_angle_gamma   14.04688105
_symmetry_Int_Tables_number   1
_chemical_formula_structural   SnBi4I3
_chemical_formula_sum   'Sn3 Bi12 I9'
_cell_volume   965.20208544
_cell_formula_units_Z   3
loop_
 _symmetry_equiv_pos_site_id
 _symmetry_equiv_pos_as_xyz
  1  'x, y, z'
loop_
 _atom_site_type_symbol
 _atom_site_label
 _atom_site_symmetry_multiplicity
 _atom_site_fract_x
 _atom_site_fract_y
 _atom_site_fract_z
 _atom_site_occupancy
  Sn  Sn0  1  0.934138  0.934138  0.149063  1
  Sn  Sn1  1  0.472297  0.472297  0.639622  1
  Sn  Sn2  1  0.604037  0.604037  0.491994  1
  Bi  Bi3  1  0.092795  0.092795  0.020525  1
  Bi  Bi4  1  0.738512  0.738512  0.010680  1
  Bi  Bi5  1  0.242806  0.242806  0.513001  1
  Bi  Bi6  1  0.235674  0.235674  0.025259  1
  Bi  Bi7  1  0.742567  0.742567  0.513782  1
  Bi  Bi8  1  0.876305  0.876305  0.968375  1
  Bi  Bi9  1  0.299611  0.299611  0.160578  1
  Bi  Bi10  1  0.173544  0.173544  0.290381  1
  Bi  Bi11  1  0.678352  0.678352  0.789727  1
  Bi  Bi12  1  0.799456  0.799456  0.161687  1
  Bi  Bi13  1  0.178108  0.178108  0.789999  1
  Bi  Bi14  1  0.671352  0.671352  0.300971  1
  I  I15  1  0.097689  0.097689  0.506109  1
  I  I16  1  0.595239  0.595239  0.033118  1
  I  I17  1  0.882305  0.882305  0.470208  1
  I  I18  1  0.372854  0.372854  0.962771  1
  I  I19  1  0.441323  0.441323  0.149730  1
  I  I20  1  0.968962  0.968962  0.630672  1
  I  I21  1  0.530601  0.530601  0.664987  1
  I  I22  1  0.032953  0.032953  0.103750  1
  I  I23  1  0.306606  0.306606  0.653014  1
