# generated using pymatgen
data_LuTa3Nb2C5
_symmetry_space_group_name_H-M   'P 1'
_cell_length_a   5.52921904
_cell_length_b   5.58230763
_cell_length_c   5.59641321
_cell_angle_alpha   80.61833492
_cell_angle_beta   79.22865172
_cell_angle_gamma   119.53782042
_symmetry_Int_Tables_number   1
_chemical_formula_structural   LuTa3Nb2C5
_chemical_formula_sum   'Lu1 Ta3 Nb2 C5'
_cell_volume   140.90727961
_cell_formula_units_Z   1
loop_
 _symmetry_equiv_pos_site_id
 _symmetry_equiv_pos_as_xyz
  1  'x, y, z'
loop_
 _atom_site_type_symbol
 _atom_site_label
 _atom_site_symmetry_multiplicity
 _atom_site_fract_x
 _atom_site_fract_y
 _atom_site_fract_z
 _atom_site_occupancy
  Lu  Lu0  1  0.589776  0.921790  0.237747  1
  Ta  Ta1  1  0.720854  0.729348  0.733456  1
  Ta  Ta2  1  0.265869  0.262348  0.275128  1
  Ta  Ta3  1  0.081081  0.451471  0.741015  1
  Nb  Nb4  1  0.918386  0.558119  0.254049  1
  Nb  Nb5  1  0.436977  0.084219  0.747227  1
  C  C6  1  0.492407  0.491045  0.509167  1
  C  C7  1  0.666235  0.345355  0.994304  1
  C  C8  1  0.326555  0.654658  0.996368  1
  C  C9  1  0.841506  0.168349  0.507578  1
  C  C10  1  0.160354  0.833298  0.503961  1
