# generated using pymatgen
data_Ag2PtF6
_symmetry_space_group_name_H-M   'P 1'
_cell_length_a   9.94412200
_cell_length_b   9.94412227
_cell_length_c   5.34274600
_cell_angle_alpha   90.00000000
_cell_angle_beta   90.00000000
_cell_angle_gamma   120.00000577
_symmetry_Int_Tables_number   1
_chemical_formula_structural   Ag2PtF6
_chemical_formula_sum   'Ag6 Pt3 F18'
_cell_volume   457.53891036
_cell_formula_units_Z   3
loop_
 _symmetry_equiv_pos_site_id
 _symmetry_equiv_pos_as_xyz
  1  'x, y, z'
loop_
 _atom_site_type_symbol
 _atom_site_label
 _atom_site_symmetry_multiplicity
 _atom_site_fract_x
 _atom_site_fract_y
 _atom_site_fract_z
 _atom_site_occupancy
  Ag  Ag0  1  0.000000  0.628530  0.500000  1
  Ag  Ag1  1  0.628530  0.000000  0.500000  1
  Ag  Ag2  1  0.371470  0.371470  0.500000  1
  Ag  Ag3  1  0.293857  0.000000  0.000000  1
  Ag  Ag4  1  0.706143  0.706143  0.000000  1
  Ag  Ag5  1  0.000000  0.293857  0.000000  1
  Pt  Pt6  1  0.000000  0.000000  0.500000  1
  Pt  Pt7  1  0.333333  0.666667  0.003295  1
  Pt  Pt8  1  0.666667  0.333333  0.996705  1
  F  F9  1  0.090365  0.896697  0.298628  1
  F  F10  1  0.806332  0.909635  0.298628  1
  F  F11  1  0.103303  0.193668  0.298628  1
  F  F12  1  0.909635  0.806332  0.701372  1
  F  F13  1  0.896697  0.090365  0.701372  1
  F  F14  1  0.193668  0.103303  0.701372  1
  F  F15  1  0.223732  0.747344  0.794052  1
  F  F16  1  0.523611  0.776268  0.794052  1
  F  F17  1  0.252656  0.476389  0.794052  1
  F  F18  1  0.776268  0.523611  0.205948  1
  F  F19  1  0.747344  0.223732  0.205948  1
  F  F20  1  0.476389  0.252656  0.205948  1
  F  F21  1  0.410313  0.856587  0.212557  1
  F  F22  1  0.446275  0.589687  0.212557  1
  F  F23  1  0.143413  0.553725  0.212557  1
  F  F24  1  0.589687  0.446275  0.787443  1
  F  F25  1  0.856587  0.410313  0.787443  1
  F  F26  1  0.553725  0.143413  0.787443  1
