# generated using pymatgen
data_LiYb11Al8(SiO4)12
_symmetry_space_group_name_H-M   'P 1'
_cell_length_a   10.31095514
_cell_length_b   10.28384465
_cell_length_c   10.31095700
_cell_angle_alpha   109.53487020
_cell_angle_beta   109.45093495
_cell_angle_gamma   109.53482868
_symmetry_Int_Tables_number   1
_chemical_formula_structural   LiYb11Al8(SiO4)12
_chemical_formula_sum   'Li1 Yb11 Al8 Si12 O48'
_cell_volume   840.53651357
_cell_formula_units_Z   1
loop_
 _symmetry_equiv_pos_site_id
 _symmetry_equiv_pos_as_xyz
  1  'x, y, z'
loop_
 _atom_site_type_symbol
 _atom_site_label
 _atom_site_symmetry_multiplicity
 _atom_site_fract_x
 _atom_site_fract_y
 _atom_site_fract_z
 _atom_site_occupancy
  Li  Li0  1  0.375174  0.750000  0.124826  1
  Yb  Yb1  1  0.250957  0.378092  0.124847  1
  Yb  Yb2  1  0.375153  0.121908  0.249043  1
  Yb  Yb3  1  0.874189  0.624541  0.249598  1
  Yb  Yb4  1  0.746761  0.121899  0.372866  1
  Yb  Yb5  1  0.125004  0.250000  0.374996  1
  Yb  Yb6  1  0.874996  0.750000  0.625004  1
  Yb  Yb7  1  0.250401  0.875459  0.625810  1
  Yb  Yb8  1  0.127134  0.378101  0.753239  1
  Yb  Yb9  1  0.625057  0.875455  0.749656  1
  Yb  Yb10  1  0.750344  0.624546  0.874943  1
  Yb  Yb11  1  0.625001  0.250000  0.874999  1
  Al  Al12  1  0.000912  0.000069  0.000351  1
  Al  Al13  1  0.499706  0.996991  0.001271  1
  Al  Al14  1  0.004277  0.503012  0.002704  1
  Al  Al15  1  0.498729  0.503009  0.000294  1
  Al  Al16  1  0.999152  0.000063  0.499717  1
  Al  Al17  1  0.499650  0.499932  0.499088  1
  Al  Al18  1  0.000283  0.499936  0.500848  1
  Al  Al19  1  0.497296  0.996988  0.495724  1
  Si  Si20  1  0.875210  0.249989  0.125208  1
  Si  Si21  1  0.751451  0.875461  0.124600  1
  Si  Si22  1  0.624806  0.375185  0.250435  1
  Si  Si23  1  0.123991  0.875488  0.250853  1
  Si  Si24  1  0.249147  0.624512  0.376009  1
  Si  Si25  1  0.620786  0.749998  0.370791  1
  Si  Si26  1  0.750365  0.375183  0.624743  1
  Si  Si27  1  0.374792  0.250011  0.624790  1
  Si  Si28  1  0.875257  0.124817  0.749634  1
  Si  Si29  1  0.375400  0.624539  0.748549  1
  Si  Si30  1  0.249565  0.124815  0.875194  1
  Si  Si31  1  0.129209  0.750002  0.879214  1
  O  O32  1  0.198114  0.114744  0.009575  1
  O  O33  1  0.314595  0.895216  0.014320  1
  O  O34  1  0.698984  0.689070  0.084227  1
  O  O35  1  0.884654  0.395035  0.083958  1
  O  O36  1  0.612850  0.417471  0.105893  1
  O  O37  1  0.990102  0.689074  0.104853  1
  O  O38  1  0.009046  0.198270  0.114212  1
  O  O39  1  0.609406  0.919090  0.112273  1
  O  O40  1  0.193115  0.580846  0.190338  1
  O  O41  1  0.485681  0.604784  0.185405  1
  O  O42  1  0.114144  0.009965  0.198730  1
  O  O43  1  0.584610  0.189070  0.198198  1
  O  O44  1  0.309663  0.919153  0.306885  1
  O  O45  1  0.490425  0.385255  0.301886  1
  O  O46  1  0.915951  0.301745  0.310792  1
  O  O47  1  0.895815  0.009969  0.311242  1
  O  O48  1  0.580649  0.895242  0.380917  1
  O  O49  1  0.301270  0.490036  0.385856  1
  O  O50  1  0.811188  0.509646  0.395251  1
  O  O51  1  0.081574  0.885107  0.394915  1
  O  O52  1  0.808075  0.801821  0.414434  1
  O  O53  1  0.105086  0.614892  0.418426  1
  O  O54  1  0.385788  0.301730  0.490954  1
  O  O55  1  0.604469  0.189077  0.490883  1
  O  O56  1  0.395147  0.810925  0.509897  1
  O  O57  1  0.612612  0.698176  0.506242  1
  O  O58  1  0.894825  0.385261  0.583369  1
  O  O59  1  0.189207  0.198255  0.584049  1
  O  O60  1  0.916631  0.114738  0.605175  1
  O  O61  1  0.188758  0.490031  0.604185  1
  O  O62  1  0.416042  0.104964  0.615346  1
  O  O63  1  0.698450  0.509642  0.614393  1
  O  O64  1  0.104749  0.990353  0.688812  1
  O  O65  1  0.085567  0.698179  0.691926  1
  O  O66  1  0.688407  0.082521  0.695372  1
  O  O67  1  0.509795  0.614897  0.696489  1
  O  O68  1  0.415773  0.810930  0.801016  1
  O  O69  1  0.885607  0.990358  0.801551  1
  O  O70  1  0.510368  0.395048  0.811081  1
  O  O71  1  0.804628  0.417479  0.811592  1
  O  O72  1  0.394108  0.082528  0.887150  1
  O  O73  1  0.993758  0.801824  0.887389  1
  O  O74  1  0.387727  0.580910  0.890595  1
  O  O75  1  0.009117  0.310923  0.895531  1
  O  O76  1  0.301802  0.310929  0.915390  1
  O  O77  1  0.119082  0.604758  0.919351  1
  O  O78  1  0.688918  0.104951  0.989632  1
  O  O79  1  0.803511  0.885103  0.990205  1
