# generated using pymatgen
data_HfTi2(NbB3)2
_symmetry_space_group_name_H-M   'P 1'
_cell_length_a   11.53224229
_cell_length_b   11.53224311
_cell_length_c   3.36337000
_cell_angle_alpha   90.00000000
_cell_angle_beta   90.00000000
_cell_angle_gamma   164.58035729
_symmetry_Int_Tables_number   1
_chemical_formula_structural   HfTi2(NbB3)2
_chemical_formula_sum   'Hf1 Ti2 Nb2 B6'
_cell_volume   118.93198872
_cell_formula_units_Z   1
loop_
 _symmetry_equiv_pos_site_id
 _symmetry_equiv_pos_as_xyz
  1  'x, y, z'
loop_
 _atom_site_type_symbol
 _atom_site_label
 _atom_site_symmetry_multiplicity
 _atom_site_fract_x
 _atom_site_fract_y
 _atom_site_fract_z
 _atom_site_occupancy
  Hf  Hf0  1  0.000941  0.999059  0.000000  1
  Ti  Ti1  1  0.614230  0.385770  0.000000  1
  Ti  Ti2  1  0.803876  0.196124  0.500000  1
  Nb  Nb3  1  0.384272  0.615728  0.000000  1
  Nb  Nb4  1  0.194349  0.805651  0.500000  1
  B  B5  1  0.917841  0.082159  0.500000  1
  B  B6  1  0.082738  0.917262  0.500000  1
  B  B7  1  0.728859  0.271141  0.000000  1
  B  B8  1  0.271463  0.728537  0.000000  1
  B  B9  1  0.542116  0.457884  0.500000  1
  B  B10  1  0.459316  0.540684  0.500000  1
