# generated using pymatgen
data_ZrPt3(SeO3)8
_symmetry_space_group_name_H-M   'P 1'
_cell_length_a   8.24468357
_cell_length_b   8.24468277
_cell_length_c   8.24468227
_cell_angle_alpha   89.30387187
_cell_angle_beta   90.69612734
_cell_angle_gamma   90.69612492
_symmetry_Int_Tables_number   1
_chemical_formula_structural   ZrPt3(SeO3)8
_chemical_formula_sum   'Zr1 Pt3 Se8 O24'
_cell_volume   560.30753867
_cell_formula_units_Z   1
loop_
 _symmetry_equiv_pos_site_id
 _symmetry_equiv_pos_as_xyz
  1  'x, y, z'
loop_
 _atom_site_type_symbol
 _atom_site_label
 _atom_site_symmetry_multiplicity
 _atom_site_fract_x
 _atom_site_fract_y
 _atom_site_fract_z
 _atom_site_occupancy
  Zr  Zr0  1  0.500000  0.500000  0.000000  1
  Pt  Pt1  1  0.500000  0.000000  0.500000  1
  Pt  Pt2  1  0.000000  0.000000  0.000000  1
  Pt  Pt3  1  0.000000  0.500000  0.500000  1
  Se  Se4  1  0.826818  0.173182  0.673182  1
  Se  Se5  1  0.173182  0.826818  0.326818  1
  Se  Se6  1  0.687177  0.681409  0.642945  1
  Se  Se7  1  0.142945  0.687177  0.818591  1
  Se  Se8  1  0.318591  0.142945  0.812823  1
  Se  Se9  1  0.857055  0.312823  0.181409  1
  Se  Se10  1  0.681409  0.857055  0.187177  1
  Se  Se11  1  0.312823  0.318591  0.357055  1
  O  O12  1  0.242854  0.464311  0.493564  1
  O  O13  1  0.993564  0.242854  0.035689  1
  O  O14  1  0.035002  0.742375  0.465833  1
  O  O15  1  0.443193  0.260584  0.931402  1
  O  O16  1  0.257625  0.965833  0.464998  1
  O  O17  1  0.568598  0.556807  0.760584  1
  O  O18  1  0.965833  0.035002  0.757625  1
  O  O19  1  0.556807  0.739416  0.068598  1
  O  O20  1  0.535689  0.993564  0.257146  1
  O  O21  1  0.464311  0.006436  0.742854  1
  O  O22  1  0.756596  0.991511  0.036199  1
  O  O23  1  0.260584  0.568598  0.943193  1
  O  O24  1  0.008489  0.536199  0.743404  1
  O  O25  1  0.034167  0.964998  0.242375  1
  O  O26  1  0.243404  0.008489  0.963801  1
  O  O27  1  0.431402  0.443193  0.239416  1
  O  O28  1  0.757146  0.535689  0.506436  1
  O  O29  1  0.991511  0.463801  0.256596  1
  O  O30  1  0.006436  0.757146  0.964311  1
  O  O31  1  0.463801  0.243404  0.491511  1
  O  O32  1  0.536199  0.756596  0.508489  1
  O  O33  1  0.964998  0.257625  0.534167  1
  O  O34  1  0.742375  0.034167  0.535002  1
  O  O35  1  0.739416  0.431402  0.056807  1
