# generated using pymatgen
data_CaLa3Ir4F28
_symmetry_space_group_name_H-M   'P 1'
_cell_length_a   5.77322078
_cell_length_b   9.26871106
_cell_length_c   12.42911717
_cell_angle_alpha   62.47556882
_cell_angle_beta   90.10618270
_cell_angle_gamma   89.94092992
_symmetry_Int_Tables_number   1
_chemical_formula_structural   CaLa3Ir4F28
_chemical_formula_sum   'Ca1 La3 Ir4 F28'
_cell_volume   589.80511533
_cell_formula_units_Z   1
loop_
 _symmetry_equiv_pos_site_id
 _symmetry_equiv_pos_as_xyz
  1  'x, y, z'
loop_
 _atom_site_type_symbol
 _atom_site_label
 _atom_site_symmetry_multiplicity
 _atom_site_fract_x
 _atom_site_fract_y
 _atom_site_fract_z
 _atom_site_occupancy
  Ca  Ca0  1  0.762934  0.815072  0.265284  1
  La  La1  1  0.263141  0.177206  0.235505  1
  La  La2  1  0.239728  0.191021  0.733628  1
  La  La3  1  0.740003  0.809625  0.766456  1
  Ir  Ir4  1  0.242795  0.724886  0.542269  1
  Ir  Ir5  1  0.744554  0.273412  0.956292  1
  Ir  Ir6  1  0.755942  0.277799  0.454248  1
  Ir  Ir7  1  0.256602  0.725286  0.047402  1
  F  F8  1  0.965206  0.713645  0.458093  1
  F  F9  1  0.462559  0.287872  0.039649  1
  F  F10  1  0.037542  0.286589  0.541322  1
  F  F11  1  0.534539  0.713986  0.959506  1
  F  F12  1  0.058982  0.707830  0.924820  1
  F  F13  1  0.559339  0.292838  0.577744  1
  F  F14  1  0.939553  0.294353  0.076405  1
  F  F15  1  0.439977  0.706246  0.424497  1
  F  F16  1  0.738792  0.509619  0.861689  1
  F  F17  1  0.238163  0.487336  0.638157  1
  F  F18  1  0.261043  0.489638  0.139375  1
  F  F19  1  0.760004  0.510637  0.362163  1
  F  F20  1  0.741839  0.040902  0.045303  1
  F  F21  1  0.240136  0.962054  0.453888  1
  F  F22  1  0.259677  0.961883  0.953027  1
  F  F23  1  0.759085  0.042009  0.546679  1
  F  F24  1  0.048756  0.742059  0.665906  1
  F  F25  1  0.550873  0.257496  0.831917  1
  F  F26  1  0.950349  0.259279  0.332233  1
  F  F27  1  0.454697  0.742965  0.167033  1
  F  F28  1  0.022910  0.267889  0.866428  1
  F  F29  1  0.518155  0.731558  0.633553  1
  F  F30  1  0.982819  0.732808  0.134363  1
  F  F31  1  0.478838  0.269531  0.366489  1
  F  F32  1  0.082198  0.967831  0.230820  1
  F  F33  1  0.588659  0.028209  0.268150  1
  F  F34  1  0.909312  0.031272  0.768715  1
  F  F35  1  0.410298  0.967359  0.730990  1
