# generated using pymatgen
data_Tm2Si2NiOs
_symmetry_space_group_name_H-M   'P 1'
_cell_length_a   4.20675000
_cell_length_b   6.80187982
_cell_length_c   7.14839825
_cell_angle_alpha   91.43134974
_cell_angle_beta   90.00000000
_cell_angle_gamma   90.00000000
_symmetry_Int_Tables_number   1
_chemical_formula_structural   Tm2Si2NiOs
_chemical_formula_sum   'Tm4 Si4 Ni2 Os2'
_cell_volume   204.47907145
_cell_formula_units_Z   2
loop_
 _symmetry_equiv_pos_site_id
 _symmetry_equiv_pos_as_xyz
  1  'x, y, z'
loop_
 _atom_site_type_symbol
 _atom_site_label
 _atom_site_symmetry_multiplicity
 _atom_site_fract_x
 _atom_site_fract_y
 _atom_site_fract_z
 _atom_site_occupancy
  Tm  Tm0  1  0.250000  0.991663  0.799466  1
  Tm  Tm1  1  0.750000  0.008337  0.200534  1
  Tm  Tm2  1  0.250000  0.489522  0.682848  1
  Tm  Tm3  1  0.750000  0.510478  0.317152  1
  Si  Si4  1  0.250000  0.297728  0.100968  1
  Si  Si5  1  0.750000  0.702272  0.899032  1
  Si  Si6  1  0.250000  0.802639  0.396171  1
  Si  Si7  1  0.750000  0.197361  0.603829  1
  Ni  Ni8  1  0.750000  0.836267  0.573593  1
  Ni  Ni9  1  0.250000  0.163733  0.426407  1
  Os  Os10  1  0.750000  0.341213  0.930894  1
  Os  Os11  1  0.250000  0.658787  0.069106  1
