# generated using pymatgen
data_Gd(Ga3Ni)3
_symmetry_space_group_name_H-M   'P 1'
_cell_length_a   10.17249135
_cell_length_b   10.17249018
_cell_length_c   10.17249012
_cell_angle_alpha   42.24384926
_cell_angle_beta   42.24384702
_cell_angle_gamma   42.24386050
_symmetry_Int_Tables_number   1
_chemical_formula_structural   Gd(Ga3Ni)3
_chemical_formula_sum   'Gd2 Ga18 Ni6'
_cell_volume   430.57298377
_cell_formula_units_Z   2
loop_
 _symmetry_equiv_pos_site_id
 _symmetry_equiv_pos_as_xyz
  1  'x, y, z'
loop_
 _atom_site_type_symbol
 _atom_site_label
 _atom_site_symmetry_multiplicity
 _atom_site_fract_x
 _atom_site_fract_y
 _atom_site_fract_z
 _atom_site_occupancy
  Gd  Gd0  1  0.166888  0.166888  0.166888  1
  Gd  Gd1  1  0.833112  0.833112  0.833112  1
  Ga  Ga2  1  0.051246  0.051246  0.051246  1
  Ga  Ga3  1  0.707682  0.500000  0.292318  1
  Ga  Ga4  1  0.665653  0.334347  0.000000  1
  Ga  Ga5  1  0.103603  0.433713  0.764116  1
  Ga  Ga6  1  0.433713  0.764116  0.103603  1
  Ga  Ga7  1  0.386527  0.386527  0.386527  1
  Ga  Ga8  1  0.334347  0.000000  0.665653  1
  Ga  Ga9  1  0.613473  0.613473  0.613473  1
  Ga  Ga10  1  0.235884  0.566287  0.896397  1
  Ga  Ga11  1  0.566287  0.896397  0.235884  1
  Ga  Ga12  1  0.500000  0.292318  0.707682  1
  Ga  Ga13  1  0.764116  0.103603  0.433713  1
  Ga  Ga14  1  0.948754  0.948754  0.948754  1
  Ga  Ga15  1  0.292318  0.707682  0.500000  1
  Ga  Ga16  1  0.000000  0.665653  0.334347  1
  Ga  Ga17  1  0.717280  0.717280  0.717280  1
  Ga  Ga18  1  0.282720  0.282720  0.282720  1
  Ga  Ga19  1  0.896397  0.235884  0.566287  1
  Ni  Ni20  1  0.243133  0.920852  0.581951  1
  Ni  Ni21  1  0.920852  0.581951  0.243133  1
  Ni  Ni22  1  0.756867  0.418049  0.079148  1
  Ni  Ni23  1  0.079148  0.756867  0.418049  1
  Ni  Ni24  1  0.418049  0.079148  0.756867  1
  Ni  Ni25  1  0.581951  0.243133  0.920852  1
