# generated using pymatgen
data_La4YbCdPd4
_symmetry_space_group_name_H-M   'P 1'
_cell_length_a   8.06438000
_cell_length_b   8.06438000
_cell_length_c   4.01568300
_cell_angle_alpha   90.00000000
_cell_angle_beta   90.00000000
_cell_angle_gamma   90.00000000
_symmetry_Int_Tables_number   1
_chemical_formula_structural   La4YbCdPd4
_chemical_formula_sum   'La4 Yb1 Cd1 Pd4'
_cell_volume   261.15683088
_cell_formula_units_Z   1
loop_
 _symmetry_equiv_pos_site_id
 _symmetry_equiv_pos_as_xyz
  1  'x, y, z'
loop_
 _atom_site_type_symbol
 _atom_site_label
 _atom_site_symmetry_multiplicity
 _atom_site_fract_x
 _atom_site_fract_y
 _atom_site_fract_z
 _atom_site_occupancy
  La  La0  1  0.648904  0.184707  0.500000  1
  La  La1  1  0.351096  0.815293  0.500000  1
  La  La2  1  0.184707  0.351096  0.500000  1
  La  La3  1  0.815293  0.648904  0.500000  1
  Yb  Yb4  1  0.000000  0.000000  0.000000  1
  Cd  Cd5  1  0.500000  0.500000  0.000000  1
  Pd  Pd6  1  0.123654  0.637648  0.000000  1
  Pd  Pd7  1  0.876346  0.362352  0.000000  1
  Pd  Pd8  1  0.637648  0.876346  0.000000  1
  Pd  Pd9  1  0.362352  0.123654  0.000000  1
