# generated using pymatgen
data_Y4Ho6Er2Co5Bi
_symmetry_space_group_name_H-M   'P 1'
_cell_length_a   8.27949637
_cell_length_b   8.27941166
_cell_length_c   8.27949806
_cell_angle_alpha   110.61514584
_cell_angle_beta   110.90016067
_cell_angle_gamma   106.92843179
_symmetry_Int_Tables_number   1
_chemical_formula_structural   Y4Ho6Er2Co5Bi
_chemical_formula_sum   'Y4 Ho6 Er2 Co5 Bi1'
_cell_volume   436.25662113
_cell_formula_units_Z   1
loop_
 _symmetry_equiv_pos_site_id
 _symmetry_equiv_pos_as_xyz
  1  'x, y, z'
loop_
 _atom_site_type_symbol
 _atom_site_label
 _atom_site_symmetry_multiplicity
 _atom_site_fract_x
 _atom_site_fract_y
 _atom_site_fract_z
 _atom_site_occupancy
  Y  Y0  1  0.814925  0.711541  0.526506  1
  Y  Y1  1  0.185075  0.288459  0.473494  1
  Y  Y2  1  0.185036  0.711541  0.896616  1
  Y  Y3  1  0.814964  0.288459  0.103384  1
  Ho  Ho4  1  0.688580  0.998510  0.309930  1
  Ho  Ho5  1  0.311420  0.001490  0.690070  1
  Ho  Ho6  1  0.598023  0.792490  0.805497  1
  Ho  Ho7  1  0.401977  0.207510  0.194503  1
  Ho  Ho8  1  0.986993  0.792490  0.194467  1
  Ho  Ho9  1  0.013007  0.207510  0.805533  1
  Er  Er10  1  0.688579  0.378622  0.690044  1
  Er  Er11  1  0.311421  0.621378  0.309956  1
  Co  Co12  1  0.624027  0.000000  0.624027  1
  Co  Co13  1  0.375973  0.000000  0.375973  1
  Co  Co14  1  0.111751  0.611745  0.499993  1
  Co  Co15  1  0.888249  0.388255  0.500007  1
  Co  Co16  1  0.000000  0.000000  0.000000  1
  Bi  Bi17  1  0.500000  0.500000  0.000000  1
