# generated using pymatgen
data_Li12LaSm11(TeO6)8
_symmetry_space_group_name_H-M   'P 1'
_cell_length_a   10.91006508
_cell_length_b   10.92916709
_cell_length_c   10.92916753
_cell_angle_alpha   109.62257179
_cell_angle_beta   109.43091399
_cell_angle_gamma   109.43091786
_symmetry_Int_Tables_number   1
_chemical_formula_structural   Li12LaSm11(TeO6)8
_chemical_formula_sum   'Li12 La1 Sm11 Te8 O48'
_cell_volume   1002.30210933
_cell_formula_units_Z   1
loop_
 _symmetry_equiv_pos_site_id
 _symmetry_equiv_pos_as_xyz
  1  'x, y, z'
loop_
 _atom_site_type_symbol
 _atom_site_label
 _atom_site_symmetry_multiplicity
 _atom_site_fract_x
 _atom_site_fract_y
 _atom_site_fract_z
 _atom_site_occupancy
  Li  Li0  1  0.750000  0.374959  0.124958  1
  Li  Li1  1  0.874429  0.749802  0.125002  1
  Li  Li2  1  0.124995  0.374983  0.250108  1
  Li  Li3  1  0.625571  0.874998  0.250198  1
  Li  Li4  1  0.625571  0.250573  0.375372  1
  Li  Li5  1  0.250000  0.125905  0.375905  1
  Li  Li6  1  0.750000  0.875041  0.625041  1
  Li  Li7  1  0.375005  0.749892  0.625018  1
  Li  Li8  1  0.375005  0.125113  0.749988  1
  Li  Li9  1  0.874429  0.624628  0.749427  1
  Li  Li10  1  0.250000  0.624095  0.874095  1
  Li  Li11  1  0.124995  0.250013  0.874886  1
  La  La12  1  0.250001  0.875000  0.125000  1
  Sm  Sm13  1  0.375318  0.250935  0.124660  1
  Sm  Sm14  1  0.375318  0.624384  0.250658  1
  Sm  Sm15  1  0.874956  0.125023  0.249966  1
  Sm  Sm16  1  0.750000  0.625001  0.375000  1
  Sm  Sm17  1  0.124681  0.749342  0.375616  1
  Sm  Sm18  1  0.874956  0.249934  0.624991  1
  Sm  Sm19  1  0.250000  0.375000  0.625000  1
  Sm  Sm20  1  0.124682  0.875340  0.749065  1
  Sm  Sm21  1  0.625045  0.375009  0.750066  1
  Sm  Sm22  1  0.750000  0.125000  0.875000  1
  Sm  Sm23  1  0.625044  0.750035  0.874977  1
  Te  Te24  1  0.999161  0.001290  0.999324  1
  Te  Te25  1  0.500839  0.000676  0.998710  1
  Te  Te26  1  0.999161  0.497871  0.999837  1
  Te  Te27  1  0.500101  0.500059  0.999943  1
  Te  Te28  1  0.999899  0.000057  0.499941  1
  Te  Te29  1  0.500101  0.500042  0.500158  1
  Te  Te30  1  0.500839  0.000163  0.502129  1
  Te  Te31  1  0.999899  0.499842  0.499958  1
  O  O32  1  0.194884  0.612501  0.022885  1
  O  O33  1  0.329166  0.406292  0.024574  1
  O  O34  1  0.696619  0.171438  0.077429  1
  O  O35  1  0.882196  0.906889  0.077315  1
  O  O36  1  0.617804  0.922685  0.093112  1
  O  O37  1  0.974140  0.171648  0.093086  1
  O  O38  1  0.021556  0.691942  0.118026  1
  O  O39  1  0.593773  0.422827  0.118090  1
  O  O40  1  0.194885  0.082383  0.172000  1
  O  O41  1  0.478445  0.096472  0.170387  1
  O  O42  1  0.118129  0.524137  0.196002  1
  O  O43  1  0.577587  0.671114  0.195685  1
  O  O44  1  0.478444  0.881973  0.308057  1
  O  O45  1  0.329166  0.422876  0.304594  1
  O  O46  1  0.906227  0.524317  0.329054  1
  O  O47  1  0.922414  0.804315  0.328886  1
  O  O48  1  0.305115  0.977115  0.387498  1
  O  O49  1  0.577587  0.406473  0.381902  1
  O  O50  1  0.828997  0.024775  0.406455  1
  O  O51  1  0.077597  0.381733  0.406469  1
  O  O52  1  0.828996  0.304222  0.422540  1
  O  O53  1  0.093460  0.118088  0.422622  1
  O  O54  1  0.381870  0.803997  0.475863  1
  O  O55  1  0.593772  0.670945  0.475684  1
  O  O56  1  0.617804  0.195120  0.524692  1
  O  O57  1  0.406541  0.329162  0.524629  1
  O  O58  1  0.170834  0.695407  0.577124  1
  O  O59  1  0.906227  0.881911  0.577174  1
  O  O60  1  0.170834  0.975426  0.593708  1
  O  O61  1  0.922413  0.618098  0.593528  1
  O  O62  1  0.422403  0.593531  0.618266  1
  O  O63  1  0.696620  0.025181  0.619190  1
  O  O64  1  0.077597  0.195863  0.671128  1
  O  O65  1  0.093460  0.475371  0.670838  1
  O  O66  1  0.671002  0.577459  0.695777  1
  O  O67  1  0.525860  0.118946  0.697508  1
  O  O68  1  0.882196  0.475308  0.804880  1
  O  O69  1  0.422403  0.328871  0.804136  1
  O  O70  1  0.803380  0.922570  0.828560  1
  O  O71  1  0.525860  0.906914  0.828352  1
  O  O72  1  0.974140  0.302493  0.881055  1
  O  O73  1  0.406541  0.577379  0.881912  1
  O  O74  1  0.381870  0.077873  0.906007  1
  O  O75  1  0.021556  0.829614  0.903529  1
  O  O76  1  0.118128  0.093993  0.922126  1
  O  O77  1  0.305116  0.828000  0.917617  1
  O  O78  1  0.803380  0.380810  0.974819  1
  O  O79  1  0.671003  0.593545  0.975225  1
