# generated using pymatgen
data_LuPa(SbRh)2
_symmetry_space_group_name_H-M   'P 1'
_cell_length_a   6.55937800
_cell_length_b   4.62837700
_cell_length_c   9.21461400
_cell_angle_alpha   90.00000000
_cell_angle_beta   90.00000000
_cell_angle_gamma   90.00000000
_symmetry_Int_Tables_number   1
_chemical_formula_structural   LuPa(SbRh)2
_chemical_formula_sum   'Lu2 Pa2 Sb4 Rh4'
_cell_volume   279.74899371
_cell_formula_units_Z   2
loop_
 _symmetry_equiv_pos_site_id
 _symmetry_equiv_pos_as_xyz
  1  'x, y, z'
loop_
 _atom_site_type_symbol
 _atom_site_label
 _atom_site_symmetry_multiplicity
 _atom_site_fract_x
 _atom_site_fract_y
 _atom_site_fract_z
 _atom_site_occupancy
  Lu  Lu0  1  0.005983  0.499999  0.376139  1
  Lu  Lu1  1  0.505983  0.000000  0.623863  1
  Pa  Pa2  1  0.493415  0.000000  0.127009  1
  Pa  Pa3  1  0.993414  0.499999  0.872993  1
  Sb  Sb4  1  0.991325  0.000000  0.132920  1
  Sb  Sb5  1  0.504183  0.499999  0.384096  1
  Sb  Sb6  1  0.004181  0.000000  0.615905  1
  Sb  Sb7  1  0.491326  0.499999  0.867082  1
  Rh  Rh8  1  0.740937  0.499999  0.117268  1
  Rh  Rh9  1  0.264161  0.000000  0.361636  1
  Rh  Rh10  1  0.764162  0.499999  0.638364  1
  Rh  Rh11  1  0.240937  0.000000  0.882733  1
