# generated using pymatgen
data_Sc4Pd2O
_symmetry_space_group_name_H-M   'P 1'
_cell_length_a   8.76477542
_cell_length_b   8.76477551
_cell_length_c   8.76477600
_cell_angle_alpha   59.99999816
_cell_angle_beta   59.99999780
_cell_angle_gamma   59.99999671
_symmetry_Int_Tables_number   1
_chemical_formula_structural   Sc4Pd2O
_chemical_formula_sum   'Sc16 Pd8 O4'
_cell_volume   476.11009404
_cell_formula_units_Z   4
loop_
 _symmetry_equiv_pos_site_id
 _symmetry_equiv_pos_as_xyz
  1  'x, y, z'
loop_
 _atom_site_type_symbol
 _atom_site_label
 _atom_site_symmetry_multiplicity
 _atom_site_fract_x
 _atom_site_fract_y
 _atom_site_fract_z
 _atom_site_occupancy
  Sc  Sc0  1  0.125000  0.625000  0.625000  1
  Sc  Sc1  1  0.625000  0.125000  0.625000  1
  Sc  Sc2  1  0.625000  0.625000  0.125000  1
  Sc  Sc3  1  0.625000  0.625000  0.625000  1
  Sc  Sc4  1  0.818666  0.818666  0.181334  1
  Sc  Sc5  1  0.181334  0.181334  0.818666  1
  Sc  Sc6  1  0.818666  0.181334  0.818666  1
  Sc  Sc7  1  0.181334  0.818666  0.181334  1
  Sc  Sc8  1  0.181334  0.818666  0.818666  1
  Sc  Sc9  1  0.818666  0.181334  0.181334  1
  Sc  Sc10  1  0.431334  0.431334  0.068666  1
  Sc  Sc11  1  0.068666  0.068666  0.431334  1
  Sc  Sc12  1  0.431334  0.068666  0.431334  1
  Sc  Sc13  1  0.068666  0.431334  0.068666  1
  Sc  Sc14  1  0.068666  0.431334  0.431334  1
  Sc  Sc15  1  0.431334  0.068666  0.068666  1
  Pd  Pd16  1  0.766550  0.411150  0.411150  1
  Pd  Pd17  1  0.411150  0.766550  0.411150  1
  Pd  Pd18  1  0.411150  0.411150  0.766550  1
  Pd  Pd19  1  0.411150  0.411150  0.411150  1
  Pd  Pd20  1  0.483450  0.838850  0.838850  1
  Pd  Pd21  1  0.838850  0.483450  0.838850  1
  Pd  Pd22  1  0.838850  0.838850  0.483450  1
  Pd  Pd23  1  0.838850  0.838850  0.838850  1
  O  O24  1  0.625000  0.125000  0.125000  1
  O  O25  1  0.125000  0.625000  0.125000  1
  O  O26  1  0.125000  0.125000  0.625000  1
  O  O27  1  0.125000  0.125000  0.125000  1
