# generated using pymatgen
data_Dy2Y3Ho7Ni4
_symmetry_space_group_name_H-M   'P 1'
_cell_length_a   6.33044101
_cell_length_b   6.82791604
_cell_length_c   9.54512300
_cell_angle_alpha   90.00199715
_cell_angle_beta   90.00373800
_cell_angle_gamma   90.00623468
_symmetry_Int_Tables_number   1
_chemical_formula_structural   Dy2Y3Ho7Ni4
_chemical_formula_sum   'Dy2 Y3 Ho7 Ni4'
_cell_volume   412.57571810
_cell_formula_units_Z   1
loop_
 _symmetry_equiv_pos_site_id
 _symmetry_equiv_pos_as_xyz
  1  'x, y, z'
loop_
 _atom_site_type_symbol
 _atom_site_label
 _atom_site_symmetry_multiplicity
 _atom_site_fract_x
 _atom_site_fract_y
 _atom_site_fract_z
 _atom_site_occupancy
  Dy  Dy0  1  0.321499  0.678085  0.065900  1
  Dy  Dy1  1  0.360739  0.967169  0.749963  1
  Y  Y2  1  0.861827  0.531792  0.250152  1
  Y  Y3  1  0.639117  0.032215  0.250054  1
  Y  Y4  1  0.138550  0.467942  0.749903  1
  Ho  Ho5  1  0.178963  0.177587  0.434051  1
  Ho  Ho6  1  0.678132  0.321977  0.566568  1
  Ho  Ho7  1  0.820808  0.822395  0.933458  1
  Ho  Ho8  1  0.678247  0.322011  0.933389  1
  Ho  Ho9  1  0.820748  0.822320  0.566417  1
  Ho  Ho10  1  0.321542  0.678047  0.434126  1
  Ho  Ho11  1  0.178840  0.177645  0.065940  1
  Ni  Ni12  1  0.057433  0.891646  0.250105  1
  Ni  Ni13  1  0.443141  0.391626  0.250110  1
  Ni  Ni14  1  0.944531  0.107984  0.749994  1
  Ni  Ni15  1  0.555883  0.609559  0.749870  1
