# generated using pymatgen
data_Nd16Lu4Ir11Rh
_symmetry_space_group_name_H-M   'P 1'
_cell_length_a   11.16990900
_cell_length_b   11.16990900
_cell_length_c   6.51804600
_cell_angle_alpha   90.00000000
_cell_angle_beta   90.00000000
_cell_angle_gamma   90.00000000
_symmetry_Int_Tables_number   1
_chemical_formula_structural   Nd16Lu4Ir11Rh
_chemical_formula_sum   'Nd16 Lu4 Ir11 Rh1'
_cell_volume   813.23617883
_cell_formula_units_Z   1
loop_
 _symmetry_equiv_pos_site_id
 _symmetry_equiv_pos_as_xyz
  1  'x, y, z'
loop_
 _atom_site_type_symbol
 _atom_site_label
 _atom_site_symmetry_multiplicity
 _atom_site_fract_x
 _atom_site_fract_y
 _atom_site_fract_z
 _atom_site_occupancy
  Nd  Nd0  1  0.087583  0.288055  0.116569  1
  Nd  Nd1  1  0.788055  0.412417  0.116569  1
  Nd  Nd2  1  0.211945  0.587583  0.116569  1
  Nd  Nd3  1  0.912417  0.711945  0.116569  1
  Nd  Nd4  1  0.412275  0.788196  0.382380  1
  Nd  Nd5  1  0.587725  0.211804  0.382380  1
  Nd  Nd6  1  0.288196  0.087725  0.382380  1
  Nd  Nd7  1  0.711804  0.912275  0.382380  1
  Nd  Nd8  1  0.412389  0.211746  0.882360  1
  Nd  Nd9  1  0.711746  0.087611  0.882360  1
  Nd  Nd10  1  0.288254  0.912389  0.882360  1
  Nd  Nd11  1  0.587611  0.788254  0.882360  1
  Nd  Nd12  1  0.087710  0.712120  0.618146  1
  Nd  Nd13  1  0.912290  0.287880  0.618146  1
  Nd  Nd14  1  0.212120  0.412290  0.618146  1
  Nd  Nd15  1  0.787880  0.587710  0.618146  1
  Lu  Lu16  1  0.000000  0.000000  0.999907  1
  Lu  Lu17  1  0.500000  0.500000  0.999907  1
  Lu  Lu18  1  0.500000  0.500000  0.499892  1
  Lu  Lu19  1  0.000000  0.000000  0.499892  1
  Ir  Ir20  1  0.146680  0.852701  0.250278  1
  Ir  Ir21  1  0.352701  0.353320  0.250278  1
  Ir  Ir22  1  0.647299  0.646680  0.250278  1
  Ir  Ir23  1  0.853320  0.147299  0.250278  1
  Ir  Ir24  1  0.352895  0.646805  0.750353  1
  Ir  Ir25  1  0.146805  0.147105  0.750353  1
  Ir  Ir26  1  0.853195  0.852895  0.750353  1
  Ir  Ir27  1  0.647105  0.353195  0.750353  1
  Ir  Ir28  1  0.500000  0.000000  0.121234  1
  Ir  Ir29  1  0.500000  0.000000  0.621228  1
  Ir  Ir30  1  0.000000  0.500000  0.878417  1
  Rh  Rh31  1  0.000000  0.500000  0.379179  1
