# generated using pymatgen
data_HoEr11Tc4
_symmetry_space_group_name_H-M   'P 1'
_cell_length_a   6.18477259
_cell_length_b   7.34310071
_cell_length_c   9.08260200
_cell_angle_alpha   90.00000000
_cell_angle_beta   90.00000000
_cell_angle_gamma   90.00023416
_symmetry_Int_Tables_number   1
_chemical_formula_structural   HoEr11Tc4
_chemical_formula_sum   'Ho1 Er11 Tc4'
_cell_volume   412.49007509
_cell_formula_units_Z   1
loop_
 _symmetry_equiv_pos_site_id
 _symmetry_equiv_pos_as_xyz
  1  'x, y, z'
loop_
 _atom_site_type_symbol
 _atom_site_label
 _atom_site_symmetry_multiplicity
 _atom_site_fract_x
 _atom_site_fract_y
 _atom_site_fract_z
 _atom_site_occupancy
  Ho  Ho0  1  0.873046  0.538963  0.250000  1
  Er  Er1  1  0.337196  0.675578  0.061851  1
  Er  Er2  1  0.163176  0.175574  0.438087  1
  Er  Er3  1  0.662906  0.324284  0.562133  1
  Er  Er4  1  0.837028  0.824578  0.937909  1
  Er  Er5  1  0.662906  0.324284  0.937867  1
  Er  Er6  1  0.837028  0.824578  0.562091  1
  Er  Er7  1  0.337196  0.675578  0.438149  1
  Er  Er8  1  0.163176  0.175574  0.061913  1
  Er  Er9  1  0.627559  0.039152  0.250000  1
  Er  Er10  1  0.127054  0.461101  0.750000  1
  Er  Er11  1  0.372402  0.960770  0.750000  1
  Tc  Tc12  1  0.042707  0.885530  0.250000  1
  Tc  Tc13  1  0.457036  0.385223  0.250000  1
  Tc  Tc14  1  0.957151  0.114647  0.750000  1
  Tc  Tc15  1  0.542436  0.614586  0.750000  1
