# generated using pymatgen
data_Ta3Nb3C5
_symmetry_space_group_name_H-M   'P 1'
_cell_length_a   5.50499005
_cell_length_b   5.50621942
_cell_length_c   5.48201929
_cell_angle_alpha   80.40123452
_cell_angle_beta   80.20713967
_cell_angle_gamma   120.21384860
_symmetry_Int_Tables_number   1
_chemical_formula_structural   Ta3Nb3C5
_chemical_formula_sum   'Ta3 Nb3 C5'
_cell_volume   135.14798538
_cell_formula_units_Z   1
loop_
 _symmetry_equiv_pos_site_id
 _symmetry_equiv_pos_as_xyz
  1  'x, y, z'
loop_
 _atom_site_type_symbol
 _atom_site_label
 _atom_site_symmetry_multiplicity
 _atom_site_fract_x
 _atom_site_fract_y
 _atom_site_fract_z
 _atom_site_occupancy
  Ta  Ta0  1  0.736880  0.737805  0.736319  1
  Ta  Ta1  1  0.262780  0.260864  0.263429  1
  Ta  Ta2  1  0.081463  0.434678  0.746280  1
  Nb  Nb3  1  0.567916  0.918889  0.252285  1
  Nb  Nb4  1  0.917955  0.566789  0.253587  1
  Nb  Nb5  1  0.433312  0.081904  0.746804  1
  C  C6  1  0.496746  0.499405  0.501520  1
  C  C7  1  0.664932  0.339771  0.998157  1
  C  C8  1  0.336153  0.659990  0.998593  1
  C  C9  1  0.838344  0.165715  0.501621  1
  C  C10  1  0.163518  0.834190  0.501404  1
