# generated using pymatgen
data_Na4ThSbBr12
_symmetry_space_group_name_H-M   'P 1'
_cell_length_a   7.37931400
_cell_length_b   7.37931453
_cell_length_c   13.90037000
_cell_angle_alpha   90.00000000
_cell_angle_beta   90.00000000
_cell_angle_gamma   119.99999762
_symmetry_Int_Tables_number   1
_chemical_formula_structural   Na4ThSbBr12
_chemical_formula_sum   'Na4 Th1 Sb1 Br12'
_cell_volume   655.52463139
_cell_formula_units_Z   1
loop_
 _symmetry_equiv_pos_site_id
 _symmetry_equiv_pos_as_xyz
  1  'x, y, z'
loop_
 _atom_site_type_symbol
 _atom_site_label
 _atom_site_symmetry_multiplicity
 _atom_site_fract_x
 _atom_site_fract_y
 _atom_site_fract_z
 _atom_site_occupancy
  Na  Na0  1  0.000000  0.000000  0.750000  1
  Na  Na1  1  0.666667  0.333333  0.750000  1
  Na  Na2  1  0.333333  0.666667  0.250000  1
  Na  Na3  1  0.000000  0.000000  0.250000  1
  Th  Th4  1  0.666667  0.333333  0.250000  1
  Sb  Sb5  1  0.333333  0.666667  0.750000  1
  Br  Br6  1  0.031807  0.365059  0.636910  1
  Br  Br7  1  0.333253  0.968193  0.636910  1
  Br  Br8  1  0.634941  0.666747  0.636910  1
  Br  Br9  1  0.634941  0.968193  0.863090  1
  Br  Br10  1  0.333253  0.365059  0.863090  1
  Br  Br11  1  0.031807  0.666747  0.863090  1
  Br  Br12  1  0.984781  0.333155  0.133001  1
  Br  Br13  1  0.348373  0.015219  0.133001  1
  Br  Br14  1  0.666845  0.651627  0.133001  1
  Br  Br15  1  0.666845  0.015219  0.366999  1
  Br  Br16  1  0.348373  0.333155  0.366999  1
  Br  Br17  1  0.984781  0.651627  0.366999  1
