# generated using pymatgen
data_Dy3Cd3Sn2Pt
_symmetry_space_group_name_H-M   'P 1'
_cell_length_a   7.42937400
_cell_length_b   7.42937396
_cell_length_c   4.55893200
_cell_angle_alpha   90.00000000
_cell_angle_beta   90.00000000
_cell_angle_gamma   120.00000906
_symmetry_Int_Tables_number   1
_chemical_formula_structural   Dy3Cd3Sn2Pt
_chemical_formula_sum   'Dy3 Cd3 Sn2 Pt1'
_cell_volume   217.92053055
_cell_formula_units_Z   1
loop_
 _symmetry_equiv_pos_site_id
 _symmetry_equiv_pos_as_xyz
  1  'x, y, z'
loop_
 _atom_site_type_symbol
 _atom_site_label
 _atom_site_symmetry_multiplicity
 _atom_site_fract_x
 _atom_site_fract_y
 _atom_site_fract_z
 _atom_site_occupancy
  Dy  Dy0  1  0.604625  0.000000  0.000000  1
  Dy  Dy1  1  0.000000  0.604625  0.000000  1
  Dy  Dy2  1  0.395375  0.395375  0.000000  1
  Cd  Cd3  1  0.235687  0.000000  0.500000  1
  Cd  Cd4  1  0.000000  0.235687  0.500000  1
  Cd  Cd5  1  0.764313  0.764313  0.500000  1
  Sn  Sn6  1  0.333333  0.666667  0.500000  1
  Sn  Sn7  1  0.666667  0.333333  0.500000  1
  Pt  Pt8  1  0.000000  0.000000  0.000000  1
