# generated using pymatgen
data_Tl3Cd2In(SeO3)8
_symmetry_space_group_name_H-M   'P 1'
_cell_length_a   5.01617154
_cell_length_b   8.93199865
_cell_length_c   16.50203402
_cell_angle_alpha   70.04602164
_cell_angle_beta   90.44501765
_cell_angle_gamma   90.22478594
_symmetry_Int_Tables_number   1
_chemical_formula_structural   Tl3Cd2In(SeO3)8
_chemical_formula_sum   'Tl3 Cd2 In1 Se8 O24'
_cell_volume   694.95651964
_cell_formula_units_Z   1
loop_
 _symmetry_equiv_pos_site_id
 _symmetry_equiv_pos_as_xyz
  1  'x, y, z'
loop_
 _atom_site_type_symbol
 _atom_site_label
 _atom_site_symmetry_multiplicity
 _atom_site_fract_x
 _atom_site_fract_y
 _atom_site_fract_z
 _atom_site_occupancy
  Tl  Tl0  1  0.527699  0.157424  0.786292  1
  Tl  Tl1  1  0.970080  0.158931  0.286271  1
  Tl  Tl2  1  0.470489  0.840949  0.213718  1
  Cd  Cd3  1  0.998650  0.999294  0.999356  1
  Cd  Cd4  1  0.504216  0.999438  0.501078  1
  In  In5  1  0.028052  0.846532  0.712946  1
  Se  Se6  1  0.561956  0.780260  0.879431  1
  Se  Se7  1  0.939480  0.781180  0.384448  1
  Se  Se8  1  0.437458  0.219346  0.115917  1
  Se  Se9  1  0.059925  0.212512  0.617027  1
  Se  Se10  1  0.002873  0.350140  0.868366  1
  Se  Se11  1  0.498769  0.350040  0.369066  1
  Se  Se12  1  0.996138  0.649680  0.131001  1
  Se  Se13  1  0.501583  0.653449  0.635023  1
  O  O14  1  0.771960  0.363057  0.787206  1
  O  O15  1  0.727095  0.363201  0.288217  1
  O  O16  1  0.226912  0.635811  0.212381  1
  O  O17  1  0.263765  0.650517  0.711392  1
  O  O18  1  0.818346  0.719389  0.830123  1
  O  O19  1  0.686804  0.708811  0.337395  1
  O  O20  1  0.186479  0.290346  0.162730  1
  O  O21  1  0.311197  0.287773  0.662889  1
  O  O22  1  0.195062  0.180088  0.874662  1
  O  O23  1  0.304600  0.180131  0.375066  1
  O  O24  1  0.804397  0.819794  0.125012  1
  O  O25  1  0.706059  0.820269  0.629021  1
  O  O26  1  0.685571  0.944292  0.902340  1
  O  O27  1  0.809552  0.946123  0.403916  1
  O  O28  1  0.308019  0.054022  0.095953  1
  O  O29  1  0.193359  0.045201  0.600346  1
  O  O30  1  0.358826  0.901642  0.795362  1
  O  O31  1  0.130970  0.903260  0.298067  1
  O  O32  1  0.631548  0.096797  0.202268  1
  O  O33  1  0.871614  0.089767  0.704374  1
  O  O34  1  0.841578  0.256742  0.962805  1
  O  O35  1  0.660826  0.255918  0.464144  1
  O  O36  1  0.157999  0.743130  0.036614  1
  O  O37  1  0.350097  0.744741  0.537776  1
