# generated using pymatgen
data_Th3Al3IrPt2
_symmetry_space_group_name_H-M   'P 1'
_cell_length_a   7.31240500
_cell_length_b   7.31240482
_cell_length_c   4.14988900
_cell_angle_alpha   90.00000000
_cell_angle_beta   90.00000000
_cell_angle_gamma   120.00000532
_symmetry_Int_Tables_number   1
_chemical_formula_structural   Th3Al3IrPt2
_chemical_formula_sum   'Th3 Al3 Ir1 Pt2'
_cell_volume   192.17086822
_cell_formula_units_Z   1
loop_
 _symmetry_equiv_pos_site_id
 _symmetry_equiv_pos_as_xyz
  1  'x, y, z'
loop_
 _atom_site_type_symbol
 _atom_site_label
 _atom_site_symmetry_multiplicity
 _atom_site_fract_x
 _atom_site_fract_y
 _atom_site_fract_z
 _atom_site_occupancy
  Th  Th0  1  0.423230  0.005282  0.500000  1
  Th  Th1  1  0.994718  0.417948  0.500000  1
  Th  Th2  1  0.582052  0.576770  0.500000  1
  Al  Al3  1  0.768093  0.002218  0.000000  1
  Al  Al4  1  0.997782  0.765875  0.000000  1
  Al  Al5  1  0.234125  0.231907  0.000000  1
  Ir  Ir6  1  0.666667  0.333333  0.000000  1
  Pt  Pt7  1  0.333333  0.666667  0.000000  1
  Pt  Pt8  1  0.000000  0.000000  0.500000  1
