# generated using pymatgen
data_Pr5Lu(BiO7)2
_symmetry_space_group_name_H-M   'P 1'
_cell_length_a   6.73030852
_cell_length_b   6.75982660
_cell_length_c   7.94040551
_cell_angle_alpha   106.93500822
_cell_angle_beta   89.85171022
_cell_angle_gamma   98.77219851
_symmetry_Int_Tables_number   1
_chemical_formula_structural   Pr5Lu(BiO7)2
_chemical_formula_sum   'Pr5 Lu1 Bi2 O14'
_cell_volume   341.21187922
_cell_formula_units_Z   1
loop_
 _symmetry_equiv_pos_site_id
 _symmetry_equiv_pos_as_xyz
  1  'x, y, z'
loop_
 _atom_site_type_symbol
 _atom_site_label
 _atom_site_symmetry_multiplicity
 _atom_site_fract_x
 _atom_site_fract_y
 _atom_site_fract_z
 _atom_site_occupancy
  Pr  Pr0  1  0.539503  0.994539  0.746288  1
  Pr  Pr1  1  0.266361  0.541039  0.885031  1
  Pr  Pr2  1  0.729589  0.463646  0.118858  1
  Pr  Pr3  1  0.736088  0.474017  0.610339  1
  Pr  Pr4  1  0.258244  0.517946  0.378219  1
  Lu  Lu5  1  0.464038  0.004474  0.252917  1
  Bi  Bi6  1  0.001619  0.000444  0.497126  1
  Bi  Bi7  1  0.001303  0.000802  0.004908  1
  O  O8  1  0.446097  0.663329  0.172279  1
  O  O9  1  0.556038  0.356565  0.834783  1
  O  O10  1  0.303333  0.935071  0.965194  1
  O  O11  1  0.701673  0.064885  0.056211  1
  O  O12  1  0.298999  0.933240  0.502374  1
  O  O13  1  0.703631  0.063695  0.473197  1
  O  O14  1  0.538543  0.345115  0.337836  1
  O  O15  1  0.447113  0.634179  0.650670  1
  O  O16  1  0.927404  0.672823  0.953198  1
  O  O17  1  0.072830  0.330359  0.051837  1
  O  O18  1  0.064599  0.336838  0.616257  1
  O  O19  1  0.924727  0.660011  0.389707  1
  O  O20  1  0.891732  0.923727  0.730810  1
  O  O21  1  0.126536  0.083254  0.271962  1
