# generated using pymatgen
data_Nd2Dy3Er(RuO7)2
_symmetry_space_group_name_H-M   'P 1'
_cell_length_a   6.44489153
_cell_length_b   6.44475166
_cell_length_c   7.50031500
_cell_angle_alpha   90.00000000
_cell_angle_beta   90.00000000
_cell_angle_gamma   110.02981693
_symmetry_Int_Tables_number   1
_chemical_formula_structural   Nd2Dy3Er(RuO7)2
_chemical_formula_sum   'Nd2 Dy3 Er1 Ru2 O14'
_cell_volume   292.68791610
_cell_formula_units_Z   1
loop_
 _symmetry_equiv_pos_site_id
 _symmetry_equiv_pos_as_xyz
  1  'x, y, z'
loop_
 _atom_site_type_symbol
 _atom_site_label
 _atom_site_symmetry_multiplicity
 _atom_site_fract_x
 _atom_site_fract_y
 _atom_site_fract_z
 _atom_site_occupancy
  Nd  Nd0  1  0.000455  0.000028  0.499679  1
  Nd  Nd1  1  0.000455  0.000028  0.000321  1
  Dy  Dy2  1  0.482510  0.930274  0.750000  1
  Dy  Dy3  1  0.517870  0.069279  0.250000  1
  Dy  Dy4  1  0.930221  0.482344  0.750000  1
  Er  Er5  1  0.066736  0.516680  0.250000  1
  Ru  Ru6  1  0.499856  0.500320  0.499636  1
  Ru  Ru7  1  0.499856  0.500320  0.000364  1
  O  O8  1  0.588991  0.588445  0.750000  1
  O  O9  1  0.409534  0.411472  0.250000  1
  O  O10  1  0.839578  0.117320  0.750000  1
  O  O11  1  0.161324  0.879294  0.250000  1
  O  O12  1  0.117195  0.838897  0.750000  1
  O  O13  1  0.884080  0.162950  0.250000  1
  O  O14  1  0.439238  0.181303  0.963325  1
  O  O15  1  0.561836  0.819248  0.463355  1
  O  O16  1  0.181199  0.441556  0.964920  1
  O  O17  1  0.818397  0.559067  0.461978  1
  O  O18  1  0.439238  0.181303  0.536675  1
  O  O19  1  0.561836  0.819248  0.036645  1
  O  O20  1  0.818397  0.559067  0.038022  1
  O  O21  1  0.181199  0.441556  0.535080  1
