# generated using pymatgen
data_Na3DyCo4(P3Rh4)4
_symmetry_space_group_name_H-M   'P 1'
_cell_length_a   3.78617600
_cell_length_b   10.74194295
_cell_length_c   12.39755083
_cell_angle_alpha   90.26686382
_cell_angle_beta   90.00000000
_cell_angle_gamma   90.00000000
_symmetry_Int_Tables_number   1
_chemical_formula_structural   Na3DyCo4(P3Rh4)4
_chemical_formula_sum   'Na3 Dy1 Co4 P12 Rh16'
_cell_volume   504.21391446
_cell_formula_units_Z   1
loop_
 _symmetry_equiv_pos_site_id
 _symmetry_equiv_pos_as_xyz
  1  'x, y, z'
loop_
 _atom_site_type_symbol
 _atom_site_label
 _atom_site_symmetry_multiplicity
 _atom_site_fract_x
 _atom_site_fract_y
 _atom_site_fract_z
 _atom_site_occupancy
  Na  Na0  1  0.250000  0.584543  0.708789  1
  Na  Na1  1  0.250000  0.914981  0.208074  1
  Na  Na2  1  0.750000  0.415024  0.291769  1
  Dy  Dy3  1  0.750000  0.085141  0.792824  1
  Co  Co4  1  0.250000  0.466012  0.934363  1
  Co  Co5  1  0.250000  0.034879  0.434336  1
  Co  Co6  1  0.750000  0.534401  0.065746  1
  Co  Co7  1  0.750000  0.962942  0.566540  1
  P  P8  1  0.250000  0.424373  0.105739  1
  P  P9  1  0.250000  0.074585  0.605287  1
  P  P10  1  0.750000  0.576275  0.894352  1
  P  P11  1  0.750000  0.925818  0.393473  1
  P  P12  1  0.250000  0.275060  0.872329  1
  P  P13  1  0.250000  0.228355  0.372876  1
  P  P14  1  0.750000  0.727959  0.127243  1
  P  P15  1  0.750000  0.769157  0.626277  1
  P  P16  1  0.250000  0.600133  0.388716  1
  P  P17  1  0.250000  0.898353  0.889623  1
  P  P18  1  0.750000  0.401363  0.609898  1
  P  P19  1  0.750000  0.100547  0.113218  1
  Rh  Rh20  1  0.250000  0.715008  0.987557  1
  Rh  Rh21  1  0.250000  0.784147  0.489488  1
  Rh  Rh22  1  0.750000  0.283322  0.011617  1
  Rh  Rh23  1  0.750000  0.214631  0.513938  1
  Rh  Rh24  1  0.250000  0.407749  0.485734  1
  Rh  Rh25  1  0.250000  0.093389  0.981341  1
  Rh  Rh26  1  0.750000  0.591161  0.513807  1
  Rh  Rh27  1  0.750000  0.909721  0.016362  1
  Rh  Rh28  1  0.250000  0.227788  0.177789  1
  Rh  Rh29  1  0.250000  0.268435  0.679151  1
  Rh  Rh30  1  0.750000  0.771469  0.820312  1
  Rh  Rh31  1  0.750000  0.730203  0.321460  1
  Rh  Rh32  1  0.250000  0.887800  0.699066  1
  Rh  Rh33  1  0.250000  0.613489  0.199583  1
  Rh  Rh34  1  0.750000  0.114516  0.301691  1
  Rh  Rh35  1  0.750000  0.387269  0.799629  1
