# generated using pymatgen
data_Ca5Si12Ir19
_symmetry_space_group_name_H-M   'P 1'
_cell_length_a   12.82575500
_cell_length_b   12.82575605
_cell_length_c   4.02107000
_cell_angle_alpha   90.00000000
_cell_angle_beta   90.00000000
_cell_angle_gamma   120.00000503
_symmetry_Int_Tables_number   1
_chemical_formula_structural   Ca5Si12Ir19
_chemical_formula_sum   'Ca5 Si12 Ir19'
_cell_volume   572.84636041
_cell_formula_units_Z   1
loop_
 _symmetry_equiv_pos_site_id
 _symmetry_equiv_pos_as_xyz
  1  'x, y, z'
loop_
 _atom_site_type_symbol
 _atom_site_label
 _atom_site_symmetry_multiplicity
 _atom_site_fract_x
 _atom_site_fract_y
 _atom_site_fract_z
 _atom_site_occupancy
  Ca  Ca0  1  0.000000  0.180757  0.500000  1
  Ca  Ca1  1  0.819243  0.819243  0.500000  1
  Ca  Ca2  1  0.180757  0.000000  0.500000  1
  Ca  Ca3  1  0.666667  0.333333  0.000000  1
  Ca  Ca4  1  0.333333  0.666667  0.000000  1
  Si  Si5  1  0.480094  0.312560  0.500000  1
  Si  Si6  1  0.816888  0.000000  0.000000  1
  Si  Si7  1  0.183112  0.183112  0.000000  1
  Si  Si8  1  0.000000  0.816888  0.000000  1
  Si  Si9  1  0.368596  0.000000  0.000000  1
  Si  Si10  1  0.687440  0.167535  0.500000  1
  Si  Si11  1  0.832465  0.519906  0.500000  1
  Si  Si12  1  0.519906  0.832465  0.500000  1
  Si  Si13  1  0.167535  0.687440  0.500000  1
  Si  Si14  1  0.312560  0.480094  0.500000  1
  Si  Si15  1  0.000000  0.368596  0.000000  1
  Si  Si16  1  0.631404  0.631404  0.000000  1
  Ir  Ir17  1  0.804972  0.183673  0.000000  1
  Ir  Ir18  1  0.378700  0.195028  0.000000  1
  Ir  Ir19  1  0.639362  0.513790  0.500000  1
  Ir  Ir20  1  0.874428  0.360638  0.500000  1
  Ir  Ir21  1  0.360638  0.874428  0.500000  1
  Ir  Ir22  1  0.513790  0.639362  0.500000  1
  Ir  Ir23  1  0.125572  0.486210  0.500000  1
  Ir  Ir24  1  0.816327  0.621300  0.000000  1
  Ir  Ir25  1  0.621300  0.816327  0.000000  1
  Ir  Ir26  1  0.183673  0.804972  0.000000  1
  Ir  Ir27  1  0.195028  0.378700  0.000000  1
  Ir  Ir28  1  0.000000  0.716107  0.500000  1
  Ir  Ir29  1  0.283893  0.283893  0.500000  1
  Ir  Ir30  1  0.716107  0.000000  0.500000  1
  Ir  Ir31  1  0.000000  0.552127  0.000000  1
  Ir  Ir32  1  0.447873  0.447873  0.000000  1
  Ir  Ir33  1  0.552127  0.000000  0.000000  1
  Ir  Ir34  1  0.000000  0.000000  0.000000  1
  Ir  Ir35  1  0.486210  0.125572  0.500000  1
