# generated using pymatgen
data_Th3Ta(Ga3Pd)8
_symmetry_space_group_name_H-M   'P 1'
_cell_length_a   8.58057780
_cell_length_b   8.58057752
_cell_length_c   8.58057726
_cell_angle_alpha   89.59226766
_cell_angle_beta   89.59227677
_cell_angle_gamma   89.59227544
_symmetry_Int_Tables_number   1
_chemical_formula_structural   Th3Ta(Ga3Pd)8
_chemical_formula_sum   'Th3 Ta1 Ga24 Pd8'
_cell_volume   631.70850536
_cell_formula_units_Z   1
loop_
 _symmetry_equiv_pos_site_id
 _symmetry_equiv_pos_as_xyz
  1  'x, y, z'
loop_
 _atom_site_type_symbol
 _atom_site_label
 _atom_site_symmetry_multiplicity
 _atom_site_fract_x
 _atom_site_fract_y
 _atom_site_fract_z
 _atom_site_occupancy
  Th  Th0  1  0.000000  0.500000  0.000000  1
  Th  Th1  1  0.500000  0.000000  0.000000  1
  Th  Th2  1  0.000000  0.000000  0.500000  1
  Ta  Ta3  1  0.500000  0.500000  0.500000  1
  Ga  Ga4  1  0.989232  0.643198  0.643198  1
  Ga  Ga5  1  0.643198  0.643198  0.989232  1
  Ga  Ga6  1  0.643198  0.989232  0.643198  1
  Ga  Ga7  1  0.010768  0.356802  0.356802  1
  Ga  Ga8  1  0.356802  0.356802  0.010768  1
  Ga  Ga9  1  0.356802  0.010768  0.356802  1
  Ga  Ga10  1  0.734183  0.500000  0.265817  1
  Ga  Ga11  1  0.265817  0.500000  0.734183  1
  Ga  Ga12  1  0.500000  0.265817  0.734183  1
  Ga  Ga13  1  0.500000  0.734183  0.265817  1
  Ga  Ga14  1  0.265817  0.734183  0.500000  1
  Ga  Ga15  1  0.734183  0.265817  0.500000  1
  Ga  Ga16  1  0.838328  0.142701  0.838328  1
  Ga  Ga17  1  0.142701  0.838328  0.838328  1
  Ga  Ga18  1  0.838328  0.838328  0.142701  1
  Ga  Ga19  1  0.161672  0.857299  0.161672  1
  Ga  Ga20  1  0.857299  0.161672  0.161672  1
  Ga  Ga21  1  0.161672  0.161672  0.857299  1
  Ga  Ga22  1  0.728983  0.491345  0.728983  1
  Ga  Ga23  1  0.491345  0.728983  0.728983  1
  Ga  Ga24  1  0.728983  0.728983  0.491345  1
  Ga  Ga25  1  0.271017  0.508655  0.271017  1
  Ga  Ga26  1  0.508655  0.271017  0.271017  1
  Ga  Ga27  1  0.271017  0.271017  0.508655  1
  Pd  Pd28  1  0.838341  0.838341  0.838341  1
  Pd  Pd29  1  0.161659  0.161659  0.161659  1
  Pd  Pd30  1  0.665618  0.334382  0.000000  1
  Pd  Pd31  1  0.000000  0.334382  0.665618  1
  Pd  Pd32  1  0.334382  0.000000  0.665618  1
  Pd  Pd33  1  0.334382  0.665618  0.000000  1
  Pd  Pd34  1  0.000000  0.665618  0.334382  1
  Pd  Pd35  1  0.665618  0.000000  0.334382  1
