# generated using pymatgen
data_Ba3LuMn2O9
_symmetry_space_group_name_H-M   'P 1'
_cell_length_a   5.87112703
_cell_length_b   5.87112624
_cell_length_c   14.34337800
_cell_angle_alpha   90.00000000
_cell_angle_beta   90.00000000
_cell_angle_gamma   59.97684555
_symmetry_Int_Tables_number   1
_chemical_formula_structural   Ba3LuMn2O9
_chemical_formula_sum   'Ba6 Lu2 Mn4 O18'
_cell_volume   428.07867603
_cell_formula_units_Z   2
loop_
 _symmetry_equiv_pos_site_id
 _symmetry_equiv_pos_as_xyz
  1  'x, y, z'
loop_
 _atom_site_type_symbol
 _atom_site_label
 _atom_site_symmetry_multiplicity
 _atom_site_fract_x
 _atom_site_fract_y
 _atom_site_fract_z
 _atom_site_occupancy
  Ba  Ba0  1  0.332411  0.332411  0.911742  1
  Ba  Ba1  1  0.667589  0.667589  0.411742  1
  Ba  Ba2  1  0.665837  0.665837  0.099717  1
  Ba  Ba3  1  0.334163  0.334163  0.599716  1
  Ba  Ba4  1  0.999873  0.999873  0.755744  1
  Ba  Ba5  1  0.000127  0.000127  0.255744  1
  Lu  Lu6  1  0.998946  0.998946  0.005744  1
  Lu  Lu7  1  0.001055  0.001055  0.505745  1
  Mn  Mn8  1  0.665850  0.665850  0.847355  1
  Mn  Mn9  1  0.334150  0.334150  0.347356  1
  Mn  Mn10  1  0.332580  0.332580  0.164125  1
  Mn  Mn11  1  0.667420  0.667420  0.664126  1
  O  O12  1  0.521866  0.521866  0.755184  1
  O  O13  1  0.478135  0.478135  0.255185  1
  O  O14  1  0.521793  0.956232  0.756021  1
  O  O15  1  0.478207  0.043769  0.256021  1
  O  O16  1  0.956232  0.521793  0.756021  1
  O  O17  1  0.043769  0.478207  0.256021  1
  O  O18  1  0.647426  0.174428  0.092877  1
  O  O19  1  0.352574  0.825573  0.592877  1
  O  O20  1  0.174428  0.647426  0.092877  1
  O  O21  1  0.825573  0.352574  0.592877  1
  O  O22  1  0.349966  0.823100  0.918222  1
  O  O23  1  0.650035  0.176900  0.418221  1
  O  O24  1  0.823100  0.349966  0.918222  1
  O  O25  1  0.176900  0.650035  0.418221  1
  O  O26  1  0.174369  0.174369  0.093459  1
  O  O27  1  0.825630  0.825630  0.593459  1
  O  O28  1  0.823040  0.823040  0.918791  1
  O  O29  1  0.176960  0.176960  0.418790  1
