# generated using pymatgen
data_CaTbTm2(ReN3)4
_symmetry_space_group_name_H-M   'P 1'
_cell_length_a   7.33987464
_cell_length_b   7.33987474
_cell_length_c   6.24213041
_cell_angle_alpha   73.62699423
_cell_angle_beta   73.62700418
_cell_angle_gamma   82.70193973
_symmetry_Int_Tables_number   1
_chemical_formula_structural   CaTbTm2(ReN3)4
_chemical_formula_sum   'Ca1 Tb1 Tm2 Re4 N12'
_cell_volume   309.15152287
_cell_formula_units_Z   1
loop_
 _symmetry_equiv_pos_site_id
 _symmetry_equiv_pos_as_xyz
  1  'x, y, z'
loop_
 _atom_site_type_symbol
 _atom_site_label
 _atom_site_symmetry_multiplicity
 _atom_site_fract_x
 _atom_site_fract_y
 _atom_site_fract_z
 _atom_site_occupancy
  Ca  Ca0  1  0.705687  0.294313  0.250000  1
  Tb  Tb1  1  0.292345  0.707655  0.750000  1
  Tm  Tm2  1  0.909675  0.090325  0.750000  1
  Tm  Tm3  1  0.091143  0.908857  0.250000  1
  Re  Re4  1  0.622416  0.796256  0.270836  1
  Re  Re5  1  0.203744  0.377584  0.229164  1
  Re  Re6  1  0.378762  0.201049  0.729468  1
  Re  Re7  1  0.798951  0.621238  0.770532  1
  N  N8  1  0.340333  0.361676  0.930628  1
  N  N9  1  0.011986  0.213752  0.347603  1
  N  N10  1  0.786248  0.988014  0.152397  1
  N  N11  1  0.215398  0.004340  0.844776  1
  N  N12  1  0.655638  0.646984  0.062200  1
  N  N13  1  0.879634  0.376878  0.826279  1
  N  N14  1  0.125551  0.627633  0.162503  1
  N  N15  1  0.995660  0.784602  0.655224  1
  N  N16  1  0.372367  0.874449  0.337497  1
  N  N17  1  0.638324  0.659667  0.569372  1
  N  N18  1  0.623122  0.120366  0.673721  1
  N  N19  1  0.353016  0.344362  0.437800  1
