# generated using pymatgen
data_Nb8CuTe8P
_symmetry_space_group_name_H-M   'P 1'
_cell_length_a   4.84473500
_cell_length_b   11.10141800
_cell_length_c   19.40491500
_cell_angle_alpha   90.00000000
_cell_angle_beta   90.00000000
_cell_angle_gamma   90.00000000
_symmetry_Int_Tables_number   1
_chemical_formula_structural   Nb8CuTe8P
_chemical_formula_sum   'Nb16 Cu2 Te16 P2'
_cell_volume   1043.66285523
_cell_formula_units_Z   2
loop_
 _symmetry_equiv_pos_site_id
 _symmetry_equiv_pos_as_xyz
  1  'x, y, z'
loop_
 _atom_site_type_symbol
 _atom_site_label
 _atom_site_symmetry_multiplicity
 _atom_site_fract_x
 _atom_site_fract_y
 _atom_site_fract_z
 _atom_site_occupancy
  Nb  Nb0  1  0.498943  0.563336  0.385038  1
  Nb  Nb1  1  0.498943  0.436664  0.614962  1
  Nb  Nb2  1  0.501057  0.063336  0.114962  1
  Nb  Nb3  1  0.501057  0.936664  0.885038  1
  Nb  Nb4  1  0.498729  0.701702  0.536048  1
  Nb  Nb5  1  0.498729  0.298298  0.463952  1
  Nb  Nb6  1  0.501271  0.201702  0.963952  1
  Nb  Nb7  1  0.501271  0.798298  0.036048  1
  Nb  Nb8  1  0.001425  0.687341  0.444064  1
  Nb  Nb9  1  0.001425  0.312659  0.555936  1
  Nb  Nb10  1  0.998575  0.187341  0.055936  1
  Nb  Nb11  1  0.998575  0.812659  0.944064  1
  Nb  Nb12  1  0.000891  0.402415  0.393206  1
  Nb  Nb13  1  0.000891  0.597585  0.606794  1
  Nb  Nb14  1  0.999109  0.902415  0.106794  1
  Nb  Nb15  1  0.999109  0.097585  0.893206  1
  Cu  Cu16  1  0.250107  0.500000  0.500000  1
  Cu  Cu17  1  0.749893  0.000000  0.000000  1
  Te  Te18  1  0.005322  0.841907  0.561480  1
  Te  Te19  1  0.005322  0.158093  0.438520  1
  Te  Te20  1  0.994678  0.341907  0.938520  1
  Te  Te21  1  0.994678  0.658093  0.061480  1
  Te  Te22  1  0.494371  0.334633  0.318646  1
  Te  Te23  1  0.494371  0.665367  0.681354  1
  Te  Te24  1  0.505629  0.834633  0.181354  1
  Te  Te25  1  0.505629  0.165367  0.818646  1
  Te  Te26  1  0.494740  0.817799  0.404986  1
  Te  Te27  1  0.494740  0.182201  0.595014  1
  Te  Te28  1  0.505260  0.317799  0.095014  1
  Te  Te29  1  0.505260  0.682201  0.904986  1
  Te  Te30  1  0.005440  0.607145  0.304660  1
  Te  Te31  1  0.005440  0.392855  0.695340  1
  Te  Te32  1  0.994560  0.107145  0.195340  1
  Te  Te33  1  0.994560  0.892855  0.804660  1
  P  P34  1  0.750022  0.500000  0.500000  1
  P  P35  1  0.249978  0.000000  0.000000  1
