# generated using pymatgen
data_Ti4Nb4Co8Si13As
_symmetry_space_group_name_H-M   'P 1'
_cell_length_a   9.20942178
_cell_length_b   9.20948303
_cell_length_c   9.22684183
_cell_angle_alpha   94.20314466
_cell_angle_beta   94.20413083
_cell_angle_gamma   148.55105731
_symmetry_Int_Tables_number   1
_chemical_formula_structural   Ti4Nb4Co8Si13As
_chemical_formula_sum   'Ti4 Nb4 Co8 Si13 As1'
_cell_volume   393.07636749
_cell_formula_units_Z   1
loop_
 _symmetry_equiv_pos_site_id
 _symmetry_equiv_pos_as_xyz
  1  'x, y, z'
loop_
 _atom_site_type_symbol
 _atom_site_label
 _atom_site_symmetry_multiplicity
 _atom_site_fract_x
 _atom_site_fract_y
 _atom_site_fract_z
 _atom_site_occupancy
  Ti  Ti0  1  0.498820  0.691715  0.190529  1
  Ti  Ti1  1  0.502775  0.308073  0.810846  1
  Ti  Ti2  1  0.308072  0.502769  0.810856  1
  Ti  Ti3  1  0.691715  0.498805  0.190524  1
  Nb  Nb4  1  0.132449  0.132436  0.264922  1
  Nb  Nb5  1  0.867784  0.867765  0.735521  1
  Nb  Nb6  1  0.866560  0.133221  0.999782  1
  Nb  Nb7  1  0.133224  0.866558  0.999776  1
  Co  Co8  1  0.399148  0.899160  0.798307  1
  Co  Co9  1  0.101037  0.601054  0.202105  1
  Co  Co10  1  0.099270  0.897033  0.498668  1
  Co  Co11  1  0.399396  0.601637  0.498656  1
  Co  Co12  1  0.601635  0.399380  0.498658  1
  Co  Co13  1  0.897022  0.099274  0.498649  1
  Co  Co14  1  0.899154  0.399158  0.798306  1
  Co  Co15  1  0.601042  0.101050  0.202097  1
  Si  Si16  1  0.703728  0.703719  0.407386  1
  Si  Si17  1  0.707381  0.293167  0.000532  1
  Si  Si18  1  0.293142  0.707374  0.000540  1
  Si  Si19  1  0.999412  0.296235  0.295764  1
  Si  Si20  1  0.000234  0.702924  0.703230  1
  Si  Si21  1  0.703030  0.000335  0.703240  1
  Si  Si22  1  0.296330  0.999505  0.295777  1
  Si  Si23  1  0.499840  0.905701  0.405401  1
  Si  Si24  1  0.500564  0.093822  0.594319  1
  Si  Si25  1  0.093712  0.500475  0.594304  1
  Si  Si26  1  0.905571  0.499734  0.405398  1
  Si  Si27  1  0.748094  0.748081  0.000237  1
  Si  Si28  1  0.252154  0.252143  0.000245  1
  As  As29  1  0.297702  0.297695  0.595421  1
