# generated using pymatgen
data_Nd3SnPt3Pb2
_symmetry_space_group_name_H-M   'P 1'
_cell_length_a   7.74246500
_cell_length_b   7.78915027
_cell_length_c   4.14743500
_cell_angle_alpha   90.00000000
_cell_angle_beta   90.00000000
_cell_angle_gamma   119.80191693
_symmetry_Int_Tables_number   1
_chemical_formula_structural   Nd3SnPt3Pb2
_chemical_formula_sum   'Nd3 Sn1 Pt3 Pb2'
_cell_volume   217.04158694
_cell_formula_units_Z   1
loop_
 _symmetry_equiv_pos_site_id
 _symmetry_equiv_pos_as_xyz
  1  'x, y, z'
loop_
 _atom_site_type_symbol
 _atom_site_label
 _atom_site_symmetry_multiplicity
 _atom_site_fract_x
 _atom_site_fract_y
 _atom_site_fract_z
 _atom_site_occupancy
  Nd  Nd0  1  0.408574  0.405088  0.000000  1
  Nd  Nd1  1  0.590980  0.000000  0.000000  1
  Nd  Nd2  1  0.003486  0.594912  0.000000  1
  Sn  Sn3  1  0.255576  0.000000  0.500000  1
  Pt  Pt4  1  0.329180  0.675033  0.500000  1
  Pt  Pt5  1  0.014578  0.000000  0.000000  1
  Pt  Pt6  1  0.654148  0.324967  0.500000  1
  Pb  Pb7  1  0.999940  0.256403  0.500000  1
  Pb  Pb8  1  0.743536  0.743597  0.500000  1
