# generated using pymatgen
data_Ta4Ti3CuRu8
_symmetry_space_group_name_H-M   'P 1'
_cell_length_a   6.22786301
_cell_length_b   6.22918600
_cell_length_c   6.26703900
_cell_angle_alpha   90.00015613
_cell_angle_beta   90.00094483
_cell_angle_gamma   89.99755259
_symmetry_Int_Tables_number   1
_chemical_formula_structural   Ta4Ti3CuRu8
_chemical_formula_sum   'Ta4 Ti3 Cu1 Ru8'
_cell_volume   243.12675136
_cell_formula_units_Z   1
loop_
 _symmetry_equiv_pos_site_id
 _symmetry_equiv_pos_as_xyz
  1  'x, y, z'
loop_
 _atom_site_type_symbol
 _atom_site_label
 _atom_site_symmetry_multiplicity
 _atom_site_fract_x
 _atom_site_fract_y
 _atom_site_fract_z
 _atom_site_occupancy
  Ta  Ta0  1  0.749967  0.249994  0.000009  1
  Ta  Ta1  1  0.250041  0.750000  0.000005  1
  Ta  Ta2  1  0.250025  0.750002  0.500003  1
  Ta  Ta3  1  0.749984  0.249996  0.500000  1
  Ti  Ti4  1  0.250031  0.250003  0.499947  1
  Ti  Ti5  1  0.749972  0.749999  0.500040  1
  Ti  Ti6  1  0.249996  0.249999  0.999943  1
  Cu  Cu7  1  0.749977  0.750010  0.000015  1
  Ru  Ru8  1  0.002031  0.002088  0.251406  1
  Ru  Ru9  1  0.002027  0.497904  0.251400  1
  Ru  Ru10  1  0.497972  0.002098  0.251432  1
  Ru  Ru11  1  0.497979  0.497910  0.251428  1
  Ru  Ru12  1  0.497981  0.497910  0.748585  1
  Ru  Ru13  1  0.497977  0.002089  0.748578  1
  Ru  Ru14  1  0.002022  0.497921  0.748603  1
  Ru  Ru15  1  0.002020  0.002081  0.748604  1
