# generated using pymatgen
data_Sc8TiNb11Si15Sb
_symmetry_space_group_name_H-M   'P 1'
_cell_length_a   6.75437372
_cell_length_b   6.93331520
_cell_length_c   13.23855465
_cell_angle_alpha   89.86628485
_cell_angle_beta   90.41249267
_cell_angle_gamma   90.06120828
_symmetry_Int_Tables_number   1
_chemical_formula_structural   Sc8TiNb11Si15Sb
_chemical_formula_sum   'Sc8 Ti1 Nb11 Si15 Sb1'
_cell_volume   619.94609014
_cell_formula_units_Z   1
loop_
 _symmetry_equiv_pos_site_id
 _symmetry_equiv_pos_as_xyz
  1  'x, y, z'
loop_
 _atom_site_type_symbol
 _atom_site_label
 _atom_site_symmetry_multiplicity
 _atom_site_fract_x
 _atom_site_fract_y
 _atom_site_fract_z
 _atom_site_occupancy
  Sc  Sc0  1  0.494174  0.669603  0.598630  1
  Sc  Sc1  1  0.000679  0.826810  0.904346  1
  Sc  Sc2  1  0.499222  0.324346  0.092891  1
  Sc  Sc3  1  0.015913  0.184986  0.399476  1
  Sc  Sc4  1  0.496697  0.332755  0.402163  1
  Sc  Sc5  1  0.998065  0.172942  0.093987  1
  Sc  Sc6  1  0.501236  0.675265  0.905780  1
  Sc  Sc7  1  0.006704  0.818124  0.600978  1
  Ti  Ti8  1  0.654303  0.183725  0.631803  1
  Nb  Nb9  1  0.160440  0.324340  0.875946  1
  Nb  Nb10  1  0.336439  0.824325  0.123560  1
  Nb  Nb11  1  0.845594  0.660050  0.371215  1
  Nb  Nb12  1  0.334022  0.824992  0.374167  1
  Nb  Nb13  1  0.836506  0.673185  0.123584  1
  Nb  Nb14  1  0.662822  0.175282  0.875309  1
  Nb  Nb15  1  0.162358  0.328968  0.626744  1
  Nb  Nb16  1  0.834704  0.494244  0.750880  1
  Nb  Nb17  1  0.335116  0.004462  0.750464  1
  Nb  Nb18  1  0.164155  0.505313  0.249039  1
  Nb  Nb19  1  0.664574  0.992703  0.245729  1
  Si  Si20  1  0.167833  0.532192  0.038630  1
  Si  Si21  1  0.331712  0.031639  0.959537  1
  Si  Si22  1  0.828883  0.463227  0.540095  1
  Si  Si23  1  0.316496  0.035984  0.541554  1
  Si  Si24  1  0.831007  0.467680  0.960169  1
  Si  Si25  1  0.667508  0.966904  0.038279  1
  Si  Si26  1  0.171522  0.536255  0.463156  1
  Si  Si27  1  0.456148  0.385268  0.752893  1
  Si  Si28  1  0.956418  0.115048  0.749139  1
  Si  Si29  1  0.541734  0.615479  0.248762  1
  Si  Si30  1  0.041012  0.885923  0.248221  1
  Si  Si31  1  0.703891  0.865236  0.750523  1
  Si  Si32  1  0.203792  0.635719  0.753286  1
  Si  Si33  1  0.298054  0.136475  0.247717  1
  Si  Si34  1  0.795047  0.360299  0.246431  1
  Sb  Sb35  1  0.685221  0.970248  0.464918  1
