# generated using pymatgen
data_PrDy5Ti2(Al11Ru4)2
_symmetry_space_group_name_H-M   'P 1'
_cell_length_a   8.87304554
_cell_length_b   8.87304509
_cell_length_c   9.57321440
_cell_angle_alpha   90.02827416
_cell_angle_beta   89.97172434
_cell_angle_gamma   119.87508790
_symmetry_Int_Tables_number   1
_chemical_formula_structural   PrDy5Ti2(Al11Ru4)2
_chemical_formula_sum   'Pr1 Dy5 Ti2 Al22 Ru8'
_cell_volume   653.55029578
_cell_formula_units_Z   1
loop_
 _symmetry_equiv_pos_site_id
 _symmetry_equiv_pos_as_xyz
  1  'x, y, z'
loop_
 _atom_site_type_symbol
 _atom_site_label
 _atom_site_symmetry_multiplicity
 _atom_site_fract_x
 _atom_site_fract_y
 _atom_site_fract_z
 _atom_site_occupancy
  Pr  Pr0  1  0.808102  0.191898  0.750306  1
  Dy  Dy1  1  0.193738  0.387619  0.250326  1
  Dy  Dy2  1  0.806716  0.613641  0.749429  1
  Dy  Dy3  1  0.612381  0.806262  0.250326  1
  Dy  Dy4  1  0.386359  0.193284  0.749429  1
  Dy  Dy5  1  0.193379  0.806621  0.250492  1
  Ti  Ti6  1  0.333216  0.666784  0.996308  1
  Ti  Ti7  1  0.666157  0.333843  0.006083  1
  Al  Al8  1  0.665978  0.334022  0.515517  1
  Al  Al9  1  0.333108  0.666892  0.480968  1
  Al  Al10  1  0.163809  0.324499  0.574859  1
  Al  Al11  1  0.838509  0.677305  0.422776  1
  Al  Al12  1  0.675501  0.836191  0.574859  1
  Al  Al13  1  0.841249  0.681987  0.077678  1
  Al  Al14  1  0.322695  0.161491  0.422776  1
  Al  Al15  1  0.161292  0.319133  0.924556  1
  Al  Al16  1  0.161580  0.838420  0.575332  1
  Al  Al17  1  0.318013  0.158751  0.077678  1
  Al  Al18  1  0.838370  0.161630  0.420981  1
  Al  Al19  1  0.680867  0.838708  0.924556  1
  Al  Al20  1  0.840756  0.159244  0.080507  1
  Al  Al21  1  0.159094  0.840906  0.924185  1
  Al  Al22  1  0.560038  0.121463  0.252395  1
  Al  Al23  1  0.436277  0.875967  0.747439  1
  Al  Al24  1  0.878537  0.439962  0.252395  1
  Al  Al25  1  0.124033  0.563723  0.747439  1
  Al  Al26  1  0.560555  0.439445  0.252360  1
  Al  Al27  1  0.439430  0.560570  0.747486  1
  Al  Al28  1  0.999794  0.000206  0.250724  1
  Al  Al29  1  0.002439  0.997561  0.749491  1
  Ru  Ru30  1  0.497864  0.998479  0.001647  1
  Ru  Ru31  1  0.001521  0.502136  0.001647  1
  Ru  Ru32  1  0.498240  0.999213  0.498783  1
  Ru  Ru33  1  0.500341  0.499659  0.999942  1
  Ru  Ru34  1  0.000787  0.501760  0.498783  1
  Ru  Ru35  1  0.499703  0.500297  0.499359  1
  Ru  Ru36  1  0.999756  0.000244  0.000083  1
  Ru  Ru37  1  0.999814  0.000186  0.500106  1
