# generated using pymatgen
data_Nd2HoEr(B6Os)2
_symmetry_space_group_name_H-M   'P 1'
_cell_length_a   3.69615600
_cell_length_b   9.23024504
_cell_length_c   11.65837005
_cell_angle_alpha   89.98991234
_cell_angle_beta   90.00000000
_cell_angle_gamma   90.00000000
_symmetry_Int_Tables_number   1
_chemical_formula_structural   Nd2HoEr(B6Os)2
_chemical_formula_sum   'Nd4 Ho2 Er2 B24 Os4'
_cell_volume   397.74190775
_cell_formula_units_Z   2
loop_
 _symmetry_equiv_pos_site_id
 _symmetry_equiv_pos_as_xyz
  1  'x, y, z'
loop_
 _atom_site_type_symbol
 _atom_site_label
 _atom_site_symmetry_multiplicity
 _atom_site_fract_x
 _atom_site_fract_y
 _atom_site_fract_z
 _atom_site_occupancy
  Nd  Nd0  1  0.000000  0.322373  0.414289  1
  Nd  Nd1  1  0.000000  0.677627  0.585711  1
  Nd  Nd2  1  0.000000  0.822577  0.085800  1
  Nd  Nd3  1  0.000000  0.177423  0.914200  1
  Ho  Ho4  1  0.000000  0.444336  0.127659  1
  Ho  Ho5  1  0.000000  0.555664  0.872341  1
  Er  Er6  1  0.000000  0.944412  0.372598  1
  Er  Er7  1  0.000000  0.055588  0.627402  1
  B  B8  1  0.500000  0.556184  0.430487  1
  B  B9  1  0.500000  0.443816  0.569513  1
  B  B10  1  0.500000  0.056107  0.069564  1
  B  B11  1  0.500000  0.943893  0.930436  1
  B  B12  1  0.500000  0.749818  0.417446  1
  B  B13  1  0.500000  0.250182  0.582554  1
  B  B14  1  0.500000  0.249451  0.082581  1
  B  B15  1  0.500000  0.750549  0.917419  1
  B  B16  1  0.500000  0.791060  0.266960  1
  B  B17  1  0.500000  0.208940  0.733040  1
  B  B18  1  0.500000  0.290640  0.233151  1
  B  B19  1  0.500000  0.709360  0.766849  1
  B  B20  1  0.500000  0.630926  0.185371  1
  B  B21  1  0.500000  0.369074  0.814629  1
  B  B22  1  0.500000  0.130609  0.314825  1
  B  B23  1  0.500000  0.869391  0.685175  1
  B  B24  1  0.500000  0.985298  0.214325  1
  B  B25  1  0.500000  0.014702  0.785675  1
  B  B26  1  0.500000  0.485548  0.285913  1
  B  B27  1  0.500000  0.514452  0.714087  1
  B  B28  1  0.500000  0.603189  0.028220  1
  B  B29  1  0.500000  0.396811  0.971780  1
  B  B30  1  0.500000  0.102694  0.471909  1
  B  B31  1  0.500000  0.897306  0.528091  1
  Os  Os32  1  0.000000  0.639507  0.319646  1
  Os  Os33  1  0.000000  0.360493  0.680354  1
  Os  Os34  1  0.000000  0.138913  0.180635  1
  Os  Os35  1  0.000000  0.861087  0.819365  1
