# generated using pymatgen
data_Tb2Co5Ni5P6
_symmetry_space_group_name_H-M   'P 1'
_cell_length_a   3.68627300
_cell_length_b   10.27478300
_cell_length_c   11.83466600
_cell_angle_alpha   90.00000000
_cell_angle_beta   90.00000000
_cell_angle_gamma   90.00000000
_symmetry_Int_Tables_number   1
_chemical_formula_structural   Tb2Co5Ni5P6
_chemical_formula_sum   'Tb4 Co10 Ni10 P12'
_cell_volume   448.24572828
_cell_formula_units_Z   2
loop_
 _symmetry_equiv_pos_site_id
 _symmetry_equiv_pos_as_xyz
  1  'x, y, z'
loop_
 _atom_site_type_symbol
 _atom_site_label
 _atom_site_symmetry_multiplicity
 _atom_site_fract_x
 _atom_site_fract_y
 _atom_site_fract_z
 _atom_site_occupancy
  Tb  Tb0  1  0.250000  0.582315  0.703701  1
  Tb  Tb1  1  0.250000  0.917685  0.203701  1
  Tb  Tb2  1  0.750000  0.417717  0.296784  1
  Tb  Tb3  1  0.750000  0.082283  0.796784  1
  Co  Co4  1  0.750000  0.777822  0.824237  1
  Co  Co5  1  0.750000  0.722178  0.324237  1
  Co  Co6  1  0.250000  0.880051  0.697557  1
  Co  Co7  1  0.250000  0.619949  0.197557  1
  Co  Co8  1  0.750000  0.118749  0.302148  1
  Co  Co9  1  0.750000  0.381251  0.802148  1
  Co  Co10  1  0.250000  0.467828  0.933143  1
  Co  Co11  1  0.250000  0.032172  0.433143  1
  Co  Co12  1  0.750000  0.532850  0.067062  1
  Co  Co13  1  0.750000  0.967150  0.567062  1
  Ni  Ni14  1  0.250000  0.711695  0.988754  1
  Ni  Ni15  1  0.250000  0.788305  0.488754  1
  Ni  Ni16  1  0.750000  0.286056  0.009841  1
  Ni  Ni17  1  0.750000  0.213944  0.509841  1
  Ni  Ni18  1  0.250000  0.407942  0.486514  1
  Ni  Ni19  1  0.250000  0.092058  0.986514  1
  Ni  Ni20  1  0.750000  0.592410  0.513691  1
  Ni  Ni21  1  0.750000  0.907590  0.013691  1
  Ni  Ni22  1  0.250000  0.222897  0.176324  1
  Ni  Ni23  1  0.250000  0.277103  0.676324  1
  P  P24  1  0.250000  0.423960  0.112931  1
  P  P25  1  0.250000  0.076040  0.612931  1
  P  P26  1  0.750000  0.579692  0.886747  1
  P  P27  1  0.750000  0.920308  0.386747  1
  P  P28  1  0.250000  0.273072  0.868046  1
  P  P29  1  0.250000  0.226928  0.368046  1
  P  P30  1  0.750000  0.727609  0.134563  1
  P  P31  1  0.750000  0.772391  0.634563  1
  P  P32  1  0.250000  0.606417  0.387589  1
  P  P33  1  0.250000  0.893583  0.887589  1
  P  P34  1  0.750000  0.397668  0.610370  1
  P  P35  1  0.750000  0.102332  0.110370  1
