# generated using pymatgen
data_Y4CuP8Pd15
_symmetry_space_group_name_H-M   'P 1'
_cell_length_a   4.18694200
_cell_length_b   7.42715354
_cell_length_c   15.06792500
_cell_angle_alpha   90.15317663
_cell_angle_beta   90.00000000
_cell_angle_gamma   90.00000000
_symmetry_Int_Tables_number   1
_chemical_formula_structural   Y4CuP8Pd15
_chemical_formula_sum   'Y4 Cu1 P8 Pd15'
_cell_volume   468.56650996
_cell_formula_units_Z   1
loop_
 _symmetry_equiv_pos_site_id
 _symmetry_equiv_pos_as_xyz
  1  'x, y, z'
loop_
 _atom_site_type_symbol
 _atom_site_label
 _atom_site_symmetry_multiplicity
 _atom_site_fract_x
 _atom_site_fract_y
 _atom_site_fract_z
 _atom_site_occupancy
  Y  Y0  1  0.250000  0.855776  0.183009  1
  Y  Y1  1  0.750000  0.143823  0.814514  1
  Y  Y2  1  0.250000  0.359894  0.317674  1
  Y  Y3  1  0.750000  0.644848  0.682102  1
  Cu  Cu4  1  0.250000  0.461733  0.557966  1
  P  P5  1  0.250000  0.309272  0.693404  1
  P  P6  1  0.250000  0.765086  0.554187  1
  P  P7  1  0.750000  0.219730  0.443557  1
  P  P8  1  0.750000  0.188692  0.194281  1
  P  P9  1  0.250000  0.810542  0.804029  1
  P  P10  1  0.250000  0.278677  0.945003  1
  P  P11  1  0.750000  0.720398  0.054969  1
  P  P12  1  0.750000  0.686375  0.308981  1
  Pd  Pd13  1  0.250000  0.983374  0.672096  1
  Pd  Pd14  1  0.250000  0.484073  0.824328  1
  Pd  Pd15  1  0.750000  0.379404  0.991851  1
  Pd  Pd16  1  0.750000  0.740409  0.882598  1
  Pd  Pd17  1  0.750000  0.529247  0.450031  1
  Pd  Pd18  1  0.750000  0.256059  0.612697  1
  Pd  Pd19  1  0.750000  0.516042  0.176232  1
  Pd  Pd20  1  0.750000  0.031301  0.056909  1
  Pd  Pd21  1  0.250000  0.760459  0.384758  1
  Pd  Pd22  1  0.250000  0.259995  0.116481  1
  Pd  Pd23  1  0.250000  0.968602  0.941113  1
  Pd  Pd24  1  0.250000  0.127409  0.493928  1
  Pd  Pd25  1  0.750000  0.883039  0.511585  1
  Pd  Pd26  1  0.750000  0.014640  0.324375  1
  Pd  Pd27  1  0.250000  0.621102  0.007342  1
