# generated using pymatgen
data_LaNd8Dy11Sn16
_symmetry_space_group_name_H-M   'P 1'
_cell_length_a   8.09835685
_cell_length_b   8.25546601
_cell_length_c   15.57672800
_cell_angle_alpha   90.08837144
_cell_angle_beta   90.03868604
_cell_angle_gamma   90.12665028
_symmetry_Int_Tables_number   1
_chemical_formula_structural   LaNd8Dy11Sn16
_chemical_formula_sum   'La1 Nd8 Dy11 Sn16'
_cell_volume   1041.38918190
_cell_formula_units_Z   1
loop_
 _symmetry_equiv_pos_site_id
 _symmetry_equiv_pos_as_xyz
  1  'x, y, z'
loop_
 _atom_site_type_symbol
 _atom_site_label
 _atom_site_symmetry_multiplicity
 _atom_site_fract_x
 _atom_site_fract_y
 _atom_site_fract_z
 _atom_site_occupancy
  La  La0  1  0.015508  0.178715  0.903585  1
  Nd  Nd1  1  0.863250  0.665125  0.879960  1
  Nd  Nd2  1  0.516974  0.320943  0.902887  1
  Nd  Nd3  1  0.015790  0.178632  0.595210  1
  Nd  Nd4  1  0.484001  0.678227  0.403069  1
  Nd  Nd5  1  0.983714  0.821716  0.099279  1
  Nd  Nd6  1  0.484422  0.677828  0.098159  1
  Nd  Nd7  1  0.984125  0.821791  0.402649  1
  Nd  Nd8  1  0.514899  0.320871  0.595513  1
  Dy  Dy9  1  0.360897  0.835729  0.875965  1
  Dy  Dy10  1  0.861269  0.663278  0.621849  1
  Dy  Dy11  1  0.638519  0.162733  0.377183  1
  Dy  Dy12  1  0.138251  0.337566  0.122906  1
  Dy  Dy13  1  0.637120  0.162917  0.125753  1
  Dy  Dy14  1  0.138767  0.336511  0.377204  1
  Dy  Dy15  1  0.362048  0.837194  0.621036  1
  Dy  Dy16  1  0.195985  0.502728  0.749055  1
  Dy  Dy17  1  0.694559  0.997516  0.748519  1
  Dy  Dy18  1  0.804150  0.497196  0.251246  1
  Dy  Dy19  1  0.303943  0.002584  0.250022  1
  Sn  Sn20  1  0.304367  0.039699  0.042366  1
  Sn  Sn21  1  0.803018  0.458930  0.457973  1
  Sn  Sn22  1  0.698396  0.958913  0.541278  1
  Sn  Sn23  1  0.207226  0.539009  0.958812  1
  Sn  Sn24  1  0.690691  0.964204  0.959766  1
  Sn  Sn25  1  0.196552  0.540843  0.541382  1
  Sn  Sn26  1  0.302349  0.040929  0.457182  1
  Sn  Sn27  1  0.800110  0.457133  0.045931  1
  Sn  Sn28  1  0.559750  0.623273  0.747461  1
  Sn  Sn29  1  0.062543  0.879022  0.747737  1
  Sn  Sn30  1  0.438467  0.376993  0.251105  1
  Sn  Sn31  1  0.939635  0.123508  0.250464  1
  Sn  Sn32  1  0.324951  0.143085  0.748734  1
  Sn  Sn33  1  0.822522  0.355978  0.747488  1
  Sn  Sn34  1  0.675596  0.856175  0.250805  1
  Sn  Sn35  1  0.175635  0.642506  0.250463  1
