# generated using pymatgen
data_Ta6Co16Si6P
_symmetry_space_group_name_H-M   'P 1'
_cell_length_a   7.89734360
_cell_length_b   7.88458091
_cell_length_c   7.88611440
_cell_angle_alpha   60.17515856
_cell_angle_beta   59.95511921
_cell_angle_gamma   59.94767324
_symmetry_Int_Tables_number   1
_chemical_formula_structural   Ta6Co16Si6P
_chemical_formula_sum   'Ta6 Co16 Si6 P1'
_cell_volume   347.42337290
_cell_formula_units_Z   1
loop_
 _symmetry_equiv_pos_site_id
 _symmetry_equiv_pos_as_xyz
  1  'x, y, z'
loop_
 _atom_site_type_symbol
 _atom_site_label
 _atom_site_symmetry_multiplicity
 _atom_site_fract_x
 _atom_site_fract_y
 _atom_site_fract_z
 _atom_site_occupancy
  Ta  Ta0  1  0.202027  0.798039  0.798036  1
  Ta  Ta1  1  0.798937  0.796683  0.203407  1
  Ta  Ta2  1  0.797973  0.201961  0.201964  1
  Ta  Ta3  1  0.201063  0.203317  0.796593  1
  Ta  Ta4  1  0.798931  0.203414  0.796692  1
  Ta  Ta5  1  0.201069  0.796586  0.203308  1
  Co  Co6  1  0.618030  0.618449  0.145320  1
  Co  Co7  1  0.166043  0.502695  0.165358  1
  Co  Co8  1  0.856384  0.380700  0.380660  1
  Co  Co9  1  0.497116  0.837148  0.837142  1
  Co  Co10  1  0.502884  0.162852  0.162858  1
  Co  Co11  1  0.833916  0.834647  0.497375  1
  Co  Co12  1  0.166084  0.165353  0.502625  1
  Co  Co13  1  0.143616  0.619300  0.619340  1
  Co  Co14  1  0.171413  0.162842  0.162849  1
  Co  Co15  1  0.381970  0.381551  0.854680  1
  Co  Co16  1  0.617606  0.619294  0.619332  1
  Co  Co17  1  0.381948  0.854768  0.381508  1
  Co  Co18  1  0.382394  0.380706  0.380668  1
  Co  Co19  1  0.828587  0.837158  0.837151  1
  Co  Co20  1  0.618052  0.145232  0.618492  1
  Co  Co21  1  0.833957  0.497305  0.834642  1
  Si  Si22  1  0.500000  0.000000  0.500000  1
  Si  Si23  1  0.500000  0.500000  0.000000  1
  Si  Si24  1  0.500000  0.500000  0.500000  1
  Si  Si25  1  0.000000  0.000000  0.500000  1
  Si  Si26  1  0.000000  0.500000  0.000000  1
  Si  Si27  1  0.000000  0.500000  0.500000  1
  P  P28  1  0.500000  0.000000  0.000000  1
