# generated using pymatgen
data_Dy4LuSc3Os4
_symmetry_space_group_name_H-M   'P 1'
_cell_length_a   4.22546500
_cell_length_b   7.29220467
_cell_length_c   8.59779579
_cell_angle_alpha   90.37466773
_cell_angle_beta   90.00000000
_cell_angle_gamma   90.00000000
_symmetry_Int_Tables_number   1
_chemical_formula_structural   Dy4LuSc3Os4
_chemical_formula_sum   'Dy4 Lu1 Sc3 Os4'
_cell_volume   264.91783572
_cell_formula_units_Z   1
loop_
 _symmetry_equiv_pos_site_id
 _symmetry_equiv_pos_as_xyz
  1  'x, y, z'
loop_
 _atom_site_type_symbol
 _atom_site_label
 _atom_site_symmetry_multiplicity
 _atom_site_fract_x
 _atom_site_fract_y
 _atom_site_fract_z
 _atom_site_occupancy
  Dy  Dy0  1  0.250000  0.971316  0.334075  1
  Dy  Dy1  1  0.250000  0.481272  0.171851  1
  Dy  Dy2  1  0.750000  0.028641  0.672682  1
  Dy  Dy3  1  0.750000  0.525564  0.824391  1
  Lu  Lu4  1  0.750000  0.145249  0.065740  1
  Sc  Sc5  1  0.250000  0.359099  0.561982  1
  Sc  Sc6  1  0.250000  0.854558  0.935785  1
  Sc  Sc7  1  0.750000  0.640522  0.438726  1
  Os  Os8  1  0.250000  0.233198  0.871581  1
  Os  Os9  1  0.250000  0.735148  0.619322  1
  Os  Os10  1  0.750000  0.760055  0.119076  1
  Os  Os11  1  0.750000  0.265378  0.384790  1
