# generated using pymatgen
data_Y3Ho(CdPd2)2
_symmetry_space_group_name_H-M   'P 1'
_cell_length_a   7.80610642
_cell_length_b   7.80610642
_cell_length_c   3.67719700
_cell_angle_alpha   90.00000000
_cell_angle_beta   90.00000000
_cell_angle_gamma   89.85301179
_symmetry_Int_Tables_number   1
_chemical_formula_structural   Y3Ho(CdPd2)2
_chemical_formula_sum   'Y3 Ho1 Cd2 Pd4'
_cell_volume   224.07035570
_cell_formula_units_Z   1
loop_
 _symmetry_equiv_pos_site_id
 _symmetry_equiv_pos_as_xyz
  1  'x, y, z'
loop_
 _atom_site_type_symbol
 _atom_site_label
 _atom_site_symmetry_multiplicity
 _atom_site_fract_x
 _atom_site_fract_y
 _atom_site_fract_z
 _atom_site_occupancy
  Y  Y0  1  0.671678  0.171098  0.500000  1
  Y  Y1  1  0.328902  0.828322  0.500000  1
  Y  Y2  1  0.171118  0.328882  0.500000  1
  Ho  Ho3  1  0.828465  0.671535  0.500000  1
  Cd  Cd4  1  0.999998  0.999905  0.000000  1
  Cd  Cd5  1  0.500095  0.500002  0.000000  1
  Pd  Pd6  1  0.126647  0.629105  0.000000  1
  Pd  Pd7  1  0.870895  0.373353  0.000000  1
  Pd  Pd8  1  0.630176  0.869824  0.000000  1
  Pd  Pd9  1  0.372026  0.127974  0.000000  1
