# generated using pymatgen
data_Rb6InBi3
_symmetry_space_group_name_H-M   'P 1'
_cell_length_a   6.44214600
_cell_length_b   11.43765542
_cell_length_c   13.22572198
_cell_angle_alpha   79.44153628
_cell_angle_beta   90.00000000
_cell_angle_gamma   90.00000000
_symmetry_Int_Tables_number   1
_chemical_formula_structural   Rb6InBi3
_chemical_formula_sum   'Rb12 In2 Bi6'
_cell_volume   958.01148881
_cell_formula_units_Z   2
loop_
 _symmetry_equiv_pos_site_id
 _symmetry_equiv_pos_as_xyz
  1  'x, y, z'
loop_
 _atom_site_type_symbol
 _atom_site_label
 _atom_site_symmetry_multiplicity
 _atom_site_fract_x
 _atom_site_fract_y
 _atom_site_fract_z
 _atom_site_occupancy
  Rb  Rb0  1  0.750000  0.452632  0.083144  1
  Rb  Rb1  1  0.250000  0.547368  0.916856  1
  Rb  Rb2  1  0.750000  0.738299  0.227858  1
  Rb  Rb3  1  0.250000  0.261701  0.772142  1
  Rb  Rb4  1  0.250000  0.572327  0.526783  1
  Rb  Rb5  1  0.750000  0.427673  0.473217  1
  Rb  Rb6  1  0.250000  0.866983  0.020347  1
  Rb  Rb7  1  0.750000  0.133017  0.979653  1
  Rb  Rb8  1  0.250000  0.876363  0.679245  1
  Rb  Rb9  1  0.750000  0.123637  0.320755  1
  Rb  Rb10  1  0.250000  0.928420  0.371934  1
  Rb  Rb11  1  0.750000  0.071580  0.628066  1
  In  In12  1  0.250000  0.321720  0.280034  1
  In  In13  1  0.750000  0.678280  0.719966  1
  Bi  Bi14  1  0.250000  0.164675  0.124543  1
  Bi  Bi15  1  0.750000  0.835325  0.875457  1
  Bi  Bi16  1  0.250000  0.212463  0.497813  1
  Bi  Bi17  1  0.750000  0.787537  0.502187  1
  Bi  Bi18  1  0.250000  0.576653  0.215640  1
  Bi  Bi19  1  0.750000  0.423347  0.784360  1
