# generated using pymatgen
data_CsKBaEuSb2
_symmetry_space_group_name_H-M   'P 1'
_cell_length_a   5.52230100
_cell_length_b   9.02976500
_cell_length_c   10.43394600
_cell_angle_alpha   90.00000000
_cell_angle_beta   90.00000000
_cell_angle_gamma   90.00000000
_symmetry_Int_Tables_number   1
_chemical_formula_structural   CsKBaEuSb2
_chemical_formula_sum   'Cs2 K2 Ba2 Eu2 Sb4'
_cell_volume   520.28955502
_cell_formula_units_Z   2
loop_
 _symmetry_equiv_pos_site_id
 _symmetry_equiv_pos_as_xyz
  1  'x, y, z'
loop_
 _atom_site_type_symbol
 _atom_site_label
 _atom_site_symmetry_multiplicity
 _atom_site_fract_x
 _atom_site_fract_y
 _atom_site_fract_z
 _atom_site_occupancy
  Cs  Cs0  1  0.500000  0.029886  0.422893  1
  Cs  Cs1  1  0.500000  0.529886  0.577107  1
  K  K2  1  0.000000  0.347685  0.337822  1
  K  K3  1  0.000000  0.847685  0.662178  1
  Ba  Ba4  1  0.000000  0.993676  0.054127  1
  Ba  Ba5  1  0.000000  0.493676  0.945873  1
  Eu  Eu6  1  0.500000  0.147059  0.822703  1
  Eu  Eu7  1  0.500000  0.647059  0.177297  1
  Sb  Sb8  1  0.000000  0.240189  0.684603  1
  Sb  Sb9  1  0.500000  0.287104  0.111040  1
  Sb  Sb10  1  0.000000  0.740189  0.315397  1
  Sb  Sb11  1  0.500000  0.787104  0.888960  1
