# generated using pymatgen
data_Lu8Zr12Si15P
_symmetry_space_group_name_H-M   'P 1'
_cell_length_a   7.08210093
_cell_length_b   7.22979295
_cell_length_c   13.81890954
_cell_angle_alpha   89.99420924
_cell_angle_beta   89.77998183
_cell_angle_gamma   89.91606039
_symmetry_Int_Tables_number   1
_chemical_formula_structural   Lu8Zr12Si15P
_chemical_formula_sum   'Lu8 Zr12 Si15 P1'
_cell_volume   707.55153140
_cell_formula_units_Z   1
loop_
 _symmetry_equiv_pos_site_id
 _symmetry_equiv_pos_as_xyz
  1  'x, y, z'
loop_
 _atom_site_type_symbol
 _atom_site_label
 _atom_site_symmetry_multiplicity
 _atom_site_fract_x
 _atom_site_fract_y
 _atom_site_fract_z
 _atom_site_occupancy
  Lu  Lu0  1  0.514158  0.322615  0.096717  1
  Lu  Lu1  1  0.013310  0.178876  0.402829  1
  Lu  Lu2  1  0.486303  0.680325  0.596180  1
  Lu  Lu3  1  0.984984  0.822362  0.902597  1
  Lu  Lu4  1  0.486076  0.677547  0.902702  1
  Lu  Lu5  1  0.986264  0.824760  0.596281  1
  Lu  Lu6  1  0.514843  0.319748  0.404959  1
  Lu  Lu7  1  0.014831  0.177550  0.097112  1
  Zr  Zr8  1  0.827147  0.318839  0.622798  1
  Zr  Zr9  1  0.329578  0.177814  0.875085  1
  Zr  Zr10  1  0.171289  0.678050  0.124537  1
  Zr  Zr11  1  0.669496  0.825370  0.377836  1
  Zr  Zr12  1  0.170593  0.677345  0.376619  1
  Zr  Zr13  1  0.671026  0.821932  0.124626  1
  Zr  Zr14  1  0.828410  0.321733  0.875314  1
  Zr  Zr15  1  0.332830  0.176079  0.623003  1
  Zr  Zr16  1  0.656858  0.000000  0.748437  1
  Zr  Zr17  1  0.157014  0.500620  0.749676  1
  Zr  Zr18  1  0.343848  0.000662  0.251241  1
  Zr  Zr19  1  0.843349  0.500233  0.250500  1
  Si  Si20  1  0.156299  0.469650  0.960054  1
  Si  Si21  1  0.344431  0.969283  0.039723  1
  Si  Si22  1  0.842588  0.530614  0.459988  1
  Si  Si23  1  0.332620  0.969136  0.459375  1
  Si  Si24  1  0.844279  0.530108  0.039845  1
  Si  Si25  1  0.655532  0.030051  0.959757  1
  Si  Si26  1  0.157109  0.469176  0.540954  1
  Si  Si27  1  0.532568  0.386538  0.749169  1
  Si  Si28  1  0.033657  0.115019  0.749323  1
  Si  Si29  1  0.468167  0.614545  0.250996  1
  Si  Si30  1  0.966758  0.885763  0.250408  1
  Si  Si31  1  0.784155  0.629758  0.748879  1
  Si  Si32  1  0.283409  0.869316  0.749526  1
  Si  Si33  1  0.217274  0.369758  0.250409  1
  Si  Si34  1  0.716780  0.130445  0.250554  1
  P  P35  1  0.662164  0.028378  0.541991  1
