# generated using pymatgen
data_Dy3Tm9TcRh3
_symmetry_space_group_name_H-M   'P 1'
_cell_length_a   6.28424639
_cell_length_b   7.21589847
_cell_length_c   9.13603000
_cell_angle_alpha   90.00000000
_cell_angle_beta   90.00000000
_cell_angle_gamma   90.08632189
_symmetry_Int_Tables_number   1
_chemical_formula_structural   Dy3Tm9TcRh3
_chemical_formula_sum   'Dy3 Tm9 Tc1 Rh3'
_cell_volume   414.28636736
_cell_formula_units_Z   1
loop_
 _symmetry_equiv_pos_site_id
 _symmetry_equiv_pos_as_xyz
  1  'x, y, z'
loop_
 _atom_site_type_symbol
 _atom_site_label
 _atom_site_symmetry_multiplicity
 _atom_site_fract_x
 _atom_site_fract_y
 _atom_site_fract_z
 _atom_site_occupancy
  Dy  Dy0  1  0.624474  0.035073  0.250000  1
  Dy  Dy1  1  0.133233  0.464185  0.750000  1
  Dy  Dy2  1  0.370082  0.962292  0.750000  1
  Tm  Tm3  1  0.324201  0.678951  0.065424  1
  Tm  Tm4  1  0.170639  0.176948  0.435220  1
  Tm  Tm5  1  0.672342  0.322214  0.562489  1
  Tm  Tm6  1  0.834638  0.822619  0.940575  1
  Tm  Tm7  1  0.672342  0.322214  0.937511  1
  Tm  Tm8  1  0.834638  0.822619  0.559425  1
  Tm  Tm9  1  0.324201  0.678951  0.434576  1
  Tm  Tm10  1  0.170639  0.176948  0.064780  1
  Tm  Tm11  1  0.870280  0.535647  0.250000  1
  Tc  Tc12  1  0.037951  0.885203  0.250000  1
  Rh  Rh13  1  0.457253  0.386517  0.250000  1
  Rh  Rh14  1  0.950554  0.116419  0.750000  1
  Rh  Rh15  1  0.552533  0.613197  0.750000  1
