# generated using pymatgen
data_Tb2DyTh(CoB10)2
_symmetry_space_group_name_H-M   'P 1'
_cell_length_a   4.15490000
_cell_length_b   5.57133581
_cell_length_c   11.11926412
_cell_angle_alpha   90.11586199
_cell_angle_beta   90.00000000
_cell_angle_gamma   90.00000000
_symmetry_Int_Tables_number   1
_chemical_formula_structural   Tb2DyTh(CoB10)2
_chemical_formula_sum   'Tb2 Dy1 Th1 Co2 B20'
_cell_volume   257.39201534
_cell_formula_units_Z   1
loop_
 _symmetry_equiv_pos_site_id
 _symmetry_equiv_pos_as_xyz
  1  'x, y, z'
loop_
 _atom_site_type_symbol
 _atom_site_label
 _atom_site_symmetry_multiplicity
 _atom_site_fract_x
 _atom_site_fract_y
 _atom_site_fract_z
 _atom_site_occupancy
  Tb  Tb0  1  0.500000  0.699735  0.130268  1
  Tb  Tb1  1  0.500000  0.802897  0.637213  1
  Dy  Dy2  1  0.500000  0.301192  0.866493  1
  Th  Th3  1  0.500000  0.197269  0.366192  1
  Co  Co4  1  0.000000  0.498072  0.499959  1
  Co  Co5  1  0.000000  0.999441  0.999846  1
  B  B6  1  0.000000  0.125803  0.542048  1
  B  B7  1  0.000000  0.870340  0.461333  1
  B  B8  1  0.000000  0.627296  0.959148  1
  B  B9  1  0.000000  0.372439  0.038645  1
  B  B10  1  0.000000  0.158143  0.699769  1
  B  B11  1  0.000000  0.845218  0.302585  1
  B  B12  1  0.299841  0.201480  0.111518  1
  B  B13  1  0.300129  0.798263  0.886777  1
  B  B14  1  0.700072  0.699726  0.386286  1
  B  B15  1  0.699744  0.297606  0.614834  1
  B  B16  1  0.699871  0.798263  0.886777  1
  B  B17  1  0.700159  0.201480  0.111518  1
  B  B18  1  0.300256  0.297606  0.614834  1
  B  B19  1  0.299928  0.699726  0.386286  1
  B  B20  1  0.000000  0.032271  0.186144  1
  B  B21  1  0.000000  0.970022  0.814670  1
  B  B22  1  0.000000  0.533018  0.312478  1
  B  B23  1  0.000000  0.470091  0.686378  1
  B  B24  1  0.000000  0.344580  0.196183  1
  B  B25  1  0.000000  0.658023  0.801819  1
