# generated using pymatgen
data_TbTm9(Bi3C)2
_symmetry_space_group_name_H-M   'P 1'
_cell_length_a   9.07022100
_cell_length_b   9.07021955
_cell_length_c   6.41853400
_cell_angle_alpha   90.00000000
_cell_angle_beta   90.00000000
_cell_angle_gamma   119.99999433
_symmetry_Int_Tables_number   1
_chemical_formula_structural   TbTm9(Bi3C)2
_chemical_formula_sum   'Tb1 Tm9 Bi6 C2'
_cell_volume   457.30102125
_cell_formula_units_Z   1
loop_
 _symmetry_equiv_pos_site_id
 _symmetry_equiv_pos_as_xyz
  1  'x, y, z'
loop_
 _atom_site_type_symbol
 _atom_site_label
 _atom_site_symmetry_multiplicity
 _atom_site_fract_x
 _atom_site_fract_y
 _atom_site_fract_z
 _atom_site_occupancy
  Tb  Tb0  1  0.666667  0.333333  0.000000  1
  Tm  Tm1  1  0.333333  0.666667  0.000000  1
  Tm  Tm2  1  0.333333  0.666667  0.500000  1
  Tm  Tm3  1  0.666667  0.333333  0.500000  1
  Tm  Tm4  1  0.794361  0.794106  0.749855  1
  Tm  Tm5  1  0.205894  0.000255  0.749855  1
  Tm  Tm6  1  0.999745  0.205639  0.749855  1
  Tm  Tm7  1  0.205894  0.205639  0.250145  1
  Tm  Tm8  1  0.794361  0.000255  0.250145  1
  Tm  Tm9  1  0.999745  0.794106  0.250145  1
  Bi  Bi10  1  0.399727  0.401443  0.748242  1
  Bi  Bi11  1  0.598557  0.998283  0.748242  1
  Bi  Bi12  1  0.001717  0.600273  0.748242  1
  Bi  Bi13  1  0.598557  0.600273  0.251758  1
  Bi  Bi14  1  0.399727  0.998283  0.251758  1
  Bi  Bi15  1  0.001717  0.401443  0.251758  1
  C  C16  1  0.000000  0.000000  0.000000  1
  C  C17  1  0.000000  0.000000  0.500000  1
