# generated using pymatgen
data_BaTmF5
_symmetry_space_group_name_H-M   'P 1'
_cell_length_a   8.39403266
_cell_length_b   8.39403200
_cell_length_c   5.89986809
_cell_angle_alpha   89.28967219
_cell_angle_beta   89.28966830
_cell_angle_gamma   149.23652922
_symmetry_Int_Tables_number   1
_chemical_formula_structural   BaTmF5
_chemical_formula_sum   'Ba2 Tm2 F10'
_cell_volume   212.39789405
_cell_formula_units_Z   2
loop_
 _symmetry_equiv_pos_site_id
 _symmetry_equiv_pos_as_xyz
  1  'x, y, z'
loop_
 _atom_site_type_symbol
 _atom_site_label
 _atom_site_symmetry_multiplicity
 _atom_site_fract_x
 _atom_site_fract_y
 _atom_site_fract_z
 _atom_site_occupancy
  Ba  Ba0  1  0.328542  0.671458  0.750000  1
  Ba  Ba1  1  0.671458  0.328542  0.250000  1
  Tm  Tm2  1  0.072868  0.927132  0.750000  1
  Tm  Tm3  1  0.927132  0.072868  0.250000  1
  F  F4  1  0.744171  0.810573  0.590857  1
  F  F5  1  0.810573  0.744171  0.090857  1
  F  F6  1  0.806291  0.169485  0.015095  1
  F  F7  1  0.615715  0.384285  0.750000  1
  F  F8  1  0.830515  0.193709  0.484905  1
  F  F9  1  0.169485  0.806291  0.515095  1
  F  F10  1  0.384285  0.615715  0.250000  1
  F  F11  1  0.193709  0.830515  0.984905  1
  F  F12  1  0.189427  0.255829  0.909143  1
  F  F13  1  0.255829  0.189427  0.409143  1
