# generated using pymatgen
data_Ta6Mn5CrN2
_symmetry_space_group_name_H-M   'P 1'
_cell_length_a   8.04007080
_cell_length_b   8.04007166
_cell_length_c   8.05785200
_cell_angle_alpha   59.92681829
_cell_angle_beta   59.92681477
_cell_angle_gamma   59.91517658
_symmetry_Int_Tables_number   1
_chemical_formula_structural   Ta6Mn5CrN2
_chemical_formula_sum   'Ta12 Mn10 Cr2 N4'
_cell_volume   367.67510851
_cell_formula_units_Z   2
loop_
 _symmetry_equiv_pos_site_id
 _symmetry_equiv_pos_as_xyz
  1  'x, y, z'
loop_
 _atom_site_type_symbol
 _atom_site_label
 _atom_site_symmetry_multiplicity
 _atom_site_fract_x
 _atom_site_fract_y
 _atom_site_fract_z
 _atom_site_occupancy
  Ta  Ta0  1  0.803559  0.803559  0.196441  1
  Ta  Ta1  1  0.193892  0.193892  0.806108  1
  Ta  Ta2  1  0.804552  0.196117  0.805208  1
  Ta  Ta3  1  0.196117  0.804552  0.194125  1
  Ta  Ta4  1  0.196117  0.804552  0.805208  1
  Ta  Ta5  1  0.804552  0.196117  0.194125  1
  Ta  Ta6  1  0.446441  0.446441  0.053559  1
  Ta  Ta7  1  0.056108  0.056108  0.443892  1
  Ta  Ta8  1  0.445448  0.053883  0.444792  1
  Ta  Ta9  1  0.053883  0.445448  0.055875  1
  Ta  Ta10  1  0.053883  0.445448  0.444792  1
  Ta  Ta11  1  0.445448  0.053883  0.055875  1
  Mn  Mn12  1  0.625000  0.625000  0.125000  1
  Mn  Mn13  1  0.625000  0.625000  0.625000  1
  Mn  Mn14  1  0.732093  0.421835  0.423037  1
  Mn  Mn15  1  0.421835  0.732093  0.423037  1
  Mn  Mn16  1  0.421715  0.421715  0.734103  1
  Mn  Mn17  1  0.421715  0.421715  0.422468  1
  Mn  Mn18  1  0.517907  0.828165  0.826963  1
  Mn  Mn19  1  0.828165  0.517907  0.826963  1
  Mn  Mn20  1  0.828285  0.828285  0.515897  1
  Mn  Mn21  1  0.828285  0.828285  0.827532  1
  Cr  Cr22  1  0.125000  0.625000  0.625000  1
  Cr  Cr23  1  0.625000  0.125000  0.625000  1
  N  N24  1  0.625000  0.125000  0.125000  1
  N  N25  1  0.125000  0.625000  0.125000  1
  N  N26  1  0.125000  0.125000  0.625000  1
  N  N27  1  0.125000  0.125000  0.125000  1
