# generated using pymatgen
data_NaSm2Ag3O8
_symmetry_space_group_name_H-M   'P 1'
_cell_length_a   6.71066662
_cell_length_b   6.77986002
_cell_length_c   6.54755400
_cell_angle_alpha   125.90054774
_cell_angle_beta   125.53610663
_cell_angle_gamma   81.02354324
_symmetry_Int_Tables_number   1
_chemical_formula_structural   NaSm2Ag3O8
_chemical_formula_sum   'Na1 Sm2 Ag3 O8'
_cell_volume   188.48987297
_cell_formula_units_Z   1
loop_
 _symmetry_equiv_pos_site_id
 _symmetry_equiv_pos_as_xyz
  1  'x, y, z'
loop_
 _atom_site_type_symbol
 _atom_site_label
 _atom_site_symmetry_multiplicity
 _atom_site_fract_x
 _atom_site_fract_y
 _atom_site_fract_z
 _atom_site_occupancy
  Na  Na0  1  0.875000  0.625000  0.250000  1
  Sm  Sm1  1  0.990312  0.013897  0.001947  1
  Sm  Sm2  1  0.759688  0.236103  0.498053  1
  Ag  Ag3  1  0.375000  0.125000  0.750000  1
  Ag  Ag4  1  0.375000  0.625000  0.250000  1
  Ag  Ag5  1  0.375000  0.625000  0.750000  1
  O  O6  1  0.141822  0.607312  0.851558  1
  O  O7  1  0.743391  0.263374  0.142732  1
  O  O8  1  0.608178  0.642688  0.648442  1
  O  O9  1  0.006609  0.986626  0.357268  1
  O  O10  1  0.329189  0.979337  0.926562  1
  O  O11  1  0.065005  0.367690  0.030268  1
  O  O12  1  0.684995  0.882310  0.469732  1
  O  O13  1  0.420811  0.270663  0.573438  1
