# generated using pymatgen
data_Sc8Ta9V3Si15P
_symmetry_space_group_name_H-M   'P 1'
_cell_length_a   6.82737434
_cell_length_b   6.82272162
_cell_length_c   12.59065764
_cell_angle_alpha   90.06299444
_cell_angle_beta   89.85189978
_cell_angle_gamma   89.93505457
_symmetry_Int_Tables_number   1
_chemical_formula_structural   Sc8Ta9V3Si15P
_chemical_formula_sum   'Sc8 Ta9 V3 Si15 P1'
_cell_volume   586.48618819
_cell_formula_units_Z   1
loop_
 _symmetry_equiv_pos_site_id
 _symmetry_equiv_pos_as_xyz
  1  'x, y, z'
loop_
 _atom_site_type_symbol
 _atom_site_label
 _atom_site_symmetry_multiplicity
 _atom_site_fract_x
 _atom_site_fract_y
 _atom_site_fract_z
 _atom_site_occupancy
  Sc  Sc0  1  0.001339  0.662427  0.029323  1
  Sc  Sc1  1  0.839260  0.501674  0.281366  1
  Sc  Sc2  1  0.160022  0.496475  0.779717  1
  Sc  Sc3  1  0.504097  0.840349  0.719482  1
  Sc  Sc4  1  0.496731  0.158604  0.218199  1
  Sc  Sc5  1  0.001704  0.339649  0.530821  1
  Sc  Sc6  1  0.657745  0.999221  0.969748  1
  Sc  Sc7  1  0.339988  0.000393  0.470973  1
  Ta  Ta8  1  0.329102  0.329286  0.999926  1
  Ta  Ta9  1  0.170414  0.832364  0.249681  1
  Ta  Ta10  1  0.831650  0.167579  0.749136  1
  Ta  Ta11  1  0.671045  0.670695  0.500059  1
  Ta  Ta12  1  0.006543  0.149953  0.125709  1
  Ta  Ta13  1  0.346559  0.506228  0.378011  1
  Ta  Ta14  1  0.654219  0.495419  0.876287  1
  Ta  Ta15  1  0.505900  0.344870  0.623249  1
  Ta  Ta16  1  0.490641  0.658876  0.121894  1
  V  V17  1  0.991946  0.846275  0.627192  1
  V  V18  1  0.154932  0.006431  0.877222  1
  V  V19  1  0.845468  0.991525  0.372865  1
  Si  Si20  1  0.546424  0.805290  0.315735  1
  Si  Si21  1  0.452368  0.195432  0.814105  1
  Si  Si22  1  0.804455  0.548005  0.685073  1
  Si  Si23  1  0.198008  0.456468  0.187522  1
  Si  Si24  1  0.708564  0.039072  0.561125  1
  Si  Si25  1  0.960008  0.296169  0.934533  1
  Si  Si26  1  0.039558  0.708505  0.438658  1
  Si  Si27  1  0.706778  0.364670  0.072322  1
  Si  Si28  1  0.128941  0.202306  0.324095  1
  Si  Si29  1  0.873036  0.799953  0.820517  1
  Si  Si30  1  0.201351  0.126105  0.680085  1
  Si  Si31  1  0.795390  0.862783  0.181511  1
  Si  Si32  1  0.288240  0.640714  0.574402  1
  Si  Si33  1  0.359107  0.709195  0.923086  1
  Si  Si34  1  0.640301  0.286961  0.426277  1
  P  P35  1  0.298164  0.960080  0.060093  1
