# generated using pymatgen
data_Tm7Lu(Hf3Si4)4
_symmetry_space_group_name_H-M   'P 1'
_cell_length_a   7.23900521
_cell_length_b   7.23939801
_cell_length_c   13.28616367
_cell_angle_alpha   89.99753297
_cell_angle_beta   90.02951858
_cell_angle_gamma   89.99829787
_symmetry_Int_Tables_number   1
_chemical_formula_structural   Tm7Lu(Hf3Si4)4
_chemical_formula_sum   'Tm7 Lu1 Hf12 Si16'
_cell_volume   696.27512947
_cell_formula_units_Z   1
loop_
 _symmetry_equiv_pos_site_id
 _symmetry_equiv_pos_as_xyz
  1  'x, y, z'
loop_
 _atom_site_type_symbol
 _atom_site_label
 _atom_site_symmetry_multiplicity
 _atom_site_fract_x
 _atom_site_fract_y
 _atom_site_fract_z
 _atom_site_occupancy
  Tm  Tm0  1  0.995944  0.344292  0.215200  1
  Tm  Tm1  1  0.003925  0.655540  0.715368  1
  Tm  Tm2  1  0.155633  0.496182  0.465430  1
  Tm  Tm3  1  0.503964  0.844555  0.034800  1
  Tm  Tm4  1  0.844392  0.503863  0.965216  1
  Tm  Tm5  1  0.496308  0.155420  0.534703  1
  Tm  Tm6  1  0.344553  0.996065  0.784689  1
  Lu  Lu7  1  0.655267  0.003749  0.284860  1
  Hf  Hf8  1  0.174705  0.174534  0.999925  1
  Hf  Hf9  1  0.825280  0.825363  0.499914  1
  Hf  Hf10  1  0.325570  0.675052  0.249939  1
  Hf  Hf11  1  0.674718  0.325250  0.750038  1
  Hf  Hf12  1  0.147848  0.996693  0.374545  1
  Hf  Hf13  1  0.852022  0.003349  0.874550  1
  Hf  Hf14  1  0.503491  0.648065  0.624630  1
  Hf  Hf15  1  0.352085  0.496556  0.875395  1
  Hf  Hf16  1  0.496620  0.351814  0.124487  1
  Hf  Hf17  1  0.648075  0.503288  0.375449  1
  Hf  Hf18  1  0.996606  0.147819  0.625597  1
  Hf  Hf19  1  0.002977  0.852024  0.125423  1
  Si  Si20  1  0.360572  0.295087  0.317756  1
  Si  Si21  1  0.639589  0.705038  0.817923  1
  Si  Si22  1  0.204875  0.860506  0.568040  1
  Si  Si23  1  0.139476  0.795030  0.932008  1
  Si  Si24  1  0.794882  0.139537  0.067772  1
  Si  Si25  1  0.860229  0.204658  0.431978  1
  Si  Si26  1  0.294978  0.360347  0.682158  1
  Si  Si27  1  0.704928  0.639781  0.182206  1
  Si  Si28  1  0.297536  0.048376  0.185705  1
  Si  Si29  1  0.702813  0.951464  0.685623  1
  Si  Si30  1  0.451874  0.797491  0.435412  1
  Si  Si31  1  0.202719  0.548589  0.064295  1
  Si  Si32  1  0.548468  0.202735  0.935484  1
  Si  Si33  1  0.797168  0.451603  0.564604  1
  Si  Si34  1  0.048539  0.297242  0.814403  1
  Si  Si35  1  0.951372  0.703043  0.314473  1
