# generated using pymatgen
data_Tb2DyEr5(B6Os)4
_symmetry_space_group_name_H-M   'P 1'
_cell_length_a   3.64280100
_cell_length_b   9.12404002
_cell_length_c   11.50893700
_cell_angle_alpha   90.00179080
_cell_angle_beta   90.00000000
_cell_angle_gamma   90.00000000
_symmetry_Int_Tables_number   1
_chemical_formula_structural   Tb2DyEr5(B6Os)4
_chemical_formula_sum   'Tb2 Dy1 Er5 B24 Os4'
_cell_volume   382.52325369
_cell_formula_units_Z   1
loop_
 _symmetry_equiv_pos_site_id
 _symmetry_equiv_pos_as_xyz
  1  'x, y, z'
loop_
 _atom_site_type_symbol
 _atom_site_label
 _atom_site_symmetry_multiplicity
 _atom_site_fract_x
 _atom_site_fract_y
 _atom_site_fract_z
 _atom_site_occupancy
  Tb  Tb0  1  0.000000  0.321930  0.413861  1
  Tb  Tb1  1  0.000000  0.678040  0.586070  1
  Dy  Dy2  1  0.000000  0.821808  0.085758  1
  Er  Er3  1  0.000000  0.178294  0.914212  1
  Er  Er4  1  0.000000  0.943851  0.372639  1
  Er  Er5  1  0.000000  0.056334  0.627395  1
  Er  Er6  1  0.000000  0.443631  0.126833  1
  Er  Er7  1  0.000000  0.556151  0.873095  1
  B  B8  1  0.500000  0.554147  0.432709  1
  B  B9  1  0.500000  0.445739  0.567524  1
  B  B10  1  0.500000  0.054074  0.066502  1
  B  B11  1  0.500000  0.946492  0.933123  1
  B  B12  1  0.500000  0.748691  0.419260  1
  B  B13  1  0.500000  0.251276  0.580962  1
  B  B14  1  0.500000  0.248273  0.079724  1
  B  B15  1  0.500000  0.751735  0.919732  1
  B  B16  1  0.500000  0.791045  0.265976  1
  B  B17  1  0.500000  0.208665  0.734455  1
  B  B18  1  0.500000  0.290791  0.233159  1
  B  B19  1  0.500000  0.709276  0.766680  1
  B  B20  1  0.500000  0.631155  0.184769  1
  B  B21  1  0.500000  0.368395  0.815522  1
  B  B22  1  0.500000  0.130930  0.314623  1
  B  B23  1  0.500000  0.869285  0.685400  1
  B  B24  1  0.500000  0.982849  0.212834  1
  B  B25  1  0.500000  0.017722  0.787265  1
  B  B26  1  0.500000  0.482974  0.286389  1
  B  B27  1  0.500000  0.516759  0.713730  1
  B  B28  1  0.500000  0.606430  0.029373  1
  B  B29  1  0.500000  0.392845  0.970407  1
  B  B30  1  0.500000  0.105411  0.470862  1
  B  B31  1  0.500000  0.894705  0.529173  1
  Os  Os32  1  0.000000  0.637792  0.320512  1
  Os  Os33  1  0.000000  0.362088  0.679628  1
  Os  Os34  1  0.000000  0.137391  0.178325  1
  Os  Os35  1  0.000000  0.863028  0.821518  1
