# generated using pymatgen
data_YPa3(Ni2Sn)2
_symmetry_space_group_name_H-M   'P 1'
_cell_length_a   7.43873704
_cell_length_b   7.43873766
_cell_length_c   3.58256700
_cell_angle_alpha   90.00000000
_cell_angle_beta   90.00000000
_cell_angle_gamma   91.14527149
_symmetry_Int_Tables_number   1
_chemical_formula_structural   YPa3(Ni2Sn)2
_chemical_formula_sum   'Y1 Pa3 Ni4 Sn2'
_cell_volume   198.20107392
_cell_formula_units_Z   1
loop_
 _symmetry_equiv_pos_site_id
 _symmetry_equiv_pos_as_xyz
  1  'x, y, z'
loop_
 _atom_site_type_symbol
 _atom_site_label
 _atom_site_symmetry_multiplicity
 _atom_site_fract_x
 _atom_site_fract_y
 _atom_site_fract_z
 _atom_site_occupancy
  Y  Y0  1  0.826373  0.673627  0.500000  1
  Pa  Pa1  1  0.673775  0.173713  0.500000  1
  Pa  Pa2  1  0.326287  0.826225  0.500000  1
  Pa  Pa3  1  0.172110  0.327890  0.500000  1
  Ni  Ni4  1  0.882242  0.361384  0.000000  1
  Ni  Ni5  1  0.138616  0.617758  0.000000  1
  Ni  Ni6  1  0.368926  0.131074  0.000000  1
  Ni  Ni7  1  0.609469  0.890531  0.000000  1
  Sn  Sn8  1  0.507084  0.504882  0.000000  1
  Sn  Sn9  1  0.995118  0.992916  0.000000  1
