# generated using pymatgen
data_Pr2SmY3OsI10
_symmetry_space_group_name_H-M   'P 1'
_cell_length_a   7.87474515
_cell_length_b   9.95519547
_cell_length_c   9.89393562
_cell_angle_alpha   106.73183411
_cell_angle_beta   95.97865200
_cell_angle_gamma   104.99726805
_symmetry_Int_Tables_number   1
_chemical_formula_structural   Pr2SmY3OsI10
_chemical_formula_sum   'Pr2 Sm1 Y3 Os1 I10'
_cell_volume   703.98375560
_cell_formula_units_Z   1
loop_
 _symmetry_equiv_pos_site_id
 _symmetry_equiv_pos_as_xyz
  1  'x, y, z'
loop_
 _atom_site_type_symbol
 _atom_site_label
 _atom_site_symmetry_multiplicity
 _atom_site_fract_x
 _atom_site_fract_y
 _atom_site_fract_z
 _atom_site_occupancy
  Pr  Pr0  1  0.114384  0.042473  0.767533  1
  Pr  Pr1  1  0.885418  0.956398  0.231759  1
  Sm  Sm2  1  0.967976  0.290866  0.087365  1
  Y  Y3  1  0.030432  0.711668  0.913031  1
  Y  Y4  1  0.351206  0.125378  0.166951  1
  Y  Y5  1  0.649397  0.872687  0.833012  1
  Os  Os6  1  0.999913  0.000035  0.999805  1
  I  I7  1  0.351643  0.445148  0.270278  1
  I  I8  1  0.654781  0.554919  0.731765  1
  I  I9  1  0.263069  0.087247  0.452555  1
  I  I10  1  0.736471  0.912380  0.547655  1
  I  I11  1  0.086394  0.377522  0.821167  1
  I  I12  1  0.915415  0.627192  0.174826  1
  I  I13  1  0.451500  0.818993  0.088293  1
  I  I14  1  0.545692  0.179406  0.909976  1
  I  I15  1  0.771499  0.256940  0.344023  1
  I  I16  1  0.224809  0.740749  0.660006  1
