# generated using pymatgen
data_RbNb2Br11
_symmetry_space_group_name_H-M   'P 1'
_cell_length_a   7.64329120
_cell_length_b   7.70898486
_cell_length_c   19.08005519
_cell_angle_alpha   78.89284641
_cell_angle_beta   78.74348583
_cell_angle_gamma   88.27815647
_symmetry_Int_Tables_number   1
_chemical_formula_structural   RbNb2Br11
_chemical_formula_sum   'Rb2 Nb4 Br22'
_cell_volume   1081.92177139
_cell_formula_units_Z   2
loop_
 _symmetry_equiv_pos_site_id
 _symmetry_equiv_pos_as_xyz
  1  'x, y, z'
loop_
 _atom_site_type_symbol
 _atom_site_label
 _atom_site_symmetry_multiplicity
 _atom_site_fract_x
 _atom_site_fract_y
 _atom_site_fract_z
 _atom_site_occupancy
  Rb  Rb0  1  0.747301  0.747433  0.503946  1
  Rb  Rb1  1  0.252699  0.252567  0.496054  1
  Nb  Nb2  1  0.324631  0.822420  0.339469  1
  Nb  Nb3  1  0.675369  0.177580  0.660531  1
  Nb  Nb4  1  0.830999  0.329852  0.087094  1
  Nb  Nb5  1  0.169001  0.670148  0.912906  1
  Br  Br6  1  0.252811  0.771274  0.486547  1
  Br  Br7  1  0.747189  0.228726  0.513453  1
  Br  Br8  1  0.574609  0.026653  0.344631  1
  Br  Br9  1  0.425391  0.973347  0.655369  1
  Br  Br10  1  0.537462  0.561268  0.352641  1
  Br  Br11  1  0.462538  0.438732  0.647359  1
  Br  Br12  1  0.387057  0.862300  0.206090  1
  Br  Br13  1  0.612943  0.137700  0.793910  1
  Br  Br14  1  0.066808  0.606072  0.354481  1
  Br  Br15  1  0.933192  0.393928  0.645519  1
  Br  Br16  1  0.107976  0.077445  0.340336  1
  Br  Br17  1  0.892024  0.922555  0.659664  1
  Br  Br18  1  0.900641  0.033225  0.147012  1
  Br  Br19  1  0.099359  0.966775  0.852988  1
  Br  Br20  1  0.528846  0.381087  0.149836  1
  Br  Br21  1  0.471154  0.618913  0.850164  1
  Br  Br22  1  0.722710  0.218409  0.988369  1
  Br  Br23  1  0.277290  0.781591  0.011631  1
  Br  Br24  1  0.972289  0.477329  0.168012  1
  Br  Br25  1  0.027711  0.522671  0.831988  1
  Br  Br26  1  0.165463  0.341870  0.999624  1
  Br  Br27  1  0.834537  0.658130  0.000376  1
