# generated using pymatgen
data_Nd2Co5B8Ru3
_symmetry_space_group_name_H-M   'P 1'
_cell_length_a   7.18830175
_cell_length_b   7.29571381
_cell_length_c   3.88088141
_cell_angle_alpha   90.02439773
_cell_angle_beta   89.90751191
_cell_angle_gamma   89.39910199
_symmetry_Int_Tables_number   1
_chemical_formula_structural   Nd2Co5B8Ru3
_chemical_formula_sum   'Nd2 Co5 B8 Ru3'
_cell_volume   203.51666058
_cell_formula_units_Z   1
loop_
 _symmetry_equiv_pos_site_id
 _symmetry_equiv_pos_as_xyz
  1  'x, y, z'
loop_
 _atom_site_type_symbol
 _atom_site_label
 _atom_site_symmetry_multiplicity
 _atom_site_fract_x
 _atom_site_fract_y
 _atom_site_fract_z
 _atom_site_occupancy
  Nd  Nd0  1  0.003628  0.002115  0.930308  1
  Nd  Nd1  1  0.499919  0.502060  0.436870  1
  Co  Co2  1  0.126940  0.611727  0.119305  1
  Co  Co3  1  0.883685  0.625233  0.618319  1
  Co  Co4  1  0.872437  0.383075  0.117867  1
  Co  Co5  1  0.387591  0.163651  0.899206  1
  Co  Co6  1  0.119701  0.370516  0.619066  1
  B  B7  1  0.841035  0.316622  0.616061  1
  B  B8  1  0.156536  0.681673  0.617759  1
  B  B9  1  0.816293  0.658600  0.116297  1
  B  B10  1  0.328257  0.766085  0.902835  1
  B  B11  1  0.669221  0.225738  0.899253  1
  B  B12  1  0.286939  0.171858  0.400630  1
  B  B13  1  0.726658  0.830232  0.400372  1
  B  B14  1  0.187529  0.337942  0.114949  1
  Ru  Ru15  1  0.339682  0.891940  0.397445  1
  Ru  Ru16  1  0.609323  0.845057  0.897461  1
  Ru  Ru17  1  0.644626  0.115876  0.395998  1
