# generated using pymatgen
data_Ac7PrSe16
_symmetry_space_group_name_H-M   'P 1'
_cell_length_a   8.77999425
_cell_length_b   8.78895593
_cell_length_c   8.87091110
_cell_angle_alpha   90.06191098
_cell_angle_beta   89.80252210
_cell_angle_gamma   89.80494938
_symmetry_Int_Tables_number   1
_chemical_formula_structural   Ac7PrSe16
_chemical_formula_sum   'Ac7 Pr1 Se16'
_cell_volume   684.53300123
_cell_formula_units_Z   1
loop_
 _symmetry_equiv_pos_site_id
 _symmetry_equiv_pos_as_xyz
  1  'x, y, z'
loop_
 _atom_site_type_symbol
 _atom_site_label
 _atom_site_symmetry_multiplicity
 _atom_site_fract_x
 _atom_site_fract_y
 _atom_site_fract_z
 _atom_site_occupancy
  Ac  Ac0  1  0.252253  0.486233  0.724011  1
  Ac  Ac1  1  0.251999  0.987661  0.723889  1
  Ac  Ac2  1  0.752901  0.512620  0.723264  1
  Ac  Ac3  1  0.753364  0.013770  0.722498  1
  Ac  Ac4  1  0.498306  0.231872  0.277852  1
  Ac  Ac5  1  0.996390  0.766873  0.277981  1
  Ac  Ac6  1  0.495747  0.728943  0.273245  1
  Pr  Pr7  1  0.998864  0.268111  0.277432  1
  Se  Se8  1  0.500124  0.245502  0.635090  1
  Se  Se9  1  0.999913  0.754374  0.636412  1
  Se  Se10  1  0.499025  0.745170  0.630989  1
  Se  Se11  1  0.000961  0.253078  0.627777  1
  Se  Se12  1  0.755545  0.498736  0.363987  1
  Se  Se13  1  0.754875  0.007694  0.364766  1
  Se  Se14  1  0.245896  0.491265  0.364139  1
  Se  Se15  1  0.247734  0.998203  0.364832  1
  Se  Se16  1  0.234012  0.715221  0.998390  1
  Se  Se17  1  0.239678  0.217363  0.000459  1
  Se  Se18  1  0.747838  0.284506  0.000320  1
  Se  Se19  1  0.738293  0.786694  0.997477  1
  Se  Se20  1  0.007884  0.539901  0.003346  1
  Se  Se21  1  0.509241  0.958515  0.001669  1
  Se  Se22  1  0.512339  0.453181  0.002161  1
  Se  Se23  1  0.006815  0.054514  0.008014  1
