# generated using pymatgen
data_Gd3CrReC6
_symmetry_space_group_name_H-M   'P 1'
_cell_length_a   8.32880100
_cell_length_b   8.32880003
_cell_length_c   5.06506000
_cell_angle_alpha   90.00000000
_cell_angle_beta   90.00000000
_cell_angle_gamma   119.99999880
_symmetry_Int_Tables_number   1
_chemical_formula_structural   Gd3CrReC6
_chemical_formula_sum   'Gd6 Cr2 Re2 C12'
_cell_volume   304.28472548
_cell_formula_units_Z   2
loop_
 _symmetry_equiv_pos_site_id
 _symmetry_equiv_pos_as_xyz
  1  'x, y, z'
loop_
 _atom_site_type_symbol
 _atom_site_label
 _atom_site_symmetry_multiplicity
 _atom_site_fract_x
 _atom_site_fract_y
 _atom_site_fract_z
 _atom_site_occupancy
  Gd  Gd0  1  0.624011  0.693386  0.750000  1
  Gd  Gd1  1  0.930626  0.624011  0.250000  1
  Gd  Gd2  1  0.693386  0.069374  0.250000  1
  Gd  Gd3  1  0.306614  0.930626  0.750000  1
  Gd  Gd4  1  0.069374  0.375989  0.750000  1
  Gd  Gd5  1  0.375989  0.306614  0.250000  1
  Cr  Cr6  1  0.000000  0.000000  0.500000  1
  Cr  Cr7  1  0.000000  0.000000  0.000000  1
  Re  Re8  1  0.666667  0.333333  0.750000  1
  Re  Re9  1  0.333333  0.666667  0.250000  1
  C  C10  1  0.962068  0.778533  0.750000  1
  C  C11  1  0.183535  0.962068  0.250000  1
  C  C12  1  0.778533  0.816465  0.250000  1
  C  C13  1  0.221467  0.183535  0.750000  1
  C  C14  1  0.816465  0.037932  0.750000  1
  C  C15  1  0.037932  0.221467  0.250000  1
  C  C16  1  0.867038  0.588808  0.750000  1
  C  C17  1  0.278229  0.867038  0.250000  1
  C  C18  1  0.588808  0.721771  0.250000  1
  C  C19  1  0.411192  0.278229  0.750000  1
  C  C20  1  0.132962  0.411192  0.250000  1
  C  C21  1  0.721771  0.132962  0.750000  1
