# generated using pymatgen
data_Th2AlNi9
_symmetry_space_group_name_H-M   'P 1'
_cell_length_a   4.92723065
_cell_length_b   4.92723149
_cell_length_c   8.09566900
_cell_angle_alpha   90.00000000
_cell_angle_beta   90.00000000
_cell_angle_gamma   118.81583019
_symmetry_Int_Tables_number   1
_chemical_formula_structural   Th2AlNi9
_chemical_formula_sum   'Th2 Al1 Ni9'
_cell_volume   172.20618172
_cell_formula_units_Z   1
loop_
 _symmetry_equiv_pos_site_id
 _symmetry_equiv_pos_as_xyz
  1  'x, y, z'
loop_
 _atom_site_type_symbol
 _atom_site_label
 _atom_site_symmetry_multiplicity
 _atom_site_fract_x
 _atom_site_fract_y
 _atom_site_fract_z
 _atom_site_occupancy
  Th  Th0  1  0.000000  0.000000  0.763147  1
  Th  Th1  1  0.000000  0.000000  0.236853  1
  Al  Al2  1  0.500000  0.500000  0.500000  1
  Ni  Ni3  1  0.667088  0.332912  0.750645  1
  Ni  Ni4  1  0.667088  0.332912  0.249355  1
  Ni  Ni5  1  0.500000  0.500000  0.000000  1
  Ni  Ni6  1  0.332912  0.667088  0.750645  1
  Ni  Ni7  1  0.500000  0.000000  0.500000  1
  Ni  Ni8  1  0.000000  0.500000  0.000000  1
  Ni  Ni9  1  0.500000  0.000000  0.000000  1
  Ni  Ni10  1  0.332912  0.667088  0.249355  1
  Ni  Ni11  1  0.000000  0.500000  0.500000  1
