# generated using pymatgen
data_Li4CdGa3
_symmetry_space_group_name_H-M   'P 1'
_cell_length_a   4.46487313
_cell_length_b   4.49455344
_cell_length_c   7.82677100
_cell_angle_alpha   106.69909215
_cell_angle_beta   89.49107940
_cell_angle_gamma   59.81194558
_symmetry_Int_Tables_number   1
_chemical_formula_structural   Li4CdGa3
_chemical_formula_sum   'Li4 Cd1 Ga3'
_cell_volume   127.78719754
_cell_formula_units_Z   1
loop_
 _symmetry_equiv_pos_site_id
 _symmetry_equiv_pos_as_xyz
  1  'x, y, z'
loop_
 _atom_site_type_symbol
 _atom_site_label
 _atom_site_symmetry_multiplicity
 _atom_site_fract_x
 _atom_site_fract_y
 _atom_site_fract_z
 _atom_site_occupancy
  Li  Li0  1  0.795197  0.481321  0.124403  1
  Li  Li1  1  0.920988  0.229262  0.748342  1
  Li  Li2  1  0.420728  0.228298  0.243049  1
  Li  Li3  1  0.299262  0.475992  0.621066  1
  Cd  Cd4  1  0.173086  0.726484  0.993159  1
  Ga  Ga5  1  0.043739  0.983609  0.376470  1
  Ga  Ga6  1  0.548335  0.974469  0.865809  1
  Ga  Ga7  1  0.672321  0.728826  0.501196  1
