# generated using pymatgen
data_Y5Zr3As12(Ru3Rh5)2
_symmetry_space_group_name_H-M   'P 1'
_cell_length_a   13.26858600
_cell_length_b   13.26858689
_cell_length_c   4.05892400
_cell_angle_alpha   90.00000000
_cell_angle_beta   90.00000000
_cell_angle_gamma   120.00000276
_symmetry_Int_Tables_number   1
_chemical_formula_structural   Y5Zr3As12(Ru3Rh5)2
_chemical_formula_sum   'Y5 Zr3 As12 Ru6 Rh10'
_cell_volume   618.85778085
_cell_formula_units_Z   1
loop_
 _symmetry_equiv_pos_site_id
 _symmetry_equiv_pos_as_xyz
  1  'x, y, z'
loop_
 _atom_site_type_symbol
 _atom_site_label
 _atom_site_symmetry_multiplicity
 _atom_site_fract_x
 _atom_site_fract_y
 _atom_site_fract_z
 _atom_site_occupancy
  Y  Y0  1  0.191636  0.189778  0.500000  1
  Y  Y1  1  0.810222  0.001857  0.500000  1
  Y  Y2  1  0.998143  0.808364  0.500000  1
  Y  Y3  1  0.333333  0.666667  0.000000  1
  Y  Y4  1  0.666667  0.333333  0.000000  1
  Zr  Zr5  1  0.562620  0.561590  0.000000  1
  Zr  Zr6  1  0.438410  0.001031  0.000000  1
  Zr  Zr7  1  0.998969  0.437380  0.000000  1
  As  As8  1  0.819431  0.822315  0.000000  1
  As  As9  1  0.177685  0.997116  0.000000  1
  As  As10  1  0.002884  0.180569  0.000000  1
  As  As11  1  0.170621  0.481628  0.500000  1
  As  As12  1  0.518372  0.688993  0.500000  1
  As  As13  1  0.311007  0.829379  0.500000  1
  As  As14  1  0.689011  0.517089  0.500000  1
  As  As15  1  0.828077  0.310989  0.500000  1
  As  As16  1  0.482911  0.171923  0.500000  1
  As  As17  1  0.353148  0.356982  0.000000  1
  As  As18  1  0.643018  0.996166  0.000000  1
  As  As19  1  0.003834  0.646852  0.000000  1
  Ru  Ru20  1  0.721067  0.718773  0.500000  1
  Ru  Ru21  1  0.281227  0.002294  0.500000  1
  Ru  Ru22  1  0.997706  0.278933  0.500000  1
  Ru  Ru23  1  0.178963  0.379426  0.000000  1
  Ru  Ru24  1  0.620574  0.799537  0.000000  1
  Ru  Ru25  1  0.200463  0.821037  0.000000  1
  Rh  Rh26  1  0.804231  0.623660  0.000000  1
  Rh  Rh27  1  0.819429  0.195769  0.000000  1
  Rh  Rh28  1  0.376340  0.180571  0.000000  1
  Rh  Rh29  1  0.359148  0.481663  0.500000  1
  Rh  Rh30  1  0.518337  0.877485  0.500000  1
  Rh  Rh31  1  0.122515  0.640852  0.500000  1
  Rh  Rh32  1  0.874279  0.515363  0.500000  1
  Rh  Rh33  1  0.641084  0.125721  0.500000  1
  Rh  Rh34  1  0.484637  0.358916  0.500000  1
  Rh  Rh35  1  0.000000  0.000000  0.000000  1
