# generated using pymatgen
data_Er20FeBi8Ir3
_symmetry_space_group_name_H-M   'P 1'
_cell_length_a   7.94113006
_cell_length_b   8.96902500
_cell_length_c   12.45552903
_cell_angle_alpha   90.00000000
_cell_angle_beta   89.87022327
_cell_angle_gamma   90.00000000
_symmetry_Int_Tables_number   1
_chemical_formula_structural   Er20FeBi8Ir3
_chemical_formula_sum   'Er20 Fe1 Bi8 Ir3'
_cell_volume   887.13274143
_cell_formula_units_Z   1
loop_
 _symmetry_equiv_pos_site_id
 _symmetry_equiv_pos_as_xyz
  1  'x, y, z'
loop_
 _atom_site_type_symbol
 _atom_site_label
 _atom_site_symmetry_multiplicity
 _atom_site_fract_x
 _atom_site_fract_y
 _atom_site_fract_z
 _atom_site_occupancy
  Er  Er0  1  0.663051  0.750000  0.708366  1
  Er  Er1  1  0.338216  0.250000  0.292958  1
  Er  Er2  1  0.161699  0.250000  0.792819  1
  Er  Er3  1  0.842522  0.750000  0.199671  1
  Er  Er4  1  0.119555  0.750000  0.814906  1
  Er  Er5  1  0.874133  0.250000  0.190613  1
  Er  Er6  1  0.626839  0.250000  0.690335  1
  Er  Er7  1  0.374695  0.750000  0.309417  1
  Er  Er8  1  0.557147  0.750000  0.997144  1
  Er  Er9  1  0.441805  0.250000  0.002316  1
  Er  Er10  1  0.054197  0.250000  0.501792  1
  Er  Er11  1  0.942841  0.750000  0.497136  1
  Er  Er12  1  0.829490  0.466935  0.936172  1
  Er  Er13  1  0.173192  0.546783  0.065584  1
  Er  Er14  1  0.326134  0.542058  0.567870  1
  Er  Er15  1  0.173192  0.953217  0.065584  1
  Er  Er16  1  0.673555  0.457098  0.432367  1
  Er  Er17  1  0.829490  0.033065  0.936172  1
  Er  Er18  1  0.673555  0.042902  0.432367  1
  Er  Er19  1  0.326134  0.957942  0.567870  1
  Fe  Fe20  1  0.927950  0.750000  0.990548  1
  Bi  Bi21  1  0.936080  0.007525  0.673096  1
  Bi  Bi22  1  0.064086  0.991593  0.326544  1
  Bi  Bi23  1  0.435296  0.992239  0.827378  1
  Bi  Bi24  1  0.064086  0.508407  0.326544  1
  Bi  Bi25  1  0.564647  0.007853  0.172293  1
  Bi  Bi26  1  0.936080  0.492475  0.673096  1
  Bi  Bi27  1  0.564647  0.492147  0.172293  1
  Bi  Bi28  1  0.435296  0.507761  0.827378  1
  Ir  Ir29  1  0.071462  0.250000  0.008096  1
  Ir  Ir30  1  0.427824  0.250000  0.508862  1
  Ir  Ir31  1  0.571105  0.750000  0.492414  1
