# generated using pymatgen
data_Rb16TiSnSb8
_symmetry_space_group_name_H-M   'P 1'
_cell_length_a   12.03492321
_cell_length_b   12.03492256
_cell_length_c   12.03492300
_cell_angle_alpha   59.99999605
_cell_angle_beta   59.99999782
_cell_angle_gamma   60.00000154
_symmetry_Int_Tables_number   1
_chemical_formula_structural   Rb16TiSnSb8
_chemical_formula_sum   'Rb16 Ti1 Sn1 Sb8'
_cell_volume   1232.57946135
_cell_formula_units_Z   1
loop_
 _symmetry_equiv_pos_site_id
 _symmetry_equiv_pos_as_xyz
  1  'x, y, z'
loop_
 _atom_site_type_symbol
 _atom_site_label
 _atom_site_symmetry_multiplicity
 _atom_site_fract_x
 _atom_site_fract_y
 _atom_site_fract_z
 _atom_site_occupancy
  Rb  Rb0  1  0.624336  0.126990  0.624336  1
  Rb  Rb1  1  0.624336  0.624336  0.126990  1
  Rb  Rb2  1  0.126990  0.624336  0.624336  1
  Rb  Rb3  1  0.624336  0.624336  0.624336  1
  Rb  Rb4  1  0.022472  0.022472  0.477528  1
  Rb  Rb5  1  0.776969  0.223031  0.223031  1
  Rb  Rb6  1  0.223031  0.776969  0.776969  1
  Rb  Rb7  1  0.776969  0.776969  0.223031  1
  Rb  Rb8  1  0.776969  0.223031  0.776969  1
  Rb  Rb9  1  0.223031  0.776969  0.223031  1
  Rb  Rb10  1  0.477528  0.022472  0.477528  1
  Rb  Rb11  1  0.477528  0.022472  0.022472  1
  Rb  Rb12  1  0.022472  0.477528  0.477528  1
  Rb  Rb13  1  0.022472  0.477528  0.022472  1
  Rb  Rb14  1  0.223031  0.223031  0.776969  1
  Rb  Rb15  1  0.477528  0.477528  0.022472  1
  Ti  Ti16  1  0.750000  0.750000  0.750000  1
  Sn  Sn17  1  0.500000  0.500000  0.500000  1
  Sb  Sb18  1  0.399100  0.802699  0.399100  1
  Sb  Sb19  1  0.845009  0.845009  0.464972  1
  Sb  Sb20  1  0.464972  0.845009  0.845009  1
  Sb  Sb21  1  0.845009  0.845009  0.845009  1
  Sb  Sb22  1  0.802699  0.399100  0.399100  1
  Sb  Sb23  1  0.399100  0.399100  0.399100  1
  Sb  Sb24  1  0.399100  0.399100  0.802699  1
  Sb  Sb25  1  0.845009  0.464972  0.845009  1
