# generated using pymatgen
data_Zr2AlCo3Sn
_symmetry_space_group_name_H-M   'P 1'
_cell_length_a   7.48716499
_cell_length_b   7.48716390
_cell_length_c   7.48716500
_cell_angle_alpha   33.21567118
_cell_angle_beta   33.21568395
_cell_angle_gamma   33.21567351
_symmetry_Int_Tables_number   1
_chemical_formula_structural   Zr2AlCo3Sn
_chemical_formula_sum   'Zr2 Al1 Co3 Sn1'
_cell_volume   112.12018891
_cell_formula_units_Z   1
loop_
 _symmetry_equiv_pos_site_id
 _symmetry_equiv_pos_as_xyz
  1  'x, y, z'
loop_
 _atom_site_type_symbol
 _atom_site_label
 _atom_site_symmetry_multiplicity
 _atom_site_fract_x
 _atom_site_fract_y
 _atom_site_fract_z
 _atom_site_occupancy
  Zr  Zr0  1  0.751886  0.751886  0.751886  1
  Zr  Zr1  1  0.249483  0.249483  0.249483  1
  Al  Al2  1  0.999090  0.999090  0.999090  1
  Co  Co3  1  0.119716  0.119716  0.119716  1
  Co  Co4  1  0.630570  0.630570  0.630570  1
  Co  Co5  1  0.371675  0.371675  0.371675  1
  Sn  Sn6  1  0.502581  0.502581  0.502581  1
