# generated using pymatgen
data_Dy3Er5Ti11Si16Ir
_symmetry_space_group_name_H-M   'P 1'
_cell_length_a   7.01467161
_cell_length_b   7.01359338
_cell_length_c   12.83261017
_cell_angle_alpha   90.12829744
_cell_angle_beta   89.87839578
_cell_angle_gamma   89.82967050
_symmetry_Int_Tables_number   1
_chemical_formula_structural   Dy3Er5Ti11Si16Ir
_chemical_formula_sum   'Dy3 Er5 Ti11 Si16 Ir1'
_cell_volume   631.33364921
_cell_formula_units_Z   1
loop_
 _symmetry_equiv_pos_site_id
 _symmetry_equiv_pos_as_xyz
  1  'x, y, z'
loop_
 _atom_site_type_symbol
 _atom_site_label
 _atom_site_symmetry_multiplicity
 _atom_site_fract_x
 _atom_site_fract_y
 _atom_site_fract_z
 _atom_site_occupancy
  Dy  Dy0  1  0.340645  0.004706  0.467362  1
  Dy  Dy1  1  0.496082  0.841427  0.718177  1
  Dy  Dy2  1  0.501251  0.158161  0.214687  1
  Er  Er3  1  0.842054  0.496685  0.281846  1
  Er  Er4  1  0.157590  0.500662  0.785373  1
  Er  Er5  1  0.656983  0.997881  0.968878  1
  Er  Er6  1  0.003918  0.341406  0.532548  1
  Er  Er7  1  0.997869  0.656810  0.031279  1
  Ti  Ti8  1  0.174963  0.826777  0.247885  1
  Ti  Ti9  1  0.827240  0.175390  0.752147  1
  Ti  Ti10  1  0.674286  0.673673  0.499970  1
  Ti  Ti11  1  0.148406  0.001912  0.875691  1
  Ti  Ti12  1  0.493606  0.656243  0.124736  1
  Ti  Ti13  1  0.506933  0.350190  0.628419  1
  Ti  Ti14  1  0.656484  0.493688  0.875277  1
  Ti  Ti15  1  0.350101  0.506616  0.371667  1
  Ti  Ti16  1  0.849442  0.994371  0.374678  1
  Ti  Ti17  1  0.001664  0.148645  0.124368  1
  Ti  Ti18  1  0.994435  0.849273  0.625336  1
  Si  Si19  1  0.201701  0.134652  0.685487  1
  Si  Si20  1  0.371371  0.701326  0.933601  1
  Si  Si21  1  0.632579  0.296975  0.434230  1
  Si  Si22  1  0.702521  0.372211  0.066362  1
  Si  Si23  1  0.295331  0.630360  0.565680  1
  Si  Si24  1  0.796994  0.866178  0.183314  1
  Si  Si25  1  0.132390  0.203407  0.314543  1
  Si  Si26  1  0.867732  0.796169  0.816848  1
  Si  Si27  1  0.285539  0.950934  0.063545  1
  Si  Si28  1  0.548257  0.791306  0.315650  1
  Si  Si29  1  0.448741  0.210170  0.818858  1
  Si  Si30  1  0.793210  0.546993  0.684231  1
  Si  Si31  1  0.208699  0.449623  0.181374  1
  Si  Si32  1  0.709826  0.049240  0.565746  1
  Si  Si33  1  0.951712  0.286130  0.936260  1
  Si  Si34  1  0.047819  0.707898  0.434146  1
  Ir  Ir35  1  0.331630  0.331913  0.999799  1
