# generated using pymatgen
data_Dy6Y4AlSb5
_symmetry_space_group_name_H-M   'P 1'
_cell_length_a   6.38876100
_cell_length_b   8.94469711
_cell_length_c   8.92577511
_cell_angle_alpha   120.07015996
_cell_angle_beta   90.00020495
_cell_angle_gamma   89.99958423
_symmetry_Int_Tables_number   1
_chemical_formula_structural   Dy6Y4AlSb5
_chemical_formula_sum   'Dy6 Y4 Al1 Sb5'
_cell_volume   441.41936518
_cell_formula_units_Z   1
loop_
 _symmetry_equiv_pos_site_id
 _symmetry_equiv_pos_as_xyz
  1  'x, y, z'
loop_
 _atom_site_type_symbol
 _atom_site_label
 _atom_site_symmetry_multiplicity
 _atom_site_fract_x
 _atom_site_fract_y
 _atom_site_fract_z
 _atom_site_occupancy
  Dy  Dy0  1  0.500718  0.338209  0.673040  1
  Dy  Dy1  1  0.500718  0.665170  0.326960  1
  Dy  Dy2  1  0.999282  0.665172  0.326961  1
  Dy  Dy3  1  0.999282  0.338211  0.673039  1
  Dy  Dy4  1  0.250002  0.245486  0.244782  1
  Dy  Dy5  1  0.250002  0.000704  0.755218  1
  Y  Y6  1  0.749999  0.248229  0.000000  1
  Y  Y7  1  0.750000  0.753699  0.762186  1
  Y  Y8  1  0.750000  0.991513  0.237814  1
  Y  Y9  1  0.249998  0.757122  0.000000  1
  Al  Al10  1  0.749998  0.604435  0.000000  1
  Sb  Sb11  1  0.750001  0.388340  0.390102  1
  Sb  Sb12  1  0.750001  0.998238  0.609898  1
  Sb  Sb13  1  0.249998  0.391865  0.000000  1
  Sb  Sb14  1  0.250001  0.610954  0.608298  1
  Sb  Sb15  1  0.250001  0.002656  0.391702  1
