# generated using pymatgen
data_YbTm5(Si3Ru)8
_symmetry_space_group_name_H-M   'P 1'
_cell_length_a   10.10262070
_cell_length_b   10.10262099
_cell_length_c   8.09772057
_cell_angle_alpha   90.07051819
_cell_angle_beta   89.92947992
_cell_angle_gamma   132.69357281
_symmetry_Int_Tables_number   1
_chemical_formula_structural   YbTm5(Si3Ru)8
_chemical_formula_sum   'Yb1 Tm5 Si24 Ru8'
_cell_volume   607.45250179
_cell_formula_units_Z   1
loop_
 _symmetry_equiv_pos_site_id
 _symmetry_equiv_pos_as_xyz
  1  'x, y, z'
loop_
 _atom_site_type_symbol
 _atom_site_label
 _atom_site_symmetry_multiplicity
 _atom_site_fract_x
 _atom_site_fract_y
 _atom_site_fract_z
 _atom_site_occupancy
  Yb  Yb0  1  0.998147  0.498147  0.250000  1
  Tm  Tm1  1  0.497393  0.997393  0.250000  1
  Tm  Tm2  1  0.002353  0.502353  0.750000  1
  Tm  Tm3  1  0.501261  0.001261  0.750000  1
  Tm  Tm4  1  0.499743  0.499840  0.499777  1
  Tm  Tm5  1  0.999840  0.999743  0.000223  1
  Si  Si6  1  0.388016  0.155232  0.005344  1
  Si  Si7  1  0.655232  0.888016  0.494656  1
  Si  Si8  1  0.111867  0.345979  0.506026  1
  Si  Si9  1  0.845979  0.611867  0.993974  1
  Si  Si10  1  0.611671  0.844741  0.994792  1
  Si  Si11  1  0.344741  0.111671  0.505208  1
  Si  Si12  1  0.888263  0.654858  0.496977  1
  Si  Si13  1  0.154858  0.388263  0.003023  1
  Si  Si14  1  0.610975  0.376666  0.228341  1
  Si  Si15  1  0.876666  0.110975  0.271659  1
  Si  Si16  1  0.888598  0.121998  0.728512  1
  Si  Si17  1  0.621998  0.388598  0.771488  1
  Si  Si18  1  0.388240  0.621741  0.772073  1
  Si  Si19  1  0.121741  0.888240  0.727927  1
  Si  Si20  1  0.705495  0.295105  0.999835  1
  Si  Si21  1  0.795105  0.205495  0.500165  1
  Si  Si22  1  0.294391  0.704945  0.000587  1
  Si  Si23  1  0.204945  0.794391  0.499413  1
  Si  Si24  1  0.167585  0.166522  0.332881  1
  Si  Si25  1  0.666522  0.667585  0.167119  1
  Si  Si26  1  0.331642  0.332498  0.833142  1
  Si  Si27  1  0.832498  0.831642  0.666858  1
  Si  Si28  1  0.379303  0.613671  0.228334  1
  Si  Si29  1  0.113671  0.879303  0.271666  1
  Ru  Ru30  1  0.626977  0.626157  0.872725  1
  Ru  Ru31  1  0.126157  0.126977  0.627275  1
  Ru  Ru32  1  0.873179  0.873179  0.372307  1
  Ru  Ru33  1  0.373179  0.373179  0.127693  1
  Ru  Ru34  1  0.332404  0.671624  0.501843  1
  Ru  Ru35  1  0.171624  0.832404  0.998157  1
  Ru  Ru36  1  0.668729  0.329010  0.501152  1
  Ru  Ru37  1  0.829010  0.168729  0.998848  1
