# generated using pymatgen
data_LaZr3(NiSb)4
_symmetry_space_group_name_H-M   'P 1'
_cell_length_a   4.24399200
_cell_length_b   4.24399260
_cell_length_c   15.47666100
_cell_angle_alpha   90.00000000
_cell_angle_beta   90.00000000
_cell_angle_gamma   120.00001092
_symmetry_Int_Tables_number   1
_chemical_formula_structural   LaZr3(NiSb)4
_chemical_formula_sum   'La1 Zr3 Ni4 Sb4'
_cell_volume   241.41098515
_cell_formula_units_Z   1
loop_
 _symmetry_equiv_pos_site_id
 _symmetry_equiv_pos_as_xyz
  1  'x, y, z'
loop_
 _atom_site_type_symbol
 _atom_site_label
 _atom_site_symmetry_multiplicity
 _atom_site_fract_x
 _atom_site_fract_y
 _atom_site_fract_z
 _atom_site_occupancy
  La  La0  1  0.000000  0.000000  0.500000  1
  Zr  Zr1  1  0.000000  0.000000  0.239786  1
  Zr  Zr2  1  0.000000  0.000000  0.760214  1
  Zr  Zr3  1  0.000000  0.000000  0.000000  1
  Ni  Ni4  1  0.333333  0.666667  0.149212  1
  Ni  Ni5  1  0.666667  0.333333  0.850788  1
  Ni  Ni6  1  0.666667  0.333333  0.683833  1
  Ni  Ni7  1  0.333333  0.666667  0.316167  1
  Sb  Sb8  1  0.333333  0.666667  0.635097  1
  Sb  Sb9  1  0.666667  0.333333  0.364903  1
  Sb  Sb10  1  0.666667  0.333333  0.110658  1
  Sb  Sb11  1  0.333333  0.666667  0.889342  1
