# generated using pymatgen
data_Tb2Dy2MnOs7
_symmetry_space_group_name_H-M   'P 1'
_cell_length_a   5.33803402
_cell_length_b   5.33787068
_cell_length_c   8.78728800
_cell_angle_alpha   89.99967985
_cell_angle_beta   89.99864721
_cell_angle_gamma   59.99930020
_symmetry_Int_Tables_number   1
_chemical_formula_structural   Tb2Dy2MnOs7
_chemical_formula_sum   'Tb2 Dy2 Mn1 Os7'
_cell_volume   216.83621328
_cell_formula_units_Z   1
loop_
 _symmetry_equiv_pos_site_id
 _symmetry_equiv_pos_as_xyz
  1  'x, y, z'
loop_
 _atom_site_type_symbol
 _atom_site_label
 _atom_site_symmetry_multiplicity
 _atom_site_fract_x
 _atom_site_fract_y
 _atom_site_fract_z
 _atom_site_occupancy
  Tb  Tb0  1  0.666667  0.666665  0.064524  1
  Tb  Tb1  1  0.333333  0.333335  0.935476  1
  Dy  Dy2  1  0.333329  0.333337  0.569200  1
  Dy  Dy3  1  0.666671  0.666663  0.430800  1
  Mn  Mn4  1  0.000000  0.000000  0.500000  1
  Os  Os5  1  0.000000  0.000000  0.000000  1
  Os  Os6  1  0.829430  0.341136  0.746442  1
  Os  Os7  1  0.341104  0.829449  0.746442  1
  Os  Os8  1  0.829434  0.829442  0.746434  1
  Os  Os9  1  0.170570  0.658864  0.253558  1
  Os  Os10  1  0.658896  0.170551  0.253558  1
  Os  Os11  1  0.170566  0.170558  0.253566  1
