# generated using pymatgen
data_MgZn3InRu
_symmetry_space_group_name_H-M   'P 1'
_cell_length_a   5.25491951
_cell_length_b   5.25491751
_cell_length_c   5.25491882
_cell_angle_alpha   58.40583681
_cell_angle_beta   58.40585618
_cell_angle_gamma   58.40583861
_symmetry_Int_Tables_number   1
_chemical_formula_structural   MgZn3InRu
_chemical_formula_sum   'Mg1 Zn3 In1 Ru1'
_cell_volume   98.86455396
_cell_formula_units_Z   1
loop_
 _symmetry_equiv_pos_site_id
 _symmetry_equiv_pos_as_xyz
  1  'x, y, z'
loop_
 _atom_site_type_symbol
 _atom_site_label
 _atom_site_symmetry_multiplicity
 _atom_site_fract_x
 _atom_site_fract_y
 _atom_site_fract_z
 _atom_site_occupancy
  Mg  Mg0  1  0.005977  0.005977  0.005977  1
  Zn  Zn1  1  0.876853  0.375376  0.375376  1
  Zn  Zn2  1  0.375376  0.876853  0.375376  1
  Zn  Zn3  1  0.375376  0.375376  0.876853  1
  In  In4  1  0.740669  0.740669  0.740669  1
  Ru  Ru5  1  0.375748  0.375748  0.375748  1
