# generated using pymatgen
data_Tm4TaRe5Si8
_symmetry_space_group_name_H-M   'P 1'
_cell_length_a   6.81020170
_cell_length_b   6.89064692
_cell_length_c   6.74764100
_cell_angle_alpha   69.87109355
_cell_angle_beta   90.65108849
_cell_angle_gamma   89.16564481
_symmetry_Int_Tables_number   1
_chemical_formula_structural   Tm4TaRe5Si8
_chemical_formula_sum   'Tm4 Ta1 Re5 Si8'
_cell_volume   297.22734369
_cell_formula_units_Z   1
loop_
 _symmetry_equiv_pos_site_id
 _symmetry_equiv_pos_as_xyz
  1  'x, y, z'
loop_
 _atom_site_type_symbol
 _atom_site_label
 _atom_site_symmetry_multiplicity
 _atom_site_fract_x
 _atom_site_fract_y
 _atom_site_fract_z
 _atom_site_occupancy
  Tm  Tm0  1  0.673432  0.443643  0.190220  1
  Tm  Tm1  1  0.168860  0.064749  0.811390  1
  Tm  Tm2  1  0.326568  0.556357  0.809780  1
  Tm  Tm3  1  0.831140  0.935251  0.188610  1
  Ta  Ta4  1  0.500000  0.000000  0.500000  1
  Re  Re5  1  0.000000  0.500000  0.500000  1
  Re  Re6  1  0.147791  0.232129  0.230497  1
  Re  Re7  1  0.643591  0.233152  0.732878  1
  Re  Re8  1  0.852209  0.767871  0.769503  1
  Re  Re9  1  0.356409  0.766848  0.267122  1
  Si  Si10  1  0.460249  0.143165  0.082263  1
  Si  Si11  1  0.934832  0.379903  0.890498  1
  Si  Si12  1  0.539751  0.856835  0.917737  1
  Si  Si13  1  0.065168  0.620097  0.109502  1
  Si  Si14  1  0.872314  0.131398  0.496325  1
  Si  Si15  1  0.349827  0.384828  0.468177  1
  Si  Si16  1  0.127686  0.868602  0.503675  1
  Si  Si17  1  0.650173  0.615172  0.531823  1
