# generated using pymatgen
data_Hf4OsPtO
_symmetry_space_group_name_H-M   'P 1'
_cell_length_a   8.76979222
_cell_length_b   8.76983156
_cell_length_c   8.76974100
_cell_angle_alpha   60.00015660
_cell_angle_beta   60.00001500
_cell_angle_gamma   60.00035681
_symmetry_Int_Tables_number   1
_chemical_formula_structural   Hf4OsPtO
_chemical_formula_sum   'Hf16 Os4 Pt4 O4'
_cell_volume   476.92936172
_cell_formula_units_Z   4
loop_
 _symmetry_equiv_pos_site_id
 _symmetry_equiv_pos_as_xyz
  1  'x, y, z'
loop_
 _atom_site_type_symbol
 _atom_site_label
 _atom_site_symmetry_multiplicity
 _atom_site_fract_x
 _atom_site_fract_y
 _atom_site_fract_z
 _atom_site_occupancy
  Hf  Hf0  1  0.112185  0.629267  0.629275  1
  Hf  Hf1  1  0.629270  0.112187  0.629273  1
  Hf  Hf2  1  0.629274  0.629269  0.112181  1
  Hf  Hf3  1  0.629273  0.629268  0.629277  1
  Hf  Hf4  1  0.805471  0.805471  0.194530  1
  Hf  Hf5  1  0.194530  0.194529  0.805471  1
  Hf  Hf6  1  0.805471  0.194528  0.805470  1
  Hf  Hf7  1  0.194529  0.805470  0.194531  1
  Hf  Hf8  1  0.194529  0.805470  0.805470  1
  Hf  Hf9  1  0.805470  0.194528  0.194531  1
  Hf  Hf10  1  0.433230  0.433231  0.066769  1
  Hf  Hf11  1  0.066769  0.066769  0.433231  1
  Hf  Hf12  1  0.433231  0.066769  0.433231  1
  Hf  Hf13  1  0.066769  0.433231  0.066769  1
  Hf  Hf14  1  0.066769  0.433231  0.433230  1
  Hf  Hf15  1  0.433231  0.066769  0.066769  1
  Os  Os16  1  0.758835  0.413723  0.413720  1
  Os  Os17  1  0.413721  0.758839  0.413719  1
  Os  Os18  1  0.413721  0.413723  0.758836  1
  Os  Os19  1  0.413722  0.413724  0.413720  1
  Pt  Pt20  1  0.452718  0.849094  0.849094  1
  Pt  Pt21  1  0.849094  0.452718  0.849093  1
  Pt  Pt22  1  0.849093  0.849093  0.452722  1
  Pt  Pt23  1  0.849094  0.849093  0.849093  1
  O  O24  1  0.624849  0.125051  0.125049  1
  O  O25  1  0.125051  0.624849  0.125050  1
  O  O26  1  0.125050  0.125051  0.624850  1
  O  O27  1  0.125051  0.125052  0.125048  1
