# generated using pymatgen
data_Ni20GeAsP14
_symmetry_space_group_name_H-M   'P 1'
_cell_length_a   6.82273100
_cell_length_b   6.82273093
_cell_length_c   11.07244500
_cell_angle_alpha   90.00000000
_cell_angle_beta   90.00000000
_cell_angle_gamma   120.00000519
_symmetry_Int_Tables_number   1
_chemical_formula_structural   Ni20GeAsP14
_chemical_formula_sum   'Ni20 Ge1 As1 P14'
_cell_volume   446.36551378
_cell_formula_units_Z   1
loop_
 _symmetry_equiv_pos_site_id
 _symmetry_equiv_pos_as_xyz
  1  'x, y, z'
loop_
 _atom_site_type_symbol
 _atom_site_label
 _atom_site_symmetry_multiplicity
 _atom_site_fract_x
 _atom_site_fract_y
 _atom_site_fract_z
 _atom_site_occupancy
  Ni  Ni0  1  0.923731  0.461865  0.376389  1
  Ni  Ni1  1  0.461361  0.538639  0.876901  1
  Ni  Ni2  1  0.000000  0.000000  0.199555  1
  Ni  Ni3  1  0.000000  0.000000  0.699688  1
  Ni  Ni4  1  0.538135  0.076269  0.376389  1
  Ni  Ni5  1  0.461361  0.922724  0.876901  1
  Ni  Ni6  1  0.077276  0.538639  0.876901  1
  Ni  Ni7  1  0.538135  0.461865  0.376389  1
  Ni  Ni8  1  0.794074  0.205926  0.740540  1
  Ni  Ni9  1  0.588706  0.794353  0.240300  1
  Ni  Ni10  1  0.205647  0.411294  0.240300  1
  Ni  Ni11  1  0.794074  0.588148  0.740540  1
  Ni  Ni12  1  0.411852  0.205926  0.740540  1
  Ni  Ni13  1  0.205647  0.794353  0.240300  1
  Ni  Ni14  1  0.458967  0.541033  0.589277  1
  Ni  Ni15  1  0.919373  0.459686  0.089262  1
  Ni  Ni16  1  0.540314  0.080627  0.089262  1
  Ni  Ni17  1  0.458967  0.917935  0.589277  1
  Ni  Ni18  1  0.082065  0.541033  0.589277  1
  Ni  Ni19  1  0.540314  0.459686  0.089262  1
  Ge  Ge20  1  0.666667  0.333333  0.554823  1
  As  As21  1  0.333333  0.666667  0.057112  1
  P  P22  1  0.000000  0.000000  0.500934  1
  P  P23  1  0.000000  0.000000  0.001435  1
  P  P24  1  0.821164  0.178836  0.942986  1
  P  P25  1  0.641814  0.820908  0.443593  1
  P  P26  1  0.179092  0.358186  0.443593  1
  P  P27  1  0.821164  0.642325  0.942986  1
  P  P28  1  0.357675  0.178836  0.942986  1
  P  P29  1  0.179092  0.820908  0.443593  1
  P  P30  1  0.181853  0.818147  0.730931  1
  P  P31  1  0.363068  0.181534  0.231753  1
  P  P32  1  0.818466  0.636932  0.231753  1
  P  P33  1  0.181853  0.363707  0.730931  1
  P  P34  1  0.636293  0.818147  0.730931  1
  P  P35  1  0.818466  0.181534  0.231753  1
