# generated using pymatgen
data_Ac(PPd3)2
_symmetry_space_group_name_H-M   'P 1'
_cell_length_a   8.60850800
_cell_length_b   8.60850800
_cell_length_c   8.60850800
_cell_angle_alpha   90.00000000
_cell_angle_beta   90.00000000
_cell_angle_gamma   90.00000000
_symmetry_Int_Tables_number   1
_chemical_formula_structural   Ac(PPd3)2
_chemical_formula_sum   'Ac4 P8 Pd24'
_cell_volume   637.94562322
_cell_formula_units_Z   4
loop_
 _symmetry_equiv_pos_site_id
 _symmetry_equiv_pos_as_xyz
  1  'x, y, z'
loop_
 _atom_site_type_symbol
 _atom_site_label
 _atom_site_symmetry_multiplicity
 _atom_site_fract_x
 _atom_site_fract_y
 _atom_site_fract_z
 _atom_site_occupancy
  Ac  Ac0  1  0.500000  0.500000  0.000000  1
  Ac  Ac1  1  0.500000  0.000000  0.500000  1
  Ac  Ac2  1  0.000000  0.500000  0.500000  1
  Ac  Ac3  1  0.000000  0.000000  0.000000  1
  P  P4  1  0.807302  0.307302  0.192698  1
  P  P5  1  0.192698  0.807302  0.307302  1
  P  P6  1  0.692698  0.692698  0.692698  1
  P  P7  1  0.307302  0.192698  0.807302  1
  P  P8  1  0.192698  0.692698  0.807302  1
  P  P9  1  0.807302  0.192698  0.692698  1
  P  P10  1  0.307302  0.307302  0.307302  1
  P  P11  1  0.692698  0.807302  0.192698  1
  Pd  Pd12  1  0.421065  0.846574  0.161744  1
  Pd  Pd13  1  0.578935  0.346574  0.338256  1
  Pd  Pd14  1  0.078935  0.153426  0.661744  1
  Pd  Pd15  1  0.921065  0.653426  0.838256  1
  Pd  Pd16  1  0.161744  0.421065  0.846574  1
  Pd  Pd17  1  0.338256  0.578935  0.346574  1
  Pd  Pd18  1  0.661744  0.078935  0.153426  1
  Pd  Pd19  1  0.838256  0.921065  0.653426  1
  Pd  Pd20  1  0.846574  0.161744  0.421065  1
  Pd  Pd21  1  0.346574  0.338256  0.578935  1
  Pd  Pd22  1  0.153426  0.661744  0.078935  1
  Pd  Pd23  1  0.653426  0.838256  0.921065  1
  Pd  Pd24  1  0.578935  0.153426  0.838256  1
  Pd  Pd25  1  0.421065  0.653426  0.661744  1
  Pd  Pd26  1  0.921065  0.846574  0.338256  1
  Pd  Pd27  1  0.078935  0.346574  0.161744  1
  Pd  Pd28  1  0.838256  0.578935  0.153426  1
  Pd  Pd29  1  0.661744  0.421065  0.653426  1
  Pd  Pd30  1  0.338256  0.921065  0.846574  1
  Pd  Pd31  1  0.161744  0.078935  0.346574  1
  Pd  Pd32  1  0.153426  0.838256  0.578935  1
  Pd  Pd33  1  0.653426  0.661744  0.421065  1
  Pd  Pd34  1  0.846574  0.338256  0.921065  1
  Pd  Pd35  1  0.346574  0.161744  0.078935  1
