# generated using pymatgen
data_Dy19Tm(Bi2Sb)4
_symmetry_space_group_name_H-M   'P 1'
_cell_length_a   8.18535990
_cell_length_b   9.46106513
_cell_length_c   11.99364703
_cell_angle_alpha   89.98703963
_cell_angle_beta   90.03761229
_cell_angle_gamma   89.99400940
_symmetry_Int_Tables_number   1
_chemical_formula_structural   Dy19Tm(Bi2Sb)4
_chemical_formula_sum   'Dy19 Tm1 Bi8 Sb4'
_cell_volume   928.81445988
_cell_formula_units_Z   1
loop_
 _symmetry_equiv_pos_site_id
 _symmetry_equiv_pos_as_xyz
  1  'x, y, z'
loop_
 _atom_site_type_symbol
 _atom_site_label
 _atom_site_symmetry_multiplicity
 _atom_site_fract_x
 _atom_site_fract_y
 _atom_site_fract_z
 _atom_site_occupancy
  Dy  Dy0  1  0.353543  0.749390  0.212860  1
  Dy  Dy1  1  0.852469  0.749445  0.286647  1
  Dy  Dy2  1  0.646642  0.249645  0.786865  1
  Dy  Dy3  1  0.146747  0.249892  0.713167  1
  Dy  Dy4  1  0.189081  0.937262  0.442220  1
  Dy  Dy5  1  0.311337  0.062825  0.942596  1
  Dy  Dy6  1  0.810731  0.437431  0.557649  1
  Dy  Dy7  1  0.310380  0.437583  0.942293  1
  Dy  Dy8  1  0.810833  0.062680  0.557668  1
  Dy  Dy9  1  0.689294  0.937355  0.057483  1
  Dy  Dy10  1  0.189214  0.562672  0.442386  1
  Dy  Dy11  1  0.471799  0.249692  0.487484  1
  Dy  Dy12  1  0.971528  0.249945  0.012366  1
  Dy  Dy13  1  0.528221  0.750022  0.512347  1
  Dy  Dy14  1  0.027711  0.749794  0.987762  1
  Dy  Dy15  1  0.315050  0.250016  0.218066  1
  Dy  Dy16  1  0.815256  0.249916  0.281864  1
  Dy  Dy17  1  0.684784  0.749633  0.782160  1
  Dy  Dy18  1  0.184781  0.749935  0.718227  1
  Tm  Tm19  1  0.689184  0.564306  0.057668  1
  Bi  Bi20  1  0.565229  0.995455  0.325052  1
  Bi  Bi21  1  0.064846  0.504350  0.174582  1
  Bi  Bi22  1  0.435028  0.495504  0.674947  1
  Bi  Bi23  1  0.934748  0.004217  0.825282  1
  Bi  Bi24  1  0.434862  0.004193  0.674853  1
  Bi  Bi25  1  0.934882  0.495417  0.825429  1
  Bi  Bi26  1  0.565448  0.504286  0.324978  1
  Bi  Bi27  1  0.065169  0.995368  0.174686  1
  Sb  Sb28  1  0.408290  0.749480  0.958178  1
  Sb  Sb29  1  0.907986  0.750097  0.541934  1
  Sb  Sb30  1  0.592812  0.252172  0.042411  1
  Sb  Sb31  1  0.092115  0.250021  0.457888  1
