# generated using pymatgen
data_Dy13Tm2Pa(CdCo)4
_symmetry_space_group_name_H-M   'P 1'
_cell_length_a   9.42848883
_cell_length_b   9.53820675
_cell_length_c   9.43398300
_cell_angle_alpha   60.36081829
_cell_angle_beta   59.98073244
_cell_angle_gamma   60.37960261
_symmetry_Int_Tables_number   1
_chemical_formula_structural   Dy13Tm2Pa(CdCo)4
_chemical_formula_sum   'Dy13 Tm2 Pa1 Cd4 Co4'
_cell_volume   603.16006355
_cell_formula_units_Z   1
loop_
 _symmetry_equiv_pos_site_id
 _symmetry_equiv_pos_as_xyz
  1  'x, y, z'
loop_
 _atom_site_type_symbol
 _atom_site_label
 _atom_site_symmetry_multiplicity
 _atom_site_fract_x
 _atom_site_fract_y
 _atom_site_fract_z
 _atom_site_occupancy
  Dy  Dy0  1  0.939210  0.560906  0.560530  1
  Dy  Dy1  1  0.545116  0.149194  0.152844  1
  Dy  Dy2  1  0.152189  0.149553  0.543689  1
  Dy  Dy3  1  0.936595  0.935760  0.563823  1
  Dy  Dy4  1  0.311985  0.691387  0.308859  1
  Dy  Dy5  1  0.563037  0.936282  0.937575  1
  Dy  Dy6  1  0.563037  0.936282  0.563107  1
  Dy  Dy7  1  0.687417  0.690693  0.310945  1
  Dy  Dy8  1  0.560240  0.560475  0.939642  1
  Dy  Dy9  1  0.939210  0.560906  0.939354  1
  Dy  Dy10  1  0.311985  0.691387  0.687769  1
  Dy  Dy11  1  0.152189  0.149553  0.154569  1
  Dy  Dy12  1  0.313332  0.312442  0.687113  1
  Tm  Tm13  1  0.687625  0.314274  0.686320  1
  Tm  Tm14  1  0.687625  0.314274  0.311780  1
  Pa  Pa15  1  0.164239  0.506521  0.164620  1
  Cd  Cd16  1  0.919114  0.241426  0.919730  1
  Cd  Cd17  1  0.920958  0.916523  0.920546  1
  Cd  Cd18  1  0.920958  0.916523  0.241972  1
  Cd  Cd19  1  0.243416  0.915660  0.920462  1
  Co  Co20  1  0.343905  0.375559  0.936357  1
  Co  Co21  1  0.357484  0.923391  0.359563  1
  Co  Co22  1  0.935230  0.375468  0.344652  1
  Co  Co23  1  0.343905  0.375559  0.344181  1
