# generated using pymatgen
data_YbEuOsC2
_symmetry_space_group_name_H-M   'P 1'
_cell_length_a   5.21426000
_cell_length_b   6.46234700
_cell_length_c   10.50786900
_cell_angle_alpha   90.00000000
_cell_angle_beta   90.00000000
_cell_angle_gamma   90.00000000
_symmetry_Int_Tables_number   1
_chemical_formula_structural   YbEuOsC2
_chemical_formula_sum   'Yb4 Eu4 Os4 C8'
_cell_volume   354.07691005
_cell_formula_units_Z   4
loop_
 _symmetry_equiv_pos_site_id
 _symmetry_equiv_pos_as_xyz
  1  'x, y, z'
loop_
 _atom_site_type_symbol
 _atom_site_label
 _atom_site_symmetry_multiplicity
 _atom_site_fract_x
 _atom_site_fract_y
 _atom_site_fract_z
 _atom_site_occupancy
  Yb  Yb0  1  0.250000  0.532568  0.227206  1
  Yb  Yb1  1  0.750000  0.467432  0.772794  1
  Yb  Yb2  1  0.750000  0.967432  0.727206  1
  Yb  Yb3  1  0.250000  0.032568  0.272794  1
  Eu  Eu4  1  0.250000  0.705926  0.547306  1
  Eu  Eu5  1  0.750000  0.294074  0.452694  1
  Eu  Eu6  1  0.750000  0.794074  0.047306  1
  Eu  Eu7  1  0.250000  0.205926  0.952694  1
  Os  Os8  1  0.250000  0.731303  0.850871  1
  Os  Os9  1  0.750000  0.268697  0.149129  1
  Os  Os10  1  0.750000  0.768697  0.350871  1
  Os  Os11  1  0.250000  0.231303  0.649129  1
  C  C12  1  0.250000  0.472046  0.755918  1
  C  C13  1  0.750000  0.527954  0.244082  1
  C  C14  1  0.750000  0.027954  0.255918  1
  C  C15  1  0.250000  0.972046  0.744082  1
  C  C16  1  0.250000  0.788086  0.025491  1
  C  C17  1  0.750000  0.211914  0.974509  1
  C  C18  1  0.750000  0.711914  0.525491  1
  C  C19  1  0.250000  0.288086  0.474509  1
