# generated using pymatgen
data_Sr3P2Rh6Pb
_symmetry_space_group_name_H-M   'P 1'
_cell_length_a   5.79322100
_cell_length_b   5.79321890
_cell_length_c   15.15941000
_cell_angle_alpha   90.00000000
_cell_angle_beta   90.00000000
_cell_angle_gamma   119.99999485
_symmetry_Int_Tables_number   1
_chemical_formula_structural   Sr3P2Rh6Pb
_chemical_formula_sum   'Sr6 P4 Rh12 Pb2'
_cell_volume   440.60861924
_cell_formula_units_Z   2
loop_
 _symmetry_equiv_pos_site_id
 _symmetry_equiv_pos_as_xyz
  1  'x, y, z'
loop_
 _atom_site_type_symbol
 _atom_site_label
 _atom_site_symmetry_multiplicity
 _atom_site_fract_x
 _atom_site_fract_y
 _atom_site_fract_z
 _atom_site_occupancy
  Sr  Sr0  1  0.666667  0.333333  0.961825  1
  Sr  Sr1  1  0.666667  0.333333  0.538175  1
  Sr  Sr2  1  0.333333  0.666667  0.038175  1
  Sr  Sr3  1  0.666667  0.333333  0.750000  1
  Sr  Sr4  1  0.333333  0.666667  0.461825  1
  Sr  Sr5  1  0.333333  0.666667  0.250000  1
  P  P6  1  0.666667  0.333333  0.250000  1
  P  P7  1  0.000000  0.000000  0.250000  1
  P  P8  1  0.000000  0.000000  0.750000  1
  P  P9  1  0.333333  0.666667  0.750000  1
  Rh  Rh10  1  0.166474  0.332949  0.851762  1
  Rh  Rh11  1  0.166474  0.332949  0.648238  1
  Rh  Rh12  1  0.667051  0.833526  0.851762  1
  Rh  Rh13  1  0.332949  0.166474  0.351762  1
  Rh  Rh14  1  0.833526  0.667051  0.351762  1
  Rh  Rh15  1  0.833526  0.166474  0.351762  1
  Rh  Rh16  1  0.833526  0.166474  0.148238  1
  Rh  Rh17  1  0.332949  0.166474  0.148238  1
  Rh  Rh18  1  0.667051  0.833526  0.648238  1
  Rh  Rh19  1  0.166474  0.833526  0.648238  1
  Rh  Rh20  1  0.833526  0.667051  0.148238  1
  Rh  Rh21  1  0.166474  0.833526  0.851762  1
  Pb  Pb22  1  0.000000  0.000000  0.500000  1
  Pb  Pb23  1  0.000000  0.000000  0.000000  1
