# generated using pymatgen
data_Ta12Mn3Al9C4
_symmetry_space_group_name_H-M   'P 1'
_cell_length_a   8.22664309
_cell_length_b   8.22664352
_cell_length_c   8.22664296
_cell_angle_alpha   60.29135827
_cell_angle_beta   60.29135733
_cell_angle_gamma   60.29135935
_symmetry_Int_Tables_number   1
_chemical_formula_structural   Ta12Mn3Al9C4
_chemical_formula_sum   'Ta12 Mn3 Al9 C4'
_cell_volume   396.28455028
_cell_formula_units_Z   1
loop_
 _symmetry_equiv_pos_site_id
 _symmetry_equiv_pos_as_xyz
  1  'x, y, z'
loop_
 _atom_site_type_symbol
 _atom_site_label
 _atom_site_symmetry_multiplicity
 _atom_site_fract_x
 _atom_site_fract_y
 _atom_site_fract_z
 _atom_site_occupancy
  Ta  Ta0  1  0.192381  0.806891  0.192381  1
  Ta  Ta1  1  0.806989  0.191515  0.806989  1
  Ta  Ta2  1  0.057619  0.443109  0.057619  1
  Ta  Ta3  1  0.058485  0.443011  0.443011  1
  Ta  Ta4  1  0.443109  0.057619  0.057619  1
  Ta  Ta5  1  0.443011  0.058485  0.443011  1
  Ta  Ta6  1  0.806989  0.806989  0.191515  1
  Ta  Ta7  1  0.057619  0.057619  0.443109  1
  Ta  Ta8  1  0.192381  0.192381  0.806891  1
  Ta  Ta9  1  0.191515  0.806989  0.806989  1
  Ta  Ta10  1  0.443011  0.443011  0.058485  1
  Ta  Ta11  1  0.806891  0.192381  0.192381  1
  Mn  Mn12  1  0.125000  0.625000  0.625000  1
  Mn  Mn13  1  0.625000  0.625000  0.125000  1
  Mn  Mn14  1  0.625000  0.125000  0.625000  1
  Al  Al15  1  0.625000  0.625000  0.625000  1
  Al  Al16  1  0.839344  0.839344  0.498997  1
  Al  Al17  1  0.498997  0.839344  0.839344  1
  Al  Al18  1  0.410656  0.751003  0.410656  1
  Al  Al19  1  0.751003  0.410656  0.410656  1
  Al  Al20  1  0.416876  0.416876  0.416876  1
  Al  Al21  1  0.410656  0.410656  0.751003  1
  Al  Al22  1  0.839344  0.498997  0.839344  1
  Al  Al23  1  0.833124  0.833124  0.833124  1
  C  C24  1  0.125000  0.125000  0.125000  1
  C  C25  1  0.125000  0.125000  0.625000  1
  C  C26  1  0.625000  0.125000  0.125000  1
  C  C27  1  0.125000  0.625000  0.125000  1
