# generated using pymatgen
data_Y10NiHgPd2
_symmetry_space_group_name_H-M   'P 1'
_cell_length_a   9.52561669
_cell_length_b   9.53836190
_cell_length_c   9.44248700
_cell_angle_alpha   90.00000000
_cell_angle_beta   90.00000000
_cell_angle_gamma   120.04425974
_symmetry_Int_Tables_number   1
_chemical_formula_structural   Y10NiHgPd2
_chemical_formula_sum   'Y20 Ni2 Hg2 Pd4'
_cell_volume   742.66004718
_cell_formula_units_Z   2
loop_
 _symmetry_equiv_pos_site_id
 _symmetry_equiv_pos_as_xyz
  1  'x, y, z'
loop_
 _atom_site_type_symbol
 _atom_site_label
 _atom_site_symmetry_multiplicity
 _atom_site_fract_x
 _atom_site_fract_y
 _atom_site_fract_z
 _atom_site_occupancy
  Y  Y0  1  0.004314  0.002157  0.532211  1
  Y  Y1  1  0.004314  0.002157  0.967789  1
  Y  Y2  1  0.531430  0.447555  0.250000  1
  Y  Y3  1  0.531430  0.083876  0.250000  1
  Y  Y4  1  0.910817  0.455408  0.250000  1
  Y  Y5  1  0.456510  0.542688  0.750000  1
  Y  Y6  1  0.456510  0.913822  0.750000  1
  Y  Y7  1  0.085233  0.542616  0.750000  1
  Y  Y8  1  0.206874  0.792129  0.440709  1
  Y  Y9  1  0.206874  0.414746  0.440709  1
  Y  Y10  1  0.587298  0.793649  0.441518  1
  Y  Y11  1  0.791468  0.206972  0.562303  1
  Y  Y12  1  0.791468  0.584494  0.562303  1
  Y  Y13  1  0.415259  0.207630  0.560436  1
  Y  Y14  1  0.791468  0.206972  0.937697  1
  Y  Y15  1  0.791468  0.584494  0.937697  1
  Y  Y16  1  0.415259  0.207630  0.939564  1
  Y  Y17  1  0.206874  0.792129  0.059291  1
  Y  Y18  1  0.206874  0.414746  0.059291  1
  Y  Y19  1  0.587298  0.793649  0.058482  1
  Ni  Ni20  1  0.335037  0.667519  0.250000  1
  Ni  Ni21  1  0.664553  0.332276  0.750000  1
  Hg  Hg22  1  0.890088  0.114962  0.250000  1
  Hg  Hg23  1  0.890088  0.775126  0.250000  1
  Pd  Pd24  1  0.240351  0.120176  0.250000  1
  Pd  Pd25  1  0.126820  0.871391  0.750000  1
  Pd  Pd26  1  0.126820  0.255429  0.750000  1
  Pd  Pd27  1  0.747205  0.873602  0.750000  1
