# generated using pymatgen
data_Na(USe3)2
_symmetry_space_group_name_H-M   'P 1'
_cell_length_a   11.04981561
_cell_length_b   11.04981561
_cell_length_c   11.04981501
_cell_angle_alpha   159.02351212
_cell_angle_beta   151.17191469
_cell_angle_gamma   35.92381597
_symmetry_Int_Tables_number   1
_chemical_formula_structural   Na(USe3)2
_chemical_formula_sum   'Na1 U2 Se6'
_cell_volume   232.62133757
_cell_formula_units_Z   1
loop_
 _symmetry_equiv_pos_site_id
 _symmetry_equiv_pos_as_xyz
  1  'x, y, z'
loop_
 _atom_site_type_symbol
 _atom_site_label
 _atom_site_symmetry_multiplicity
 _atom_site_fract_x
 _atom_site_fract_y
 _atom_site_fract_z
 _atom_site_occupancy
  Na  Na0  1  0.000000  0.000000  0.000000  1
  U  U1  1  0.323193  0.823193  0.500000  1
  U  U2  1  0.676807  0.176807  0.500000  1
  Se  Se3  1  0.224856  0.224856  0.000000  1
  Se  Se4  1  0.349952  0.598457  0.751496  1
  Se  Se5  1  0.650048  0.401543  0.248504  1
  Se  Se6  1  0.153038  0.401543  0.751496  1
  Se  Se7  1  0.846962  0.598457  0.248504  1
  Se  Se8  1  0.775144  0.775144  0.000000  1
