# generated using pymatgen
data_Sc2Co5Si14Rh
_symmetry_space_group_name_H-M   'P 1'
_cell_length_a   7.63560104
_cell_length_b   7.61485665
_cell_length_c   7.61485560
_cell_angle_alpha   57.39697414
_cell_angle_beta   57.21618823
_cell_angle_gamma   57.21618369
_symmetry_Int_Tables_number   1
_chemical_formula_structural   Sc2Co5Si14Rh
_chemical_formula_sum   'Sc2 Co5 Si14 Rh1'
_cell_volume   293.44152738
_cell_formula_units_Z   1
loop_
 _symmetry_equiv_pos_site_id
 _symmetry_equiv_pos_as_xyz
  1  'x, y, z'
loop_
 _atom_site_type_symbol
 _atom_site_label
 _atom_site_symmetry_multiplicity
 _atom_site_fract_x
 _atom_site_fract_y
 _atom_site_fract_z
 _atom_site_occupancy
  Sc  Sc0  1  0.001333  0.998701  0.999805  1
  Sc  Sc1  1  0.498667  0.500195  0.501299  1
  Co  Co2  1  0.071932  0.427649  0.750741  1
  Co  Co3  1  0.250000  0.926761  0.573239  1
  Co  Co4  1  0.571391  0.250806  0.927211  1
  Co  Co5  1  0.928609  0.572789  0.249194  1
  Co  Co6  1  0.428068  0.749259  0.072351  1
  Si  Si7  1  0.750000  0.739805  0.760195  1
  Si  Si8  1  0.250000  0.250615  0.249385  1
  Si  Si9  1  0.855553  0.073487  0.672384  1
  Si  Si10  1  0.666447  0.850014  0.073392  1
  Si  Si11  1  0.075903  0.666087  0.849698  1
  Si  Si12  1  0.644447  0.827616  0.426513  1
  Si  Si13  1  0.424097  0.650302  0.833913  1
  Si  Si14  1  0.833553  0.426608  0.649986  1
  Si  Si15  1  0.164119  0.575810  0.350526  1
  Si  Si16  1  0.568421  0.358600  0.158357  1
  Si  Si17  1  0.339372  0.168150  0.577080  1
  Si  Si18  1  0.931579  0.341643  0.141400  1
  Si  Si19  1  0.335881  0.149474  0.924190  1
  Si  Si20  1  0.160628  0.922920  0.331850  1
  Rh  Rh21  1  0.750000  0.072710  0.427290  1
