# generated using pymatgen
data_CeLu2Ir9
_symmetry_space_group_name_H-M   'P 1'
_cell_length_a   5.30028000
_cell_length_b   5.29993212
_cell_length_c   17.43339300
_cell_angle_alpha   90.00000000
_cell_angle_beta   90.00000000
_cell_angle_gamma   120.00215886
_symmetry_Int_Tables_number   1
_chemical_formula_structural   CeLu2Ir9
_chemical_formula_sum   'Ce2 Lu4 Ir18'
_cell_volume   424.10385889
_cell_formula_units_Z   2
loop_
 _symmetry_equiv_pos_site_id
 _symmetry_equiv_pos_as_xyz
  1  'x, y, z'
loop_
 _atom_site_type_symbol
 _atom_site_label
 _atom_site_symmetry_multiplicity
 _atom_site_fract_x
 _atom_site_fract_y
 _atom_site_fract_z
 _atom_site_occupancy
  Ce  Ce0  1  0.666648  0.333297  0.250000  1
  Ce  Ce1  1  0.333351  0.666702  0.750000  1
  Lu  Lu2  1  0.666675  0.333351  0.039881  1
  Lu  Lu3  1  0.666675  0.333351  0.460119  1
  Lu  Lu4  1  0.333325  0.666650  0.539885  1
  Lu  Lu5  1  0.333325  0.666650  0.960115  1
  Ir  Ir6  1  0.000000  0.000000  0.000000  1
  Ir  Ir7  1  0.167636  0.335272  0.124486  1
  Ir  Ir8  1  0.664817  0.832397  0.124488  1
  Ir  Ir9  1  0.167580  0.832397  0.124488  1
  Ir  Ir10  1  0.999971  0.999941  0.250000  1
  Ir  Ir11  1  0.333404  0.666808  0.250000  1
  Ir  Ir12  1  0.664817  0.832397  0.375512  1
  Ir  Ir13  1  0.167580  0.832397  0.375512  1
  Ir  Ir14  1  0.167636  0.335272  0.375514  1
  Ir  Ir15  1  0.000000  0.000000  0.500000  1
  Ir  Ir16  1  0.832363  0.664726  0.624484  1
  Ir  Ir17  1  0.832420  0.167604  0.624486  1
  Ir  Ir18  1  0.335185  0.167604  0.624486  1
  Ir  Ir19  1  0.000029  0.000059  0.750000  1
  Ir  Ir20  1  0.666594  0.333189  0.750000  1
  Ir  Ir21  1  0.832420  0.167604  0.875514  1
  Ir  Ir22  1  0.335185  0.167604  0.875514  1
  Ir  Ir23  1  0.832363  0.664726  0.875516  1
