# generated using pymatgen
data_Y4Mn4Co9Ni7P12
_symmetry_space_group_name_H-M   'P 1'
_cell_length_a   3.68634700
_cell_length_b   10.35714339
_cell_length_c   11.87225639
_cell_angle_alpha   90.12757820
_cell_angle_beta   90.00000000
_cell_angle_gamma   90.00000000
_symmetry_Int_Tables_number   1
_chemical_formula_structural   Y4Mn4Co9Ni7P12
_chemical_formula_sum   'Y4 Mn4 Co9 Ni7 P12'
_cell_volume   453.28191576
_cell_formula_units_Z   1
loop_
 _symmetry_equiv_pos_site_id
 _symmetry_equiv_pos_as_xyz
  1  'x, y, z'
loop_
 _atom_site_type_symbol
 _atom_site_label
 _atom_site_symmetry_multiplicity
 _atom_site_fract_x
 _atom_site_fract_y
 _atom_site_fract_z
 _atom_site_occupancy
  Y  Y0  1  0.250000  0.918569  0.204519  1
  Y  Y1  1  0.750000  0.082286  0.794896  1
  Y  Y2  1  0.750000  0.417125  0.294434  1
  Y  Y3  1  0.250000  0.582006  0.705315  1
  Mn  Mn4  1  0.250000  0.790643  0.487091  1
  Mn  Mn5  1  0.750000  0.209265  0.512336  1
  Mn  Mn6  1  0.750000  0.291486  0.013448  1
  Mn  Mn7  1  0.250000  0.710127  0.987666  1
  Co  Co8  1  0.250000  0.222862  0.176026  1
  Co  Co9  1  0.250000  0.618128  0.198871  1
  Co  Co10  1  0.750000  0.380891  0.801429  1
  Co  Co11  1  0.750000  0.118300  0.301623  1
  Co  Co12  1  0.250000  0.881158  0.698769  1
  Co  Co13  1  0.250000  0.034161  0.432588  1
  Co  Co14  1  0.750000  0.966212  0.567016  1
  Co  Co15  1  0.750000  0.533381  0.067472  1
  Co  Co16  1  0.250000  0.466751  0.932894  1
  Ni  Ni17  1  0.250000  0.093047  0.987827  1
  Ni  Ni18  1  0.750000  0.907977  0.012489  1
  Ni  Ni19  1  0.750000  0.593148  0.511939  1
  Ni  Ni20  1  0.250000  0.406477  0.487853  1
  Ni  Ni21  1  0.250000  0.276424  0.676807  1
  Ni  Ni22  1  0.750000  0.723198  0.323240  1
  Ni  Ni23  1  0.750000  0.776295  0.823593  1
  P  P24  1  0.250000  0.076370  0.612636  1
  P  P25  1  0.750000  0.923743  0.387010  1
  P  P26  1  0.750000  0.576190  0.887830  1
  P  P27  1  0.250000  0.420153  0.112657  1
  P  P28  1  0.250000  0.228391  0.364958  1
  P  P29  1  0.750000  0.771363  0.632017  1
  P  P30  1  0.750000  0.728295  0.131854  1
  P  P31  1  0.250000  0.271531  0.868920  1
  P  P32  1  0.250000  0.898950  0.889928  1
  P  P33  1  0.750000  0.105646  0.112122  1
  P  P34  1  0.750000  0.398452  0.610487  1
  P  P35  1  0.250000  0.601000  0.389441  1
