# generated using pymatgen
data_PrSm7(BeSi3)4
_symmetry_space_group_name_H-M   'P 1'
_cell_length_a   7.91025700
_cell_length_b   7.91025767
_cell_length_c   8.42569000
_cell_angle_alpha   90.00000000
_cell_angle_beta   90.00000000
_cell_angle_gamma   120.00000137
_symmetry_Int_Tables_number   1
_chemical_formula_structural   PrSm7(BeSi3)4
_chemical_formula_sum   'Pr1 Sm7 Be4 Si12'
_cell_volume   456.58046542
_cell_formula_units_Z   1
loop_
 _symmetry_equiv_pos_site_id
 _symmetry_equiv_pos_as_xyz
  1  'x, y, z'
loop_
 _atom_site_type_symbol
 _atom_site_label
 _atom_site_symmetry_multiplicity
 _atom_site_fract_x
 _atom_site_fract_y
 _atom_site_fract_z
 _atom_site_occupancy
  Pr  Pr0  1  0.000000  0.000000  0.250000  1
  Sm  Sm1  1  0.499727  0.500273  0.750000  1
  Sm  Sm2  1  0.500282  0.499718  0.250000  1
  Sm  Sm3  1  0.000547  0.500273  0.750000  1
  Sm  Sm4  1  0.999436  0.499718  0.250000  1
  Sm  Sm5  1  0.499727  0.999453  0.750000  1
  Sm  Sm6  1  0.500282  0.000564  0.250000  1
  Sm  Sm7  1  0.000000  0.000000  0.750000  1
  Be  Be8  1  0.666667  0.333333  0.997498  1
  Be  Be9  1  0.333333  0.666667  0.001567  1
  Be  Be10  1  0.333333  0.666667  0.498433  1
  Be  Be11  1  0.666667  0.333333  0.502502  1
  Si  Si12  1  0.827174  0.172826  0.998511  1
  Si  Si13  1  0.172821  0.827179  0.998524  1
  Si  Si14  1  0.345653  0.172826  0.998511  1
  Si  Si15  1  0.172821  0.827179  0.501476  1
  Si  Si16  1  0.654358  0.827179  0.998524  1
  Si  Si17  1  0.827174  0.172826  0.501489  1
  Si  Si18  1  0.827174  0.654347  0.998511  1
  Si  Si19  1  0.654358  0.827179  0.501476  1
  Si  Si20  1  0.172821  0.345642  0.998524  1
  Si  Si21  1  0.345653  0.172826  0.501489  1
  Si  Si22  1  0.172821  0.345642  0.501476  1
  Si  Si23  1  0.827174  0.654347  0.501489  1
