# generated using pymatgen
data_Sm3Sn3PdRuPt
_symmetry_space_group_name_H-M   'P 1'
_cell_length_a   7.71166900
_cell_length_b   7.71167026
_cell_length_c   3.95063200
_cell_angle_alpha   90.00000000
_cell_angle_beta   90.00000000
_cell_angle_gamma   119.99999032
_symmetry_Int_Tables_number   1
_chemical_formula_structural   Sm3Sn3PdRuPt
_chemical_formula_sum   'Sm3 Sn3 Pd1 Ru1 Pt1'
_cell_volume   203.46704750
_cell_formula_units_Z   1
loop_
 _symmetry_equiv_pos_site_id
 _symmetry_equiv_pos_as_xyz
  1  'x, y, z'
loop_
 _atom_site_type_symbol
 _atom_site_label
 _atom_site_symmetry_multiplicity
 _atom_site_fract_x
 _atom_site_fract_y
 _atom_site_fract_z
 _atom_site_occupancy
  Sm  Sm0  1  0.407476  0.404065  0.000000  1
  Sm  Sm1  1  0.595935  0.003411  0.000000  1
  Sm  Sm2  1  0.996589  0.592524  0.000000  1
  Sn  Sn3  1  0.001516  0.255044  0.500000  1
  Sn  Sn4  1  0.744956  0.746472  0.500000  1
  Sn  Sn5  1  0.253528  0.998484  0.500000  1
  Pd  Pd6  1  0.333333  0.666667  0.500000  1
  Ru  Ru7  1  0.000000  0.000000  0.000000  1
  Pt  Pt8  1  0.666667  0.333333  0.500000  1
