# generated using pymatgen
data_Hf5UCo16Si7
_symmetry_space_group_name_H-M   'P 1'
_cell_length_a   8.04066325
_cell_length_b   8.04534290
_cell_length_c   8.04534336
_cell_angle_alpha   59.96151944
_cell_angle_beta   60.01924434
_cell_angle_gamma   60.01924446
_symmetry_Int_Tables_number   1
_chemical_formula_structural   Hf5UCo16Si7
_chemical_formula_sum   'Hf5 U1 Co16 Si7'
_cell_volume   368.01519625
_cell_formula_units_Z   1
loop_
 _symmetry_equiv_pos_site_id
 _symmetry_equiv_pos_as_xyz
  1  'x, y, z'
loop_
 _atom_site_type_symbol
 _atom_site_label
 _atom_site_symmetry_multiplicity
 _atom_site_fract_x
 _atom_site_fract_y
 _atom_site_fract_z
 _atom_site_occupancy
  Hf  Hf0  1  0.790695  0.796691  0.209305  1
  Hf  Hf1  1  0.797543  0.202457  0.202457  1
  Hf  Hf2  1  0.203309  0.209305  0.796691  1
  Hf  Hf3  1  0.790695  0.209305  0.796691  1
  Hf  Hf4  1  0.203309  0.796691  0.209305  1
  U  U5  1  0.212339  0.787661  0.787661  1
  Co  Co6  1  0.619631  0.620787  0.139952  1
  Co  Co7  1  0.169336  0.501446  0.159884  1
  Co  Co8  1  0.860048  0.380369  0.380369  1
  Co  Co9  1  0.498554  0.830664  0.830664  1
  Co  Co10  1  0.486850  0.169654  0.169654  1
  Co  Co11  1  0.830346  0.826157  0.513150  1
  Co  Co12  1  0.169336  0.159884  0.501446  1
  Co  Co13  1  0.140795  0.619700  0.619700  1
  Co  Co14  1  0.173843  0.169654  0.169654  1
  Co  Co15  1  0.380300  0.380194  0.859205  1
  Co  Co16  1  0.619806  0.619700  0.619700  1
  Co  Co17  1  0.380300  0.859205  0.380194  1
  Co  Co18  1  0.379213  0.380369  0.380369  1
  Co  Co19  1  0.840116  0.830664  0.830664  1
  Co  Co20  1  0.619631  0.139952  0.620787  1
  Co  Co21  1  0.830346  0.513150  0.826157  1
  Si  Si22  1  0.506901  0.009458  0.493099  1
  Si  Si23  1  0.506901  0.493099  0.009458  1
  Si  Si24  1  0.501530  0.498470  0.498470  1
  Si  Si25  1  0.990542  0.009458  0.493099  1
  Si  Si26  1  0.990542  0.493099  0.009458  1
  Si  Si27  1  0.003623  0.496377  0.496377  1
  Si  Si28  1  0.503623  0.996377  0.996377  1
