# generated using pymatgen
data_Cs2CoGeO4
_symmetry_space_group_name_H-M   'P 1'
_cell_length_a   7.16716691
_cell_length_b   6.01771711
_cell_length_c   8.32311400
_cell_angle_alpha   90.00148651
_cell_angle_beta   89.99955694
_cell_angle_gamma   114.83629218
_symmetry_Int_Tables_number   1
_chemical_formula_structural   Cs2CoGeO4
_chemical_formula_sum   'Cs4 Co2 Ge2 O8'
_cell_volume   325.77467331
_cell_formula_units_Z   2
loop_
 _symmetry_equiv_pos_site_id
 _symmetry_equiv_pos_as_xyz
  1  'x, y, z'
loop_
 _atom_site_type_symbol
 _atom_site_label
 _atom_site_symmetry_multiplicity
 _atom_site_fract_x
 _atom_site_fract_y
 _atom_site_fract_z
 _atom_site_occupancy
  Cs  Cs0  1  0.182179  0.591133  0.082605  1
  Cs  Cs1  1  0.852862  0.926480  0.228618  1
  Cs  Cs2  1  0.817821  0.408862  0.582605  1
  Cs  Cs3  1  0.147139  0.073523  0.728618  1
  Co  Co4  1  0.408696  0.204321  0.304691  1
  Co  Co5  1  0.591302  0.795684  0.804691  1
  Ge  Ge6  1  0.608521  0.304333  0.018027  1
  Ge  Ge7  1  0.391480  0.695664  0.518025  1
  O  O8  1  0.337446  0.168741  0.063394  1
  O  O9  1  0.704512  0.352432  0.221916  1
  O  O10  1  0.299007  0.410966  0.413598  1
  O  O11  1  0.299068  0.887946  0.413650  1
  O  O12  1  0.662555  0.831231  0.563394  1
  O  O13  1  0.295488  0.647583  0.721915  1
  O  O14  1  0.700959  0.112073  0.913646  1
  O  O15  1  0.700963  0.589024  0.913604  1
