# generated using pymatgen
data_YbLu2Al3Ge2Pt
_symmetry_space_group_name_H-M   'P 1'
_cell_length_a   6.92927300
_cell_length_b   6.93246218
_cell_length_c   4.19174800
_cell_angle_alpha   90.00000000
_cell_angle_beta   90.00000000
_cell_angle_gamma   119.98477854
_symmetry_Int_Tables_number   1
_chemical_formula_structural   YbLu2Al3Ge2Pt
_chemical_formula_sum   'Yb1 Lu2 Al3 Ge2 Pt1'
_cell_volume   174.40846937
_cell_formula_units_Z   1
loop_
 _symmetry_equiv_pos_site_id
 _symmetry_equiv_pos_as_xyz
  1  'x, y, z'
loop_
 _atom_site_type_symbol
 _atom_site_label
 _atom_site_symmetry_multiplicity
 _atom_site_fract_x
 _atom_site_fract_y
 _atom_site_fract_z
 _atom_site_occupancy
  Yb  Yb0  1  0.418310  0.000000  0.000000  1
  Lu  Lu1  1  0.003249  0.416828  0.000000  1
  Lu  Lu2  1  0.586420  0.583171  0.000000  1
  Al  Al3  1  0.765786  0.000000  0.500001  1
  Al  Al4  1  0.231685  0.236398  0.500001  1
  Al  Al5  1  0.995287  0.763601  0.500001  1
  Ge  Ge6  1  0.672281  0.338774  0.500001  1
  Ge  Ge7  1  0.333508  0.661227  0.500001  1
  Pt  Pt8  1  0.993474  0.000000  0.000000  1
