# generated using pymatgen
data_ErLu3Ga18(Ir2Pt)2
_symmetry_space_group_name_H-M   'P 1'
_cell_length_a   7.59580470
_cell_length_b   7.59538798
_cell_length_c   9.43203500
_cell_angle_alpha   90.00000000
_cell_angle_beta   90.00000000
_cell_angle_gamma   119.83810365
_symmetry_Int_Tables_number   1
_chemical_formula_structural   ErLu3Ga18(Ir2Pt)2
_chemical_formula_sum   'Er1 Lu3 Ga18 Ir4 Pt2'
_cell_volume   472.02605978
_cell_formula_units_Z   1
loop_
 _symmetry_equiv_pos_site_id
 _symmetry_equiv_pos_as_xyz
  1  'x, y, z'
loop_
 _atom_site_type_symbol
 _atom_site_label
 _atom_site_symmetry_multiplicity
 _atom_site_fract_x
 _atom_site_fract_y
 _atom_site_fract_z
 _atom_site_occupancy
  Er  Er0  1  0.996648  0.673289  0.250000  1
  Lu  Lu1  1  0.003140  0.326373  0.750000  1
  Lu  Lu2  1  0.673370  0.996633  0.250000  1
  Lu  Lu3  1  0.326481  0.003204  0.750000  1
  Ga  Ga4  1  0.336551  0.549893  0.250000  1
  Ga  Ga5  1  0.663568  0.450037  0.750000  1
  Ga  Ga6  1  0.549611  0.336144  0.250000  1
  Ga  Ga7  1  0.450059  0.663595  0.750000  1
  Ga  Ga8  1  0.997632  0.338351  0.082483  1
  Ga  Ga9  1  0.002394  0.661254  0.917117  1
  Ga  Ga10  1  0.002394  0.661254  0.582883  1
  Ga  Ga11  1  0.339268  0.998077  0.417499  1
  Ga  Ga12  1  0.997632  0.338351  0.417517  1
  Ga  Ga13  1  0.661272  0.002379  0.582617  1
  Ga  Ga14  1  0.661272  0.002379  0.917383  1
  Ga  Ga15  1  0.339268  0.998077  0.082501  1
  Ga  Ga16  1  0.335325  0.335326  0.570718  1
  Ga  Ga17  1  0.664271  0.664713  0.429495  1
  Ga  Ga18  1  0.664271  0.664713  0.070505  1
  Ga  Ga19  1  0.335325  0.335326  0.929282  1
  Ga  Ga20  1  0.135569  0.135727  0.250000  1
  Ga  Ga21  1  0.864459  0.864513  0.750000  1
  Ir  Ir22  1  0.671437  0.328490  0.999811  1
  Ir  Ir23  1  0.328599  0.671515  0.999809  1
  Ir  Ir24  1  0.328599  0.671515  0.500191  1
  Ir  Ir25  1  0.671437  0.328490  0.500189  1
  Pt  Pt26  1  0.000073  0.000193  0.999775  1
  Pt  Pt27  1  0.000073  0.000193  0.500225  1
