# generated using pymatgen
data_Lu4MnSi(B2Ir5)2
_symmetry_space_group_name_H-M   'P 1'
_cell_length_a   9.43590500
_cell_length_b   9.43590500
_cell_length_c   3.16529200
_cell_angle_alpha   90.00000000
_cell_angle_beta   90.00000000
_cell_angle_gamma   90.00000000
_symmetry_Int_Tables_number   1
_chemical_formula_structural   Lu4MnSi(B2Ir5)2
_chemical_formula_sum   'Lu4 Mn1 Si1 B4 Ir10'
_cell_volume   281.82589813
_cell_formula_units_Z   1
loop_
 _symmetry_equiv_pos_site_id
 _symmetry_equiv_pos_as_xyz
  1  'x, y, z'
loop_
 _atom_site_type_symbol
 _atom_site_label
 _atom_site_symmetry_multiplicity
 _atom_site_fract_x
 _atom_site_fract_y
 _atom_site_fract_z
 _atom_site_occupancy
  Lu  Lu0  1  0.675959  0.176718  0.000000  1
  Lu  Lu1  1  0.324041  0.823282  0.000000  1
  Lu  Lu2  1  0.176718  0.324041  0.000000  1
  Lu  Lu3  1  0.823282  0.675959  0.000000  1
  Mn  Mn4  1  0.500000  0.500000  0.000000  1
  Si  Si5  1  0.000000  0.000000  0.000000  1
  B  B6  1  0.122480  0.622418  0.000000  1
  B  B7  1  0.877520  0.377582  0.000000  1
  B  B8  1  0.622418  0.877520  0.000000  1
  B  B9  1  0.377582  0.122480  0.000000  1
  Ir  Ir10  1  0.212993  0.066152  0.500000  1
  Ir  Ir11  1  0.787007  0.933848  0.500000  1
  Ir  Ir12  1  0.066152  0.787007  0.500000  1
  Ir  Ir13  1  0.719430  0.428421  0.500000  1
  Ir  Ir14  1  0.933848  0.212993  0.500000  1
  Ir  Ir15  1  0.280570  0.571579  0.500000  1
  Ir  Ir16  1  0.571579  0.719430  0.500000  1
  Ir  Ir17  1  0.428421  0.280570  0.500000  1
  Ir  Ir18  1  0.500000  0.000000  0.500000  1
  Ir  Ir19  1  0.000000  0.500000  0.500000  1
