# generated using pymatgen
data_Tb6Er10Cd2Ag2Pd3Pt
_symmetry_space_group_name_H-M   'P 1'
_cell_length_a   9.65840000
_cell_length_b   9.64809910
_cell_length_c   9.64810100
_cell_angle_alpha   59.99999690
_cell_angle_beta   60.03527093
_cell_angle_gamma   60.03527039
_symmetry_Int_Tables_number   1
_chemical_formula_structural   Tb6Er10Cd2Ag2Pd3Pt
_chemical_formula_sum   'Tb6 Er10 Cd2 Ag2 Pd3 Pt1'
_cell_volume   636.07027406
_cell_formula_units_Z   1
loop_
 _symmetry_equiv_pos_site_id
 _symmetry_equiv_pos_as_xyz
  1  'x, y, z'
loop_
 _atom_site_type_symbol
 _atom_site_label
 _atom_site_symmetry_multiplicity
 _atom_site_fract_x
 _atom_site_fract_y
 _atom_site_fract_z
 _atom_site_occupancy
  Tb  Tb0  1  0.932983  0.565783  0.565739  1
  Tb  Tb1  1  0.565573  0.933785  0.936047  1
  Tb  Tb2  1  0.565573  0.933785  0.564594  1
  Tb  Tb3  1  0.932983  0.565783  0.935495  1
  Tb  Tb4  1  0.565685  0.564597  0.934859  1
  Tb  Tb5  1  0.934158  0.934287  0.565777  1
  Er  Er6  1  0.355346  0.352487  0.351923  1
  Er  Er7  1  0.355346  0.352487  0.940243  1
  Er  Er8  1  0.355767  0.939409  0.352412  1
  Er  Er9  1  0.937398  0.354500  0.354052  1
  Er  Er10  1  0.810857  0.187644  0.187837  1
  Er  Er11  1  0.187652  0.812349  0.812459  1
  Er  Er12  1  0.187652  0.812349  0.187539  1
  Er  Er13  1  0.810857  0.187644  0.813662  1
  Er  Er14  1  0.187698  0.187477  0.812412  1
  Er  Er15  1  0.810848  0.813520  0.187816  1
  Cd  Cd16  1  0.581875  0.256188  0.580968  1
  Cd  Cd17  1  0.256961  0.581536  0.580752  1
  Ag  Ag18  1  0.582629  0.582229  0.581982  1
  Ag  Ag19  1  0.582629  0.582229  0.253159  1
  Pd  Pd20  1  0.143578  0.144410  0.144520  1
  Pd  Pd21  1  0.143578  0.144410  0.567492  1
  Pd  Pd22  1  0.143437  0.567519  0.144522  1
  Pt  Pt23  1  0.568936  0.143589  0.143737  1
