# generated using pymatgen
data_Ce10Sn3Bi3As2
_symmetry_space_group_name_H-M   'P 1'
_cell_length_a   9.58075600
_cell_length_b   9.58075729
_cell_length_c   6.72931600
_cell_angle_alpha   90.00000000
_cell_angle_beta   90.00000000
_cell_angle_gamma   120.00000244
_symmetry_Int_Tables_number   1
_chemical_formula_structural   Ce10Sn3Bi3As2
_chemical_formula_sum   'Ce10 Sn3 Bi3 As2'
_cell_volume   534.93518221
_cell_formula_units_Z   1
loop_
 _symmetry_equiv_pos_site_id
 _symmetry_equiv_pos_as_xyz
  1  'x, y, z'
loop_
 _atom_site_type_symbol
 _atom_site_label
 _atom_site_symmetry_multiplicity
 _atom_site_fract_x
 _atom_site_fract_y
 _atom_site_fract_z
 _atom_site_occupancy
  Ce  Ce0  1  0.666667  0.333333  0.007363  1
  Ce  Ce1  1  0.333333  0.666667  0.007363  1
  Ce  Ce2  1  0.333333  0.666667  0.492637  1
  Ce  Ce3  1  0.666667  0.333333  0.492637  1
  Ce  Ce4  1  0.748006  0.748006  0.750000  1
  Ce  Ce5  1  0.251994  0.000000  0.750000  1
  Ce  Ce6  1  0.000000  0.251994  0.750000  1
  Ce  Ce7  1  0.252963  0.252963  0.250000  1
  Ce  Ce8  1  0.747037  0.000000  0.250000  1
  Ce  Ce9  1  0.000000  0.747037  0.250000  1
  Sn  Sn10  1  0.611087  0.611087  0.250000  1
  Sn  Sn11  1  0.388913  0.000000  0.250000  1
  Sn  Sn12  1  0.000000  0.388913  0.250000  1
  Bi  Bi13  1  0.391419  0.391419  0.750000  1
  Bi  Bi14  1  0.608581  0.000000  0.750000  1
  Bi  Bi15  1  0.000000  0.608581  0.750000  1
  As  As16  1  0.000000  0.000000  0.999930  1
  As  As17  1  0.000000  0.000000  0.500070  1
