# generated using pymatgen
data_Rb2Ta(WO4)3
_symmetry_space_group_name_H-M   'P 1'
_cell_length_a   7.42355464
_cell_length_b   7.42355518
_cell_length_c   7.40154576
_cell_angle_alpha   60.23988777
_cell_angle_beta   60.23988648
_cell_angle_gamma   60.06832658
_symmetry_Int_Tables_number   1
_chemical_formula_structural   Rb2Ta(WO4)3
_chemical_formula_sum   'Rb2 Ta1 W3 O12'
_cell_volume   289.61555127
_cell_formula_units_Z   1
loop_
 _symmetry_equiv_pos_site_id
 _symmetry_equiv_pos_as_xyz
  1  'x, y, z'
loop_
 _atom_site_type_symbol
 _atom_site_label
 _atom_site_symmetry_multiplicity
 _atom_site_fract_x
 _atom_site_fract_y
 _atom_site_fract_z
 _atom_site_occupancy
  Rb  Rb0  1  0.837970  0.898205  0.385962  1
  Rb  Rb1  1  0.101795  0.162030  0.614038  1
  Ta  Ta2  1  0.496214  0.503786  0.000000  1
  W  W3  1  0.993528  0.509148  0.997078  1
  W  W4  1  0.490852  0.006472  0.002922  1
  W  W5  1  0.500199  0.499801  0.500000  1
  O  O6  1  0.187795  0.191240  0.060646  1
  O  O7  1  0.564709  0.560968  0.683477  1
  O  O8  1  0.185229  0.561876  0.060506  1
  O  O9  1  0.565857  0.178006  0.693855  1
  O  O10  1  0.561104  0.186306  0.061185  1
  O  O11  1  0.180029  0.562884  0.693644  1
  O  O12  1  0.808760  0.812205  0.939354  1
  O  O13  1  0.439032  0.435291  0.316523  1
  O  O14  1  0.813694  0.438896  0.938815  1
  O  O15  1  0.437116  0.819971  0.306356  1
  O  O16  1  0.438124  0.814771  0.939494  1
  O  O17  1  0.821994  0.434143  0.306145  1
