# generated using pymatgen
data_SrTaP7Ru12
_symmetry_space_group_name_H-M   'P 1'
_cell_length_a   9.44462100
_cell_length_b   9.44462050
_cell_length_c   3.91704000
_cell_angle_alpha   90.00000000
_cell_angle_beta   90.00000000
_cell_angle_gamma   120.00000339
_symmetry_Int_Tables_number   1
_chemical_formula_structural   SrTaP7Ru12
_chemical_formula_sum   'Sr1 Ta1 P7 Ru12'
_cell_volume   302.59215904
_cell_formula_units_Z   1
loop_
 _symmetry_equiv_pos_site_id
 _symmetry_equiv_pos_as_xyz
  1  'x, y, z'
loop_
 _atom_site_type_symbol
 _atom_site_label
 _atom_site_symmetry_multiplicity
 _atom_site_fract_x
 _atom_site_fract_y
 _atom_site_fract_z
 _atom_site_occupancy
  Sr  Sr0  1  0.333333  0.666667  0.000000  1
  Ta  Ta1  1  0.666667  0.333333  0.500000  1
  P  P2  1  0.605408  0.720560  0.500000  1
  P  P3  1  0.000000  0.000000  0.000000  1
  P  P4  1  0.279440  0.884849  0.500000  1
  P  P5  1  0.115151  0.394592  0.500000  1
  P  P6  1  0.887960  0.569710  0.000000  1
  P  P7  1  0.430290  0.318251  0.000000  1
  P  P8  1  0.681749  0.112040  0.000000  1
  Ru  Ru9  1  0.563378  0.968626  0.500000  1
  Ru  Ru10  1  0.405248  0.436622  0.500000  1
  Ru  Ru11  1  0.914458  0.119570  0.500000  1
  Ru  Ru12  1  0.205112  0.085542  0.500000  1
  Ru  Ru13  1  0.880430  0.794888  0.500000  1
  Ru  Ru14  1  0.727152  0.889077  0.000000  1
  Ru  Ru15  1  0.110923  0.838075  0.000000  1
  Ru  Ru16  1  0.161925  0.272848  0.000000  1
  Ru  Ru17  1  0.427430  0.081926  0.000000  1
  Ru  Ru18  1  0.918074  0.345506  0.000000  1
  Ru  Ru19  1  0.654494  0.572570  0.000000  1
  Ru  Ru20  1  0.031374  0.594752  0.500000  1
