# generated using pymatgen
data_Th3Al2HgRh3
_symmetry_space_group_name_H-M   'P 1'
_cell_length_a   7.40059690
_cell_length_b   7.58976672
_cell_length_c   4.02900100
_cell_angle_alpha   90.00000000
_cell_angle_beta   90.00000000
_cell_angle_gamma   120.84923001
_symmetry_Int_Tables_number   1
_chemical_formula_structural   Th3Al2HgRh3
_chemical_formula_sum   'Th3 Al2 Hg1 Rh3'
_cell_volume   194.28656807
_cell_formula_units_Z   1
loop_
 _symmetry_equiv_pos_site_id
 _symmetry_equiv_pos_as_xyz
  1  'x, y, z'
loop_
 _atom_site_type_symbol
 _atom_site_label
 _atom_site_symmetry_multiplicity
 _atom_site_fract_x
 _atom_site_fract_y
 _atom_site_fract_z
 _atom_site_occupancy
  Th  Th0  1  0.000000  0.410727  0.500000  1
  Th  Th1  1  0.582795  0.583577  0.500000  1
  Th  Th2  1  0.417205  0.000782  0.500000  1
  Al  Al3  1  0.237789  0.239068  0.000000  1
  Al  Al4  1  0.762211  0.001279  0.000000  1
  Hg  Hg5  1  0.000000  0.757718  0.000000  1
  Rh  Rh6  1  0.351188  0.659309  0.000000  1
  Rh  Rh7  1  0.648812  0.308120  0.000000  1
  Rh  Rh8  1  0.000000  0.039420  0.500000  1
