# generated using pymatgen
data_Ac20Si15Ni
_symmetry_space_group_name_H-M   'P 1'
_cell_length_a   8.26832411
_cell_length_b   8.29091907
_cell_length_c   16.29675266
_cell_angle_alpha   90.07122661
_cell_angle_beta   89.76496827
_cell_angle_gamma   90.41559222
_symmetry_Int_Tables_number   1
_chemical_formula_structural   Ac20Si15Ni
_chemical_formula_sum   'Ac20 Si15 Ni1'
_cell_volume   1117.13547589
_cell_formula_units_Z   1
loop_
 _symmetry_equiv_pos_site_id
 _symmetry_equiv_pos_as_xyz
  1  'x, y, z'
loop_
 _atom_site_type_symbol
 _atom_site_label
 _atom_site_symmetry_multiplicity
 _atom_site_fract_x
 _atom_site_fract_y
 _atom_site_fract_z
 _atom_site_occupancy
  Ac  Ac0  1  0.307465  0.306042  0.998159  1
  Ac  Ac1  1  0.190858  0.809141  0.249963  1
  Ac  Ac2  1  0.817787  0.185577  0.752216  1
  Ac  Ac3  1  0.695718  0.686094  0.500799  1
  Ac  Ac4  1  0.376502  0.012319  0.446594  1
  Ac  Ac5  1  0.486268  0.874350  0.697289  1
  Ac  Ac6  1  0.512780  0.120418  0.195374  1
  Ac  Ac7  1  0.878319  0.484322  0.300911  1
  Ac  Ac8  1  0.122770  0.512597  0.799255  1
  Ac  Ac9  1  0.624694  0.985449  0.946265  1
  Ac  Ac10  1  0.004954  0.382523  0.555063  1
  Ac  Ac11  1  0.987261  0.625828  0.051719  1
  Ac  Ac12  1  0.131527  0.978114  0.875220  1
  Ac  Ac13  1  0.524414  0.627955  0.126169  1
  Ac  Ac14  1  0.465814  0.366002  0.629998  1
  Ac  Ac15  1  0.626627  0.522352  0.872306  1
  Ac  Ac16  1  0.373519  0.477384  0.372456  1
  Ac  Ac17  1  0.874386  0.025213  0.378441  1
  Ac  Ac18  1  0.975243  0.124028  0.122615  1
  Ac  Ac19  1  0.029401  0.884955  0.623553  1
  Si  Si20  1  0.333594  0.696866  0.955878  1
  Si  Si21  1  0.664592  0.301924  0.459810  1
  Si  Si22  1  0.698486  0.332792  0.042565  1
  Si  Si23  1  0.302193  0.669352  0.542392  1
  Si  Si24  1  0.804553  0.829985  0.210541  1
  Si  Si25  1  0.170793  0.196764  0.290695  1
  Si  Si26  1  0.831820  0.801860  0.790527  1
  Si  Si27  1  0.290307  0.917502  0.058359  1
  Si  Si28  1  0.581782  0.790154  0.310398  1
  Si  Si29  1  0.418589  0.205860  0.809322  1
  Si  Si30  1  0.785709  0.584625  0.689984  1
  Si  Si31  1  0.209741  0.419063  0.189799  1
  Si  Si32  1  0.705100  0.080666  0.559815  1
  Si  Si33  1  0.918449  0.290890  0.941256  1
  Si  Si34  1  0.083102  0.712720  0.441775  1
  Ni  Ni35  1  0.194881  0.178315  0.712521  1
