# generated using pymatgen
data_Sr8Tb11HoPb16
_symmetry_space_group_name_H-M   'P 1'
_cell_length_a   8.18403000
_cell_length_b   8.71619948
_cell_length_c   16.37706900
_cell_angle_alpha   90.00000000
_cell_angle_beta   90.00000000
_cell_angle_gamma   89.60945984
_symmetry_Int_Tables_number   1
_chemical_formula_structural   Sr8Tb11HoPb16
_chemical_formula_sum   'Sr8 Tb11 Ho1 Pb16'
_cell_volume   1168.20877356
_cell_formula_units_Z   1
loop_
 _symmetry_equiv_pos_site_id
 _symmetry_equiv_pos_as_xyz
  1  'x, y, z'
loop_
 _atom_site_type_symbol
 _atom_site_label
 _atom_site_symmetry_multiplicity
 _atom_site_fract_x
 _atom_site_fract_y
 _atom_site_fract_z
 _atom_site_occupancy
  Sr  Sr0  1  0.496480  0.679150  0.592242  1
  Sr  Sr1  1  0.997515  0.820258  0.907580  1
  Sr  Sr2  1  0.502624  0.318938  0.091742  1
  Sr  Sr3  1  0.000989  0.179760  0.408940  1
  Sr  Sr4  1  0.502624  0.318938  0.408258  1
  Sr  Sr5  1  0.000989  0.179760  0.091060  1
  Sr  Sr6  1  0.496480  0.679150  0.907758  1
  Sr  Sr7  1  0.997515  0.820258  0.592420  1
  Tb  Tb8  1  0.672145  0.158368  0.624340  1
  Tb  Tb9  1  0.171514  0.342556  0.876151  1
  Tb  Tb10  1  0.328763  0.842048  0.123730  1
  Tb  Tb11  1  0.829042  0.658146  0.376816  1
  Tb  Tb12  1  0.328763  0.842048  0.376270  1
  Tb  Tb13  1  0.829042  0.658146  0.123184  1
  Tb  Tb14  1  0.672145  0.158368  0.875660  1
  Tb  Tb15  1  0.171514  0.342556  0.623849  1
  Tb  Tb16  1  0.831655  0.505693  0.750000  1
  Tb  Tb17  1  0.333742  0.995346  0.750000  1
  Tb  Tb18  1  0.169479  0.494713  0.250000  1
  Ho  Ho19  1  0.666685  0.005259  0.250000  1
  Pb  Pb20  1  0.672012  0.957351  0.455516  1
  Pb  Pb21  1  0.173077  0.543289  0.044541  1
  Pb  Pb22  1  0.327638  0.042394  0.954960  1
  Pb  Pb23  1  0.827236  0.457102  0.544849  1
  Pb  Pb24  1  0.327638  0.042394  0.545040  1
  Pb  Pb25  1  0.827236  0.457102  0.955151  1
  Pb  Pb26  1  0.672012  0.957351  0.044484  1
  Pb  Pb27  1  0.173077  0.543289  0.455459  1
  Pb  Pb28  1  0.472965  0.364381  0.750000  1
  Pb  Pb29  1  0.974546  0.138604  0.750000  1
  Pb  Pb30  1  0.528749  0.637347  0.250000  1
  Pb  Pb31  1  0.025448  0.861464  0.250000  1
  Pb  Pb32  1  0.699790  0.856890  0.750000  1
  Pb  Pb33  1  0.200465  0.641160  0.750000  1
  Pb  Pb34  1  0.298690  0.141191  0.250000  1
  Pb  Pb35  1  0.799716  0.359226  0.250000  1
