# generated using pymatgen
data_V9Ga4Tc3
_symmetry_space_group_name_H-M   'P 1'
_cell_length_a   4.77619000
_cell_length_b   4.77636343
_cell_length_c   9.65810466
_cell_angle_alpha   89.94853059
_cell_angle_beta   90.00000000
_cell_angle_gamma   90.00000000
_symmetry_Int_Tables_number   1
_chemical_formula_structural   V9Ga4Tc3
_chemical_formula_sum   'V9 Ga4 Tc3'
_cell_volume   220.32850711
_cell_formula_units_Z   1
loop_
 _symmetry_equiv_pos_site_id
 _symmetry_equiv_pos_as_xyz
  1  'x, y, z'
loop_
 _atom_site_type_symbol
 _atom_site_label
 _atom_site_symmetry_multiplicity
 _atom_site_fract_x
 _atom_site_fract_y
 _atom_site_fract_z
 _atom_site_occupancy
  V  V0  1  0.500000  0.751684  0.498116  1
  V  V1  1  0.749450  0.999836  0.252425  1
  V  V2  1  0.749058  0.999516  0.750459  1
  V  V3  1  0.000000  0.503598  0.125207  1
  V  V4  1  0.000000  0.497195  0.628033  1
  V  V5  1  0.500000  0.250837  0.998657  1
  V  V6  1  0.500000  0.245160  0.498289  1
  V  V7  1  0.250550  0.999836  0.252425  1
  V  V8  1  0.250942  0.999516  0.750459  1
  Ga  Ga9  1  0.500000  0.497993  0.248948  1
  Ga  Ga10  1  0.500000  0.497719  0.745881  1
  Ga  Ga11  1  0.000000  0.004353  0.003055  1
  Ga  Ga12  1  0.000000  0.999172  0.502742  1
  Tc  Tc13  1  0.000000  0.499613  0.372403  1
  Tc  Tc14  1  0.000000  0.500625  0.873636  1
  Tc  Tc15  1  0.500000  0.753345  0.999262  1
