# generated using pymatgen
data_DyEr7Re2(OsC4)2
_symmetry_space_group_name_H-M   'P 1'
_cell_length_a   5.06645500
_cell_length_b   6.50645334
_cell_length_c   9.75831306
_cell_angle_alpha   89.66785738
_cell_angle_beta   90.00000000
_cell_angle_gamma   90.00000000
_symmetry_Int_Tables_number   1
_chemical_formula_structural   DyEr7Re2(OsC4)2
_chemical_formula_sum   'Dy1 Er7 Re2 Os2 C8'
_cell_volume   321.67399922
_cell_formula_units_Z   1
loop_
 _symmetry_equiv_pos_site_id
 _symmetry_equiv_pos_as_xyz
  1  'x, y, z'
loop_
 _atom_site_type_symbol
 _atom_site_label
 _atom_site_symmetry_multiplicity
 _atom_site_fract_x
 _atom_site_fract_y
 _atom_site_fract_z
 _atom_site_occupancy
  Dy  Dy0  1  0.250000  0.029706  0.285887  1
  Er  Er1  1  0.250000  0.677966  0.555561  1
  Er  Er2  1  0.750000  0.322302  0.444775  1
  Er  Er3  1  0.750000  0.820567  0.055841  1
  Er  Er4  1  0.250000  0.179198  0.943819  1
  Er  Er5  1  0.250000  0.531455  0.216027  1
  Er  Er6  1  0.750000  0.468409  0.783717  1
  Er  Er7  1  0.750000  0.970136  0.714710  1
  Re  Re8  1  0.250000  0.721829  0.866239  1
  Re  Re9  1  0.750000  0.278177  0.133421  1
  Os  Os10  1  0.750000  0.776187  0.366032  1
  Os  Os11  1  0.250000  0.223579  0.634171  1
  C  C12  1  0.250000  0.456255  0.759872  1
  C  C13  1  0.750000  0.543557  0.240173  1
  C  C14  1  0.750000  0.043271  0.258398  1
  C  C15  1  0.250000  0.956640  0.741250  1
  C  C16  1  0.250000  0.823514  0.052771  1
  C  C17  1  0.750000  0.175947  0.946718  1
  C  C18  1  0.750000  0.674616  0.552660  1
  C  C19  1  0.250000  0.326689  0.447957  1
