# generated using pymatgen
data_Zr4Co7P6Os
_symmetry_space_group_name_H-M   'P 1'
_cell_length_a   12.25520275
_cell_length_b   12.19045190
_cell_length_c   3.68578500
_cell_angle_alpha   90.00000000
_cell_angle_beta   90.00000000
_cell_angle_gamma   120.11388486
_symmetry_Int_Tables_number   1
_chemical_formula_structural   Zr4Co7P6Os
_chemical_formula_sum   'Zr8 Co14 P12 Os2'
_cell_volume   476.32283670
_cell_formula_units_Z   2
loop_
 _symmetry_equiv_pos_site_id
 _symmetry_equiv_pos_as_xyz
  1  'x, y, z'
loop_
 _atom_site_type_symbol
 _atom_site_label
 _atom_site_symmetry_multiplicity
 _atom_site_fract_x
 _atom_site_fract_y
 _atom_site_fract_z
 _atom_site_occupancy
  Zr  Zr0  1  0.447174  0.443920  0.000000  1
  Zr  Zr1  1  0.559441  0.002838  0.000000  1
  Zr  Zr2  1  0.992964  0.553811  0.000000  1
  Zr  Zr3  1  0.666147  0.333621  0.000000  1
  Zr  Zr4  1  0.335280  0.665670  0.000000  1
  Zr  Zr5  1  0.824350  0.825048  0.500000  1
  Zr  Zr6  1  0.175563  0.998964  0.500000  1
  Zr  Zr7  1  0.002186  0.175761  0.500000  1
  Co  Co8  1  0.197056  0.366136  0.000000  1
  Co  Co9  1  0.168904  0.805208  0.000000  1
  Co  Co10  1  0.819436  0.629724  0.000000  1
  Co  Co11  1  0.809886  0.179490  0.000000  1
  Co  Co12  1  0.371470  0.191754  0.000000  1
  Co  Co13  1  0.522941  0.647508  0.500000  1
  Co  Co14  1  0.645706  0.520260  0.500000  1
  Co  Co15  1  0.864952  0.355589  0.500000  1
  Co  Co16  1  0.490217  0.134342  0.500000  1
  Co  Co17  1  0.999602  0.000651  0.000000  1
  Co  Co18  1  0.725208  0.001557  0.500000  1
  Co  Co19  1  0.994354  0.721274  0.500000  1
  Co  Co20  1  0.631492  0.823821  0.000000  1
  Co  Co21  1  0.280298  0.276200  0.500000  1
  P  P22  1  0.654781  0.656163  0.000000  1
  P  P23  1  0.344191  0.999743  0.000000  1
  P  P24  1  0.000502  0.343556  0.000000  1
  P  P25  1  0.482285  0.308209  0.500000  1
  P  P26  1  0.693526  0.173826  0.500000  1
  P  P27  1  0.823278  0.519030  0.500000  1
  P  P28  1  0.522318  0.828070  0.500000  1
  P  P29  1  0.164228  0.686954  0.500000  1
  P  P30  1  0.826010  0.000732  0.000000  1
  P  P31  1  0.997726  0.825619  0.000000  1
  P  P32  1  0.315667  0.481947  0.500000  1
  P  P33  1  0.175873  0.173375  0.000000  1
  Os  Os34  1  0.122426  0.473364  0.500000  1
  Os  Os35  1  0.352559  0.876267  0.500000  1
