# generated using pymatgen
data_Y3In3CoIrAu
_symmetry_space_group_name_H-M   'P 1'
_cell_length_a   7.76357500
_cell_length_b   7.76357560
_cell_length_c   3.73253100
_cell_angle_alpha   90.00000000
_cell_angle_beta   90.00000000
_cell_angle_gamma   120.00001023
_symmetry_Int_Tables_number   1
_chemical_formula_structural   Y3In3CoIrAu
_chemical_formula_sum   'Y3 In3 Co1 Ir1 Au1'
_cell_volume   194.83077118
_cell_formula_units_Z   1
loop_
 _symmetry_equiv_pos_site_id
 _symmetry_equiv_pos_as_xyz
  1  'x, y, z'
loop_
 _atom_site_type_symbol
 _atom_site_label
 _atom_site_symmetry_multiplicity
 _atom_site_fract_x
 _atom_site_fract_y
 _atom_site_fract_z
 _atom_site_occupancy
  Y  Y0  1  0.979037  0.585456  0.500000  1
  Y  Y1  1  0.606420  0.020963  0.500000  1
  Y  Y2  1  0.414544  0.393580  0.500000  1
  In  In3  1  0.000696  0.250060  0.000000  1
  In  In4  1  0.249364  0.999304  0.000000  1
  In  In5  1  0.749940  0.750636  0.000000  1
  Co  Co6  1  0.000000  0.000000  0.500000  1
  Ir  Ir7  1  0.666667  0.333333  0.000000  1
  Au  Au8  1  0.333333  0.666667  0.000000  1
