# generated using pymatgen
data_La3ScBi2Sb3
_symmetry_space_group_name_H-M   'P 1'
_cell_length_a   9.69789300
_cell_length_b   9.69789264
_cell_length_c   6.56544000
_cell_angle_alpha   90.00000000
_cell_angle_beta   90.00000000
_cell_angle_gamma   120.00000463
_symmetry_Int_Tables_number   1
_chemical_formula_structural   La3ScBi2Sb3
_chemical_formula_sum   'La6 Sc2 Bi4 Sb6'
_cell_volume   534.74804857
_cell_formula_units_Z   2
loop_
 _symmetry_equiv_pos_site_id
 _symmetry_equiv_pos_as_xyz
  1  'x, y, z'
loop_
 _atom_site_type_symbol
 _atom_site_label
 _atom_site_symmetry_multiplicity
 _atom_site_fract_x
 _atom_site_fract_y
 _atom_site_fract_z
 _atom_site_occupancy
  La  La0  1  0.000000  0.621125  0.250000  1
  La  La1  1  0.378875  0.378875  0.250000  1
  La  La2  1  0.378875  0.000000  0.750000  1
  La  La3  1  0.621125  0.621125  0.750000  1
  La  La4  1  0.621125  0.000000  0.250000  1
  La  La5  1  0.000000  0.378875  0.750000  1
  Sc  Sc6  1  0.000000  0.000000  0.000000  1
  Sc  Sc7  1  0.000000  0.000000  0.500000  1
  Bi  Bi8  1  0.333333  0.666667  0.500000  1
  Bi  Bi9  1  0.666667  0.333333  0.000000  1
  Bi  Bi10  1  0.333333  0.666667  0.000000  1
  Bi  Bi11  1  0.666667  0.333333  0.500000  1
  Sb  Sb12  1  0.000000  0.258011  0.250000  1
  Sb  Sb13  1  0.258011  0.258011  0.750000  1
  Sb  Sb14  1  0.741989  0.000000  0.750000  1
  Sb  Sb15  1  0.000000  0.741989  0.750000  1
  Sb  Sb16  1  0.741989  0.741989  0.250000  1
  Sb  Sb17  1  0.258011  0.000000  0.250000  1
