# generated using pymatgen
data_Zr3Zn3RuAu2
_symmetry_space_group_name_H-M   'P 1'
_cell_length_a   7.44190400
_cell_length_b   7.44190284
_cell_length_c   3.43437000
_cell_angle_alpha   90.00000000
_cell_angle_beta   90.00000000
_cell_angle_gamma   120.00002174
_symmetry_Int_Tables_number   1
_chemical_formula_structural   Zr3Zn3RuAu2
_chemical_formula_sum   'Zr3 Zn3 Ru1 Au2'
_cell_volume   164.71975111
_cell_formula_units_Z   1
loop_
 _symmetry_equiv_pos_site_id
 _symmetry_equiv_pos_as_xyz
  1  'x, y, z'
loop_
 _atom_site_type_symbol
 _atom_site_label
 _atom_site_symmetry_multiplicity
 _atom_site_fract_x
 _atom_site_fract_y
 _atom_site_fract_z
 _atom_site_occupancy
  Zr  Zr0  1  0.587649  0.976559  0.000000  1
  Zr  Zr1  1  0.023441  0.611089  0.000000  1
  Zr  Zr2  1  0.388911  0.412351  0.000000  1
  Zn  Zn3  1  0.274692  0.999686  0.500000  1
  Zn  Zn4  1  0.000314  0.275006  0.500000  1
  Zn  Zn5  1  0.724994  0.725308  0.500000  1
  Ru  Ru6  1  0.333333  0.666667  0.500000  1
  Au  Au7  1  0.666667  0.333333  0.500000  1
  Au  Au8  1  0.000000  0.000000  0.000000  1
