# generated using pymatgen
data_PrHo(PSe)2
_symmetry_space_group_name_H-M   'P 1'
_cell_length_a   5.56861500
_cell_length_b   5.66050700
_cell_length_c   17.40181500
_cell_angle_alpha   90.00000000
_cell_angle_beta   90.00000000
_cell_angle_gamma   90.00000000
_symmetry_Int_Tables_number   1
_chemical_formula_structural   PrHo(PSe)2
_chemical_formula_sum   'Pr4 Ho4 P8 Se8'
_cell_volume   548.52581582
_cell_formula_units_Z   4
loop_
 _symmetry_equiv_pos_site_id
 _symmetry_equiv_pos_as_xyz
  1  'x, y, z'
loop_
 _atom_site_type_symbol
 _atom_site_label
 _atom_site_symmetry_multiplicity
 _atom_site_fract_x
 _atom_site_fract_y
 _atom_site_fract_z
 _atom_site_occupancy
  Pr  Pr0  1  0.250000  0.484710  0.370037  1
  Pr  Pr1  1  0.250000  0.984710  0.129963  1
  Pr  Pr2  1  0.750000  0.515290  0.629963  1
  Pr  Pr3  1  0.750000  0.015290  0.870037  1
  Ho  Ho4  1  0.250000  0.011920  0.642140  1
  Ho  Ho5  1  0.250000  0.511920  0.857860  1
  Ho  Ho6  1  0.750000  0.988080  0.357860  1
  Ho  Ho7  1  0.750000  0.488080  0.142140  1
  P  P8  1  0.045470  0.307915  0.995957  1
  P  P9  1  0.454530  0.807915  0.504043  1
  P  P10  1  0.545470  0.692085  0.004043  1
  P  P11  1  0.954530  0.192085  0.495957  1
  P  P12  1  0.954530  0.692085  0.004043  1
  P  P13  1  0.545470  0.192085  0.495957  1
  P  P14  1  0.454530  0.307915  0.995957  1
  P  P15  1  0.045470  0.807915  0.504043  1
  Se  Se16  1  0.250000  0.485199  0.188136  1
  Se  Se17  1  0.250000  0.985199  0.311864  1
  Se  Se18  1  0.750000  0.514801  0.811864  1
  Se  Se19  1  0.750000  0.014801  0.688136  1
  Se  Se20  1  0.250000  0.008901  0.813898  1
  Se  Se21  1  0.250000  0.508901  0.686102  1
  Se  Se22  1  0.750000  0.991099  0.186102  1
  Se  Se23  1  0.750000  0.491099  0.313898  1
