# generated using pymatgen
data_Sm3Y5(SiI6)2
_symmetry_space_group_name_H-M   'P 1'
_cell_length_a   4.24490300
_cell_length_b   14.14725124
_cell_length_c   14.89597171
_cell_angle_alpha   89.87621924
_cell_angle_beta   90.00000000
_cell_angle_gamma   90.00000000
_symmetry_Int_Tables_number   1
_chemical_formula_structural   Sm3Y5(SiI6)2
_chemical_formula_sum   'Sm3 Y5 Si2 I12'
_cell_volume   894.55626590
_cell_formula_units_Z   1
loop_
 _symmetry_equiv_pos_site_id
 _symmetry_equiv_pos_as_xyz
  1  'x, y, z'
loop_
 _atom_site_type_symbol
 _atom_site_label
 _atom_site_symmetry_multiplicity
 _atom_site_fract_x
 _atom_site_fract_y
 _atom_site_fract_z
 _atom_site_occupancy
  Sm  Sm0  1  0.000000  0.113283  0.576298  1
  Sm  Sm1  1  0.000000  0.886714  0.423695  1
  Sm  Sm2  1  0.000000  0.611718  0.924714  1
  Y  Y3  1  0.500000  0.114136  0.347933  1
  Y  Y4  1  0.500000  0.885960  0.652027  1
  Y  Y5  1  0.500000  0.613377  0.151625  1
  Y  Y6  1  0.500000  0.386138  0.848664  1
  Y  Y7  1  0.000000  0.388016  0.075362  1
  Si  Si8  1  0.500000  0.000047  0.499925  1
  Si  Si9  1  0.500000  0.498003  0.001316  1
  I  I10  1  0.500000  0.246078  0.161940  1
  I  I11  1  0.500000  0.757513  0.836054  1
  I  I12  1  0.500000  0.741757  0.335668  1
  I  I13  1  0.500000  0.258066  0.664433  1
  I  I14  1  0.000000  0.258168  0.411846  1
  I  I15  1  0.000000  0.741878  0.587994  1
  I  I16  1  0.000000  0.757731  0.087714  1
  I  I17  1  0.000000  0.243184  0.914698  1
  I  I18  1  0.000000  0.002368  0.239735  1
  I  I19  1  0.000000  0.998019  0.760135  1
  I  I20  1  0.000000  0.499708  0.257915  1
  I  I21  1  0.000000  0.498139  0.740308  1
