# generated using pymatgen
data_YbTmNi7
_symmetry_space_group_name_H-M   'P 1'
_cell_length_a   4.85932723
_cell_length_b   4.85932659
_cell_length_c   12.26162943
_cell_angle_alpha   78.57110116
_cell_angle_beta   78.57110171
_cell_angle_gamma   59.99999375
_symmetry_Int_Tables_number   1
_chemical_formula_structural   YbTmNi7
_chemical_formula_sum   'Yb2 Tm2 Ni14'
_cell_volume   244.09254564
_cell_formula_units_Z   2
loop_
 _symmetry_equiv_pos_site_id
 _symmetry_equiv_pos_as_xyz
  1  'x, y, z'
loop_
 _atom_site_type_symbol
 _atom_site_label
 _atom_site_symmetry_multiplicity
 _atom_site_fract_x
 _atom_site_fract_y
 _atom_site_fract_z
 _atom_site_occupancy
  Yb  Yb0  1  0.851012  0.851012  0.446964  1
  Yb  Yb1  1  0.148988  0.148988  0.553036  1
  Tm  Tm2  1  0.947924  0.947924  0.156230  1
  Tm  Tm3  1  0.052076  0.052076  0.843770  1
  Ni  Ni4  1  0.500000  0.500000  0.500000  1
  Ni  Ni5  1  0.722097  0.722097  0.833707  1
  Ni  Ni6  1  0.277903  0.277903  0.166293  1
  Ni  Ni7  1  0.611537  0.611537  0.165390  1
  Ni  Ni8  1  0.388463  0.388463  0.834610  1
  Ni  Ni9  1  0.000000  0.500000  0.000000  1
  Ni  Ni10  1  0.500000  0.000000  0.000000  1
  Ni  Ni11  1  0.500000  0.500000  0.000000  1
  Ni  Ni12  1  0.389370  0.389370  0.330734  1
  Ni  Ni13  1  0.890525  0.389370  0.330734  1
  Ni  Ni14  1  0.389370  0.890525  0.330734  1
  Ni  Ni15  1  0.610630  0.610630  0.669266  1
  Ni  Ni16  1  0.109475  0.610630  0.669266  1
  Ni  Ni17  1  0.610630  0.109475  0.669266  1
