# generated using pymatgen
data_LaTb3(NiAs)4
_symmetry_space_group_name_H-M   'P 1'
_cell_length_a   4.08751100
_cell_length_b   4.08751007
_cell_length_c   15.84863600
_cell_angle_alpha   90.00000000
_cell_angle_beta   90.00000000
_cell_angle_gamma   120.00001563
_symmetry_Int_Tables_number   1
_chemical_formula_structural   LaTb3(NiAs)4
_chemical_formula_sum   'La1 Tb3 Ni4 As4'
_cell_volume   229.31909760
_cell_formula_units_Z   1
loop_
 _symmetry_equiv_pos_site_id
 _symmetry_equiv_pos_as_xyz
  1  'x, y, z'
loop_
 _atom_site_type_symbol
 _atom_site_label
 _atom_site_symmetry_multiplicity
 _atom_site_fract_x
 _atom_site_fract_y
 _atom_site_fract_z
 _atom_site_occupancy
  La  La0  1  0.000000  0.000000  0.500000  1
  Tb  Tb1  1  0.000000  0.000000  0.244368  1
  Tb  Tb2  1  0.000000  0.000000  0.755632  1
  Tb  Tb3  1  0.000000  0.000000  0.000000  1
  Ni  Ni4  1  0.333333  0.666667  0.129848  1
  Ni  Ni5  1  0.666667  0.333333  0.870152  1
  Ni  Ni6  1  0.666667  0.333333  0.640334  1
  Ni  Ni7  1  0.333333  0.666667  0.359666  1
  As  As8  1  0.333333  0.666667  0.630973  1
  As  As9  1  0.666667  0.333333  0.369027  1
  As  As10  1  0.666667  0.333333  0.118664  1
  As  As11  1  0.333333  0.666667  0.881336  1
