# generated using pymatgen
data_CeEr7(ZnCo)2
_symmetry_space_group_name_H-M   'P 1'
_cell_length_a   9.34521608
_cell_length_b   9.27001985
_cell_length_c   9.27001800
_cell_angle_alpha   59.78390729
_cell_angle_beta   59.73129411
_cell_angle_gamma   59.73129121
_symmetry_Int_Tables_number   1
_chemical_formula_structural   CeEr7(ZnCo)2
_chemical_formula_sum   'Ce2 Er14 Zn4 Co4'
_cell_volume   564.61346223
_cell_formula_units_Z   2
loop_
 _symmetry_equiv_pos_site_id
 _symmetry_equiv_pos_as_xyz
  1  'x, y, z'
loop_
 _atom_site_type_symbol
 _atom_site_label
 _atom_site_symmetry_multiplicity
 _atom_site_fract_x
 _atom_site_fract_y
 _atom_site_fract_z
 _atom_site_occupancy
  Ce  Ce0  1  0.967543  0.341000  0.340999  1
  Ce  Ce1  1  0.350459  0.340999  0.341000  1
  Er  Er2  1  0.563852  0.563419  0.937350  1
  Er  Er3  1  0.935381  0.563419  0.937350  1
  Er  Er4  1  0.563099  0.936901  0.936901  1
  Er  Er5  1  0.935380  0.937350  0.563419  1
  Er  Er6  1  0.563851  0.937350  0.563419  1
  Er  Er7  1  0.938716  0.561284  0.561284  1
  Er  Er8  1  0.188852  0.191275  0.811147  1
  Er  Er9  1  0.808727  0.191274  0.811147  1
  Er  Er10  1  0.188126  0.811874  0.811873  1
  Er  Er11  1  0.808727  0.811148  0.191275  1
  Er  Er12  1  0.188851  0.811147  0.191273  1
  Er  Er13  1  0.809029  0.190971  0.190971  1
  Er  Er14  1  0.351880  0.353026  0.943215  1
  Er  Er15  1  0.351879  0.943215  0.353026  1
  Zn  Zn16  1  0.580129  0.577186  0.262556  1
  Zn  Zn17  1  0.580128  0.262556  0.577186  1
  Zn  Zn18  1  0.265278  0.577578  0.577579  1
  Zn  Zn19  1  0.579562  0.577579  0.577578  1
  Co  Co20  1  0.139689  0.153260  0.567363  1
  Co  Co21  1  0.139686  0.567363  0.153260  1
  Co  Co22  1  0.566829  0.149415  0.149414  1
  Co  Co23  1  0.134343  0.149414  0.149415  1
