# generated using pymatgen
data_La4Sn8PdRh3
_symmetry_space_group_name_H-M   'P 1'
_cell_length_a   8.98245066
_cell_length_b   8.98244941
_cell_length_c   9.73044776
_cell_angle_alpha   89.67748043
_cell_angle_beta   90.32251959
_cell_angle_gamma   149.56210391
_symmetry_Int_Tables_number   1
_chemical_formula_structural   La4Sn8PdRh3
_chemical_formula_sum   'La4 Sn8 Pd1 Rh3'
_cell_volume   397.72581632
_cell_formula_units_Z   1
loop_
 _symmetry_equiv_pos_site_id
 _symmetry_equiv_pos_as_xyz
  1  'x, y, z'
loop_
 _atom_site_type_symbol
 _atom_site_label
 _atom_site_symmetry_multiplicity
 _atom_site_fract_x
 _atom_site_fract_y
 _atom_site_fract_z
 _atom_site_occupancy
  La  La0  1  0.497634  0.502366  0.499346  1
  La  La1  1  0.499644  0.500356  0.998909  1
  La  La2  1  0.297581  0.702419  0.249906  1
  La  La3  1  0.703875  0.296125  0.749263  1
  Sn  Sn4  1  0.908209  0.091791  0.750119  1
  Sn  Sn5  1  0.926077  0.073923  0.250243  1
  Sn  Sn6  1  0.090921  0.909079  0.247019  1
  Sn  Sn7  1  0.072541  0.927459  0.754447  1
  Sn  Sn8  1  0.698561  0.301439  0.406458  1
  Sn  Sn9  1  0.305286  0.694714  0.592425  1
  Sn  Sn10  1  0.303255  0.696745  0.910654  1
  Sn  Sn11  1  0.697250  0.302750  0.088702  1
  Pd  Pd12  1  0.146236  0.853764  0.507214  1
  Rh  Rh13  1  0.851559  0.148441  0.004870  1
  Rh  Rh14  1  0.149129  0.850871  0.995911  1
  Rh  Rh15  1  0.852241  0.147759  0.494513  1
