# generated using pymatgen
data_Er2Ti2ReSi4
_symmetry_space_group_name_H-M   'P 1'
_cell_length_a   6.90949600
_cell_length_b   6.90949600
_cell_length_c   12.73016700
_cell_angle_alpha   90.00000000
_cell_angle_beta   90.00000000
_cell_angle_gamma   90.00000000
_symmetry_Int_Tables_number   1
_chemical_formula_structural   Er2Ti2ReSi4
_chemical_formula_sum   'Er8 Ti8 Re4 Si16'
_cell_volume   607.75262099
_cell_formula_units_Z   4
loop_
 _symmetry_equiv_pos_site_id
 _symmetry_equiv_pos_as_xyz
  1  'x, y, z'
loop_
 _atom_site_type_symbol
 _atom_site_label
 _atom_site_symmetry_multiplicity
 _atom_site_fract_x
 _atom_site_fract_y
 _atom_site_fract_z
 _atom_site_occupancy
  Er  Er0  1  0.340747  0.000813  0.468682  1
  Er  Er1  1  0.499188  0.840747  0.718682  1
  Er  Er2  1  0.500812  0.159253  0.218682  1
  Er  Er3  1  0.840747  0.499188  0.281318  1
  Er  Er4  1  0.159253  0.500812  0.781318  1
  Er  Er5  1  0.659253  0.999188  0.968682  1
  Er  Er6  1  0.000813  0.340747  0.531318  1
  Er  Er7  1  0.999188  0.659253  0.031318  1
  Ti  Ti8  1  0.151614  0.005504  0.875881  1
  Ti  Ti9  1  0.494496  0.651614  0.125881  1
  Ti  Ti10  1  0.505504  0.348386  0.625881  1
  Ti  Ti11  1  0.651614  0.494496  0.874119  1
  Ti  Ti12  1  0.348386  0.505504  0.374119  1
  Ti  Ti13  1  0.848386  0.994496  0.375881  1
  Ti  Ti14  1  0.005504  0.151614  0.124119  1
  Ti  Ti15  1  0.994496  0.848386  0.624119  1
  Re  Re16  1  0.328063  0.328063  0.000000  1
  Re  Re17  1  0.171937  0.828063  0.250000  1
  Re  Re18  1  0.828063  0.171937  0.750000  1
  Re  Re19  1  0.671937  0.671937  0.500000  1
  Si  Si20  1  0.201084  0.130778  0.682873  1
  Si  Si21  1  0.369222  0.701084  0.932873  1
  Si  Si22  1  0.630778  0.298916  0.432873  1
  Si  Si23  1  0.701084  0.369222  0.067127  1
  Si  Si24  1  0.298916  0.630778  0.567127  1
  Si  Si25  1  0.798916  0.869222  0.182873  1
  Si  Si26  1  0.130778  0.201084  0.317127  1
  Si  Si27  1  0.869222  0.798916  0.817127  1
  Si  Si28  1  0.291902  0.952860  0.066187  1
  Si  Si29  1  0.547140  0.791902  0.316187  1
  Si  Si30  1  0.452860  0.208098  0.816187  1
  Si  Si31  1  0.791902  0.547140  0.683813  1
  Si  Si32  1  0.208098  0.452860  0.183813  1
  Si  Si33  1  0.708098  0.047140  0.566187  1
  Si  Si34  1  0.952860  0.291902  0.933813  1
  Si  Si35  1  0.047140  0.708098  0.433813  1
