# generated using pymatgen
data_Ho16MgIn3(NiRh)2
_symmetry_space_group_name_H-M   'P 1'
_cell_length_a   9.56211441
_cell_length_b   9.58897874
_cell_length_c   9.56211464
_cell_angle_alpha   60.10726376
_cell_angle_beta   60.30704696
_cell_angle_gamma   60.10726985
_symmetry_Int_Tables_number   1
_chemical_formula_structural   Ho16MgIn3(NiRh)2
_chemical_formula_sum   'Ho16 Mg1 In3 Ni2 Rh2'
_cell_volume   622.39831919
_cell_formula_units_Z   1
loop_
 _symmetry_equiv_pos_site_id
 _symmetry_equiv_pos_as_xyz
  1  'x, y, z'
loop_
 _atom_site_type_symbol
 _atom_site_label
 _atom_site_symmetry_multiplicity
 _atom_site_fract_x
 _atom_site_fract_y
 _atom_site_fract_z
 _atom_site_occupancy
  Ho  Ho0  1  0.187950  0.187821  0.812806  1
  Ho  Ho1  1  0.596365  0.599444  0.204463  1
  Ho  Ho2  1  0.439505  0.060747  0.439505  1
  Ho  Ho3  1  0.440641  0.439133  0.062135  1
  Ho  Ho4  1  0.813133  0.187412  0.813133  1
  Ho  Ho5  1  0.186832  0.812490  0.186832  1
  Ho  Ho6  1  0.439063  0.060377  0.064056  1
  Ho  Ho7  1  0.186657  0.812694  0.815080  1
  Ho  Ho8  1  0.062284  0.438123  0.062284  1
  Ho  Ho9  1  0.815080  0.812694  0.186657  1
  Ho  Ho10  1  0.204463  0.599444  0.596365  1
  Ho  Ho11  1  0.062135  0.439133  0.440641  1
  Ho  Ho12  1  0.064056  0.060377  0.439063  1
  Ho  Ho13  1  0.812806  0.187821  0.187950  1
  Ho  Ho14  1  0.597703  0.203307  0.597703  1
  Ho  Ho15  1  0.596323  0.601339  0.596323  1
  Mg  Mg16  1  0.827869  0.827456  0.827869  1
  In  In17  1  0.832588  0.832906  0.502997  1
  In  In18  1  0.502997  0.832906  0.832588  1
  In  In19  1  0.832944  0.502854  0.832944  1
  Ni  Ni20  1  0.391768  0.823875  0.391768  1
  Ni  Ni21  1  0.391766  0.393137  0.391766  1
  Rh  Rh22  1  0.823063  0.392257  0.392006  1
  Rh  Rh23  1  0.392006  0.392257  0.823063  1
