# generated using pymatgen
data_Ho5ThRh18
_symmetry_space_group_name_H-M   'P 1'
_cell_length_a   5.26515900
_cell_length_b   5.26515836
_cell_length_c   17.58597500
_cell_angle_alpha   90.00000000
_cell_angle_beta   90.00000000
_cell_angle_gamma   119.99999773
_symmetry_Int_Tables_number   1
_chemical_formula_structural   Ho5ThRh18
_chemical_formula_sum   'Ho5 Th1 Rh18'
_cell_volume   422.20174301
_cell_formula_units_Z   1
loop_
 _symmetry_equiv_pos_site_id
 _symmetry_equiv_pos_as_xyz
  1  'x, y, z'
loop_
 _atom_site_type_symbol
 _atom_site_label
 _atom_site_symmetry_multiplicity
 _atom_site_fract_x
 _atom_site_fract_y
 _atom_site_fract_z
 _atom_site_occupancy
  Ho  Ho0  1  0.333333  0.666667  0.542479  1
  Ho  Ho1  1  0.666667  0.333333  0.040384  1
  Ho  Ho2  1  0.666667  0.333333  0.459616  1
  Ho  Ho3  1  0.333333  0.666667  0.957521  1
  Ho  Ho4  1  0.333333  0.666667  0.750000  1
  Th  Th5  1  0.666667  0.333333  0.250000  1
  Rh  Rh6  1  0.167394  0.334788  0.124461  1
  Rh  Rh7  1  0.832645  0.665290  0.625710  1
  Rh  Rh8  1  0.665212  0.832606  0.124461  1
  Rh  Rh9  1  0.167394  0.832606  0.124461  1
  Rh  Rh10  1  0.832645  0.167355  0.625710  1
  Rh  Rh11  1  0.334710  0.167355  0.625710  1
  Rh  Rh12  1  0.832645  0.665290  0.874290  1
  Rh  Rh13  1  0.832645  0.167355  0.874290  1
  Rh  Rh14  1  0.334710  0.167355  0.874290  1
  Rh  Rh15  1  0.665212  0.832606  0.375539  1
  Rh  Rh16  1  0.167394  0.832606  0.375539  1
  Rh  Rh17  1  0.167394  0.334788  0.375539  1
  Rh  Rh18  1  0.000000  0.000000  0.250000  1
  Rh  Rh19  1  0.000000  0.000000  0.750000  1
  Rh  Rh20  1  0.333333  0.666667  0.250000  1
  Rh  Rh21  1  0.666667  0.333333  0.750000  1
  Rh  Rh22  1  0.000000  0.000000  0.999656  1
  Rh  Rh23  1  0.000000  0.000000  0.500344  1
