# generated using pymatgen
data_Tb9Lu3(ThSn2)8
_symmetry_space_group_name_H-M   'P 1'
_cell_length_a   8.10517500
_cell_length_b   8.21331634
_cell_length_c   15.53374000
_cell_angle_alpha   90.00000000
_cell_angle_beta   90.00000000
_cell_angle_gamma   89.96726181
_symmetry_Int_Tables_number   1
_chemical_formula_structural   Tb9Lu3(ThSn2)8
_chemical_formula_sum   'Tb9 Lu3 Th8 Sn16'
_cell_volume   1034.08659257
_cell_formula_units_Z   1
loop_
 _symmetry_equiv_pos_site_id
 _symmetry_equiv_pos_as_xyz
  1  'x, y, z'
loop_
 _atom_site_type_symbol
 _atom_site_label
 _atom_site_symmetry_multiplicity
 _atom_site_fract_x
 _atom_site_fract_y
 _atom_site_fract_z
 _atom_site_occupancy
  Tb  Tb0  1  0.361051  0.837548  0.876458  1
  Tb  Tb1  1  0.860523  0.662591  0.623542  1
  Tb  Tb2  1  0.639395  0.162454  0.376197  1
  Tb  Tb3  1  0.139427  0.337465  0.124117  1
  Tb  Tb4  1  0.639395  0.162454  0.123803  1
  Tb  Tb5  1  0.139427  0.337465  0.375883  1
  Tb  Tb6  1  0.361051  0.837548  0.623542  1
  Tb  Tb7  1  0.860523  0.662591  0.876458  1
  Tb  Tb8  1  0.190150  0.497427  0.750000  1
  Lu  Lu9  1  0.690539  0.001905  0.750000  1
  Lu  Lu10  1  0.809244  0.501918  0.250000  1
  Lu  Lu11  1  0.309227  0.998037  0.250000  1
  Th  Th12  1  0.518511  0.321353  0.904143  1
  Th  Th13  1  0.018708  0.178471  0.595932  1
  Th  Th14  1  0.481222  0.678363  0.404052  1
  Th  Th15  1  0.981267  0.821917  0.095990  1
  Th  Th16  1  0.481222  0.678363  0.095948  1
  Th  Th17  1  0.981267  0.821917  0.404010  1
  Th  Th18  1  0.518511  0.321353  0.595857  1
  Th  Th19  1  0.018708  0.178471  0.904068  1
  Sn  Sn20  1  0.299065  0.038883  0.043218  1
  Sn  Sn21  1  0.799240  0.461198  0.456778  1
  Sn  Sn22  1  0.701107  0.961119  0.542911  1
  Sn  Sn23  1  0.201155  0.539359  0.958271  1
  Sn  Sn24  1  0.701107  0.961119  0.957089  1
  Sn  Sn25  1  0.201155  0.539359  0.541729  1
  Sn  Sn26  1  0.299065  0.038883  0.456782  1
  Sn  Sn27  1  0.799240  0.461198  0.043222  1
  Sn  Sn28  1  0.556790  0.621510  0.750000  1
  Sn  Sn29  1  0.054668  0.880268  0.750000  1
  Sn  Sn30  1  0.445160  0.379203  0.250000  1
  Sn  Sn31  1  0.944912  0.120752  0.250000  1
  Sn  Sn32  1  0.325921  0.142933  0.750000  1
  Sn  Sn33  1  0.823142  0.354263  0.750000  1
  Sn  Sn34  1  0.674500  0.854673  0.250000  1
  Sn  Sn35  1  0.174404  0.645667  0.250000  1
