# generated using pymatgen
data_HfTh(PPd)3
_symmetry_space_group_name_H-M   'P 1'
_cell_length_a   3.94245500
_cell_length_b   10.91999400
_cell_length_c   13.15416600
_cell_angle_alpha   90.00000000
_cell_angle_beta   90.00000000
_cell_angle_gamma   90.00000000
_symmetry_Int_Tables_number   1
_chemical_formula_structural   HfTh(PPd)3
_chemical_formula_sum   'Hf4 Th4 P12 Pd12'
_cell_volume   566.30769493
_cell_formula_units_Z   4
loop_
 _symmetry_equiv_pos_site_id
 _symmetry_equiv_pos_as_xyz
  1  'x, y, z'
loop_
 _atom_site_type_symbol
 _atom_site_label
 _atom_site_symmetry_multiplicity
 _atom_site_fract_x
 _atom_site_fract_y
 _atom_site_fract_z
 _atom_site_occupancy
  Hf  Hf0  1  0.250000  0.170182  0.492831  1
  Hf  Hf1  1  0.750000  0.829818  0.507169  1
  Hf  Hf2  1  0.750000  0.670182  0.007169  1
  Hf  Hf3  1  0.250000  0.329818  0.992831  1
  Th  Th4  1  0.250000  0.072200  0.211220  1
  Th  Th5  1  0.750000  0.927800  0.788780  1
  Th  Th6  1  0.750000  0.572200  0.288780  1
  Th  Th7  1  0.250000  0.427800  0.711220  1
  P  P8  1  0.250000  0.940032  0.608596  1
  P  P9  1  0.750000  0.059968  0.391404  1
  P  P10  1  0.750000  0.440032  0.891404  1
  P  P11  1  0.250000  0.559968  0.108596  1
  P  P12  1  0.250000  0.390530  0.397185  1
  P  P13  1  0.750000  0.609470  0.602815  1
  P  P14  1  0.750000  0.890530  0.102815  1
  P  P15  1  0.250000  0.109470  0.897185  1
  P  P16  1  0.250000  0.766198  0.367168  1
  P  P17  1  0.750000  0.233802  0.632832  1
  P  P18  1  0.750000  0.266198  0.132832  1
  P  P19  1  0.250000  0.733802  0.867168  1
  Pd  Pd20  1  0.250000  0.730910  0.669294  1
  Pd  Pd21  1  0.750000  0.269090  0.330706  1
  Pd  Pd22  1  0.750000  0.230910  0.830706  1
  Pd  Pd23  1  0.250000  0.769090  0.169294  1
  Pd  Pd24  1  0.250000  0.373128  0.204891  1
  Pd  Pd25  1  0.750000  0.626872  0.795109  1
  Pd  Pd26  1  0.750000  0.873128  0.295109  1
  Pd  Pd27  1  0.250000  0.126872  0.704891  1
  Pd  Pd28  1  0.250000  0.597332  0.485883  1
  Pd  Pd29  1  0.750000  0.402668  0.514117  1
  Pd  Pd30  1  0.750000  0.097332  0.014117  1
  Pd  Pd31  1  0.250000  0.902668  0.985883  1
