# generated using pymatgen
data_Y4VFe3B16
_symmetry_space_group_name_H-M   'P 1'
_cell_length_a   3.40058500
_cell_length_b   5.92757024
_cell_length_c   11.47045227
_cell_angle_alpha   90.11984471
_cell_angle_beta   90.00000000
_cell_angle_gamma   90.00000000
_symmetry_Int_Tables_number   1
_chemical_formula_structural   Y4VFe3B16
_chemical_formula_sum   'Y4 V1 Fe3 B16'
_cell_volume   231.21176876
_cell_formula_units_Z   1
loop_
 _symmetry_equiv_pos_site_id
 _symmetry_equiv_pos_as_xyz
  1  'x, y, z'
loop_
 _atom_site_type_symbol
 _atom_site_label
 _atom_site_symmetry_multiplicity
 _atom_site_fract_x
 _atom_site_fract_y
 _atom_site_fract_z
 _atom_site_occupancy
  Y  Y0  1  0.500000  0.373588  0.147521  1
  Y  Y1  1  0.500000  0.626953  0.851611  1
  Y  Y2  1  0.500000  0.123407  0.653278  1
  Y  Y3  1  0.500000  0.874248  0.345947  1
  V  V4  1  0.500000  0.373380  0.417175  1
  Fe  Fe5  1  0.500000  0.624338  0.584010  1
  Fe  Fe6  1  0.500000  0.134615  0.911152  1
  Fe  Fe7  1  0.500000  0.867188  0.085890  1
  B  B8  1  0.000000  0.111337  0.045239  1
  B  B9  1  0.000000  0.888451  0.953886  1
  B  B10  1  0.000000  0.390134  0.549552  1
  B  B11  1  0.000000  0.616660  0.455941  1
  B  B12  1  0.000000  0.134360  0.469665  1
  B  B13  1  0.000000  0.861393  0.534104  1
  B  B14  1  0.000000  0.360811  0.967885  1
  B  B15  1  0.000000  0.640001  0.031682  1
  B  B16  1  0.000000  0.023344  0.188627  1
  B  B17  1  0.000000  0.974483  0.810266  1
  B  B18  1  0.000000  0.477285  0.692370  1
  B  B19  1  0.000000  0.527118  0.307376  1
  B  B20  1  0.000000  0.214685  0.313299  1
  B  B21  1  0.000000  0.780395  0.684093  1
  B  B22  1  0.000000  0.281775  0.817008  1
  B  B23  1  0.000000  0.720049  0.182424  1
