# generated using pymatgen
data_Ca9Pr6Nd5Pb16
_symmetry_space_group_name_H-M   'P 1'
_cell_length_a   8.15155539
_cell_length_b   8.70424380
_cell_length_c   16.35607937
_cell_angle_alpha   89.92845223
_cell_angle_beta   89.86024269
_cell_angle_gamma   89.99950355
_symmetry_Int_Tables_number   1
_chemical_formula_structural   Ca9Pr6Nd5Pb16
_chemical_formula_sum   'Ca9 Pr6 Nd5 Pb16'
_cell_volume   1160.51059396
_cell_formula_units_Z   1
loop_
 _symmetry_equiv_pos_site_id
 _symmetry_equiv_pos_as_xyz
  1  'x, y, z'
loop_
 _atom_site_type_symbol
 _atom_site_label
 _atom_site_symmetry_multiplicity
 _atom_site_fract_x
 _atom_site_fract_y
 _atom_site_fract_z
 _atom_site_occupancy
  Ca  Ca0  1  0.669622  0.164121  0.621953  1
  Ca  Ca1  1  0.169289  0.335880  0.877302  1
  Ca  Ca2  1  0.331753  0.835019  0.122684  1
  Ca  Ca3  1  0.828951  0.664587  0.376819  1
  Ca  Ca4  1  0.333683  0.833441  0.376982  1
  Ca  Ca5  1  0.835847  0.500874  0.749975  1
  Ca  Ca6  1  0.336520  0.999567  0.749845  1
  Ca  Ca7  1  0.163885  0.501336  0.251346  1
  Ca  Ca8  1  0.663421  0.999047  0.250989  1
  Pr  Pr9  1  0.493888  0.312944  0.094450  1
  Pr  Pr10  1  0.995218  0.186989  0.404137  1
  Pr  Pr11  1  0.495966  0.312405  0.405809  1
  Pr  Pr12  1  0.999788  0.185288  0.095128  1
  Pr  Pr13  1  0.502515  0.685412  0.906313  1
  Pr  Pr14  1  0.003437  0.813947  0.594432  1
  Nd  Nd15  1  0.835976  0.670708  0.124920  1
  Nd  Nd16  1  0.666056  0.170151  0.876245  1
  Nd  Nd17  1  0.166129  0.331411  0.623710  1
  Nd  Nd18  1  0.503744  0.688744  0.593733  1
  Nd  Nd19  1  0.004963  0.813257  0.905059  1
  Pb  Pb20  1  0.680125  0.961550  0.459062  1
  Pb  Pb21  1  0.180654  0.538114  0.040951  1
  Pb  Pb22  1  0.318679  0.037118  0.958578  1
  Pb  Pb23  1  0.819348  0.463865  0.541067  1
  Pb  Pb24  1  0.321682  0.036795  0.539675  1
  Pb  Pb25  1  0.819917  0.462858  0.961278  1
  Pb  Pb26  1  0.681925  0.962385  0.039630  1
  Pb  Pb27  1  0.177961  0.536978  0.459924  1
  Pb  Pb28  1  0.469743  0.390840  0.747843  1
  Pb  Pb29  1  0.970745  0.106652  0.750966  1
  Pb  Pb30  1  0.529509  0.605261  0.248563  1
  Pb  Pb31  1  0.030646  0.891021  0.251012  1
  Pb  Pb32  1  0.703941  0.852249  0.751294  1
  Pb  Pb33  1  0.205422  0.648037  0.749424  1
  Pb  Pb34  1  0.294525  0.148024  0.250252  1
  Pb  Pb35  1  0.794529  0.353125  0.248649  1
