# generated using pymatgen
data_Tm2Ta4C5
_symmetry_space_group_name_H-M   'P 1'
_cell_length_a   5.65665090
_cell_length_b   5.65665076
_cell_length_c   5.57629249
_cell_angle_alpha   81.68049454
_cell_angle_beta   81.68049300
_cell_angle_gamma   121.03188663
_symmetry_Int_Tables_number   1
_chemical_formula_structural   Tm2Ta4C5
_chemical_formula_sum   'Tm2 Ta4 C5'
_cell_volume   146.13572409
_cell_formula_units_Z   1
loop_
 _symmetry_equiv_pos_site_id
 _symmetry_equiv_pos_as_xyz
  1  'x, y, z'
loop_
 _atom_site_type_symbol
 _atom_site_label
 _atom_site_symmetry_multiplicity
 _atom_site_fract_x
 _atom_site_fract_y
 _atom_site_fract_z
 _atom_site_occupancy
  Tm  Tm0  1  0.759727  0.759727  0.756522  1
  Tm  Tm1  1  0.240273  0.240273  0.243478  1
  Ta  Ta2  1  0.100927  0.449774  0.740429  1
  Ta  Ta3  1  0.550226  0.899073  0.259571  1
  Ta  Ta4  1  0.899073  0.550226  0.259571  1
  Ta  Ta5  1  0.449774  0.100927  0.740429  1
  C  C6  1  0.500000  0.500000  0.500000  1
  C  C7  1  0.679775  0.320225  0.000000  1
  C  C8  1  0.320225  0.679775  0.000000  1
  C  C9  1  0.821623  0.178377  0.500000  1
  C  C10  1  0.178377  0.821623  0.500000  1
