# generated using pymatgen
data_Pr2Co3Si4IrRh2
_symmetry_space_group_name_H-M   'P 1'
_cell_length_a   6.60225806
_cell_length_b   6.53628946
_cell_length_c   6.60225687
_cell_angle_alpha   131.28242393
_cell_angle_beta   115.71612306
_cell_angle_gamma   84.95313440
_symmetry_Int_Tables_number   1
_chemical_formula_structural   Pr2Co3Si4IrRh2
_chemical_formula_sum   'Pr2 Co3 Si4 Ir1 Rh2'
_cell_volume   184.43788266
_cell_formula_units_Z   1
loop_
 _symmetry_equiv_pos_site_id
 _symmetry_equiv_pos_as_xyz
  1  'x, y, z'
loop_
 _atom_site_type_symbol
 _atom_site_label
 _atom_site_symmetry_multiplicity
 _atom_site_fract_x
 _atom_site_fract_y
 _atom_site_fract_z
 _atom_site_occupancy
  Pr  Pr0  1  0.255913  0.973222  0.725048  1
  Pr  Pr1  1  0.751827  0.026778  0.282692  1
  Co  Co2  1  0.278334  0.000000  0.278334  1
  Co  Co3  1  0.719991  0.000000  0.719991  1
  Co  Co4  1  0.218730  0.500000  0.718730  1
  Si  Si5  1  0.077413  0.268732  0.201199  1
  Si  Si6  1  0.932467  0.731268  0.808681  1
  Si  Si7  1  0.420826  0.637812  0.200538  1
  Si  Si8  1  0.562727  0.362188  0.783014  1
  Ir  Ir9  1  0.780022  0.500000  0.280022  1
  Rh  Rh10  1  0.499742  0.505149  0.507158  1
  Rh  Rh11  1  0.002009  0.494851  0.994593  1
