# generated using pymatgen
data_Tm3MgIn2Ga2Pt
_symmetry_space_group_name_H-M   'P 1'
_cell_length_a   7.19083643
_cell_length_b   7.15703911
_cell_length_c   4.40517900
_cell_angle_alpha   90.00000000
_cell_angle_beta   90.00000000
_cell_angle_gamma   119.84464479
_symmetry_Int_Tables_number   1
_chemical_formula_structural   Tm3MgIn2Ga2Pt
_chemical_formula_sum   'Tm3 Mg1 In2 Ga2 Pt1'
_cell_volume   196.64582817
_cell_formula_units_Z   1
loop_
 _symmetry_equiv_pos_site_id
 _symmetry_equiv_pos_as_xyz
  1  'x, y, z'
loop_
 _atom_site_type_symbol
 _atom_site_label
 _atom_site_symmetry_multiplicity
 _atom_site_fract_x
 _atom_site_fract_y
 _atom_site_fract_z
 _atom_site_occupancy
  Tm  Tm0  1  0.408883  0.409913  0.500000  1
  Tm  Tm1  1  0.591117  0.001031  0.500000  1
  Tm  Tm2  1  0.000000  0.589876  0.500000  1
  Mg  Mg3  1  0.000000  0.238835  0.000000  1
  In  In4  1  0.749204  0.753740  0.000000  1
  In  In5  1  0.250796  0.004535  0.000000  1
  Ga  Ga6  1  0.673448  0.334593  0.000000  1
  Ga  Ga7  1  0.326552  0.661145  0.000000  1
  Pt  Pt8  1  0.000000  0.006331  0.500000  1
