# generated using pymatgen
data_Y4Tm4Sc11Si16Hg
_symmetry_space_group_name_H-M   'P 1'
_cell_length_a   7.03537408
_cell_length_b   7.38603939
_cell_length_c   13.99919414
_cell_angle_alpha   90.01277782
_cell_angle_beta   89.99051585
_cell_angle_gamma   89.92119291
_symmetry_Int_Tables_number   1
_chemical_formula_structural   Y4Tm4Sc11Si16Hg
_chemical_formula_sum   'Y4 Tm4 Sc11 Si16 Hg1'
_cell_volume   727.44710973
_cell_formula_units_Z   1
loop_
 _symmetry_equiv_pos_site_id
 _symmetry_equiv_pos_as_xyz
  1  'x, y, z'
loop_
 _atom_site_type_symbol
 _atom_site_label
 _atom_site_symmetry_multiplicity
 _atom_site_fract_x
 _atom_site_fract_y
 _atom_site_fract_z
 _atom_site_occupancy
  Y  Y0  1  0.009665  0.174786  0.096681  1
  Y  Y1  1  0.990563  0.816515  0.902516  1
  Y  Y2  1  0.485903  0.672765  0.903124  1
  Y  Y3  1  0.990724  0.816473  0.596841  1
  Tm  Tm4  1  0.510443  0.323363  0.097515  1
  Tm  Tm5  1  0.010626  0.175742  0.402955  1
  Tm  Tm6  1  0.510461  0.323307  0.403194  1
  Tm  Tm7  1  0.485587  0.673679  0.597095  1
  Sc  Sc8  1  0.837803  0.497233  0.250303  1
  Sc  Sc9  1  0.340132  0.004347  0.250306  1
  Sc  Sc10  1  0.656811  0.997335  0.749717  1
  Sc  Sc11  1  0.325183  0.183295  0.625954  1
  Sc  Sc12  1  0.671140  0.823892  0.374944  1
  Sc  Sc13  1  0.169735  0.680288  0.373088  1
  Sc  Sc14  1  0.671175  0.823851  0.125649  1
  Sc  Sc15  1  0.838672  0.325436  0.625708  1
  Sc  Sc16  1  0.325162  0.183084  0.873670  1
  Sc  Sc17  1  0.838745  0.325579  0.873654  1
  Sc  Sc18  1  0.169850  0.679979  0.127300  1
  Si  Si19  1  0.026666  0.092873  0.749622  1
  Si  Si20  1  0.968750  0.889902  0.250596  1
  Si  Si21  1  0.467801  0.615181  0.250340  1
  Si  Si22  1  0.543777  0.380341  0.749451  1
  Si  Si23  1  0.291229  0.885235  0.749241  1
  Si  Si24  1  0.712427  0.130938  0.250826  1
  Si  Si25  1  0.213518  0.371518  0.250793  1
  Si  Si26  1  0.768217  0.631966  0.749096  1
  Si  Si27  1  0.165194  0.458531  0.527689  1
  Si  Si28  1  0.840688  0.534295  0.461167  1
  Si  Si29  1  0.343265  0.967086  0.461922  1
  Si  Si30  1  0.840508  0.535336  0.038653  1
  Si  Si31  1  0.656705  0.033796  0.539953  1
  Si  Si32  1  0.163433  0.458792  0.972204  1
  Si  Si33  1  0.656897  0.034869  0.960165  1
  Si  Si34  1  0.344998  0.967221  0.038285  1
  Hg  Hg35  1  0.157549  0.511174  0.749785  1
