# generated using pymatgen
data_NdGa2CuNi
_symmetry_space_group_name_H-M   'P 1'
_cell_length_a   4.25186600
_cell_length_b   4.25186600
_cell_length_c   9.75198100
_cell_angle_alpha   90.00000000
_cell_angle_beta   90.00000000
_cell_angle_gamma   90.00000000
_symmetry_Int_Tables_number   1
_chemical_formula_structural   NdGa2CuNi
_chemical_formula_sum   'Nd2 Ga4 Cu2 Ni2'
_cell_volume   176.29986694
_cell_formula_units_Z   2
loop_
 _symmetry_equiv_pos_site_id
 _symmetry_equiv_pos_as_xyz
  1  'x, y, z'
loop_
 _atom_site_type_symbol
 _atom_site_label
 _atom_site_symmetry_multiplicity
 _atom_site_fract_x
 _atom_site_fract_y
 _atom_site_fract_z
 _atom_site_occupancy
  Nd  Nd0  1  0.000000  0.500000  0.747664  1
  Nd  Nd1  1  0.500000  0.000000  0.252336  1
  Ga  Ga2  1  0.000000  0.500000  0.131714  1
  Ga  Ga3  1  0.500000  0.500000  0.500000  1
  Ga  Ga4  1  0.000000  0.000000  0.500000  1
  Ga  Ga5  1  0.500000  0.000000  0.868286  1
  Cu  Cu6  1  0.500000  0.500000  0.000000  1
  Cu  Cu7  1  0.000000  0.000000  0.000000  1
  Ni  Ni8  1  0.500000  0.000000  0.625028  1
  Ni  Ni9  1  0.000000  0.500000  0.374972  1
