# generated using pymatgen
data_Tb3NdC2Cl3
_symmetry_space_group_name_H-M   'P 1'
_cell_length_a   3.69833500
_cell_length_b   10.64197800
_cell_length_c   20.24390100
_cell_angle_alpha   90.00000000
_cell_angle_beta   90.00000000
_cell_angle_gamma   90.00000000
_symmetry_Int_Tables_number   1
_chemical_formula_structural   Tb3NdC2Cl3
_chemical_formula_sum   'Tb12 Nd4 C8 Cl12'
_cell_volume   796.75135206
_cell_formula_units_Z   4
loop_
 _symmetry_equiv_pos_site_id
 _symmetry_equiv_pos_as_xyz
  1  'x, y, z'
loop_
 _atom_site_type_symbol
 _atom_site_label
 _atom_site_symmetry_multiplicity
 _atom_site_fract_x
 _atom_site_fract_y
 _atom_site_fract_z
 _atom_site_occupancy
  Tb  Tb0  1  0.250000  0.864090  0.744493  1
  Tb  Tb1  1  0.750000  0.135910  0.255507  1
  Tb  Tb2  1  0.750000  0.635910  0.244493  1
  Tb  Tb3  1  0.250000  0.364090  0.755507  1
  Tb  Tb4  1  0.250000  0.874646  0.166988  1
  Tb  Tb5  1  0.750000  0.125354  0.833012  1
  Tb  Tb6  1  0.750000  0.625354  0.666988  1
  Tb  Tb7  1  0.250000  0.374646  0.333012  1
  Tb  Tb8  1  0.250000  0.897995  0.330927  1
  Tb  Tb9  1  0.750000  0.102005  0.669073  1
  Tb  Tb10  1  0.750000  0.602005  0.830927  1
  Tb  Tb11  1  0.250000  0.397995  0.169073  1
  Nd  Nd12  1  0.250000  0.861911  0.572868  1
  Nd  Nd13  1  0.750000  0.138089  0.427132  1
  Nd  Nd14  1  0.750000  0.638089  0.072868  1
  Nd  Nd15  1  0.250000  0.361911  0.927132  1
  C  C16  1  0.250000  0.613109  0.750681  1
  C  C17  1  0.750000  0.386891  0.249319  1
  C  C18  1  0.750000  0.886891  0.250681  1
  C  C19  1  0.250000  0.113109  0.749319  1
  C  C20  1  0.250000  0.635334  0.155844  1
  C  C21  1  0.750000  0.364666  0.844156  1
  C  C22  1  0.750000  0.864666  0.655844  1
  C  C23  1  0.250000  0.135334  0.344156  1
  Cl  Cl24  1  0.250000  0.605997  0.561205  1
  Cl  Cl25  1  0.750000  0.394003  0.438795  1
  Cl  Cl26  1  0.750000  0.894003  0.061205  1
  Cl  Cl27  1  0.250000  0.105997  0.938795  1
  Cl  Cl28  1  0.250000  0.627828  0.947837  1
  Cl  Cl29  1  0.750000  0.372172  0.052163  1
  Cl  Cl30  1  0.750000  0.872172  0.447837  1
  Cl  Cl31  1  0.250000  0.127828  0.552163  1
  Cl  Cl32  1  0.250000  0.637988  0.351626  1
  Cl  Cl33  1  0.750000  0.362012  0.648374  1
  Cl  Cl34  1  0.750000  0.862012  0.851626  1
  Cl  Cl35  1  0.250000  0.137988  0.148374  1
