# generated using pymatgen
data_Pr4(SCl2)3
_symmetry_space_group_name_H-M   'P 1'
_cell_length_a   14.96702439
_cell_length_b   14.96702457
_cell_length_c   7.07578754
_cell_angle_alpha   85.28804613
_cell_angle_beta   85.28804688
_cell_angle_gamma   25.96437404
_symmetry_Int_Tables_number   1
_chemical_formula_structural   Pr4(SCl2)3
_chemical_formula_sum   'Pr8 S6 Cl12'
_cell_volume   691.48836199
_cell_formula_units_Z   2
loop_
 _symmetry_equiv_pos_site_id
 _symmetry_equiv_pos_as_xyz
  1  'x, y, z'
loop_
 _atom_site_type_symbol
 _atom_site_label
 _atom_site_symmetry_multiplicity
 _atom_site_fract_x
 _atom_site_fract_y
 _atom_site_fract_z
 _atom_site_occupancy
  Pr  Pr0  1  0.238694  0.645875  0.981758  1
  Pr  Pr1  1  0.471765  0.877727  0.901011  1
  Pr  Pr2  1  0.528235  0.122273  0.098989  1
  Pr  Pr3  1  0.761306  0.354125  0.018242  1
  Pr  Pr4  1  0.122273  0.528235  0.598989  1
  Pr  Pr5  1  0.645875  0.238694  0.481758  1
  Pr  Pr6  1  0.877727  0.471765  0.401011  1
  Pr  Pr7  1  0.354125  0.761306  0.518242  1
  S  S8  1  0.434671  0.328290  0.791213  1
  S  S9  1  0.554539  0.445461  0.750000  1
  S  S10  1  0.671710  0.565329  0.708787  1
  S  S11  1  0.565329  0.671710  0.208787  1
  S  S12  1  0.328290  0.434671  0.291213  1
  S  S13  1  0.445461  0.554539  0.250000  1
  Cl  Cl14  1  0.845490  0.051903  0.114811  1
  Cl  Cl15  1  0.154510  0.948097  0.885189  1
  Cl  Cl16  1  0.758092  0.930955  0.439108  1
  Cl  Cl17  1  0.816075  0.655184  0.679206  1
  Cl  Cl18  1  0.069045  0.241908  0.060892  1
  Cl  Cl19  1  0.241908  0.069045  0.560892  1
  Cl  Cl20  1  0.948097  0.154510  0.385189  1
  Cl  Cl21  1  0.051903  0.845490  0.614811  1
  Cl  Cl22  1  0.930955  0.758092  0.939108  1
  Cl  Cl23  1  0.344816  0.183925  0.820794  1
  Cl  Cl24  1  0.655184  0.816075  0.179206  1
  Cl  Cl25  1  0.183925  0.344816  0.320794  1
