# generated using pymatgen
data_LiNd3(P3Ir4)2
_symmetry_space_group_name_H-M   'P 1'
_cell_length_a   3.99667300
_cell_length_b   11.41262100
_cell_length_c   12.91611200
_cell_angle_alpha   90.00000000
_cell_angle_beta   90.00000000
_cell_angle_gamma   90.00000000
_symmetry_Int_Tables_number   1
_chemical_formula_structural   LiNd3(P3Ir4)2
_chemical_formula_sum   'Li2 Nd6 P12 Ir16'
_cell_volume   589.13634214
_cell_formula_units_Z   2
loop_
 _symmetry_equiv_pos_site_id
 _symmetry_equiv_pos_as_xyz
  1  'x, y, z'
loop_
 _atom_site_type_symbol
 _atom_site_label
 _atom_site_symmetry_multiplicity
 _atom_site_fract_x
 _atom_site_fract_y
 _atom_site_fract_z
 _atom_site_occupancy
  Li  Li0  1  0.500000  0.500000  0.153447  1
  Li  Li1  1  0.000000  0.000000  0.846553  1
  Nd  Nd2  1  0.000000  0.500000  0.515917  1
  Nd  Nd3  1  0.500000  0.000000  0.484083  1
  Nd  Nd4  1  0.500000  0.818473  0.203622  1
  Nd  Nd5  1  0.500000  0.181527  0.203622  1
  Nd  Nd6  1  0.000000  0.681527  0.796378  1
  Nd  Nd7  1  0.000000  0.318473  0.796378  1
  P  P8  1  0.500000  0.500000  0.883525  1
  P  P9  1  0.000000  0.000000  0.116475  1
  P  P10  1  0.500000  0.500000  0.340081  1
  P  P11  1  0.000000  0.000000  0.659919  1
  P  P12  1  0.500000  0.311606  0.617537  1
  P  P13  1  0.500000  0.688394  0.617537  1
  P  P14  1  0.000000  0.188394  0.382463  1
  P  P15  1  0.000000  0.811606  0.382463  1
  P  P16  1  0.500000  0.844241  0.893481  1
  P  P17  1  0.500000  0.155759  0.893481  1
  P  P18  1  0.000000  0.655759  0.106519  1
  P  P19  1  0.000000  0.344241  0.106519  1
  Ir  Ir20  1  0.500000  0.500000  0.701773  1
  Ir  Ir21  1  0.000000  0.000000  0.298227  1
  Ir  Ir22  1  0.000000  0.500000  0.985392  1
  Ir  Ir23  1  0.500000  0.000000  0.014608  1
  Ir  Ir24  1  0.500000  0.332953  0.995680  1
  Ir  Ir25  1  0.500000  0.667047  0.995680  1
  Ir  Ir26  1  0.000000  0.167047  0.004320  1
  Ir  Ir27  1  0.000000  0.832953  0.004320  1
  Ir  Ir28  1  0.500000  0.288369  0.429352  1
  Ir  Ir29  1  0.500000  0.711631  0.429352  1
  Ir  Ir30  1  0.000000  0.211631  0.570648  1
  Ir  Ir31  1  0.000000  0.788369  0.570648  1
  Ir  Ir32  1  0.500000  0.875270  0.710535  1
  Ir  Ir33  1  0.500000  0.124730  0.710535  1
  Ir  Ir34  1  0.000000  0.624730  0.289465  1
  Ir  Ir35  1  0.000000  0.375270  0.289465  1
