# generated using pymatgen
data_Tb17Y(HoPb8)2
_symmetry_space_group_name_H-M   'P 1'
_cell_length_a   8.23175448
_cell_length_b   15.72398700
_cell_length_c   8.32190004
_cell_angle_alpha   90.00000000
_cell_angle_beta   90.02506695
_cell_angle_gamma   90.00000000
_symmetry_Int_Tables_number   1
_chemical_formula_structural   Tb17Y(HoPb8)2
_chemical_formula_sum   'Tb17 Y1 Ho2 Pb16'
_cell_volume   1077.15335402
_cell_formula_units_Z   1
loop_
 _symmetry_equiv_pos_site_id
 _symmetry_equiv_pos_as_xyz
  1  'x, y, z'
loop_
 _atom_site_type_symbol
 _atom_site_label
 _atom_site_symmetry_multiplicity
 _atom_site_fract_x
 _atom_site_fract_y
 _atom_site_fract_z
 _atom_site_occupancy
  Tb  Tb0  1  0.622681  0.620212  0.159417  1
  Tb  Tb1  1  0.123009  0.879792  0.340334  1
  Tb  Tb2  1  0.377246  0.120200  0.840621  1
  Tb  Tb3  1  0.877023  0.379758  0.659578  1
  Tb  Tb4  1  0.377246  0.379800  0.840621  1
  Tb  Tb5  1  0.877023  0.120242  0.659578  1
  Tb  Tb6  1  0.622681  0.879788  0.159417  1
  Tb  Tb7  1  0.123009  0.620208  0.340334  1
  Tb  Tb8  1  0.466381  0.600159  0.677112  1
  Tb  Tb9  1  0.966590  0.899826  0.823126  1
  Tb  Tb10  1  0.533605  0.100196  0.322942  1
  Tb  Tb11  1  0.033437  0.399851  0.176919  1
  Tb  Tb12  1  0.533605  0.399804  0.322942  1
  Tb  Tb13  1  0.033437  0.100149  0.176919  1
  Tb  Tb14  1  0.466381  0.899841  0.677112  1
  Tb  Tb15  1  0.966590  0.600174  0.823126  1
  Tb  Tb16  1  0.791289  0.750000  0.496687  1
  Y  Y17  1  0.208824  0.250000  0.503380  1
  Ho  Ho18  1  0.291086  0.750000  0.003499  1
  Ho  Ho19  1  0.708906  0.250000  0.996624  1
  Pb  Pb20  1  0.718960  0.457151  0.967246  1
  Pb  Pb21  1  0.218972  0.042732  0.532743  1
  Pb  Pb22  1  0.281047  0.957195  0.032759  1
  Pb  Pb23  1  0.781038  0.542578  0.467167  1
  Pb  Pb24  1  0.281047  0.542805  0.032759  1
  Pb  Pb25  1  0.781038  0.957422  0.467167  1
  Pb  Pb26  1  0.718960  0.042849  0.967246  1
  Pb  Pb27  1  0.218972  0.457268  0.532743  1
  Pb  Pb28  1  0.427173  0.750000  0.372816  1
  Pb  Pb29  1  0.927817  0.750000  0.126543  1
  Pb  Pb30  1  0.572501  0.250000  0.627035  1
  Pb  Pb31  1  0.072169  0.250000  0.873234  1
  Pb  Pb32  1  0.654757  0.750000  0.848887  1
  Pb  Pb33  1  0.155144  0.750000  0.651881  1
  Pb  Pb34  1  0.345307  0.250000  0.151378  1
  Pb  Pb35  1  0.845047  0.250000  0.348110  1
