# generated using pymatgen
data_Nd2MgSi2HgIr4
_symmetry_space_group_name_H-M   'P 1'
_cell_length_a   4.11569200
_cell_length_b   4.11569200
_cell_length_c   11.25572300
_cell_angle_alpha   90.00000000
_cell_angle_beta   90.00000000
_cell_angle_gamma   90.00000000
_symmetry_Int_Tables_number   1
_chemical_formula_structural   Nd2MgSi2HgIr4
_chemical_formula_sum   'Nd2 Mg1 Si2 Hg1 Ir4'
_cell_volume   190.65979863
_cell_formula_units_Z   1
loop_
 _symmetry_equiv_pos_site_id
 _symmetry_equiv_pos_as_xyz
  1  'x, y, z'
loop_
 _atom_site_type_symbol
 _atom_site_label
 _atom_site_symmetry_multiplicity
 _atom_site_fract_x
 _atom_site_fract_y
 _atom_site_fract_z
 _atom_site_occupancy
  Nd  Nd0  1  0.000000  0.500000  0.237442  1
  Nd  Nd1  1  0.500000  0.000000  0.762558  1
  Mg  Mg2  1  0.500000  0.500000  0.500000  1
  Si  Si3  1  0.000000  0.500000  0.886663  1
  Si  Si4  1  0.500000  0.000000  0.113337  1
  Hg  Hg5  1  0.000000  0.000000  0.500000  1
  Ir  Ir6  1  0.000000  0.000000  0.000000  1
  Ir  Ir7  1  0.500000  0.500000  0.000000  1
  Ir  Ir8  1  0.000000  0.500000  0.676931  1
  Ir  Ir9  1  0.500000  0.000000  0.323069  1
