# generated using pymatgen
data_Sm2Bi(AsRh2)6
_symmetry_space_group_name_H-M   'P 1'
_cell_length_a   10.11856300
_cell_length_b   10.11856359
_cell_length_c   3.98075100
_cell_angle_alpha   90.00000000
_cell_angle_beta   90.00000000
_cell_angle_gamma   120.00000134
_symmetry_Int_Tables_number   1
_chemical_formula_structural   Sm2Bi(AsRh2)6
_chemical_formula_sum   'Sm2 Bi1 As6 Rh12'
_cell_volume   352.96638259
_cell_formula_units_Z   1
loop_
 _symmetry_equiv_pos_site_id
 _symmetry_equiv_pos_as_xyz
  1  'x, y, z'
loop_
 _atom_site_type_symbol
 _atom_site_label
 _atom_site_symmetry_multiplicity
 _atom_site_fract_x
 _atom_site_fract_y
 _atom_site_fract_z
 _atom_site_occupancy
  Sm  Sm0  1  0.333333  0.666667  0.247396  1
  Sm  Sm1  1  0.666667  0.333333  0.752604  1
  Bi  Bi2  1  0.000000  0.000000  0.500000  1
  As  As3  1  0.406890  0.116831  0.255693  1
  As  As4  1  0.709943  0.593110  0.255693  1
  As  As5  1  0.883169  0.290057  0.255693  1
  As  As6  1  0.593110  0.883169  0.744307  1
  As  As7  1  0.290057  0.406890  0.744307  1
  As  As8  1  0.116831  0.709943  0.744307  1
  Rh  Rh9  1  0.448031  0.384039  0.253243  1
  Rh  Rh10  1  0.936008  0.551969  0.253243  1
  Rh  Rh11  1  0.615961  0.063992  0.253243  1
  Rh  Rh12  1  0.551969  0.615961  0.746757  1
  Rh  Rh13  1  0.063992  0.448031  0.746757  1
  Rh  Rh14  1  0.384039  0.936008  0.746757  1
  Rh  Rh15  1  0.159480  0.875320  0.235829  1
  Rh  Rh16  1  0.715839  0.840520  0.235829  1
  Rh  Rh17  1  0.124680  0.284161  0.235829  1
  Rh  Rh18  1  0.840520  0.124680  0.764171  1
  Rh  Rh19  1  0.284161  0.159480  0.764171  1
  Rh  Rh20  1  0.875320  0.715839  0.764171  1
