# generated using pymatgen
data_SbSO4F
_symmetry_space_group_name_H-M   'P 1'
_cell_length_a   6.90561500
_cell_length_b   6.89081200
_cell_length_c   8.96838200
_cell_angle_alpha   90.00000000
_cell_angle_beta   90.00000000
_cell_angle_gamma   90.00000000
_symmetry_Int_Tables_number   1
_chemical_formula_structural   SbSO4F
_chemical_formula_sum   'Sb4 S4 O16 F4'
_cell_volume   426.76310054
_cell_formula_units_Z   4
loop_
 _symmetry_equiv_pos_site_id
 _symmetry_equiv_pos_as_xyz
  1  'x, y, z'
loop_
 _atom_site_type_symbol
 _atom_site_label
 _atom_site_symmetry_multiplicity
 _atom_site_fract_x
 _atom_site_fract_y
 _atom_site_fract_z
 _atom_site_occupancy
  Sb  Sb0  1  0.701121  0.750000  0.427111  1
  Sb  Sb1  1  0.201121  0.250000  0.072889  1
  Sb  Sb2  1  0.298879  0.250000  0.572889  1
  Sb  Sb3  1  0.798879  0.750000  0.927111  1
  S  S4  1  0.158979  0.750000  0.604712  1
  S  S5  1  0.658979  0.250000  0.895288  1
  S  S6  1  0.841021  0.250000  0.395288  1
  S  S7  1  0.341021  0.750000  0.104712  1
  O  O8  1  0.001896  0.750000  0.487906  1
  O  O9  1  0.501896  0.250000  0.012094  1
  O  O10  1  0.998104  0.250000  0.512094  1
  O  O11  1  0.498104  0.750000  0.987906  1
  O  O12  1  0.418356  0.750000  0.256546  1
  O  O13  1  0.918356  0.250000  0.243454  1
  O  O14  1  0.581644  0.250000  0.743454  1
  O  O15  1  0.081644  0.750000  0.756546  1
  O  O16  1  0.285085  0.922843  0.576452  1
  O  O17  1  0.785085  0.077157  0.923548  1
  O  O18  1  0.714915  0.422843  0.423548  1
  O  O19  1  0.214915  0.577157  0.076452  1
  O  O20  1  0.785085  0.422843  0.923548  1
  O  O21  1  0.285085  0.577157  0.576452  1
  O  O22  1  0.214915  0.922843  0.076452  1
  O  O23  1  0.714915  0.077157  0.423548  1
  F  F24  1  0.679148  0.750000  0.728239  1
  F  F25  1  0.179148  0.250000  0.771761  1
  F  F26  1  0.320852  0.250000  0.271761  1
  F  F27  1  0.820852  0.750000  0.228239  1
