# generated using pymatgen
data_La2Tb5DySe12
_symmetry_space_group_name_H-M   'P 1'
_cell_length_a   4.18489000
_cell_length_b   11.69591247
_cell_length_c   11.98000190
_cell_angle_alpha   70.97798241
_cell_angle_beta   90.00000000
_cell_angle_gamma   90.00000000
_symmetry_Int_Tables_number   1
_chemical_formula_structural   La2Tb5DySe12
_chemical_formula_sum   'La2 Tb5 Dy1 Se12'
_cell_volume   554.35453914
_cell_formula_units_Z   1
loop_
 _symmetry_equiv_pos_site_id
 _symmetry_equiv_pos_as_xyz
  1  'x, y, z'
loop_
 _atom_site_type_symbol
 _atom_site_label
 _atom_site_symmetry_multiplicity
 _atom_site_fract_x
 _atom_site_fract_y
 _atom_site_fract_z
 _atom_site_occupancy
  La  La0  1  0.250000  0.452969  0.194979  1
  La  La1  1  0.750000  0.547064  0.804990  1
  Tb  Tb2  1  0.250000  0.340379  0.586033  1
  Tb  Tb3  1  0.750000  0.659612  0.413992  1
  Tb  Tb4  1  0.250000  0.819646  0.000175  1
  Tb  Tb5  1  0.750000  0.180371  0.999781  1
  Tb  Tb6  1  0.250000  0.061701  0.333492  1
  Dy  Dy7  1  0.750000  0.938318  0.666537  1
  Se  Se8  1  0.250000  0.697221  0.250220  1
  Se  Se9  1  0.750000  0.302786  0.749782  1
  Se  Se10  1  0.250000  0.583436  0.593912  1
  Se  Se11  1  0.750000  0.416556  0.406090  1
  Se  Se12  1  0.250000  0.381186  0.965054  1
  Se  Se13  1  0.750000  0.618817  0.034935  1
  Se  Se14  1  0.250000  0.020148  0.113759  1
  Se  Se15  1  0.750000  0.979793  0.885955  1
  Se  Se16  1  0.750000  0.894352  0.440376  1
  Se  Se17  1  0.250000  0.105314  0.560112  1
  Se  Se18  1  0.750000  0.237980  0.227026  1
  Se  Se19  1  0.250000  0.762350  0.772800  1
