# generated using pymatgen
data_NdSm3(Ga5Pd3)2
_symmetry_space_group_name_H-M   'P 1'
_cell_length_a   8.71386350
_cell_length_b   8.71293890
_cell_length_c   8.71293834
_cell_angle_alpha   140.71817338
_cell_angle_beta   107.98102261
_cell_angle_gamma   85.25236652
_symmetry_Int_Tables_number   1
_chemical_formula_structural   NdSm3(Ga5Pd3)2
_chemical_formula_sum   'Nd1 Sm3 Ga10 Pd6'
_cell_volume   384.74234563
_cell_formula_units_Z   1
loop_
 _symmetry_equiv_pos_site_id
 _symmetry_equiv_pos_as_xyz
  1  'x, y, z'
loop_
 _atom_site_type_symbol
 _atom_site_label
 _atom_site_symmetry_multiplicity
 _atom_site_fract_x
 _atom_site_fract_y
 _atom_site_fract_z
 _atom_site_occupancy
  Nd  Nd0  1  0.636242  0.861886  0.774355  1
  Sm  Sm1  1  0.363580  0.138138  0.225442  1
  Sm  Sm2  1  0.087195  0.361735  0.725460  1
  Sm  Sm3  1  0.912807  0.638307  0.274500  1
  Ga  Ga4  1  0.289786  0.040340  0.749924  1
  Ga  Ga5  1  0.709847  0.959667  0.250254  1
  Ga  Ga6  1  0.709847  0.459593  0.750180  1
  Ga  Ga7  1  0.289786  0.539862  0.249445  1
  Ga  Ga8  1  0.430367  0.596395  0.833971  1
  Ga  Ga9  1  0.569136  0.403614  0.165522  1
  Ga  Ga10  1  0.762557  0.096774  0.665783  1
  Ga  Ga11  1  0.237676  0.903492  0.334184  1
  Ga  Ga12  1  0.000482  0.749970  0.750123  1
  Ga  Ga13  1  0.000482  0.250360  0.250513  1
  Pd  Pd14  1  0.240636  0.644181  0.596457  1
  Pd  Pd15  1  0.759445  0.355602  0.403842  1
  Pd  Pd16  1  0.047575  0.144288  0.903288  1
  Pd  Pd17  1  0.952625  0.855623  0.097002  1
  Pd  Pd18  1  0.499965  0.750022  0.249814  1
  Pd  Pd19  1  0.499965  0.250151  0.749943  1
