# generated using pymatgen
data_Ce4TlIn(PdRh)2
_symmetry_space_group_name_H-M   'P 1'
_cell_length_a   7.82088845
_cell_length_b   7.82171276
_cell_length_c   3.73763900
_cell_angle_alpha   90.00000000
_cell_angle_beta   90.00000000
_cell_angle_gamma   89.21513458
_symmetry_Int_Tables_number   1
_chemical_formula_structural   Ce4TlIn(PdRh)2
_chemical_formula_sum   'Ce4 Tl1 In1 Pd2 Rh2'
_cell_volume   228.62017804
_cell_formula_units_Z   1
loop_
 _symmetry_equiv_pos_site_id
 _symmetry_equiv_pos_as_xyz
  1  'x, y, z'
loop_
 _atom_site_type_symbol
 _atom_site_label
 _atom_site_symmetry_multiplicity
 _atom_site_fract_x
 _atom_site_fract_y
 _atom_site_fract_z
 _atom_site_occupancy
  Ce  Ce0  1  0.664164  0.167160  0.500000  1
  Ce  Ce1  1  0.335836  0.832840  0.500000  1
  Ce  Ce2  1  0.179948  0.322386  0.500000  1
  Ce  Ce3  1  0.820052  0.677614  0.500000  1
  Tl  Tl4  1  0.000000  0.000000  0.000000  1
  In  In5  1  0.500000  0.500000  0.000000  1
  Pd  Pd6  1  0.132111  0.626037  0.000000  1
  Pd  Pd7  1  0.867889  0.373963  0.000000  1
  Rh  Rh8  1  0.631250  0.861480  0.000000  1
  Rh  Rh9  1  0.368750  0.138520  0.000000  1
