# generated using pymatgen
data_HoMgCu3Ir
_symmetry_space_group_name_H-M   'P 1'
_cell_length_a   5.02261509
_cell_length_b   5.21651278
_cell_length_c   5.02261500
_cell_angle_alpha   61.22213499
_cell_angle_beta   59.99999401
_cell_angle_gamma   61.22213689
_symmetry_Int_Tables_number   1
_chemical_formula_structural   HoMgCu3Ir
_chemical_formula_sum   'Ho1 Mg1 Cu3 Ir1'
_cell_volume   94.73387582
_cell_formula_units_Z   1
loop_
 _symmetry_equiv_pos_site_id
 _symmetry_equiv_pos_as_xyz
  1  'x, y, z'
loop_
 _atom_site_type_symbol
 _atom_site_label
 _atom_site_symmetry_multiplicity
 _atom_site_fract_x
 _atom_site_fract_y
 _atom_site_fract_z
 _atom_site_occupancy
  Ho  Ho0  1  0.748135  0.755593  0.748135  1
  Mg  Mg1  1  0.000114  0.999657  0.000114  1
  Cu  Cu2  1  0.375618  0.372420  0.375618  1
  Cu  Cu3  1  0.876345  0.372420  0.375618  1
  Cu  Cu4  1  0.375618  0.372420  0.876345  1
  Ir  Ir5  1  0.374170  0.877490  0.374170  1
