# generated using pymatgen
data_La2ErNiSn3Pt2
_symmetry_space_group_name_H-M   'P 1'
_cell_length_a   7.64420620
_cell_length_b   7.64119923
_cell_length_c   4.04368700
_cell_angle_alpha   90.00000000
_cell_angle_beta   90.00000000
_cell_angle_gamma   119.98698281
_symmetry_Int_Tables_number   1
_chemical_formula_structural   La2ErNiSn3Pt2
_chemical_formula_sum   'La2 Er1 Ni1 Sn3 Pt2'
_cell_volume   204.57804841
_cell_formula_units_Z   1
loop_
 _symmetry_equiv_pos_site_id
 _symmetry_equiv_pos_as_xyz
  1  'x, y, z'
loop_
 _atom_site_type_symbol
 _atom_site_label
 _atom_site_symmetry_multiplicity
 _atom_site_fract_x
 _atom_site_fract_y
 _atom_site_fract_z
 _atom_site_occupancy
  La  La0  1  0.411944  0.412103  0.500000  1
  La  La1  1  0.588056  0.000159  0.500000  1
  Er  Er2  1  0.000000  0.593763  0.500000  1
  Ni  Ni3  1  0.000000  0.991968  0.500000  1
  Sn  Sn4  1  0.761941  0.756520  0.000000  1
  Sn  Sn5  1  0.238059  0.994580  0.000000  1
  Sn  Sn6  1  0.000000  0.243306  0.000000  1
  Pt  Pt7  1  0.682456  0.345029  0.000000  1
  Pt  Pt8  1  0.317544  0.662573  0.000000  1
