# generated using pymatgen
data_Hf3Ti3Ge2As
_symmetry_space_group_name_H-M   'P 1'
_cell_length_a   7.02450500
_cell_length_b   7.02450544
_cell_length_c   3.74001800
_cell_angle_alpha   90.00000000
_cell_angle_beta   90.00000000
_cell_angle_gamma   120.00000263
_symmetry_Int_Tables_number   1
_chemical_formula_structural   Hf3Ti3Ge2As
_chemical_formula_sum   'Hf3 Ti3 Ge2 As1'
_cell_volume   159.82171689
_cell_formula_units_Z   1
loop_
 _symmetry_equiv_pos_site_id
 _symmetry_equiv_pos_as_xyz
  1  'x, y, z'
loop_
 _atom_site_type_symbol
 _atom_site_label
 _atom_site_symmetry_multiplicity
 _atom_site_fract_x
 _atom_site_fract_y
 _atom_site_fract_z
 _atom_site_occupancy
  Hf  Hf0  1  0.406806  0.406661  0.500000  1
  Hf  Hf1  1  0.593339  0.000146  0.500000  1
  Hf  Hf2  1  0.999854  0.593194  0.500000  1
  Ti  Ti3  1  0.750371  0.751012  0.000000  1
  Ti  Ti4  1  0.248988  0.999359  0.000000  1
  Ti  Ti5  1  0.000641  0.249629  0.000000  1
  Ge  Ge6  1  0.333333  0.666667  0.000000  1
  Ge  Ge7  1  0.000000  0.000000  0.500000  1
  As  As8  1  0.666667  0.333333  0.000000  1
