# generated using pymatgen
data_Dy6ScFeO12
_symmetry_space_group_name_H-M   'P 1'
_cell_length_a   6.56128350
_cell_length_b   6.56128325
_cell_length_c   6.56128347
_cell_angle_alpha   92.66109333
_cell_angle_beta   92.66109721
_cell_angle_gamma   92.66108085
_symmetry_Int_Tables_number   1
_chemical_formula_structural   Dy6ScFeO12
_chemical_formula_sum   'Dy6 Sc1 Fe1 O12'
_cell_volume   281.52298156
_cell_formula_units_Z   1
loop_
 _symmetry_equiv_pos_site_id
 _symmetry_equiv_pos_as_xyz
  1  'x, y, z'
loop_
 _atom_site_type_symbol
 _atom_site_label
 _atom_site_symmetry_multiplicity
 _atom_site_fract_x
 _atom_site_fract_y
 _atom_site_fract_z
 _atom_site_occupancy
  Dy  Dy0  1  0.743571  0.927469  0.436676  1
  Dy  Dy1  1  0.927469  0.436676  0.743571  1
  Dy  Dy2  1  0.436676  0.743571  0.927469  1
  Dy  Dy3  1  0.256429  0.072531  0.563324  1
  Dy  Dy4  1  0.072531  0.563324  0.256429  1
  Dy  Dy5  1  0.563324  0.256429  0.072531  1
  Sc  Sc6  1  0.000000  0.000000  0.000000  1
  Fe  Fe7  1  0.500000  0.500000  0.500000  1
  O  O8  1  0.588854  0.461114  0.800570  1
  O  O9  1  0.461114  0.800570  0.588854  1
  O  O10  1  0.800570  0.588854  0.461114  1
  O  O11  1  0.411146  0.538886  0.199430  1
  O  O12  1  0.538886  0.199430  0.411146  1
  O  O13  1  0.199430  0.411146  0.538886  1
  O  O14  1  0.068466  0.914303  0.307532  1
  O  O15  1  0.914303  0.307532  0.068466  1
  O  O16  1  0.692468  0.931534  0.085697  1
  O  O17  1  0.085697  0.692468  0.931534  1
  O  O18  1  0.931534  0.085697  0.692468  1
  O  O19  1  0.307532  0.068466  0.914303  1
