# generated using pymatgen
data_Sr4DyYNb2O12
_symmetry_space_group_name_H-M   'P 1'
_cell_length_a   5.84303900
_cell_length_b   5.96622601
_cell_length_c   8.33114210
_cell_angle_alpha   89.99350140
_cell_angle_beta   90.19810881
_cell_angle_gamma   89.99598386
_symmetry_Int_Tables_number   1
_chemical_formula_structural   Sr4DyYNb2O12
_chemical_formula_sum   'Sr4 Dy1 Y1 Nb2 O12'
_cell_volume   290.42930049
_cell_formula_units_Z   1
loop_
 _symmetry_equiv_pos_site_id
 _symmetry_equiv_pos_as_xyz
  1  'x, y, z'
loop_
 _atom_site_type_symbol
 _atom_site_label
 _atom_site_symmetry_multiplicity
 _atom_site_fract_x
 _atom_site_fract_y
 _atom_site_fract_z
 _atom_site_occupancy
  Sr  Sr0  1  0.490268  0.042705  0.749442  1
  Sr  Sr1  1  0.009739  0.542608  0.750261  1
  Sr  Sr2  1  0.509733  0.957293  0.250559  1
  Sr  Sr3  1  0.990260  0.457390  0.249739  1
  Dy  Dy4  1  0.500000  0.500000  0.500000  1
  Y  Y5  1  0.000000  0.000000  0.000000  1
  Nb  Nb6  1  0.500000  0.500000  0.999999  1
  Nb  Nb7  1  0.000000  0.000000  0.500000  1
  O  O8  1  0.585578  0.472813  0.764657  1
  O  O9  1  0.914231  0.972710  0.734991  1
  O  O10  1  0.414423  0.527187  0.235343  1
  O  O11  1  0.085767  0.027290  0.265009  1
  O  O12  1  0.808392  0.721857  0.452808  1
  O  O13  1  0.691116  0.221931  0.047344  1
  O  O14  1  0.191609  0.278141  0.547191  1
  O  O15  1  0.308885  0.778069  0.952656  1
  O  O16  1  0.722156  0.194570  0.456463  1
  O  O17  1  0.777756  0.694142  0.043652  1
  O  O18  1  0.277844  0.805430  0.543537  1
  O  O19  1  0.222244  0.305858  0.956349  1
