# generated using pymatgen
data_YHo4In4IrPd
_symmetry_space_group_name_H-M   'P 1'
_cell_length_a   3.62116400
_cell_length_b   8.12165189
_cell_length_c   18.24648700
_cell_angle_alpha   90.14132451
_cell_angle_beta   90.00000000
_cell_angle_gamma   90.00000000
_symmetry_Int_Tables_number   1
_chemical_formula_structural   YHo4In4IrPd
_chemical_formula_sum   'Y2 Ho8 In8 Ir2 Pd2'
_cell_volume   536.62451121
_cell_formula_units_Z   2
loop_
 _symmetry_equiv_pos_site_id
 _symmetry_equiv_pos_as_xyz
  1  'x, y, z'
loop_
 _atom_site_type_symbol
 _atom_site_label
 _atom_site_symmetry_multiplicity
 _atom_site_fract_x
 _atom_site_fract_y
 _atom_site_fract_z
 _atom_site_occupancy
  Y  Y0  1  0.000000  0.500000  0.500000  1
  Y  Y1  1  0.000000  0.000000  0.000000  1
  Ho  Ho2  1  0.000000  0.728645  0.277512  1
  Ho  Ho3  1  0.000000  0.271355  0.722488  1
  Ho  Ho4  1  0.000000  0.747121  0.779989  1
  Ho  Ho5  1  0.000000  0.252879  0.220011  1
  Ho  Ho6  1  0.000000  0.612971  0.086955  1
  Ho  Ho7  1  0.000000  0.387029  0.913045  1
  Ho  Ho8  1  0.000000  0.885000  0.584503  1
  Ho  Ho9  1  0.000000  0.115000  0.415497  1
  In  In10  1  0.500000  0.709639  0.931636  1
  In  In11  1  0.500000  0.290361  0.068364  1
  In  In12  1  0.500000  0.790858  0.431651  1
  In  In13  1  0.500000  0.209142  0.568349  1
  In  In14  1  0.500000  0.579144  0.648701  1
  In  In15  1  0.500000  0.420856  0.351299  1
  In  In16  1  0.500000  0.921050  0.149930  1
  In  In17  1  0.500000  0.078950  0.850070  1
  Ir  Ir18  1  0.500000  0.519624  0.195620  1
  Ir  Ir19  1  0.500000  0.480376  0.804380  1
  Pd  Pd20  1  0.500000  0.979858  0.696112  1
  Pd  Pd21  1  0.500000  0.020142  0.303888  1
