# generated using pymatgen
data_Ac2YNpO7
_symmetry_space_group_name_H-M   'P 1'
_cell_length_a   8.07269314
_cell_length_b   8.07269197
_cell_length_c   8.07269300
_cell_angle_alpha   120.45672379
_cell_angle_beta   119.79880353
_cell_angle_gamma   89.77980149
_symmetry_Int_Tables_number   1
_chemical_formula_structural   Ac2YNpO7
_chemical_formula_sum   'Ac4 Y2 Np2 O14'
_cell_volume   371.26096927
_cell_formula_units_Z   2
loop_
 _symmetry_equiv_pos_site_id
 _symmetry_equiv_pos_as_xyz
  1  'x, y, z'
loop_
 _atom_site_type_symbol
 _atom_site_label
 _atom_site_symmetry_multiplicity
 _atom_site_fract_x
 _atom_site_fract_y
 _atom_site_fract_z
 _atom_site_occupancy
  Ac  Ac0  1  0.500000  0.000000  0.000000  1
  Ac  Ac1  1  0.500000  0.500000  0.500000  1
  Ac  Ac2  1  0.500000  0.000000  0.500000  1
  Ac  Ac3  1  0.000000  0.000000  0.000000  1
  Y  Y4  1  0.000000  0.500000  0.000000  1
  Y  Y5  1  0.000000  0.000000  0.500000  1
  Np  Np6  1  0.000000  0.500000  0.500000  1
  Np  Np7  1  0.500000  0.500000  0.000000  1
  O  O8  1  0.622383  0.872383  0.750000  1
  O  O9  1  0.377617  0.127617  0.250000  1
  O  O10  1  0.330792  0.580792  0.750000  1
  O  O11  1  0.903428  0.153428  0.750000  1
  O  O12  1  0.346003  0.177912  0.767707  1
  O  O13  1  0.910205  0.578296  0.732293  1
  O  O14  1  0.346003  0.578296  0.168091  1
  O  O15  1  0.910205  0.177912  0.331909  1
  O  O16  1  0.669208  0.419208  0.250000  1
  O  O17  1  0.096572  0.846572  0.250000  1
  O  O18  1  0.653997  0.822088  0.232293  1
  O  O19  1  0.089795  0.421704  0.267707  1
  O  O20  1  0.653997  0.421704  0.831909  1
  O  O21  1  0.089795  0.822088  0.668091  1
