# generated using pymatgen
data_HoTm4Ta3(Co4P3)4
_symmetry_space_group_name_H-M   'P 1'
_cell_length_a   12.13695600
_cell_length_b   12.13695544
_cell_length_c   3.68183700
_cell_angle_alpha   90.00000000
_cell_angle_beta   90.00000000
_cell_angle_gamma   120.00000697
_symmetry_Int_Tables_number   1
_chemical_formula_structural   HoTm4Ta3(Co4P3)4
_chemical_formula_sum   'Ho1 Tm4 Ta3 Co16 P12'
_cell_volume   469.69365567
_cell_formula_units_Z   1
loop_
 _symmetry_equiv_pos_site_id
 _symmetry_equiv_pos_as_xyz
  1  'x, y, z'
loop_
 _atom_site_type_symbol
 _atom_site_label
 _atom_site_symmetry_multiplicity
 _atom_site_fract_x
 _atom_site_fract_y
 _atom_site_fract_z
 _atom_site_occupancy
  Ho  Ho0  1  0.333333  0.666667  0.000000  1
  Tm  Tm1  1  0.666667  0.333333  0.000000  1
  Tm  Tm2  1  0.816770  0.816889  0.500000  1
  Tm  Tm3  1  0.183111  0.999881  0.500000  1
  Tm  Tm4  1  0.000119  0.183230  0.500000  1
  Ta  Ta5  1  0.444372  0.443936  0.000000  1
  Ta  Ta6  1  0.556064  0.000436  0.000000  1
  Ta  Ta7  1  0.999564  0.555628  0.000000  1
  Co  Co8  1  0.872879  0.354815  0.500000  1
  Co  Co9  1  0.645185  0.518065  0.500000  1
  Co  Co10  1  0.481935  0.127121  0.500000  1
  Co  Co11  1  0.354502  0.873791  0.500000  1
  Co  Co12  1  0.519289  0.645498  0.500000  1
  Co  Co13  1  0.126209  0.480711  0.500000  1
  Co  Co14  1  0.802960  0.176869  0.000000  1
  Co  Co15  1  0.823131  0.626090  0.000000  1
  Co  Co16  1  0.373910  0.197040  0.000000  1
  Co  Co17  1  0.176382  0.803087  0.000000  1
  Co  Co18  1  0.626704  0.823618  0.000000  1
  Co  Co19  1  0.196913  0.373296  0.000000  1
  Co  Co20  1  0.279763  0.279311  0.500000  1
  Co  Co21  1  0.720689  0.000451  0.500000  1
  Co  Co22  1  0.999549  0.720237  0.500000  1
  Co  Co23  1  0.000000  0.000000  0.000000  1
  P  P24  1  0.688174  0.168799  0.500000  1
  P  P25  1  0.831201  0.519374  0.500000  1
  P  P26  1  0.480626  0.311826  0.500000  1
  P  P27  1  0.168035  0.688304  0.500000  1
  P  P28  1  0.520267  0.831965  0.500000  1
  P  P29  1  0.311696  0.479733  0.500000  1
  P  P30  1  0.177001  0.176705  0.000000  1
  P  P31  1  0.823295  0.000296  0.000000  1
  P  P32  1  0.999704  0.822999  0.000000  1
  P  P33  1  0.645521  0.645588  0.000000  1
  P  P34  1  0.354412  0.999933  0.000000  1
  P  P35  1  0.000067  0.354479  0.000000  1
