# generated using pymatgen
data_Yb3SmTm4(B6Os)4
_symmetry_space_group_name_H-M   'P 1'
_cell_length_a   3.63279700
_cell_length_b   9.12223362
_cell_length_c   11.52515000
_cell_angle_alpha   89.93775318
_cell_angle_beta   90.00000000
_cell_angle_gamma   90.00000000
_symmetry_Int_Tables_number   1
_chemical_formula_structural   Yb3SmTm4(B6Os)4
_chemical_formula_sum   'Yb3 Sm1 Tm4 B24 Os4'
_cell_volume   381.93428980
_cell_formula_units_Z   1
loop_
 _symmetry_equiv_pos_site_id
 _symmetry_equiv_pos_as_xyz
  1  'x, y, z'
loop_
 _atom_site_type_symbol
 _atom_site_label
 _atom_site_symmetry_multiplicity
 _atom_site_fract_x
 _atom_site_fract_y
 _atom_site_fract_z
 _atom_site_occupancy
  Yb  Yb0  1  0.000000  0.324548  0.414432  1
  Yb  Yb1  1  0.000000  0.675693  0.584897  1
  Yb  Yb2  1  0.000000  0.822860  0.086432  1
  Sm  Sm3  1  0.000000  0.176470  0.914696  1
  Tm  Tm4  1  0.000000  0.941194  0.368048  1
  Tm  Tm5  1  0.000000  0.057639  0.630295  1
  Tm  Tm6  1  0.000000  0.443573  0.132603  1
  Tm  Tm7  1  0.000000  0.558596  0.868449  1
  B  B8  1  0.500000  0.553297  0.432794  1
  B  B9  1  0.500000  0.446595  0.567474  1
  B  B10  1  0.500000  0.053206  0.068434  1
  B  B11  1  0.500000  0.944506  0.932875  1
  B  B12  1  0.500000  0.748690  0.417428  1
  B  B13  1  0.500000  0.251165  0.581983  1
  B  B14  1  0.500000  0.249507  0.083756  1
  B  B15  1  0.500000  0.750800  0.917818  1
  B  B16  1  0.500000  0.791074  0.264436  1
  B  B17  1  0.500000  0.209129  0.734375  1
  B  B18  1  0.500000  0.291577  0.235623  1
  B  B19  1  0.500000  0.709239  0.764739  1
  B  B20  1  0.500000  0.630780  0.185946  1
  B  B21  1  0.500000  0.370368  0.814054  1
  B  B22  1  0.500000  0.130644  0.314250  1
  B  B23  1  0.500000  0.869027  0.684617  1
  B  B24  1  0.500000  0.982213  0.211630  1
  B  B25  1  0.500000  0.015813  0.787352  1
  B  B26  1  0.500000  0.483392  0.288936  1
  B  B27  1  0.500000  0.517172  0.711539  1
  B  B28  1  0.500000  0.598460  0.027287  1
  B  B29  1  0.500000  0.403063  0.973456  1
  B  B30  1  0.500000  0.096729  0.472755  1
  B  B31  1  0.500000  0.902889  0.526168  1
  Os  Os32  1  0.000000  0.639227  0.320359  1
  Os  Os33  1  0.000000  0.360487  0.680256  1
  Os  Os34  1  0.000000  0.138814  0.180608  1
  Os  Os35  1  0.000000  0.861563  0.819202  1
