# generated using pymatgen
data_Pr4Ho6Pb7Au
_symmetry_space_group_name_H-M   'P 1'
_cell_length_a   8.08678200
_cell_length_b   8.49734100
_cell_length_c   15.79679200
_cell_angle_alpha   90.00000000
_cell_angle_beta   90.00000000
_cell_angle_gamma   90.00000000
_symmetry_Int_Tables_number   1
_chemical_formula_structural   Pr4Ho6Pb7Au
_chemical_formula_sum   'Pr8 Ho12 Pb14 Au2'
_cell_volume   1085.49463771
_cell_formula_units_Z   2
loop_
 _symmetry_equiv_pos_site_id
 _symmetry_equiv_pos_as_xyz
  1  'x, y, z'
loop_
 _atom_site_type_symbol
 _atom_site_label
 _atom_site_symmetry_multiplicity
 _atom_site_fract_x
 _atom_site_fract_y
 _atom_site_fract_z
 _atom_site_occupancy
  Pr  Pr0  1  0.486847  0.684774  0.596226  1
  Pr  Pr1  1  0.986847  0.815226  0.903774  1
  Pr  Pr2  1  0.515597  0.320298  0.094637  1
  Pr  Pr3  1  0.015597  0.179702  0.405363  1
  Pr  Pr4  1  0.515597  0.320298  0.405363  1
  Pr  Pr5  1  0.015597  0.179702  0.094637  1
  Pr  Pr6  1  0.486847  0.684774  0.903774  1
  Pr  Pr7  1  0.986847  0.815226  0.596226  1
  Ho  Ho8  1  0.650060  0.166973  0.632332  1
  Ho  Ho9  1  0.150060  0.333027  0.867668  1
  Ho  Ho10  1  0.350732  0.838506  0.123155  1
  Ho  Ho11  1  0.850732  0.661494  0.376845  1
  Ho  Ho12  1  0.350732  0.838506  0.376845  1
  Ho  Ho13  1  0.850732  0.661494  0.123155  1
  Ho  Ho14  1  0.650060  0.166973  0.867668  1
  Ho  Ho15  1  0.150060  0.333027  0.632332  1
  Ho  Ho16  1  0.796787  0.495099  0.750000  1
  Ho  Ho17  1  0.296787  0.004901  0.750000  1
  Ho  Ho18  1  0.187835  0.500703  0.250000  1
  Ho  Ho19  1  0.687835  0.999297  0.250000  1
  Pb  Pb20  1  0.693684  0.960459  0.461201  1
  Pb  Pb21  1  0.193684  0.539541  0.038799  1
  Pb  Pb22  1  0.303665  0.040381  0.955639  1
  Pb  Pb23  1  0.803665  0.459619  0.544361  1
  Pb  Pb24  1  0.303665  0.040381  0.544361  1
  Pb  Pb25  1  0.803665  0.459619  0.955639  1
  Pb  Pb26  1  0.693684  0.960459  0.038799  1
  Pb  Pb27  1  0.193684  0.539541  0.461201  1
  Pb  Pb28  1  0.548010  0.628747  0.250000  1
  Pb  Pb29  1  0.048010  0.871253  0.250000  1
  Pb  Pb30  1  0.690031  0.861940  0.750000  1
  Pb  Pb31  1  0.190031  0.638060  0.750000  1
  Pb  Pb32  1  0.327656  0.150834  0.250000  1
  Pb  Pb33  1  0.827656  0.349166  0.250000  1
  Au  Au34  1  0.448510  0.366688  0.750000  1
  Au  Au35  1  0.948510  0.133312  0.750000  1
