# generated using pymatgen
data_Hf5ZrU2(InPt2)4
_symmetry_space_group_name_H-M   'P 1'
_cell_length_a   7.51096216
_cell_length_b   7.51096225
_cell_length_c   7.02898000
_cell_angle_alpha   90.00000000
_cell_angle_beta   90.00000000
_cell_angle_gamma   87.71241532
_symmetry_Int_Tables_number   1
_chemical_formula_structural   Hf5ZrU2(InPt2)4
_chemical_formula_sum   'Hf5 Zr1 U2 In4 Pt8'
_cell_volume   396.22075360
_cell_formula_units_Z   1
loop_
 _symmetry_equiv_pos_site_id
 _symmetry_equiv_pos_as_xyz
  1  'x, y, z'
loop_
 _atom_site_type_symbol
 _atom_site_label
 _atom_site_symmetry_multiplicity
 _atom_site_fract_x
 _atom_site_fract_y
 _atom_site_fract_z
 _atom_site_occupancy
  Hf  Hf0  1  0.690324  0.309495  0.500000  1
  Hf  Hf1  1  0.309495  0.690324  0.500000  1
  Hf  Hf2  1  0.182293  0.182293  0.000000  1
  Hf  Hf3  1  0.816457  0.816457  0.000000  1
  Hf  Hf4  1  0.855915  0.855915  0.500000  1
  Zr  Zr5  1  0.146037  0.146037  0.500000  1
  U  U6  1  0.366887  0.633590  0.000000  1
  U  U7  1  0.633590  0.366887  0.000000  1
  In  In8  1  0.499321  0.999867  0.257328  1
  In  In9  1  0.999867  0.499321  0.742672  1
  In  In10  1  0.499321  0.999867  0.742672  1
  In  In11  1  0.999867  0.499321  0.257328  1
  Pt  Pt12  1  0.863503  0.134101  0.208242  1
  Pt  Pt13  1  0.134101  0.863503  0.208242  1
  Pt  Pt14  1  0.365182  0.365182  0.705614  1
  Pt  Pt15  1  0.637527  0.637527  0.704077  1
  Pt  Pt16  1  0.134101  0.863503  0.791758  1
  Pt  Pt17  1  0.863503  0.134101  0.791758  1
  Pt  Pt18  1  0.637527  0.637527  0.295923  1
  Pt  Pt19  1  0.365182  0.365182  0.294386  1
