# generated using pymatgen
data_V10Si6HC
_symmetry_space_group_name_H-M   'P 1'
_cell_length_a   7.14235100
_cell_length_b   7.14235040
_cell_length_c   4.82874300
_cell_angle_alpha   90.00000000
_cell_angle_beta   90.00000000
_cell_angle_gamma   119.99999817
_symmetry_Int_Tables_number   1
_chemical_formula_structural   V10Si6HC
_chemical_formula_sum   'V10 Si6 H1 C1'
_cell_volume   213.32761247
_cell_formula_units_Z   1
loop_
 _symmetry_equiv_pos_site_id
 _symmetry_equiv_pos_as_xyz
  1  'x, y, z'
loop_
 _atom_site_type_symbol
 _atom_site_label
 _atom_site_symmetry_multiplicity
 _atom_site_fract_x
 _atom_site_fract_y
 _atom_site_fract_z
 _atom_site_occupancy
  V  V0  1  0.237920  0.000000  0.753819  1
  V  V1  1  0.762080  0.000000  0.246181  1
  V  V2  1  0.000000  0.237920  0.753819  1
  V  V3  1  0.000000  0.762080  0.246181  1
  V  V4  1  0.762080  0.762080  0.753819  1
  V  V5  1  0.237920  0.237920  0.246181  1
  V  V6  1  0.333333  0.666667  0.500000  1
  V  V7  1  0.666667  0.333333  0.500000  1
  V  V8  1  0.666667  0.333333  0.000000  1
  V  V9  1  0.333333  0.666667  0.000000  1
  Si  Si10  1  0.597722  0.000000  0.745445  1
  Si  Si11  1  0.402278  0.000000  0.254555  1
  Si  Si12  1  0.000000  0.597722  0.745445  1
  Si  Si13  1  0.000000  0.402278  0.254555  1
  Si  Si14  1  0.402278  0.402278  0.745445  1
  Si  Si15  1  0.597722  0.597722  0.254555  1
  H  H16  1  0.000000  0.000000  0.500000  1
  C  C17  1  0.000000  0.000000  0.000000  1
