# generated using pymatgen
data_Er7Tm3(Ga2Sb)2
_symmetry_space_group_name_H-M   'P 1'
_cell_length_a   8.59946404
_cell_length_b   8.61953213
_cell_length_c   6.46100800
_cell_angle_alpha   89.99695702
_cell_angle_beta   90.00138474
_cell_angle_gamma   120.07691283
_symmetry_Int_Tables_number   1
_chemical_formula_structural   Er7Tm3(Ga2Sb)2
_chemical_formula_sum   'Er7 Tm3 Ga4 Sb2'
_cell_volume   414.42779630
_cell_formula_units_Z   1
loop_
 _symmetry_equiv_pos_site_id
 _symmetry_equiv_pos_as_xyz
  1  'x, y, z'
loop_
 _atom_site_type_symbol
 _atom_site_label
 _atom_site_symmetry_multiplicity
 _atom_site_fract_x
 _atom_site_fract_y
 _atom_site_fract_z
 _atom_site_occupancy
  Er  Er0  1  0.986501  0.750658  0.749904  1
  Er  Er1  1  0.986498  0.235849  0.250099  1
  Er  Er2  1  0.765707  0.765874  0.250115  1
  Er  Er3  1  0.765702  0.999828  0.749880  1
  Er  Er4  1  0.236210  0.249183  0.749897  1
  Er  Er5  1  0.236191  0.987023  0.250100  1
  Er  Er6  1  0.331863  0.665927  0.000000  1
  Tm  Tm7  1  0.331759  0.665883  0.500001  1
  Tm  Tm8  1  0.685345  0.342671  0.000001  1
  Tm  Tm9  1  0.685183  0.342591  0.499999  1
  Ga  Ga10  1  0.001207  0.601307  0.250093  1
  Ga  Ga11  1  0.001213  0.399909  0.749915  1
  Ga  Ga12  1  0.598109  0.601323  0.749880  1
  Ga  Ga13  1  0.598116  0.996777  0.250115  1
  Sb  Sb14  1  0.395200  0.004786  0.749638  1
  Sb  Sb15  1  0.395198  0.390413  0.250365  1
