# generated using pymatgen
data_Tm4Al15Si3(OsRh2)2
_symmetry_space_group_name_H-M   'P 1'
_cell_length_a   7.49755840
_cell_length_b   7.47784260
_cell_length_c   9.29988830
_cell_angle_alpha   90.02130840
_cell_angle_beta   89.92155040
_cell_angle_gamma   119.23380319
_symmetry_Int_Tables_number   1
_chemical_formula_structural   Tm4Al15Si3(OsRh2)2
_chemical_formula_sum   'Tm4 Al15 Si3 Os2 Rh4'
_cell_volume   454.99398650
_cell_formula_units_Z   1
loop_
 _symmetry_equiv_pos_site_id
 _symmetry_equiv_pos_as_xyz
  1  'x, y, z'
loop_
 _atom_site_type_symbol
 _atom_site_label
 _atom_site_symmetry_multiplicity
 _atom_site_fract_x
 _atom_site_fract_y
 _atom_site_fract_z
 _atom_site_occupancy
  Tm  Tm0  1  0.993542  0.674591  0.247524  1
  Tm  Tm1  1  0.005513  0.318390  0.753888  1
  Tm  Tm2  1  0.687154  0.001105  0.247518  1
  Tm  Tm3  1  0.317482  0.005839  0.749702  1
  Al  Al4  1  0.997485  0.665508  0.920143  1
  Al  Al5  1  0.998479  0.662459  0.577704  1
  Al  Al6  1  0.337292  0.999994  0.422079  1
  Al  Al7  1  0.002159  0.337669  0.426116  1
  Al  Al8  1  0.661909  0.999016  0.577589  1
  Al  Al9  1  0.656957  0.994231  0.920467  1
  Al  Al10  1  0.336523  0.000172  0.077683  1
  Al  Al11  1  0.334782  0.334322  0.553013  1
  Al  Al12  1  0.666813  0.667371  0.446942  1
  Al  Al13  1  0.666567  0.667770  0.054141  1
  Al  Al14  1  0.337621  0.334473  0.947023  1
  Al  Al15  1  0.337957  0.553022  0.250025  1
  Al  Al16  1  0.662116  0.445295  0.750349  1
  Al  Al17  1  0.550668  0.338576  0.250200  1
  Al  Al18  1  0.445100  0.660067  0.749364  1
  Si  Si19  1  0.133489  0.128885  0.250959  1
  Si  Si20  1  0.869367  0.871155  0.750183  1
  Si  Si21  1  0.002295  0.337801  0.076090  1
  Os  Os22  1  0.999358  0.008789  0.001164  1
  Os  Os23  1  0.999947  0.000900  0.499718  1
  Rh  Rh24  1  0.679987  0.328905  0.002244  1
  Rh  Rh25  1  0.319500  0.663707  0.000346  1
  Rh  Rh26  1  0.327429  0.671449  0.499014  1
  Rh  Rh27  1  0.672508  0.328540  0.498812  1
