# generated using pymatgen
data_Y6TaCo22
_symmetry_space_group_name_H-M   'P 1'
_cell_length_a   8.40407213
_cell_length_b   8.40407207
_cell_length_c   8.40407200
_cell_angle_alpha   60.00000026
_cell_angle_beta   60.00000052
_cell_angle_gamma   59.99999782
_symmetry_Int_Tables_number   1
_chemical_formula_structural   Y6TaCo22
_chemical_formula_sum   'Y6 Ta1 Co22'
_cell_volume   419.71481710
_cell_formula_units_Z   1
loop_
 _symmetry_equiv_pos_site_id
 _symmetry_equiv_pos_as_xyz
  1  'x, y, z'
loop_
 _atom_site_type_symbol
 _atom_site_label
 _atom_site_symmetry_multiplicity
 _atom_site_fract_x
 _atom_site_fract_y
 _atom_site_fract_z
 _atom_site_occupancy
  Y  Y0  1  0.786979  0.786979  0.213021  1
  Y  Y1  1  0.213021  0.786979  0.213021  1
  Y  Y2  1  0.786979  0.213021  0.213021  1
  Y  Y3  1  0.213021  0.213021  0.786979  1
  Y  Y4  1  0.786979  0.213021  0.786979  1
  Y  Y5  1  0.213021  0.786979  0.786979  1
  Ta  Ta6  1  0.500000  0.500000  0.500000  1
  Co  Co7  1  0.000000  0.000000  0.500000  1
  Co  Co8  1  0.500000  0.000000  0.500000  1
  Co  Co9  1  0.000000  0.500000  0.500000  1
  Co  Co10  1  0.500000  0.500000  0.000000  1
  Co  Co11  1  0.000000  0.500000  0.000000  1
  Co  Co12  1  0.500000  0.000000  0.000000  1
  Co  Co13  1  0.822514  0.822514  0.532456  1
  Co  Co14  1  0.822514  0.532456  0.822514  1
  Co  Co15  1  0.532456  0.822514  0.822514  1
  Co  Co16  1  0.822514  0.822514  0.822514  1
  Co  Co17  1  0.177486  0.177486  0.467544  1
  Co  Co18  1  0.177486  0.467544  0.177486  1
  Co  Co19  1  0.467544  0.177486  0.177486  1
  Co  Co20  1  0.177486  0.177486  0.177486  1
  Co  Co21  1  0.625740  0.625740  0.122781  1
  Co  Co22  1  0.625740  0.122781  0.625740  1
  Co  Co23  1  0.122781  0.625740  0.625740  1
  Co  Co24  1  0.625740  0.625740  0.625740  1
  Co  Co25  1  0.374260  0.374260  0.877219  1
  Co  Co26  1  0.374260  0.877219  0.374260  1
  Co  Co27  1  0.877219  0.374260  0.374260  1
  Co  Co28  1  0.374260  0.374260  0.374260  1
