# generated using pymatgen
data_Tm9Lu7(Ga3Co)2
_symmetry_space_group_name_H-M   'P 1'
_cell_length_a   9.83304200
_cell_length_b   9.83304149
_cell_length_c   6.81763200
_cell_angle_alpha   90.00000000
_cell_angle_beta   90.00000000
_cell_angle_gamma   120.00000845
_symmetry_Int_Tables_number   1
_chemical_formula_structural   Tm9Lu7(Ga3Co)2
_chemical_formula_sum   'Tm9 Lu7 Ga6 Co2'
_cell_volume   570.87354243
_cell_formula_units_Z   1
loop_
 _symmetry_equiv_pos_site_id
 _symmetry_equiv_pos_as_xyz
  1  'x, y, z'
loop_
 _atom_site_type_symbol
 _atom_site_label
 _atom_site_symmetry_multiplicity
 _atom_site_fract_x
 _atom_site_fract_y
 _atom_site_fract_z
 _atom_site_occupancy
  Tm  Tm0  1  0.666667  0.333333  0.171837  1
  Tm  Tm1  1  0.464148  0.535852  0.292152  1
  Tm  Tm2  1  0.928590  0.464295  0.791927  1
  Tm  Tm3  1  0.535705  0.071410  0.791927  1
  Tm  Tm4  1  0.464148  0.928296  0.292152  1
  Tm  Tm5  1  0.071704  0.535852  0.292152  1
  Tm  Tm6  1  0.535705  0.464295  0.791927  1
  Tm  Tm7  1  0.000000  0.000000  0.267965  1
  Tm  Tm8  1  0.000000  0.000000  0.768163  1
  Lu  Lu9  1  0.173578  0.826422  0.989639  1
  Lu  Lu10  1  0.346835  0.173418  0.489955  1
  Lu  Lu11  1  0.826582  0.653165  0.489955  1
  Lu  Lu12  1  0.173578  0.347156  0.989639  1
  Lu  Lu13  1  0.652844  0.826422  0.989639  1
  Lu  Lu14  1  0.826582  0.173418  0.489955  1
  Lu  Lu15  1  0.333333  0.666667  0.672521  1
  Ga  Ga16  1  0.163428  0.836572  0.540021  1
  Ga  Ga17  1  0.326466  0.163233  0.039834  1
  Ga  Ga18  1  0.836767  0.673534  0.039834  1
  Ga  Ga19  1  0.163428  0.326855  0.540021  1
  Ga  Ga20  1  0.673145  0.836572  0.540021  1
  Ga  Ga21  1  0.836767  0.163233  0.039834  1
  Co  Co22  1  0.333333  0.666667  0.056469  1
  Co  Co23  1  0.666667  0.333333  0.556470  1
