# generated using pymatgen
data_Hf5Ti(ReGe)6
_symmetry_space_group_name_H-M   'P 1'
_cell_length_a   7.84705830
_cell_length_b   7.84790867
_cell_length_c   7.84705842
_cell_angle_alpha   126.47277876
_cell_angle_beta   128.22546444
_cell_angle_gamma   77.68772635
_symmetry_Int_Tables_number   1
_chemical_formula_structural   Hf5Ti(ReGe)6
_chemical_formula_sum   'Hf5 Ti1 Re6 Ge6'
_cell_volume   295.99455934
_cell_formula_units_Z   1
loop_
 _symmetry_equiv_pos_site_id
 _symmetry_equiv_pos_as_xyz
  1  'x, y, z'
loop_
 _atom_site_type_symbol
 _atom_site_label
 _atom_site_symmetry_multiplicity
 _atom_site_fract_x
 _atom_site_fract_y
 _atom_site_fract_z
 _atom_site_occupancy
  Hf  Hf0  1  0.550013  0.091114  0.041101  1
  Hf  Hf1  1  0.452093  0.500055  0.547963  1
  Hf  Hf2  1  0.950015  0.491077  0.041062  1
  Hf  Hf3  1  0.047929  0.095896  0.547967  1
  Hf  Hf4  1  0.750009  0.899259  0.649250  1
  Ti  Ti5  1  0.250051  0.902046  0.151996  1
  Re  Re6  1  0.496318  0.237514  0.733894  1
  Re  Re7  1  0.003620  0.237514  0.241196  1
  Re  Re8  1  0.129756  0.757053  0.627430  1
  Re  Re9  1  0.870294  0.497489  0.627241  1
  Re  Re10  1  0.629624  0.757053  0.127297  1
  Re  Re11  1  0.370248  0.497489  0.127195  1
  Ge  Ge12  1  0.750044  0.495964  0.245920  1
  Ge  Ge13  1  0.250021  0.502879  0.752858  1
  Ge  Ge14  1  0.329173  0.830493  0.488490  1
  Ge  Ge15  1  0.657983  0.159405  0.488596  1
  Ge  Ge16  1  0.842001  0.830493  0.001319  1
  Ge  Ge17  1  0.170809  0.159405  0.001423  1
