# generated using pymatgen
data_Ho20SnBi7Rh4
_symmetry_space_group_name_H-M   'P 1'
_cell_length_a   7.97536813
_cell_length_b   8.98645945
_cell_length_c   12.37055167
_cell_angle_alpha   89.95868130
_cell_angle_beta   90.05476558
_cell_angle_gamma   90.07789458
_symmetry_Int_Tables_number   1
_chemical_formula_structural   Ho20SnBi7Rh4
_chemical_formula_sum   'Ho20 Sn1 Bi7 Rh4'
_cell_volume   886.59997158
_cell_formula_units_Z   1
loop_
 _symmetry_equiv_pos_site_id
 _symmetry_equiv_pos_as_xyz
  1  'x, y, z'
loop_
 _atom_site_type_symbol
 _atom_site_label
 _atom_site_symmetry_multiplicity
 _atom_site_fract_x
 _atom_site_fract_y
 _atom_site_fract_z
 _atom_site_occupancy
  Ho  Ho0  1  0.345052  0.746156  0.709271  1
  Ho  Ho1  1  0.657344  0.248992  0.293139  1
  Ho  Ho2  1  0.838890  0.254192  0.792131  1
  Ho  Ho3  1  0.157188  0.749423  0.205193  1
  Ho  Ho4  1  0.872015  0.746274  0.806239  1
  Ho  Ho5  1  0.121493  0.250244  0.193825  1
  Ho  Ho6  1  0.382186  0.254325  0.695680  1
  Ho  Ho7  1  0.620894  0.749894  0.307018  1
  Ho  Ho8  1  0.675693  0.541040  0.570044  1
  Ho  Ho9  1  0.322179  0.457718  0.434203  1
  Ho  Ho10  1  0.182059  0.457978  0.933530  1
  Ho  Ho11  1  0.321979  0.043854  0.434631  1
  Ho  Ho12  1  0.821029  0.542452  0.062585  1
  Ho  Ho13  1  0.678398  0.957548  0.565708  1
  Ho  Ho14  1  0.821265  0.958630  0.064904  1
  Ho  Ho15  1  0.177654  0.042053  0.934152  1
  Ho  Ho16  1  0.050871  0.750720  0.498745  1
  Ho  Ho17  1  0.951615  0.249165  0.501508  1
  Ho  Ho18  1  0.549319  0.253761  0.999794  1
  Ho  Ho19  1  0.453821  0.746048  0.995837  1
  Sn  Sn20  1  0.571262  0.507808  0.828968  1
  Bi  Bi21  1  0.428296  0.490708  0.173397  1
  Bi  Bi22  1  0.072214  0.491284  0.671887  1
  Bi  Bi23  1  0.427944  0.008551  0.171220  1
  Bi  Bi24  1  0.928025  0.509261  0.327818  1
  Bi  Bi25  1  0.571236  0.991976  0.827694  1
  Bi  Bi26  1  0.929189  0.990259  0.326756  1
  Bi  Bi27  1  0.071311  0.008450  0.674233  1
  Rh  Rh28  1  0.070087  0.750261  0.989142  1
  Rh  Rh29  1  0.928785  0.250177  0.009717  1
  Rh  Rh30  1  0.573342  0.250098  0.510233  1
  Rh  Rh31  1  0.427366  0.750700  0.490796  1
