# generated using pymatgen
data_Sm2HoTm3Ta2O14
_symmetry_space_group_name_H-M   'P 1'
_cell_length_a   6.43394658
_cell_length_b   6.43669640
_cell_length_c   7.53800800
_cell_angle_alpha   90.00000000
_cell_angle_beta   90.00000000
_cell_angle_gamma   109.33369899
_symmetry_Int_Tables_number   1
_chemical_formula_structural   Sm2HoTm3Ta2O14
_chemical_formula_sum   'Sm2 Ho1 Tm3 Ta2 O14'
_cell_volume   294.56961327
_cell_formula_units_Z   1
loop_
 _symmetry_equiv_pos_site_id
 _symmetry_equiv_pos_as_xyz
  1  'x, y, z'
loop_
 _atom_site_type_symbol
 _atom_site_label
 _atom_site_symmetry_multiplicity
 _atom_site_fract_x
 _atom_site_fract_y
 _atom_site_fract_z
 _atom_site_occupancy
  Sm  Sm0  1  0.500474  0.500242  0.499647  1
  Sm  Sm1  1  0.500474  0.500242  0.000353  1
  Ho  Ho2  1  0.999150  0.465921  0.750000  1
  Tm  Tm3  1  0.533019  0.001407  0.750000  1
  Tm  Tm4  1  0.001374  0.533525  0.250000  1
  Tm  Tm5  1  0.466832  0.998515  0.250000  1
  Ta  Ta6  1  0.999972  0.000075  0.499563  1
  Ta  Ta7  1  0.999972  0.000075  0.000437  1
  O  O8  1  0.676772  0.930300  0.467082  1
  O  O9  1  0.928750  0.676869  0.531096  1
  O  O10  1  0.676772  0.930300  0.032918  1
  O  O11  1  0.928750  0.676869  0.968904  1
  O  O12  1  0.322911  0.069822  0.532850  1
  O  O13  1  0.070535  0.322812  0.465911  1
  O  O14  1  0.322911  0.069822  0.967150  1
  O  O15  1  0.070535  0.322812  0.034089  1
  O  O16  1  0.933036  0.065784  0.750000  1
  O  O17  1  0.067320  0.933290  0.250000  1
  O  O18  1  0.367050  0.637565  0.750000  1
  O  O19  1  0.636108  0.363769  0.250000  1
  O  O20  1  0.640298  0.356748  0.750000  1
  O  O21  1  0.356983  0.643236  0.250000  1
