# generated using pymatgen
data_Dy12In2Tc2NiSe
_symmetry_space_group_name_H-M   'P 1'
_cell_length_a   8.52443506
_cell_length_b   8.52385999
_cell_length_c   8.52443461
_cell_angle_alpha   114.18226150
_cell_angle_beta   111.17967088
_cell_angle_gamma   103.24460726
_symmetry_Int_Tables_number   1
_chemical_formula_structural   Dy12In2Tc2NiSe
_chemical_formula_sum   'Dy12 In2 Tc2 Ni1 Se1'
_cell_volume   472.26728359
_cell_formula_units_Z   1
loop_
 _symmetry_equiv_pos_site_id
 _symmetry_equiv_pos_as_xyz
  1  'x, y, z'
loop_
 _atom_site_type_symbol
 _atom_site_label
 _atom_site_symmetry_multiplicity
 _atom_site_fract_x
 _atom_site_fract_y
 _atom_site_fract_z
 _atom_site_occupancy
  Dy  Dy0  1  0.434095  0.236586  0.197370  1
  Dy  Dy1  1  0.564244  0.763834  0.800773  1
  Dy  Dy2  1  0.039217  0.236586  0.802489  1
  Dy  Dy3  1  0.963061  0.763834  0.199592  1
  Dy  Dy4  1  0.193067  0.287618  0.469774  1
  Dy  Dy5  1  0.818054  0.723355  0.530312  1
  Dy  Dy6  1  0.193042  0.723355  0.905300  1
  Dy  Dy7  1  0.817844  0.287618  0.094551  1
  Dy  Dy8  1  0.328045  0.642517  0.314473  1
  Dy  Dy9  1  0.657162  0.345987  0.688825  1
  Dy  Dy10  1  0.328081  0.013466  0.685387  1
  Dy  Dy11  1  0.657137  0.968302  0.311164  1
  In  In12  1  0.500065  0.500050  0.999984  1
  In  In13  1  0.000027  0.000084  0.000057  1
  Tc  Tc14  1  0.327076  0.001523  0.325507  1
  Tc  Tc15  1  0.676016  0.001523  0.674447  1
  Ni  Ni16  1  0.124650  0.624649  0.499999  1
  Se  Se17  1  0.879116  0.379110  0.499995  1
