# generated using pymatgen
data_Cs3NdNb2O8
_symmetry_space_group_name_H-M   'P 1'
_cell_length_a   6.55306700
_cell_length_b   6.55306582
_cell_length_c   8.84999600
_cell_angle_alpha   90.00000000
_cell_angle_beta   90.00000000
_cell_angle_gamma   119.99999080
_symmetry_Int_Tables_number   1
_chemical_formula_structural   Cs3NdNb2O8
_chemical_formula_sum   'Cs3 Nd1 Nb2 O8'
_cell_volume   329.12652533
_cell_formula_units_Z   1
loop_
 _symmetry_equiv_pos_site_id
 _symmetry_equiv_pos_as_xyz
  1  'x, y, z'
loop_
 _atom_site_type_symbol
 _atom_site_label
 _atom_site_symmetry_multiplicity
 _atom_site_fract_x
 _atom_site_fract_y
 _atom_site_fract_z
 _atom_site_occupancy
  Cs  Cs0  1  0.333333  0.666667  0.724472  1
  Cs  Cs1  1  0.666667  0.333333  0.275528  1
  Cs  Cs2  1  0.000000  0.000000  0.000000  1
  Nd  Nd3  1  0.000000  0.000000  0.500000  1
  Nb  Nb4  1  0.333333  0.666667  0.273652  1
  Nb  Nb5  1  0.666667  0.333333  0.726348  1
  O  O6  1  0.333333  0.666667  0.066899  1
  O  O7  1  0.666667  0.333333  0.933101  1
  O  O8  1  0.173972  0.826028  0.342560  1
  O  O9  1  0.826028  0.173972  0.657440  1
  O  O10  1  0.173972  0.347945  0.342560  1
  O  O11  1  0.826028  0.652055  0.657440  1
  O  O12  1  0.652055  0.826028  0.342560  1
  O  O13  1  0.347945  0.173972  0.657440  1
