# generated using pymatgen
data_Li5B7Se13
_symmetry_space_group_name_H-M   'P 1'
_cell_length_a   15.10533733
_cell_length_b   15.10533641
_cell_length_c   13.37430300
_cell_angle_alpha   63.75624833
_cell_angle_beta   63.75625005
_cell_angle_gamma   102.49454979
_symmetry_Int_Tables_number   1
_chemical_formula_structural   Li5B7Se13
_chemical_formula_sum   'Li20 B28 Se52'
_cell_volume   2108.76919196
_cell_formula_units_Z   4
loop_
 _symmetry_equiv_pos_site_id
 _symmetry_equiv_pos_as_xyz
  1  'x, y, z'
loop_
 _atom_site_type_symbol
 _atom_site_label
 _atom_site_symmetry_multiplicity
 _atom_site_fract_x
 _atom_site_fract_y
 _atom_site_fract_z
 _atom_site_occupancy
  Li  Li0  1  0.964127  0.680263  0.263690  1
  Li  Li1  1  0.680263  0.964127  0.763690  1
  Li  Li2  1  0.012441  0.018867  0.532563  1
  Li  Li3  1  0.315992  0.881817  0.897466  1
  Li  Li4  1  0.881817  0.315992  0.397466  1
  Li  Li5  1  0.442269  0.223544  0.593687  1
  Li  Li6  1  0.223544  0.442269  0.093687  1
  Li  Li7  1  0.782153  0.717258  0.100080  1
  Li  Li8  1  0.717258  0.782153  0.600080  1
  Li  Li9  1  0.551014  0.049361  0.431644  1
  Li  Li10  1  0.049361  0.551014  0.931644  1
  Li  Li11  1  0.299477  0.226022  0.389046  1
  Li  Li12  1  0.226022  0.299477  0.889046  1
  Li  Li13  1  0.777158  0.553588  0.915333  1
  Li  Li14  1  0.553588  0.777158  0.415333  1
  Li  Li15  1  0.114962  0.688008  0.581509  1
  Li  Li16  1  0.688008  0.114962  0.081509  1
  Li  Li17  1  0.305623  0.031840  0.250150  1
  Li  Li18  1  0.031840  0.305623  0.750150  1
  Li  Li19  1  0.018867  0.012441  0.032563  1
  B  B20  1  0.252099  0.306206  0.574064  1
  B  B21  1  0.543236  0.790679  0.142065  1
  B  B22  1  0.275748  0.726657  0.247668  1
  B  B23  1  0.475729  0.525172  0.250361  1
  B  B24  1  0.209134  0.457512  0.358042  1
  B  B25  1  0.694796  0.748244  0.926284  1
  B  B26  1  0.684382  0.433109  0.524248  1
  B  B27  1  0.433109  0.684382  0.024248  1
  B  B28  1  0.620854  0.174544  0.630906  1
  B  B29  1  0.174544  0.620854  0.130906  1
  B  B30  1  0.166163  0.015176  0.738245  1
  B  B31  1  0.091949  0.746686  0.923382  1
  B  B32  1  0.746686  0.091949  0.423382  1
  B  B33  1  0.015176  0.166163  0.238245  1
  B  B34  1  0.985082  0.831279  0.760333  1
  B  B35  1  0.253452  0.905067  0.580403  1
  B  B36  1  0.905067  0.253452  0.080403  1
  B  B37  1  0.831279  0.985082  0.260333  1
  B  B38  1  0.827658  0.380465  0.867197  1
  B  B39  1  0.380465  0.827658  0.367197  1
  B  B40  1  0.568396  0.314821  0.975183  1
  B  B41  1  0.314821  0.568396  0.475183  1
  B  B42  1  0.306206  0.252099  0.074064  1
  B  B43  1  0.790679  0.543236  0.642065  1
  B  B44  1  0.525172  0.475729  0.750361  1
  B  B45  1  0.726657  0.275748  0.747668  1
  B  B46  1  0.457512  0.209134  0.858042  1
  B  B47  1  0.748244  0.694796  0.426284  1
  Se  Se48  1  0.483334  0.627855  0.314570  1
  Se  Se49  1  0.202853  0.559846  0.423803  1
  Se  Se50  1  0.710754  0.861752  0.974055  1
  Se  Se51  1  0.139297  0.290022  0.525445  1
  Se  Se52  1  0.442398  0.797413  0.074232  1
  Se  Se53  1  0.177502  0.732644  0.180699  1
  Se  Se54  1  0.732644  0.177502  0.680699  1
  Se  Se55  1  0.372459  0.516281  0.186852  1
  Se  Se56  1  0.451386  0.104534  0.797968  1
  Se  Se57  1  0.104534  0.451386  0.297968  1
  Se  Se58  1  0.751092  0.597863  0.353690  1
  Se  Se59  1  0.597863  0.751092  0.853690  1
  Se  Se60  1  0.683463  0.335601  0.454294  1
  Se  Se61  1  0.206088  0.151770  0.747841  1
  Se  Se62  1  0.335601  0.683463  0.954294  1
  Se  Se63  1  0.132124  0.886271  0.924738  1
  Se  Se64  1  0.045148  0.599331  0.107357  1
  Se  Se65  1  0.599331  0.045148  0.607357  1
  Se  Se66  1  0.886271  0.132124  0.424738  1
  Se  Se67  1  0.151770  0.206088  0.247841  1
  Se  Se68  1  0.415569  0.360823  0.410944  1
  Se  Se69  1  0.020778  0.976504  0.748743  1
  Se  Se70  1  0.360823  0.415569  0.910944  1
  Se  Se71  1  0.941024  0.690388  0.943288  1
  Se  Se72  1  0.308222  0.057025  0.558118  1
  Se  Se73  1  0.226750  0.771662  0.753835  1
  Se  Se74  1  0.771662  0.226750  0.253835  1
  Se  Se75  1  0.690388  0.941024  0.443288  1
  Se  Se76  1  0.057025  0.308222  0.058118  1
  Se  Se77  1  0.641026  0.586253  0.091154  1
  Se  Se78  1  0.976504  0.020778  0.248743  1
  Se  Se79  1  0.586253  0.641026  0.591154  1
  Se  Se80  1  0.847864  0.793899  0.750962  1
  Se  Se81  1  0.116069  0.864840  0.575128  1
  Se  Se82  1  0.399826  0.955063  0.393973  1
  Se  Se83  1  0.955063  0.399826  0.893973  1
  Se  Se84  1  0.864840  0.116069  0.075128  1
  Se  Se85  1  0.665766  0.314405  0.045464  1
  Se  Se86  1  0.793899  0.847864  0.250962  1
  Se  Se87  1  0.314405  0.665766  0.545464  1
  Se  Se88  1  0.403268  0.247576  0.146497  1
  Se  Se89  1  0.247576  0.403268  0.646497  1
  Se  Se90  1  0.894297  0.549829  0.703811  1
  Se  Se91  1  0.549829  0.894297  0.203811  1
  Se  Se92  1  0.627855  0.483334  0.814570  1
  Se  Se93  1  0.273007  0.827882  0.310550  1
  Se  Se94  1  0.827882  0.273007  0.810550  1
  Se  Se95  1  0.559846  0.202853  0.923803  1
  Se  Se96  1  0.861752  0.710754  0.474055  1
  Se  Se97  1  0.290022  0.139297  0.025445  1
  Se  Se98  1  0.797413  0.442398  0.574232  1
  Se  Se99  1  0.516281  0.372459  0.686852  1
