# generated using pymatgen
data_Er8B24Ir2RuRh
_symmetry_space_group_name_H-M   'P 1'
_cell_length_a   3.62967100
_cell_length_b   9.14778633
_cell_length_c   11.46623342
_cell_angle_alpha   90.05632508
_cell_angle_beta   90.00000000
_cell_angle_gamma   90.00000000
_symmetry_Int_Tables_number   1
_chemical_formula_structural   Er8B24Ir2RuRh
_chemical_formula_sum   'Er8 B24 Ir2 Ru1 Rh1'
_cell_volume   380.71837843
_cell_formula_units_Z   1
loop_
 _symmetry_equiv_pos_site_id
 _symmetry_equiv_pos_as_xyz
  1  'x, y, z'
loop_
 _atom_site_type_symbol
 _atom_site_label
 _atom_site_symmetry_multiplicity
 _atom_site_fract_x
 _atom_site_fract_y
 _atom_site_fract_z
 _atom_site_occupancy
  Er  Er0  1  0.000000  0.321503  0.412940  1
  Er  Er1  1  0.000000  0.680105  0.587220  1
  Er  Er2  1  0.000000  0.820866  0.085534  1
  Er  Er3  1  0.000000  0.177236  0.913117  1
  Er  Er4  1  0.000000  0.943307  0.373595  1
  Er  Er5  1  0.000000  0.054167  0.626954  1
  Er  Er6  1  0.000000  0.444953  0.126644  1
  Er  Er7  1  0.000000  0.557465  0.874209  1
  B  B8  1  0.500000  0.553689  0.434722  1
  B  B9  1  0.500000  0.446373  0.565465  1
  B  B10  1  0.500000  0.053515  0.065684  1
  B  B11  1  0.500000  0.945817  0.933627  1
  B  B12  1  0.500000  0.749472  0.420964  1
  B  B13  1  0.500000  0.250368  0.579081  1
  B  B14  1  0.500000  0.249460  0.078985  1
  B  B15  1  0.500000  0.751606  0.920066  1
  B  B16  1  0.500000  0.793598  0.264566  1
  B  B17  1  0.500000  0.206641  0.734341  1
  B  B18  1  0.500000  0.293974  0.235203  1
  B  B19  1  0.500000  0.707538  0.765727  1
  B  B20  1  0.500000  0.632554  0.184015  1
  B  B21  1  0.500000  0.367862  0.816068  1
  B  B22  1  0.500000  0.132669  0.315848  1
  B  B23  1  0.500000  0.867897  0.685104  1
  B  B24  1  0.500000  0.981759  0.213181  1
  B  B25  1  0.500000  0.016650  0.786729  1
  B  B26  1  0.500000  0.481947  0.286769  1
  B  B27  1  0.500000  0.517870  0.713850  1
  B  B28  1  0.500000  0.610105  0.030477  1
  B  B29  1  0.500000  0.389616  0.969847  1
  B  B30  1  0.500000  0.110045  0.469687  1
  B  B31  1  0.500000  0.889865  0.529920  1
  Ir  Ir32  1  0.000000  0.361524  0.679079  1
  Ir  Ir33  1  0.000000  0.138004  0.177879  1
  Ru  Ru34  1  0.000000  0.861640  0.821110  1
  Rh  Rh35  1  0.000000  0.638338  0.321794  1
