# generated using pymatgen
data_Li2Tb16In2IrPd3
_symmetry_space_group_name_H-M   'P 1'
_cell_length_a   9.69732319
_cell_length_b   9.76119014
_cell_length_c   9.71189494
_cell_angle_alpha   60.12529585
_cell_angle_beta   60.04962027
_cell_angle_gamma   60.21619849
_symmetry_Int_Tables_number   1
_chemical_formula_structural   Li2Tb16In2IrPd3
_chemical_formula_sum   'Li2 Tb16 In2 Ir1 Pd3'
_cell_volume   651.96239429
_cell_formula_units_Z   1
loop_
 _symmetry_equiv_pos_site_id
 _symmetry_equiv_pos_as_xyz
  1  'x, y, z'
loop_
 _atom_site_type_symbol
 _atom_site_label
 _atom_site_symmetry_multiplicity
 _atom_site_fract_x
 _atom_site_fract_y
 _atom_site_fract_z
 _atom_site_occupancy
  Li  Li0  1  0.327678  0.322798  0.323720  1
  Li  Li1  1  0.025803  0.322798  0.323720  1
  Tb  Tb2  1  0.103445  0.690049  0.103062  1
  Tb  Tb3  1  0.939306  0.941788  0.560748  1
  Tb  Tb4  1  0.939362  0.557556  0.939694  1
  Tb  Tb5  1  0.315045  0.685770  0.313924  1
  Tb  Tb6  1  0.933399  0.563334  0.569866  1
  Tb  Tb7  1  0.311599  0.316202  0.685507  1
  Tb  Tb8  1  0.099283  0.103734  0.098436  1
  Tb  Tb9  1  0.563387  0.557556  0.939694  1
  Tb  Tb10  1  0.098323  0.104398  0.698957  1
  Tb  Tb11  1  0.686691  0.316202  0.685507  1
  Tb  Tb12  1  0.685261  0.685770  0.313924  1
  Tb  Tb13  1  0.685881  0.317165  0.311073  1
  Tb  Tb14  1  0.313976  0.686817  0.685231  1
  Tb  Tb15  1  0.558157  0.941788  0.560748  1
  Tb  Tb16  1  0.698548  0.103734  0.098436  1
  Tb  Tb17  1  0.554670  0.946376  0.944283  1
  In  In18  1  0.330029  0.006781  0.333161  1
  In  In19  1  0.330369  0.333341  0.005920  1
  Ir  Ir20  1  0.892051  0.321569  0.894330  1
  Pd  Pd21  1  0.894280  0.892015  0.895534  1
  Pd  Pd22  1  0.895284  0.890441  0.318990  1
  Pd  Pd23  1  0.318170  0.892015  0.895534  1
