# generated using pymatgen
data_NdHo3MnNi13
_symmetry_space_group_name_H-M   'P 1'
_cell_length_a   4.92270432
_cell_length_b   4.99126165
_cell_length_c   12.45220200
_cell_angle_alpha   78.43867466
_cell_angle_beta   78.67982088
_cell_angle_gamma   59.53823103
_symmetry_Int_Tables_number   1
_chemical_formula_structural   NdHo3MnNi13
_chemical_formula_sum   'Nd1 Ho3 Mn1 Ni13'
_cell_volume   256.74486641
_cell_formula_units_Z   1
loop_
 _symmetry_equiv_pos_site_id
 _symmetry_equiv_pos_as_xyz
  1  'x, y, z'
loop_
 _atom_site_type_symbol
 _atom_site_label
 _atom_site_symmetry_multiplicity
 _atom_site_fract_x
 _atom_site_fract_y
 _atom_site_fract_z
 _atom_site_occupancy
  Nd  Nd0  1  0.947258  0.947202  0.158318  1
  Ho  Ho1  1  0.052857  0.053050  0.841048  1
  Ho  Ho2  1  0.852957  0.851363  0.444351  1
  Ho  Ho3  1  0.146344  0.147856  0.557961  1
  Mn  Mn4  1  0.000538  0.500626  0.998150  1
  Ni  Ni5  1  0.499942  0.499859  0.500302  1
  Ni  Ni6  1  0.722998  0.722108  0.832738  1
  Ni  Ni7  1  0.276508  0.278519  0.166743  1
  Ni  Ni8  1  0.613238  0.610322  0.166095  1
  Ni  Ni9  1  0.387205  0.389737  0.833315  1
  Ni  Ni10  1  0.500574  0.000466  0.998153  1
  Ni  Ni11  1  0.500602  0.500660  0.998154  1
  Ni  Ni12  1  0.389786  0.388707  0.332098  1
  Ni  Ni13  1  0.891870  0.387442  0.333076  1
  Ni  Ni14  1  0.389798  0.889371  0.332043  1
  Ni  Ni15  1  0.609866  0.610644  0.669469  1
  Ni  Ni16  1  0.107824  0.611981  0.668478  1
  Ni  Ni17  1  0.609834  0.110089  0.669505  1
