# generated using pymatgen
data_Sc7Ti6Al9Ir8
_symmetry_space_group_name_H-M   'P 1'
_cell_length_a   8.92554659
_cell_length_b   8.92554589
_cell_length_c   8.92554651
_cell_angle_alpha   59.86113582
_cell_angle_beta   59.86114290
_cell_angle_gamma   59.86114287
_symmetry_Int_Tables_number   1
_chemical_formula_structural   Sc7Ti6Al9Ir8
_chemical_formula_sum   'Sc7 Ti6 Al9 Ir8'
_cell_volume   501.20892137
_cell_formula_units_Z   1
loop_
 _symmetry_equiv_pos_site_id
 _symmetry_equiv_pos_as_xyz
  1  'x, y, z'
loop_
 _atom_site_type_symbol
 _atom_site_label
 _atom_site_symmetry_multiplicity
 _atom_site_fract_x
 _atom_site_fract_y
 _atom_site_fract_z
 _atom_site_occupancy
  Sc  Sc0  1  0.210379  0.210379  0.794276  1
  Sc  Sc1  1  0.794276  0.210379  0.210379  1
  Sc  Sc2  1  0.210379  0.794276  0.210379  1
  Sc  Sc3  1  0.793691  0.793691  0.195942  1
  Sc  Sc4  1  0.195942  0.793691  0.793691  1
  Sc  Sc5  1  0.793691  0.195942  0.793691  1
  Sc  Sc6  1  0.380199  0.380199  0.380199  1
  Ti  Ti7  1  0.380971  0.862804  0.380971  1
  Ti  Ti8  1  0.862804  0.380971  0.380971  1
  Ti  Ti9  1  0.380971  0.380971  0.862804  1
  Ti  Ti10  1  0.836692  0.488045  0.836692  1
  Ti  Ti11  1  0.488045  0.836692  0.836692  1
  Ti  Ti12  1  0.836692  0.836692  0.488045  1
  Al  Al13  1  0.167001  0.167001  0.167001  1
  Al  Al14  1  0.162299  0.513361  0.162299  1
  Al  Al15  1  0.513361  0.162299  0.162299  1
  Al  Al16  1  0.162299  0.162299  0.513361  1
  Al  Al17  1  0.619164  0.619164  0.619164  1
  Al  Al18  1  0.619180  0.144095  0.619180  1
  Al  Al19  1  0.144095  0.619180  0.619180  1
  Al  Al20  1  0.619180  0.619180  0.144095  1
  Al  Al21  1  0.825082  0.825082  0.825082  1
  Ir  Ir22  1  0.001322  0.001322  0.497027  1
  Ir  Ir23  1  0.497027  0.001322  0.001322  1
  Ir  Ir24  1  0.001322  0.497027  0.001322  1
  Ir  Ir25  1  0.502210  0.502210  0.992594  1
  Ir  Ir26  1  0.992594  0.502210  0.502210  1
  Ir  Ir27  1  0.502210  0.992594  0.502210  1
  Ir  Ir28  1  0.503834  0.503834  0.503834  1
  Ir  Ir29  1  0.003086  0.003086  0.003086  1
