# generated using pymatgen
data_CePrSc2(ReB6)2
_symmetry_space_group_name_H-M   'P 1'
_cell_length_a   3.65190300
_cell_length_b   9.07769910
_cell_length_c   11.51560739
_cell_angle_alpha   89.94373062
_cell_angle_beta   90.00000000
_cell_angle_gamma   90.00000000
_symmetry_Int_Tables_number   1
_chemical_formula_structural   CePrSc2(ReB6)2
_chemical_formula_sum   'Ce2 Pr2 Sc4 Re4 B24'
_cell_volume   381.75229490
_cell_formula_units_Z   2
loop_
 _symmetry_equiv_pos_site_id
 _symmetry_equiv_pos_as_xyz
  1  'x, y, z'
loop_
 _atom_site_type_symbol
 _atom_site_label
 _atom_site_symmetry_multiplicity
 _atom_site_fract_x
 _atom_site_fract_y
 _atom_site_fract_z
 _atom_site_occupancy
  Ce  Ce0  1  0.000000  0.821044  0.085115  1
  Ce  Ce1  1  0.000000  0.178956  0.914885  1
  Pr  Pr2  1  0.000000  0.321900  0.414639  1
  Pr  Pr3  1  0.000000  0.678100  0.585361  1
  Sc  Sc4  1  0.000000  0.944103  0.370302  1
  Sc  Sc5  1  0.000000  0.055897  0.629698  1
  Sc  Sc6  1  0.000000  0.444587  0.127898  1
  Sc  Sc7  1  0.000000  0.555413  0.872102  1
  Re  Re8  1  0.000000  0.643703  0.314394  1
  Re  Re9  1  0.000000  0.356297  0.685606  1
  Re  Re10  1  0.000000  0.139224  0.179640  1
  Re  Re11  1  0.000000  0.860776  0.820360  1
  B  B12  1  0.500000  0.556945  0.428729  1
  B  B13  1  0.500000  0.443055  0.571271  1
  B  B14  1  0.500000  0.055377  0.068652  1
  B  B15  1  0.500000  0.944623  0.931348  1
  B  B16  1  0.500000  0.754900  0.414680  1
  B  B17  1  0.500000  0.245100  0.585320  1
  B  B18  1  0.500000  0.253698  0.082553  1
  B  B19  1  0.500000  0.746302  0.917447  1
  B  B20  1  0.500000  0.794867  0.263487  1
  B  B21  1  0.500000  0.205133  0.736513  1
  B  B22  1  0.500000  0.293993  0.232843  1
  B  B23  1  0.500000  0.706007  0.767157  1
  B  B24  1  0.500000  0.629778  0.182092  1
  B  B25  1  0.500000  0.370222  0.817908  1
  B  B26  1  0.500000  0.127532  0.315045  1
  B  B27  1  0.500000  0.872468  0.684955  1
  B  B28  1  0.500000  0.982227  0.213356  1
  B  B29  1  0.500000  0.017773  0.786644  1
  B  B30  1  0.500000  0.483681  0.283474  1
  B  B31  1  0.500000  0.516319  0.716526  1
  B  B32  1  0.500000  0.597251  0.025980  1
  B  B33  1  0.500000  0.402749  0.974020  1
  B  B34  1  0.500000  0.093855  0.474595  1
  B  B35  1  0.500000  0.906145  0.525405  1
