# generated using pymatgen
data_Tb7Gd(TcB6)4
_symmetry_space_group_name_H-M   'P 1'
_cell_length_a   3.70863300
_cell_length_b   9.19014705
_cell_length_c   11.58224401
_cell_angle_alpha   89.99235743
_cell_angle_beta   90.00000000
_cell_angle_gamma   90.00000000
_symmetry_Int_Tables_number   1
_chemical_formula_structural   Tb7Gd(TcB6)4
_chemical_formula_sum   'Tb7 Gd1 Tc4 B24'
_cell_volume   394.75625938
_cell_formula_units_Z   1
loop_
 _symmetry_equiv_pos_site_id
 _symmetry_equiv_pos_as_xyz
  1  'x, y, z'
loop_
 _atom_site_type_symbol
 _atom_site_label
 _atom_site_symmetry_multiplicity
 _atom_site_fract_x
 _atom_site_fract_y
 _atom_site_fract_z
 _atom_site_occupancy
  Tb  Tb0  1  0.000000  0.676123  0.586001  1
  Tb  Tb1  1  0.000000  0.823942  0.085817  1
  Tb  Tb2  1  0.000000  0.176021  0.914086  1
  Tb  Tb3  1  0.000000  0.942304  0.369091  1
  Tb  Tb4  1  0.000000  0.057605  0.630921  1
  Tb  Tb5  1  0.000000  0.442340  0.130796  1
  Tb  Tb6  1  0.000000  0.557706  0.869324  1
  Gd  Gd7  1  0.000000  0.323848  0.414340  1
  Tc  Tc8  1  0.000000  0.638618  0.320448  1
  Tc  Tc9  1  0.000000  0.361664  0.679701  1
  Tc  Tc10  1  0.000000  0.138178  0.179023  1
  Tc  Tc11  1  0.000000  0.861670  0.820652  1
  B  B12  1  0.500000  0.553483  0.432597  1
  B  B13  1  0.500000  0.446708  0.567511  1
  B  B14  1  0.500000  0.053203  0.067098  1
  B  B15  1  0.500000  0.946653  0.932674  1
  B  B16  1  0.500000  0.748197  0.418138  1
  B  B17  1  0.500000  0.252009  0.582081  1
  B  B18  1  0.500000  0.248021  0.081631  1
  B  B19  1  0.500000  0.751865  0.918221  1
  B  B20  1  0.500000  0.791155  0.265246  1
  B  B21  1  0.500000  0.208930  0.734803  1
  B  B22  1  0.500000  0.290908  0.234495  1
  B  B23  1  0.500000  0.708931  0.765365  1
  B  B24  1  0.500000  0.630838  0.185889  1
  B  B25  1  0.500000  0.369267  0.814217  1
  B  B26  1  0.500000  0.130701  0.313821  1
  B  B27  1  0.500000  0.869234  0.685990  1
  B  B28  1  0.500000  0.982578  0.211383  1
  B  B29  1  0.500000  0.017325  0.788499  1
  B  B30  1  0.500000  0.482798  0.288427  1
  B  B31  1  0.500000  0.517434  0.711705  1
  B  B32  1  0.500000  0.600486  0.028141  1
  B  B33  1  0.500000  0.399463  0.971849  1
  B  B34  1  0.500000  0.100185  0.471914  1
  B  B35  1  0.500000  0.899607  0.528107  1
