# generated using pymatgen
data_Th8ZnSi11Ir4
_symmetry_space_group_name_H-M   'P 1'
_cell_length_a   8.30305200
_cell_length_b   8.30305297
_cell_length_c   8.44747300
_cell_angle_alpha   89.99998620
_cell_angle_beta   90.00001380
_cell_angle_gamma   120.02607114
_symmetry_Int_Tables_number   1
_chemical_formula_structural   Th8ZnSi11Ir4
_chemical_formula_sum   'Th8 Zn1 Si11 Ir4'
_cell_volume   504.21859389
_cell_formula_units_Z   1
loop_
 _symmetry_equiv_pos_site_id
 _symmetry_equiv_pos_as_xyz
  1  'x, y, z'
loop_
 _atom_site_type_symbol
 _atom_site_label
 _atom_site_symmetry_multiplicity
 _atom_site_fract_x
 _atom_site_fract_y
 _atom_site_fract_z
 _atom_site_occupancy
  Th  Th0  1  0.500187  0.499813  0.751735  1
  Th  Th1  1  0.500408  0.499592  0.248259  1
  Th  Th2  1  0.999434  0.500624  0.751816  1
  Th  Th3  1  0.998987  0.500399  0.248190  1
  Th  Th4  1  0.499376  0.000566  0.751816  1
  Th  Th5  1  0.499601  0.001013  0.248190  1
  Th  Th6  1  0.001753  0.998247  0.748430  1
  Th  Th7  1  0.001734  0.998266  0.251565  1
  Zn  Zn8  1  0.836776  0.163224  0.999785  1
  Si  Si9  1  0.166017  0.833983  0.000169  1
  Si  Si10  1  0.331644  0.166281  0.999842  1
  Si  Si11  1  0.166363  0.833637  0.499813  1
  Si  Si12  1  0.668508  0.833429  0.000159  1
  Si  Si13  1  0.834026  0.165974  0.500187  1
  Si  Si14  1  0.833719  0.668356  0.999842  1
  Si  Si15  1  0.667342  0.833316  0.499832  1
  Si  Si16  1  0.166571  0.331492  0.000159  1
  Si  Si17  1  0.332925  0.166508  0.500169  1
  Si  Si18  1  0.166684  0.332658  0.499832  1
  Si  Si19  1  0.833492  0.667075  0.500169  1
  Ir  Ir20  1  0.661918  0.338082  0.999771  1
  Ir  Ir21  1  0.332617  0.667383  0.000268  1
  Ir  Ir22  1  0.332956  0.667044  0.499794  1
  Ir  Ir23  1  0.666967  0.333033  0.500211  1
