# generated using pymatgen
data_YbErNp(SnIr)3
_symmetry_space_group_name_H-M   'P 1'
_cell_length_a   7.41893799
_cell_length_b   7.35316065
_cell_length_c   3.96916300
_cell_angle_alpha   90.00000000
_cell_angle_beta   90.00000000
_cell_angle_gamma   118.19281110
_symmetry_Int_Tables_number   1
_chemical_formula_structural   YbErNp(SnIr)3
_chemical_formula_sum   'Yb1 Er1 Np1 Sn3 Ir3'
_cell_volume   190.84000284
_cell_formula_units_Z   1
loop_
 _symmetry_equiv_pos_site_id
 _symmetry_equiv_pos_as_xyz
  1  'x, y, z'
loop_
 _atom_site_type_symbol
 _atom_site_label
 _atom_site_symmetry_multiplicity
 _atom_site_fract_x
 _atom_site_fract_y
 _atom_site_fract_z
 _atom_site_occupancy
  Yb  Yb0  1  0.999431  0.593517  0.500000  1
  Er  Er1  1  0.594473  0.999471  0.500000  1
  Np  Np2  1  0.413863  0.413461  0.500000  1
  Sn  Sn3  1  0.987844  0.262813  0.000000  1
  Sn  Sn4  1  0.757832  0.754039  0.000000  1
  Sn  Sn5  1  0.254759  0.984589  0.000000  1
  Ir  Ir6  1  0.345012  0.642643  0.000000  1
  Ir  Ir7  1  0.012259  0.018569  0.500000  1
  Ir  Ir8  1  0.634527  0.330900  0.000000  1
