# generated using pymatgen
data_La3Ni8MoP6
_symmetry_space_group_name_H-M   'P 1'
_cell_length_a   3.88284500
_cell_length_b   10.82340900
_cell_length_c   12.55565600
_cell_angle_alpha   90.00000000
_cell_angle_beta   90.00000000
_cell_angle_gamma   90.00000000
_symmetry_Int_Tables_number   1
_chemical_formula_structural   La3Ni8MoP6
_chemical_formula_sum   'La6 Ni16 Mo2 P12'
_cell_volume   527.65922186
_cell_formula_units_Z   2
loop_
 _symmetry_equiv_pos_site_id
 _symmetry_equiv_pos_as_xyz
  1  'x, y, z'
loop_
 _atom_site_type_symbol
 _atom_site_label
 _atom_site_symmetry_multiplicity
 _atom_site_fract_x
 _atom_site_fract_y
 _atom_site_fract_z
 _atom_site_occupancy
  La  La0  1  0.000000  0.500000  0.519975  1
  La  La1  1  0.500000  0.000000  0.480025  1
  La  La2  1  0.500000  0.816768  0.206423  1
  La  La3  1  0.500000  0.183232  0.206423  1
  La  La4  1  0.000000  0.683232  0.793577  1
  La  La5  1  0.000000  0.316768  0.793577  1
  Ni  Ni6  1  0.500000  0.500000  0.699854  1
  Ni  Ni7  1  0.000000  0.000000  0.300146  1
  Ni  Ni8  1  0.000000  0.500000  0.983359  1
  Ni  Ni9  1  0.500000  0.000000  0.016641  1
  Ni  Ni10  1  0.500000  0.331702  0.990175  1
  Ni  Ni11  1  0.500000  0.668298  0.990175  1
  Ni  Ni12  1  0.000000  0.168298  0.009825  1
  Ni  Ni13  1  0.000000  0.831702  0.009825  1
  Ni  Ni14  1  0.500000  0.304645  0.422261  1
  Ni  Ni15  1  0.500000  0.695355  0.422261  1
  Ni  Ni16  1  0.000000  0.195355  0.577739  1
  Ni  Ni17  1  0.000000  0.804645  0.577739  1
  Ni  Ni18  1  0.500000  0.884384  0.714843  1
  Ni  Ni19  1  0.500000  0.115616  0.714843  1
  Ni  Ni20  1  0.000000  0.615616  0.285157  1
  Ni  Ni21  1  0.000000  0.384384  0.285157  1
  Mo  Mo22  1  0.500000  0.500000  0.146377  1
  Mo  Mo23  1  0.000000  0.000000  0.853623  1
  P  P24  1  0.500000  0.500000  0.884565  1
  P  P25  1  0.000000  0.000000  0.115435  1
  P  P26  1  0.500000  0.500000  0.337860  1
  P  P27  1  0.000000  0.000000  0.662140  1
  P  P28  1  0.500000  0.305548  0.609678  1
  P  P29  1  0.500000  0.694452  0.609678  1
  P  P30  1  0.000000  0.194452  0.390322  1
  P  P31  1  0.000000  0.805548  0.390322  1
  P  P32  1  0.500000  0.848263  0.897325  1
  P  P33  1  0.500000  0.151737  0.897325  1
  P  P34  1  0.000000  0.651737  0.102675  1
  P  P35  1  0.000000  0.348263  0.102675  1
