# generated using pymatgen
data_Dy(Ho2Os)2
_symmetry_space_group_name_H-M   'P 1'
_cell_length_a   6.34685405
_cell_length_b   7.34802602
_cell_length_c   8.41028606
_cell_angle_alpha   96.94922596
_cell_angle_beta   112.16819999
_cell_angle_gamma   89.99999583
_symmetry_Int_Tables_number   1
_chemical_formula_structural   Dy(Ho2Os)2
_chemical_formula_sum   'Dy2 Ho8 Os4'
_cell_volume   360.12239452
_cell_formula_units_Z   2
loop_
 _symmetry_equiv_pos_site_id
 _symmetry_equiv_pos_as_xyz
  1  'x, y, z'
loop_
 _atom_site_type_symbol
 _atom_site_label
 _atom_site_symmetry_multiplicity
 _atom_site_fract_x
 _atom_site_fract_y
 _atom_site_fract_z
 _atom_site_occupancy
  Dy  Dy0  1  0.976683  0.916042  0.183611  1
  Dy  Dy1  1  0.793071  0.583958  0.816389  1
  Ho  Ho2  1  0.023351  0.084027  0.816446  1
  Ho  Ho3  1  0.206905  0.415973  0.183554  1
  Ho  Ho4  1  0.639416  0.816395  0.435481  1
  Ho  Ho5  1  0.203935  0.683605  0.564519  1
  Ho  Ho6  1  0.360563  0.183670  0.564576  1
  Ho  Ho7  1  0.795987  0.316330  0.435424  1
  Ho  Ho8  1  0.421941  0.750000  0.000000  1
  Ho  Ho9  1  0.577960  0.250000  0.000000  1
  Os  Os10  1  0.822526  0.576998  0.219889  1
  Os  Os11  1  0.602637  0.923002  0.780111  1
  Os  Os12  1  0.177600  0.422825  0.780174  1
  Os  Os13  1  0.397426  0.077175  0.219826  1
