# generated using pymatgen
data_Th3GaNi3Pd2
_symmetry_space_group_name_H-M   'P 1'
_cell_length_a   7.04050400
_cell_length_b   7.25960697
_cell_length_c   3.85745200
_cell_angle_alpha   90.00000000
_cell_angle_beta   90.00000000
_cell_angle_gamma   119.00654883
_symmetry_Int_Tables_number   1
_chemical_formula_structural   Th3GaNi3Pd2
_chemical_formula_sum   'Th3 Ga1 Ni3 Pd2'
_cell_volume   172.42853108
_cell_formula_units_Z   1
loop_
 _symmetry_equiv_pos_site_id
 _symmetry_equiv_pos_as_xyz
  1  'x, y, z'
loop_
 _atom_site_type_symbol
 _atom_site_label
 _atom_site_symmetry_multiplicity
 _atom_site_fract_x
 _atom_site_fract_y
 _atom_site_fract_z
 _atom_site_occupancy
  Th  Th0  1  0.007780  0.402734  0.500000  1
  Th  Th1  1  0.605046  0.597266  0.500000  1
  Th  Th2  1  0.391586  0.000000  0.500000  1
  Ga  Ga3  1  0.754315  0.000000  0.000000  1
  Ni  Ni4  1  0.353810  0.679134  0.000000  1
  Ni  Ni5  1  0.674677  0.320866  0.000000  1
  Ni  Ni6  1  0.964675  0.000000  0.500000  1
  Pd  Pd7  1  0.003254  0.758398  0.000000  1
  Pd  Pd8  1  0.244856  0.241602  0.000000  1
