# generated using pymatgen
data_Er2Re7Si4Os
_symmetry_space_group_name_H-M   'P 1'
_cell_length_a   7.27979573
_cell_length_b   7.54656835
_cell_length_c   4.10876500
_cell_angle_alpha   90.00000000
_cell_angle_beta   90.00000000
_cell_angle_gamma   89.55426036
_symmetry_Int_Tables_number   1
_chemical_formula_structural   Er2Re7Si4Os
_chemical_formula_sum   'Er2 Re7 Si4 Os1'
_cell_volume   225.71834811
_cell_formula_units_Z   1
loop_
 _symmetry_equiv_pos_site_id
 _symmetry_equiv_pos_as_xyz
  1  'x, y, z'
loop_
 _atom_site_type_symbol
 _atom_site_label
 _atom_site_symmetry_multiplicity
 _atom_site_fract_x
 _atom_site_fract_y
 _atom_site_fract_z
 _atom_site_occupancy
  Er  Er0  1  0.498561  0.500558  0.000000  1
  Er  Er1  1  0.998219  0.999181  0.500000  1
  Re  Re2  1  0.415335  0.843951  0.500000  1
  Re  Re3  1  0.081400  0.336748  0.000000  1
  Re  Re4  1  0.916807  0.659971  0.000000  1
  Re  Re5  1  0.157945  0.600792  0.500000  1
  Re  Re6  1  0.849778  0.402015  0.500000  1
  Re  Re7  1  0.342561  0.097316  0.000000  1
  Re  Re8  1  0.656827  0.899349  0.000000  1
  Si  Si9  1  0.715565  0.700043  0.500000  1
  Si  Si10  1  0.284466  0.297270  0.500000  1
  Si  Si11  1  0.215085  0.800552  0.000000  1
  Si  Si12  1  0.779395  0.198612  0.000000  1
  Os  Os13  1  0.588055  0.163642  0.500000  1
