# generated using pymatgen
data_Ce10Al3SiTc6
_symmetry_space_group_name_H-M   'P 1'
_cell_length_a   8.35854084
_cell_length_b   8.35854144
_cell_length_c   8.35854200
_cell_angle_alpha   109.44658632
_cell_angle_beta   109.44658777
_cell_angle_gamma   109.44657846
_symmetry_Int_Tables_number   1
_chemical_formula_structural   Ce10Al3SiTc6
_chemical_formula_sum   'Ce10 Al3 Si1 Tc6'
_cell_volume   449.95088826
_cell_formula_units_Z   1
loop_
 _symmetry_equiv_pos_site_id
 _symmetry_equiv_pos_as_xyz
  1  'x, y, z'
loop_
 _atom_site_type_symbol
 _atom_site_label
 _atom_site_symmetry_multiplicity
 _atom_site_fract_x
 _atom_site_fract_y
 _atom_site_fract_z
 _atom_site_occupancy
  Ce  Ce0  1  0.772288  0.772288  0.772288  1
  Ce  Ce1  1  0.309432  0.556758  0.746634  1
  Ce  Ce2  1  0.746634  0.309432  0.556758  1
  Ce  Ce3  1  0.556758  0.746634  0.309432  1
  Ce  Ce4  1  0.715041  0.499728  0.004476  1
  Ce  Ce5  1  0.004476  0.715041  0.499728  1
  Ce  Ce6  1  0.499728  0.004476  0.715041  1
  Ce  Ce7  1  0.245604  0.194475  0.950487  1
  Ce  Ce8  1  0.950487  0.245604  0.194475  1
  Ce  Ce9  1  0.194475  0.950487  0.245604  1
  Al  Al10  1  0.092150  0.502289  0.999273  1
  Al  Al11  1  0.999273  0.092150  0.502289  1
  Al  Al12  1  0.502289  0.999273  0.092150  1
  Si  Si13  1  0.397161  0.397161  0.397161  1
  Tc  Tc14  1  0.870633  0.122969  0.751967  1
  Tc  Tc15  1  0.751967  0.870633  0.122969  1
  Tc  Tc16  1  0.122969  0.751967  0.870633  1
  Tc  Tc17  1  0.263074  0.626782  0.378783  1
  Tc  Tc18  1  0.378783  0.263074  0.626782  1
  Tc  Tc19  1  0.626782  0.378783  0.263074  1
