# generated using pymatgen
data_Pr3MgCd2Si2Ag
_symmetry_space_group_name_H-M   'P 1'
_cell_length_a   7.46308158
_cell_length_b   7.41886477
_cell_length_c   4.51462100
_cell_angle_alpha   90.00000000
_cell_angle_beta   90.00000000
_cell_angle_gamma   119.80420509
_symmetry_Int_Tables_number   1
_chemical_formula_structural   Pr3MgCd2Si2Ag
_chemical_formula_sum   'Pr3 Mg1 Cd2 Si2 Ag1'
_cell_volume   216.90074388
_cell_formula_units_Z   1
loop_
 _symmetry_equiv_pos_site_id
 _symmetry_equiv_pos_as_xyz
  1  'x, y, z'
loop_
 _atom_site_type_symbol
 _atom_site_label
 _atom_site_symmetry_multiplicity
 _atom_site_fract_x
 _atom_site_fract_y
 _atom_site_fract_z
 _atom_site_occupancy
  Pr  Pr0  1  0.422570  0.421075  0.500000  1
  Pr  Pr1  1  0.577430  0.998505  0.500000  1
  Pr  Pr2  1  0.000000  0.581451  0.500000  1
  Mg  Mg3  1  0.000000  0.241709  0.000000  1
  Cd  Cd4  1  0.750875  0.751616  0.000000  1
  Cd  Cd5  1  0.249125  0.000742  0.000000  1
  Si  Si6  1  0.670005  0.333838  0.000000  1
  Si  Si7  1  0.329995  0.663834  0.000000  1
  Ag  Ag8  1  0.000000  0.007230  0.500000  1
