# generated using pymatgen
data_Tm2Lu10ZnCo4Bi
_symmetry_space_group_name_H-M   'P 1'
_cell_length_a   8.17703099
_cell_length_b   8.19399455
_cell_length_c   8.19399362
_cell_angle_alpha   111.28478914
_cell_angle_beta   110.03197559
_cell_angle_gamma   107.20390059
_symmetry_Int_Tables_number   1
_chemical_formula_structural   Tm2Lu10ZnCo4Bi
_chemical_formula_sum   'Tm2 Lu10 Zn1 Co4 Bi1'
_cell_volume   421.65686402
_cell_formula_units_Z   1
loop_
 _symmetry_equiv_pos_site_id
 _symmetry_equiv_pos_as_xyz
  1  'x, y, z'
loop_
 _atom_site_type_symbol
 _atom_site_label
 _atom_site_symmetry_multiplicity
 _atom_site_fract_x
 _atom_site_fract_y
 _atom_site_fract_z
 _atom_site_occupancy
  Tm  Tm0  1  0.987589  0.778944  0.208644  1
  Tm  Tm1  1  0.012411  0.221056  0.791356  1
  Lu  Lu2  1  0.818555  0.715845  0.534758  1
  Lu  Lu3  1  0.181445  0.284155  0.465242  1
  Lu  Lu4  1  0.181445  0.716203  0.897290  1
  Lu  Lu5  1  0.818555  0.283797  0.102710  1
  Lu  Lu6  1  0.684951  0.379466  0.691726  1
  Lu  Lu7  1  0.315049  0.620534  0.308274  1
  Lu  Lu8  1  0.684951  0.993225  0.305485  1
  Lu  Lu9  1  0.315049  0.006775  0.694515  1
  Lu  Lu10  1  0.570587  0.778710  0.791877  1
  Lu  Lu11  1  0.429413  0.221290  0.208123  1
  Zn  Zn12  1  0.000000  0.000000  0.000000  1
  Co  Co13  1  0.621936  0.998916  0.623020  1
  Co  Co14  1  0.378064  0.001084  0.376980  1
  Co  Co15  1  0.113962  0.613496  0.500466  1
  Co  Co16  1  0.886038  0.386504  0.499534  1
  Bi  Bi17  1  0.500000  0.500000  0.000000  1
