# generated using pymatgen
data_Ce5AgBi3
_symmetry_space_group_name_H-M   'P 1'
_cell_length_a   6.48860400
_cell_length_b   9.68601384
_cell_length_c   9.68601300
_cell_angle_alpha   120.00000055
_cell_angle_beta   90.00000000
_cell_angle_gamma   90.00000000
_symmetry_Int_Tables_number   1
_chemical_formula_structural   Ce5AgBi3
_chemical_formula_sum   'Ce10 Ag2 Bi6'
_cell_volume   527.19590968
_cell_formula_units_Z   2
loop_
 _symmetry_equiv_pos_site_id
 _symmetry_equiv_pos_as_xyz
  1  'x, y, z'
loop_
 _atom_site_type_symbol
 _atom_site_label
 _atom_site_symmetry_multiplicity
 _atom_site_fract_x
 _atom_site_fract_y
 _atom_site_fract_z
 _atom_site_occupancy
  Ce  Ce0  1  0.750000  0.720016  0.720016  1
  Ce  Ce1  1  0.250000  0.279984  0.279984  1
  Ce  Ce2  1  0.750000  0.000000  0.279984  1
  Ce  Ce3  1  0.250000  0.000000  0.720016  1
  Ce  Ce4  1  0.750000  0.279984  0.000000  1
  Ce  Ce5  1  0.250000  0.720016  0.000000  1
  Ce  Ce6  1  0.000000  0.666667  0.333333  1
  Ce  Ce7  1  0.000000  0.333333  0.666667  1
  Ce  Ce8  1  0.500000  0.333333  0.666667  1
  Ce  Ce9  1  0.500000  0.666667  0.333333  1
  Ag  Ag10  1  0.000000  0.000000  0.000000  1
  Ag  Ag11  1  0.500000  0.000000  0.000000  1
  Bi  Bi12  1  0.750000  0.372675  0.372675  1
  Bi  Bi13  1  0.250000  0.627325  0.627325  1
  Bi  Bi14  1  0.750000  0.000000  0.627325  1
  Bi  Bi15  1  0.250000  0.000000  0.372675  1
  Bi  Bi16  1  0.750000  0.627325  0.000000  1
  Bi  Bi17  1  0.250000  0.372675  0.000000  1
