# generated using pymatgen
data_Li3Nd4AlAu4
_symmetry_space_group_name_H-M   'P 1'
_cell_length_a   4.58158600
_cell_length_b   7.17126798
_cell_length_c   8.22189281
_cell_angle_alpha   89.79875530
_cell_angle_beta   90.00000000
_cell_angle_gamma   90.00000000
_symmetry_Int_Tables_number   1
_chemical_formula_structural   Li3Nd4AlAu4
_chemical_formula_sum   'Li3 Nd4 Al1 Au4'
_cell_volume   270.13504312
_cell_formula_units_Z   1
loop_
 _symmetry_equiv_pos_site_id
 _symmetry_equiv_pos_as_xyz
  1  'x, y, z'
loop_
 _atom_site_type_symbol
 _atom_site_label
 _atom_site_symmetry_multiplicity
 _atom_site_fract_x
 _atom_site_fract_y
 _atom_site_fract_z
 _atom_site_occupancy
  Li  Li0  1  0.250000  0.155768  0.927885  1
  Li  Li1  1  0.250000  0.648777  0.569327  1
  Li  Li2  1  0.750000  0.853855  0.069297  1
  Nd  Nd3  1  0.250000  0.019623  0.306821  1
  Nd  Nd4  1  0.250000  0.520174  0.193098  1
  Nd  Nd5  1  0.750000  0.985203  0.692906  1
  Nd  Nd6  1  0.750000  0.475445  0.806722  1
  Al  Al7  1  0.750000  0.344616  0.432921  1
  Au  Au8  1  0.250000  0.272000  0.598916  1
  Au  Au9  1  0.250000  0.770959  0.896411  1
  Au  Au10  1  0.750000  0.720600  0.397640  1
  Au  Au11  1  0.750000  0.232981  0.108057  1
