# generated using pymatgen
data_HoTm5Al24Os5Pd3
_symmetry_space_group_name_H-M   'P 1'
_cell_length_a   8.79323187
_cell_length_b   8.81099481
_cell_length_c   9.52217400
_cell_angle_alpha   90.15289956
_cell_angle_beta   89.68621245
_cell_angle_gamma   119.50446997
_symmetry_Int_Tables_number   1
_chemical_formula_structural   HoTm5Al24Os5Pd3
_chemical_formula_sum   'Ho1 Tm5 Al24 Os5 Pd3'
_cell_volume   642.06748176
_cell_formula_units_Z   1
loop_
 _symmetry_equiv_pos_site_id
 _symmetry_equiv_pos_as_xyz
  1  'x, y, z'
loop_
 _atom_site_type_symbol
 _atom_site_label
 _atom_site_symmetry_multiplicity
 _atom_site_fract_x
 _atom_site_fract_y
 _atom_site_fract_z
 _atom_site_occupancy
  Ho  Ho0  1  0.187210  0.382346  0.251116  1
  Tm  Tm1  1  0.812429  0.615436  0.748447  1
  Tm  Tm2  1  0.612238  0.814864  0.252551  1
  Tm  Tm3  1  0.387262  0.185178  0.747475  1
  Tm  Tm4  1  0.196218  0.809638  0.251947  1
  Tm  Tm5  1  0.804177  0.190820  0.747962  1
  Al  Al6  1  0.335357  0.671093  0.030684  1
  Al  Al7  1  0.664832  0.329119  0.968657  1
  Al  Al8  1  0.669240  0.331797  0.528800  1
  Al  Al9  1  0.330251  0.668262  0.471580  1
  Al  Al10  1  0.157827  0.325239  0.576660  1
  Al  Al11  1  0.842245  0.675127  0.424010  1
  Al  Al12  1  0.674218  0.841114  0.576521  1
  Al  Al13  1  0.836919  0.677024  0.079496  1
  Al  Al14  1  0.325949  0.158927  0.423798  1
  Al  Al15  1  0.163250  0.323116  0.919817  1
  Al  Al16  1  0.163871  0.835181  0.576585  1
  Al  Al17  1  0.325697  0.158827  0.076568  1
  Al  Al18  1  0.835766  0.164880  0.423923  1
  Al  Al19  1  0.674719  0.841103  0.922960  1
  Al  Al20  1  0.831420  0.159204  0.077907  1
  Al  Al21  1  0.168437  0.840890  0.921761  1
  Al  Al22  1  0.560779  0.125059  0.249772  1
  Al  Al23  1  0.439435  0.875250  0.750308  1
  Al  Al24  1  0.874691  0.438892  0.252649  1
  Al  Al25  1  0.125506  0.561572  0.747765  1
  Al  Al26  1  0.562368  0.438466  0.249541  1
  Al  Al27  1  0.438437  0.561862  0.750356  1
  Al  Al28  1  0.997143  0.000435  0.250298  1
  Al  Al29  1  0.001546  0.997564  0.749816  1
  Os  Os30  1  0.500163  0.000180  0.000033  1
  Os  Os31  1  0.499958  0.000086  0.499975  1
  Os  Os32  1  0.999594  0.500252  0.500569  1
  Os  Os33  1  0.000140  0.000214  0.000042  1
  Os  Os34  1  0.000111  0.000238  0.499979  1
  Pd  Pd35  1  0.999867  0.500223  0.999808  1
  Pd  Pd36  1  0.500447  0.500214  0.999720  1
  Pd  Pd37  1  0.500282  0.500304  0.500144  1
