# generated using pymatgen
data_HoErNp2(ZnPt)4
_symmetry_space_group_name_H-M   'P 1'
_cell_length_a   4.32931900
_cell_length_b   6.65439016
_cell_length_c   8.00699637
_cell_angle_alpha   90.02983865
_cell_angle_beta   90.00000000
_cell_angle_gamma   90.00000000
_symmetry_Int_Tables_number   1
_chemical_formula_structural   HoErNp2(ZnPt)4
_chemical_formula_sum   'Ho1 Er1 Np2 Zn4 Pt4'
_cell_volume   230.67334889
_cell_formula_units_Z   1
loop_
 _symmetry_equiv_pos_site_id
 _symmetry_equiv_pos_as_xyz
  1  'x, y, z'
loop_
 _atom_site_type_symbol
 _atom_site_label
 _atom_site_symmetry_multiplicity
 _atom_site_fract_x
 _atom_site_fract_y
 _atom_site_fract_z
 _atom_site_occupancy
  Ho  Ho0  1  0.750000  0.964886  0.691992  1
  Er  Er1  1  0.750000  0.464665  0.808358  1
  Np  Np2  1  0.250000  0.032991  0.307537  1
  Np  Np3  1  0.250000  0.532244  0.192293  1
  Zn  Zn4  1  0.250000  0.648978  0.566440  1
  Zn  Zn5  1  0.250000  0.149418  0.933405  1
  Zn  Zn6  1  0.750000  0.352413  0.441006  1
  Zn  Zn7  1  0.750000  0.851982  0.059099  1
  Pt  Pt8  1  0.250000  0.250817  0.610770  1
  Pt  Pt9  1  0.250000  0.749065  0.889621  1
  Pt  Pt10  1  0.750000  0.751130  0.378157  1
  Pt  Pt11  1  0.750000  0.251410  0.121321  1
