# generated using pymatgen
data_Ba2Sb4PdPt
_symmetry_space_group_name_H-M   'P 1'
_cell_length_a   9.75283943
_cell_length_b   9.75283991
_cell_length_c   4.97802700
_cell_angle_alpha   90.00000000
_cell_angle_beta   90.00000000
_cell_angle_gamma   150.72976005
_symmetry_Int_Tables_number   1
_chemical_formula_structural   Ba2Sb4PdPt
_chemical_formula_sum   'Ba2 Sb4 Pd1 Pt1'
_cell_volume   231.50778021
_cell_formula_units_Z   1
loop_
 _symmetry_equiv_pos_site_id
 _symmetry_equiv_pos_as_xyz
  1  'x, y, z'
loop_
 _atom_site_type_symbol
 _atom_site_label
 _atom_site_symmetry_multiplicity
 _atom_site_fract_x
 _atom_site_fract_y
 _atom_site_fract_z
 _atom_site_occupancy
  Ba  Ba0  1  0.394492  0.605508  0.750000  1
  Ba  Ba1  1  0.605907  0.394093  0.250000  1
  Sb  Sb2  1  0.042755  0.957245  0.750000  1
  Sb  Sb3  1  0.956367  0.043633  0.250000  1
  Sb  Sb4  1  0.249889  0.750111  0.250000  1
  Sb  Sb5  1  0.750916  0.249084  0.750000  1
  Pd  Pd6  1  0.186377  0.813623  0.750000  1
  Pt  Pt7  1  0.813297  0.186703  0.250000  1
