# generated using pymatgen
data_Tb(Pr2Rh)2
_symmetry_space_group_name_H-M   'P 1'
_cell_length_a   6.65330534
_cell_length_b   7.24961818
_cell_length_c   9.08157843
_cell_angle_alpha   96.57684789
_cell_angle_beta   111.48808942
_cell_angle_gamma   89.99999789
_symmetry_Int_Tables_number   1
_chemical_formula_structural   Tb(Pr2Rh)2
_chemical_formula_sum   'Tb2 Pr8 Rh4'
_cell_volume   404.49401424
_cell_formula_units_Z   2
loop_
 _symmetry_equiv_pos_site_id
 _symmetry_equiv_pos_as_xyz
  1  'x, y, z'
loop_
 _atom_site_type_symbol
 _atom_site_label
 _atom_site_symmetry_multiplicity
 _atom_site_fract_x
 _atom_site_fract_y
 _atom_site_fract_z
 _atom_site_occupancy
  Tb  Tb0  1  0.434356  0.750000  0.000000  1
  Tb  Tb1  1  0.565644  0.250000  0.000000  1
  Pr  Pr2  1  0.980930  0.922542  0.184297  1
  Pr  Pr3  1  0.796633  0.577458  0.815703  1
  Pr  Pr4  1  0.019070  0.077458  0.815703  1
  Pr  Pr5  1  0.203367  0.422542  0.184297  1
  Pr  Pr6  1  0.644774  0.812411  0.429545  1
  Pr  Pr7  1  0.215229  0.687589  0.570455  1
  Pr  Pr8  1  0.355226  0.187589  0.570455  1
  Pr  Pr9  1  0.784771  0.312411  0.429545  1
  Rh  Rh10  1  0.806041  0.570855  0.212045  1
  Rh  Rh11  1  0.593994  0.929145  0.787955  1
  Rh  Rh12  1  0.193959  0.429145  0.787955  1
  Rh  Rh13  1  0.406006  0.070855  0.212045  1
