# generated using pymatgen
data_Ac11Pr(Si7Br3)2
_symmetry_space_group_name_H-M   'P 1'
_cell_length_a   4.27586000
_cell_length_b   12.27540900
_cell_length_c   17.52342400
_cell_angle_alpha   90.00000000
_cell_angle_beta   90.00000000
_cell_angle_gamma   90.00000000
_symmetry_Int_Tables_number   1
_chemical_formula_structural   Ac11Pr(Si7Br3)2
_chemical_formula_sum   'Ac11 Pr1 Si14 Br6'
_cell_volume   919.76825800
_cell_formula_units_Z   1
loop_
 _symmetry_equiv_pos_site_id
 _symmetry_equiv_pos_as_xyz
  1  'x, y, z'
loop_
 _atom_site_type_symbol
 _atom_site_label
 _atom_site_symmetry_multiplicity
 _atom_site_fract_x
 _atom_site_fract_y
 _atom_site_fract_z
 _atom_site_occupancy
  Ac  Ac0  1  0.500000  0.345094  0.500000  1
  Ac  Ac1  1  0.000000  0.655187  0.000000  1
  Ac  Ac2  1  0.500000  0.359903  0.754422  1
  Ac  Ac3  1  0.000000  0.640914  0.742657  1
  Ac  Ac4  1  0.500000  0.359903  0.245578  1
  Ac  Ac5  1  0.000000  0.640914  0.257343  1
  Ac  Ac6  1  0.500000  0.066142  0.880354  1
  Ac  Ac7  1  0.000000  0.932455  0.619075  1
  Ac  Ac8  1  0.500000  0.066142  0.119646  1
  Ac  Ac9  1  0.000000  0.932455  0.380925  1
  Ac  Ac10  1  0.500000  0.359154  0.000000  1
  Pr  Pr11  1  0.000000  0.642146  0.500000  1
  Si  Si12  1  0.000000  0.155493  0.000000  1
  Si  Si13  1  0.500000  0.841046  0.500000  1
  Si  Si14  1  0.500000  0.561716  0.877072  1
  Si  Si15  1  0.000000  0.441744  0.619958  1
  Si  Si16  1  0.500000  0.561716  0.122928  1
  Si  Si17  1  0.000000  0.441744  0.380042  1
  Si  Si18  1  0.000000  0.257635  0.877379  1
  Si  Si19  1  0.500000  0.740420  0.619650  1
  Si  Si20  1  0.000000  0.257635  0.122621  1
  Si  Si21  1  0.500000  0.740420  0.380350  1
  Si  Si22  1  0.000000  0.457687  0.875126  1
  Si  Si23  1  0.500000  0.543606  0.621156  1
  Si  Si24  1  0.500000  0.543606  0.378844  1
  Si  Si25  1  0.000000  0.457687  0.124874  1
  Br  Br26  1  0.500000  0.106694  0.692293  1
  Br  Br27  1  0.000000  0.892446  0.806846  1
  Br  Br28  1  0.000000  0.136651  0.500000  1
  Br  Br29  1  0.500000  0.862497  0.000000  1
  Br  Br30  1  0.500000  0.106694  0.307707  1
  Br  Br31  1  0.000000  0.892446  0.193154  1
