# generated using pymatgen
data_Tb5In4PdAu
_symmetry_space_group_name_H-M   'P 1'
_cell_length_a   3.66651700
_cell_length_b   8.20871417
_cell_length_c   18.38916800
_cell_angle_alpha   90.01182390
_cell_angle_beta   90.00000000
_cell_angle_gamma   90.00000000
_symmetry_Int_Tables_number   1
_chemical_formula_structural   Tb5In4PdAu
_chemical_formula_sum   'Tb10 In8 Pd2 Au2'
_cell_volume   553.46595057
_cell_formula_units_Z   2
loop_
 _symmetry_equiv_pos_site_id
 _symmetry_equiv_pos_as_xyz
  1  'x, y, z'
loop_
 _atom_site_type_symbol
 _atom_site_label
 _atom_site_symmetry_multiplicity
 _atom_site_fract_x
 _atom_site_fract_y
 _atom_site_fract_z
 _atom_site_occupancy
  Tb  Tb0  1  0.500000  0.246949  0.783437  1
  Tb  Tb1  1  0.500000  0.753051  0.216563  1
  Tb  Tb2  1  0.500000  0.268187  0.280683  1
  Tb  Tb3  1  0.500000  0.731813  0.719317  1
  Tb  Tb4  1  0.500000  0.120167  0.580325  1
  Tb  Tb5  1  0.500000  0.879833  0.419675  1
  Tb  Tb6  1  0.500000  0.383503  0.082616  1
  Tb  Tb7  1  0.500000  0.616497  0.917384  1
  Tb  Tb8  1  0.500000  0.000000  0.000000  1
  Tb  Tb9  1  0.500000  0.500000  0.500000  1
  In  In10  1  0.000000  0.082273  0.148171  1
  In  In11  1  0.000000  0.917727  0.851829  1
  In  In12  1  0.000000  0.422473  0.649100  1
  In  In13  1  0.000000  0.577527  0.350900  1
  In  In14  1  0.000000  0.210190  0.432646  1
  In  In15  1  0.000000  0.789810  0.567354  1
  In  In16  1  0.000000  0.291610  0.932734  1
  In  In17  1  0.000000  0.708390  0.067266  1
  Pd  Pd18  1  0.000000  0.474011  0.196126  1
  Pd  Pd19  1  0.000000  0.525989  0.803874  1
  Au  Au20  1  0.000000  0.027018  0.697651  1
  Au  Au21  1  0.000000  0.972982  0.302349  1
