# generated using pymatgen
data_Tb2Er6Ti12Si15As
_symmetry_space_group_name_H-M   'P 1'
_cell_length_a   7.04091810
_cell_length_b   7.03396270
_cell_length_c   12.93072495
_cell_angle_alpha   89.95805425
_cell_angle_beta   89.79358119
_cell_angle_gamma   89.92237840
_symmetry_Int_Tables_number   1
_chemical_formula_structural   Tb2Er6Ti12Si15As
_chemical_formula_sum   'Tb2 Er6 Ti12 Si15 As1'
_cell_volume   640.39642079
_cell_formula_units_Z   1
loop_
 _symmetry_equiv_pos_site_id
 _symmetry_equiv_pos_as_xyz
  1  'x, y, z'
loop_
 _atom_site_type_symbol
 _atom_site_label
 _atom_site_symmetry_multiplicity
 _atom_site_fract_x
 _atom_site_fract_y
 _atom_site_fract_z
 _atom_site_occupancy
  Tb  Tb0  1  0.340759  0.002431  0.465928  1
  Tb  Tb1  1  0.496862  0.841849  0.717642  1
  Er  Er2  1  0.501646  0.158613  0.216281  1
  Er  Er3  1  0.840417  0.497459  0.282856  1
  Er  Er4  1  0.158679  0.500759  0.783558  1
  Er  Er5  1  0.661143  0.995664  0.967914  1
  Er  Er6  1  0.998533  0.343627  0.531765  1
  Er  Er7  1  0.998962  0.658891  0.033509  1
  Ti  Ti8  1  0.326512  0.327006  0.999983  1
  Ti  Ti9  1  0.172906  0.826897  0.249824  1
  Ti  Ti10  1  0.824025  0.173979  0.750344  1
  Ti  Ti11  1  0.672553  0.672562  0.500090  1
  Ti  Ti12  1  0.154364  0.009603  0.875440  1
  Ti  Ti13  1  0.491887  0.651308  0.125258  1
  Ti  Ti14  1  0.509142  0.347474  0.627009  1
  Ti  Ti15  1  0.654959  0.495144  0.875595  1
  Ti  Ti16  1  0.346975  0.507544  0.373931  1
  Ti  Ti17  1  0.847148  0.992513  0.375314  1
  Ti  Ti18  1  0.007998  0.151231  0.124212  1
  Ti  Ti19  1  0.989771  0.844128  0.623287  1
  Si  Si20  1  0.368505  0.703301  0.933718  1
  Si  Si21  1  0.630662  0.298414  0.433917  1
  Si  Si22  1  0.703945  0.369003  0.067011  1
  Si  Si23  1  0.295547  0.628355  0.566122  1
  Si  Si24  1  0.796763  0.868725  0.183726  1
  Si  Si25  1  0.129647  0.203950  0.315673  1
  Si  Si26  1  0.871662  0.797225  0.816417  1
  Si  Si27  1  0.291680  0.953051  0.064453  1
  Si  Si28  1  0.547437  0.789910  0.313787  1
  Si  Si29  1  0.462212  0.212397  0.820082  1
  Si  Si30  1  0.791956  0.545686  0.685531  1
  Si  Si31  1  0.208398  0.453118  0.185421  1
  Si  Si32  1  0.710108  0.047544  0.563995  1
  Si  Si33  1  0.954202  0.291315  0.935664  1
  Si  Si34  1  0.045265  0.708330  0.434623  1
  As  As35  1  0.196766  0.130992  0.680122  1
