# generated using pymatgen
data_CeHo3(TaOs3)2
_symmetry_space_group_name_H-M   'P 1'
_cell_length_a   5.60923200
_cell_length_b   5.60923128
_cell_length_c   8.38319100
_cell_angle_alpha   90.00000000
_cell_angle_beta   90.00000000
_cell_angle_gamma   120.00001604
_symmetry_Int_Tables_number   1
_chemical_formula_structural   CeHo3(TaOs3)2
_chemical_formula_sum   'Ce1 Ho3 Ta2 Os6'
_cell_volume   228.42659858
_cell_formula_units_Z   1
loop_
 _symmetry_equiv_pos_site_id
 _symmetry_equiv_pos_as_xyz
  1  'x, y, z'
loop_
 _atom_site_type_symbol
 _atom_site_label
 _atom_site_symmetry_multiplicity
 _atom_site_fract_x
 _atom_site_fract_y
 _atom_site_fract_z
 _atom_site_occupancy
  Ce  Ce0  1  0.333333  0.666667  0.435505  1
  Ho  Ho1  1  0.666667  0.333333  0.564806  1
  Ho  Ho2  1  0.666667  0.333333  0.935275  1
  Ho  Ho3  1  0.333333  0.666667  0.065498  1
  Ta  Ta4  1  0.000000  0.000000  0.499019  1
  Ta  Ta5  1  0.000000  0.000000  0.999206  1
  Os  Os6  1  0.826135  0.173865  0.249865  1
  Os  Os7  1  0.826135  0.652271  0.249865  1
  Os  Os8  1  0.347729  0.173865  0.249865  1
  Os  Os9  1  0.173628  0.826372  0.750365  1
  Os  Os10  1  0.173628  0.347255  0.750365  1
  Os  Os11  1  0.652745  0.826372  0.750365  1
