# generated using pymatgen
data_HoTmB8MoIr
_symmetry_space_group_name_H-M   'P 1'
_cell_length_a   3.58084800
_cell_length_b   5.98153556
_cell_length_c   11.58840173
_cell_angle_alpha   89.71564667
_cell_angle_beta   90.00000000
_cell_angle_gamma   90.00000000
_symmetry_Int_Tables_number   1
_chemical_formula_structural   HoTmB8MoIr
_chemical_formula_sum   'Ho2 Tm2 B16 Mo2 Ir2'
_cell_volume   248.20856798
_cell_formula_units_Z   2
loop_
 _symmetry_equiv_pos_site_id
 _symmetry_equiv_pos_as_xyz
  1  'x, y, z'
loop_
 _atom_site_type_symbol
 _atom_site_label
 _atom_site_symmetry_multiplicity
 _atom_site_fract_x
 _atom_site_fract_y
 _atom_site_fract_z
 _atom_site_occupancy
  Ho  Ho0  1  0.000000  0.129819  0.148996  1
  Ho  Ho1  1  0.000000  0.870181  0.851004  1
  Tm  Tm2  1  0.000000  0.627177  0.350145  1
  Tm  Tm3  1  0.000000  0.372823  0.649855  1
  B  B4  1  0.500000  0.789401  0.186437  1
  B  B5  1  0.500000  0.210599  0.813563  1
  B  B6  1  0.500000  0.291352  0.312316  1
  B  B7  1  0.500000  0.708648  0.687684  1
  B  B8  1  0.500000  0.864403  0.030627  1
  B  B9  1  0.500000  0.135597  0.969373  1
  B  B10  1  0.500000  0.368163  0.467801  1
  B  B11  1  0.500000  0.631837  0.532199  1
  B  B12  1  0.500000  0.884560  0.452957  1
  B  B13  1  0.500000  0.115440  0.547043  1
  B  B14  1  0.500000  0.387146  0.047168  1
  B  B15  1  0.500000  0.612854  0.952832  1
  B  B16  1  0.500000  0.975599  0.305757  1
  B  B17  1  0.500000  0.024401  0.694243  1
  B  B18  1  0.500000  0.475219  0.191890  1
  B  B19  1  0.500000  0.524781  0.808110  1
  Mo  Mo20  1  0.000000  0.128754  0.414086  1
  Mo  Mo21  1  0.000000  0.871246  0.585914  1
  Ir  Ir22  1  0.000000  0.645350  0.095414  1
  Ir  Ir23  1  0.000000  0.354650  0.904586  1
