# generated using pymatgen
data_Ti2Nb(WN3)2
_symmetry_space_group_name_H-M   'P 1'
_cell_length_a   5.09594086
_cell_length_b   5.10812437
_cell_length_c   10.30331700
_cell_angle_alpha   90.00000000
_cell_angle_beta   90.00000000
_cell_angle_gamma   120.07911925
_symmetry_Int_Tables_number   1
_chemical_formula_structural   Ti2Nb(WN3)2
_chemical_formula_sum   'Ti4 Nb2 W4 N12'
_cell_volume   232.08482146
_cell_formula_units_Z   2
loop_
 _symmetry_equiv_pos_site_id
 _symmetry_equiv_pos_as_xyz
  1  'x, y, z'
loop_
 _atom_site_type_symbol
 _atom_site_label
 _atom_site_symmetry_multiplicity
 _atom_site_fract_x
 _atom_site_fract_y
 _atom_site_fract_z
 _atom_site_occupancy
  Ti  Ti0  1  0.333298  0.666650  0.500000  1
  Ti  Ti1  1  0.663010  0.331505  0.000000  1
  Ti  Ti2  1  0.663010  0.331505  0.500000  1
  Ti  Ti3  1  0.333298  0.666650  0.000000  1
  Nb  Nb4  1  0.327374  0.327056  0.750000  1
  Nb  Nb5  1  0.327374  0.000318  0.250000  1
  W  W6  1  0.674291  0.999409  0.750000  1
  W  W7  1  0.674291  0.674881  0.250000  1
  W  W8  1  0.999984  0.325603  0.250000  1
  W  W9  1  0.999984  0.674381  0.750000  1
  N  N10  1  0.342583  0.348798  0.377060  1
  N  N11  1  0.664628  0.000233  0.377784  1
  N  N12  1  0.993810  0.650208  0.377325  1
  N  N13  1  0.993810  0.343602  0.877325  1
  N  N14  1  0.664628  0.000233  0.122216  1
  N  N15  1  0.664628  0.664395  0.877784  1
  N  N16  1  0.342583  0.993785  0.877060  1
  N  N17  1  0.664628  0.664395  0.622216  1
  N  N18  1  0.993810  0.343602  0.622675  1
  N  N19  1  0.993810  0.650208  0.122675  1
  N  N20  1  0.342583  0.993785  0.622940  1
  N  N21  1  0.342583  0.348798  0.122940  1
