# generated using pymatgen
data_ZrAg2AsF12
_symmetry_space_group_name_H-M   'P 1'
_cell_length_a   5.59015576
_cell_length_b   5.92446507
_cell_length_c   8.25198882
_cell_angle_alpha   96.05698830
_cell_angle_beta   89.69157157
_cell_angle_gamma   90.19373318
_symmetry_Int_Tables_number   1
_chemical_formula_structural   ZrAg2AsF12
_chemical_formula_sum   'Zr1 Ag2 As1 F12'
_cell_volume   271.76428602
_cell_formula_units_Z   1
loop_
 _symmetry_equiv_pos_site_id
 _symmetry_equiv_pos_as_xyz
  1  'x, y, z'
loop_
 _atom_site_type_symbol
 _atom_site_label
 _atom_site_symmetry_multiplicity
 _atom_site_fract_x
 _atom_site_fract_y
 _atom_site_fract_z
 _atom_site_occupancy
  Zr  Zr0  1  0.000000  0.000000  0.500000  1
  Ag  Ag1  1  0.000000  0.000000  0.000000  1
  Ag  Ag2  1  0.500000  0.500000  0.500000  1
  As  As3  1  0.500000  0.500000  0.000000  1
  F  F4  1  0.912423  0.004914  0.740087  1
  F  F5  1  0.183203  0.298662  0.548591  1
  F  F6  1  0.248575  0.642838  0.926845  1
  F  F7  1  0.354562  0.492268  0.191103  1
  F  F8  1  0.368052  0.233816  0.929170  1
  F  F9  1  0.301305  0.819564  0.539997  1
  F  F10  1  0.698695  0.180436  0.460003  1
  F  F11  1  0.631948  0.766184  0.070830  1
  F  F12  1  0.645438  0.507732  0.808897  1
  F  F13  1  0.751425  0.357162  0.073155  1
  F  F14  1  0.816797  0.701338  0.451409  1
  F  F15  1  0.087577  0.995086  0.259913  1
