# generated using pymatgen
data_Lu8Ti6Nb3Si16Mo3
_symmetry_space_group_name_H-M   'P 1'
_cell_length_a   6.75551339
_cell_length_b   6.93903515
_cell_length_c   13.17040309
_cell_angle_alpha   89.98981200
_cell_angle_beta   90.00897138
_cell_angle_gamma   90.02577707
_symmetry_Int_Tables_number   1
_chemical_formula_structural   Lu8Ti6Nb3Si16Mo3
_chemical_formula_sum   'Lu8 Ti6 Nb3 Si16 Mo3'
_cell_volume   617.38554549
_cell_formula_units_Z   1
loop_
 _symmetry_equiv_pos_site_id
 _symmetry_equiv_pos_as_xyz
  1  'x, y, z'
loop_
 _atom_site_type_symbol
 _atom_site_label
 _atom_site_symmetry_multiplicity
 _atom_site_fract_x
 _atom_site_fract_y
 _atom_site_fract_z
 _atom_site_occupancy
  Lu  Lu0  1  0.501826  0.328052  0.096417  1
  Lu  Lu1  1  0.002349  0.172464  0.403323  1
  Lu  Lu2  1  0.497357  0.673075  0.595560  1
  Lu  Lu3  1  0.997235  0.826282  0.904517  1
  Lu  Lu4  1  0.498031  0.671778  0.904414  1
  Lu  Lu5  1  0.998534  0.827589  0.595520  1
  Lu  Lu6  1  0.501473  0.327609  0.403723  1
  Lu  Lu7  1  0.001986  0.172865  0.096244  1
  Ti  Ti8  1  0.833804  0.328108  0.625862  1
  Ti  Ti9  1  0.332917  0.173216  0.874481  1
  Ti  Ti10  1  0.166056  0.671723  0.127313  1
  Ti  Ti11  1  0.666295  0.827859  0.372246  1
  Ti  Ti12  1  0.165563  0.671845  0.372236  1
  Ti  Ti13  1  0.665711  0.827743  0.128036  1
  Nb  Nb14  1  0.833541  0.327088  0.873786  1
  Nb  Nb15  1  0.334428  0.173687  0.625924  1
  Nb  Nb16  1  0.661183  0.008504  0.750222  1
  Si  Si17  1  0.664075  0.036673  0.539873  1
  Si  Si18  1  0.163711  0.462671  0.958517  1
  Si  Si19  1  0.338528  0.962019  0.043384  1
  Si  Si20  1  0.838277  0.538131  0.457011  1
  Si  Si21  1  0.338092  0.959847  0.455888  1
  Si  Si22  1  0.837882  0.540346  0.043878  1
  Si  Si23  1  0.661099  0.035156  0.960345  1
  Si  Si24  1  0.160848  0.464125  0.541356  1
  Si  Si25  1  0.534372  0.381768  0.750138  1
  Si  Si26  1  0.038670  0.120991  0.749756  1
  Si  Si27  1  0.463675  0.622267  0.249944  1
  Si  Si28  1  0.964559  0.878089  0.250055  1
  Si  Si29  1  0.796986  0.629788  0.748963  1
  Si  Si30  1  0.293038  0.866337  0.751149  1
  Si  Si31  1  0.203930  0.369183  0.250234  1
  Si  Si32  1  0.703974  0.131327  0.249709  1
  Mo  Mo33  1  0.160028  0.491378  0.749782  1
  Mo  Mo34  1  0.340026  0.990766  0.249909  1
  Mo  Mo35  1  0.839941  0.509653  0.250287  1
