# generated using pymatgen
data_Sr21Al7GaSn6Bi
_symmetry_space_group_name_H-M   'P 1'
_cell_length_a   12.21400546
_cell_length_b   12.21400663
_cell_length_c   12.21400487
_cell_angle_alpha   59.89374238
_cell_angle_beta   59.89374241
_cell_angle_gamma   59.89373985
_symmetry_Int_Tables_number   1
_chemical_formula_structural   Sr21Al7GaSn6Bi
_chemical_formula_sum   'Sr21 Al7 Ga1 Sn6 Bi1'
_cell_volume   1285.31954821
_cell_formula_units_Z   1
loop_
 _symmetry_equiv_pos_site_id
 _symmetry_equiv_pos_as_xyz
  1  'x, y, z'
loop_
 _atom_site_type_symbol
 _atom_site_label
 _atom_site_symmetry_multiplicity
 _atom_site_fract_x
 _atom_site_fract_y
 _atom_site_fract_z
 _atom_site_occupancy
  Sr  Sr0  1  0.871137  0.871137  0.386130  1
  Sr  Sr1  1  0.612414  0.129798  0.129798  1
  Sr  Sr2  1  0.871137  0.386130  0.871137  1
  Sr  Sr3  1  0.128873  0.128873  0.128873  1
  Sr  Sr4  1  0.386130  0.871137  0.871137  1
  Sr  Sr5  1  0.871252  0.871252  0.871252  1
  Sr  Sr6  1  0.179675  0.820260  0.500062  1
  Sr  Sr7  1  0.820212  0.500158  0.500158  1
  Sr  Sr8  1  0.129798  0.129798  0.612414  1
  Sr  Sr9  1  0.820260  0.179675  0.500062  1
  Sr  Sr10  1  0.179332  0.498886  0.498886  1
  Sr  Sr11  1  0.129798  0.612414  0.129798  1
  Sr  Sr12  1  0.498886  0.498886  0.179332  1
  Sr  Sr13  1  0.500062  0.179675  0.820260  1
  Sr  Sr14  1  0.500062  0.820260  0.179675  1
  Sr  Sr15  1  0.500158  0.500158  0.820212  1
  Sr  Sr16  1  0.498886  0.179332  0.498886  1
  Sr  Sr17  1  0.179675  0.500062  0.820260  1
  Sr  Sr18  1  0.999910  0.999910  0.999910  1
  Sr  Sr19  1  0.500158  0.820212  0.500158  1
  Sr  Sr20  1  0.820260  0.500062  0.179675  1
  Al  Al21  1  0.693988  0.917798  0.693988  1
  Al  Al22  1  0.693988  0.693988  0.917798  1
  Al  Al23  1  0.694139  0.694139  0.694139  1
  Al  Al24  1  0.305899  0.083251  0.305899  1
  Al  Al25  1  0.917798  0.693988  0.693988  1
  Al  Al26  1  0.305899  0.305899  0.083251  1
  Al  Al27  1  0.083251  0.305899  0.305899  1
  Ga  Ga28  1  0.306973  0.306973  0.306973  1
  Sn  Sn29  1  0.786920  0.212804  0.786920  1
  Sn  Sn30  1  0.786951  0.213293  0.213293  1
  Sn  Sn31  1  0.213293  0.786951  0.213293  1
  Sn  Sn32  1  0.212804  0.786920  0.786920  1
  Sn  Sn33  1  0.786920  0.786920  0.212804  1
  Sn  Sn34  1  0.213293  0.213293  0.786951  1
  Bi  Bi35  1  0.499808  0.499808  0.499808  1
