# generated using pymatgen
data_Tb3Nd2SmNiBr10
_symmetry_space_group_name_H-M   'P 1'
_cell_length_a   7.41988174
_cell_length_b   9.32463670
_cell_length_c   9.46785648
_cell_angle_alpha   108.18447479
_cell_angle_beta   96.20943302
_cell_angle_gamma   105.96118601
_symmetry_Int_Tables_number   1
_chemical_formula_structural   Tb3Nd2SmNiBr10
_chemical_formula_sum   'Tb3 Nd2 Sm1 Ni1 Br10'
_cell_volume   584.70287044
_cell_formula_units_Z   1
loop_
 _symmetry_equiv_pos_site_id
 _symmetry_equiv_pos_as_xyz
  1  'x, y, z'
loop_
 _atom_site_type_symbol
 _atom_site_label
 _atom_site_symmetry_multiplicity
 _atom_site_fract_x
 _atom_site_fract_y
 _atom_site_fract_z
 _atom_site_occupancy
  Tb  Tb0  1  0.028585  0.706969  0.907720  1
  Tb  Tb1  1  0.353872  0.131246  0.171637  1
  Tb  Tb2  1  0.646150  0.866968  0.828003  1
  Nd  Nd3  1  0.128524  0.047473  0.754210  1
  Nd  Nd4  1  0.870499  0.952702  0.245321  1
  Sm  Sm5  1  0.972186  0.296929  0.093499  1
  Ni  Ni6  1  0.999605  0.000818  0.999905  1
  Br  Br7  1  0.551513  0.174952  0.918034  1
  Br  Br8  1  0.445184  0.822314  0.079805  1
  Br  Br9  1  0.358311  0.450140  0.269407  1
  Br  Br10  1  0.649556  0.549322  0.732675  1
  Br  Br11  1  0.258453  0.083304  0.448016  1
  Br  Br12  1  0.740604  0.916054  0.552121  1
  Br  Br13  1  0.774323  0.256506  0.342044  1
  Br  Br14  1  0.221813  0.739990  0.661363  1
  Br  Br15  1  0.084004  0.374894  0.828440  1
  Br  Br16  1  0.916817  0.629420  0.167800  1
