# generated using pymatgen
data_Tb5Nd3(SBr6)2
_symmetry_space_group_name_H-M   'P 1'
_cell_length_a   4.05295200
_cell_length_b   13.28316414
_cell_length_c   13.98667900
_cell_angle_alpha   89.75429859
_cell_angle_beta   90.00000000
_cell_angle_gamma   90.00000000
_symmetry_Int_Tables_number   1
_chemical_formula_structural   Tb5Nd3(SBr6)2
_chemical_formula_sum   'Tb5 Nd3 S2 Br12'
_cell_volume   752.98029984
_cell_formula_units_Z   1
loop_
 _symmetry_equiv_pos_site_id
 _symmetry_equiv_pos_as_xyz
  1  'x, y, z'
loop_
 _atom_site_type_symbol
 _atom_site_label
 _atom_site_symmetry_multiplicity
 _atom_site_fract_x
 _atom_site_fract_y
 _atom_site_fract_z
 _atom_site_occupancy
  Tb  Tb0  1  0.500000  0.116243  0.344976  1
  Tb  Tb1  1  0.500000  0.884256  0.654952  1
  Tb  Tb2  1  0.500000  0.615338  0.153840  1
  Tb  Tb3  1  0.500000  0.384852  0.845879  1
  Tb  Tb4  1  0.000000  0.385978  0.076382  1
  Nd  Nd5  1  0.000000  0.116207  0.577588  1
  Nd  Nd6  1  0.000000  0.884142  0.421327  1
  Nd  Nd7  1  0.000000  0.613483  0.923681  1
  S  S8  1  0.500000  0.000035  0.499618  1
  S  S9  1  0.500000  0.494993  0.003281  1
  Br  Br10  1  0.500000  0.248588  0.162368  1
  Br  Br11  1  0.500000  0.758520  0.835096  1
  Br  Br12  1  0.500000  0.738036  0.334104  1
  Br  Br13  1  0.500000  0.259844  0.667322  1
  Br  Br14  1  0.000000  0.256871  0.407346  1
  Br  Br15  1  0.000000  0.743791  0.591756  1
  Br  Br16  1  0.000000  0.756288  0.091292  1
  Br  Br17  1  0.000000  0.246054  0.915313  1
  Br  Br18  1  0.000000  0.008039  0.238816  1
  Br  Br19  1  0.000000  0.994278  0.760023  1
  Br  Br20  1  0.000000  0.499617  0.254664  1
  Br  Br21  1  0.000000  0.494545  0.740375  1
