# generated using pymatgen
data_Sr4Eu2Al3GaP8
_symmetry_space_group_name_H-M   'P 1'
_cell_length_a   8.29192384
_cell_length_b   8.28997370
_cell_length_c   6.66260473
_cell_angle_alpha   89.24792970
_cell_angle_beta   89.41884600
_cell_angle_gamma   76.21636385
_symmetry_Int_Tables_number   1
_chemical_formula_structural   Sr4Eu2Al3GaP8
_chemical_formula_sum   'Sr4 Eu2 Al3 Ga1 P8'
_cell_volume   444.74747447
_cell_formula_units_Z   1
loop_
 _symmetry_equiv_pos_site_id
 _symmetry_equiv_pos_as_xyz
  1  'x, y, z'
loop_
 _atom_site_type_symbol
 _atom_site_label
 _atom_site_symmetry_multiplicity
 _atom_site_fract_x
 _atom_site_fract_y
 _atom_site_fract_z
 _atom_site_occupancy
  Sr  Sr0  1  0.008078  0.746864  0.540852  1
  Sr  Sr1  1  0.252320  0.994143  0.960101  1
  Sr  Sr2  1  0.992722  0.253781  0.457336  1
  Sr  Sr3  1  0.747240  0.004760  0.040721  1
  Eu  Eu4  1  0.401957  0.598338  0.250653  1
  Eu  Eu5  1  0.599480  0.400899  0.751837  1
  Al  Al6  1  0.421120  0.173817  0.418717  1
  Al  Al7  1  0.174633  0.420401  0.917961  1
  Al  Al8  1  0.578656  0.827749  0.580421  1
  Ga  Ga9  1  0.823823  0.580129  0.082643  1
  P  P10  1  0.061660  0.704533  0.027807  1
  P  P11  1  0.294379  0.940890  0.471064  1
  P  P12  1  0.941096  0.293285  0.969722  1
  P  P13  1  0.705743  0.059797  0.528096  1
  P  P14  1  0.734398  0.577297  0.427456  1
  P  P15  1  0.424386  0.265089  0.077202  1
  P  P16  1  0.265739  0.422877  0.576550  1
  P  P17  1  0.572571  0.735352  0.920861  1
