# generated using pymatgen
data_ErLu2Th(Al3Ir)6
_symmetry_space_group_name_H-M   'P 1'
_cell_length_a   7.56147887
_cell_length_b   7.57255782
_cell_length_c   9.43213800
_cell_angle_alpha   90.00000000
_cell_angle_beta   90.00000000
_cell_angle_gamma   119.46201095
_symmetry_Int_Tables_number   1
_chemical_formula_structural   ErLu2Th(Al3Ir)6
_chemical_formula_sum   'Er1 Lu2 Th1 Al18 Ir6'
_cell_volume   470.23944111
_cell_formula_units_Z   1
loop_
 _symmetry_equiv_pos_site_id
 _symmetry_equiv_pos_as_xyz
  1  'x, y, z'
loop_
 _atom_site_type_symbol
 _atom_site_label
 _atom_site_symmetry_multiplicity
 _atom_site_fract_x
 _atom_site_fract_y
 _atom_site_fract_z
 _atom_site_occupancy
  Er  Er0  1  0.673404  0.995132  0.250000  1
  Lu  Lu1  1  0.004066  0.327144  0.750000  1
  Lu  Lu2  1  0.326156  0.004925  0.750000  1
  Th  Th3  1  0.994584  0.671579  0.250000  1
  Al  Al4  1  0.132029  0.133772  0.250000  1
  Al  Al5  1  0.871977  0.874146  0.750000  1
  Al  Al6  1  0.001336  0.331129  0.071374  1
  Al  Al7  1  0.999845  0.663738  0.916756  1
  Al  Al8  1  0.999845  0.663738  0.583244  1
  Al  Al9  1  0.340719  0.005298  0.428486  1
  Al  Al10  1  0.001336  0.331129  0.428626  1
  Al  Al11  1  0.664107  0.000920  0.577835  1
  Al  Al12  1  0.664107  0.000920  0.922165  1
  Al  Al13  1  0.340719  0.005298  0.071514  1
  Al  Al14  1  0.331867  0.331942  0.556701  1
  Al  Al15  1  0.663129  0.666864  0.455486  1
  Al  Al16  1  0.663129  0.666864  0.044514  1
  Al  Al17  1  0.331867  0.331942  0.943299  1
  Al  Al18  1  0.344792  0.549084  0.250000  1
  Al  Al19  1  0.657344  0.447553  0.750000  1
  Al  Al20  1  0.544491  0.337068  0.250000  1
  Al  Al21  1  0.448083  0.659664  0.750000  1
  Ir  Ir22  1  0.673311  0.328869  0.999658  1
  Ir  Ir23  1  0.326362  0.671888  0.999725  1
  Ir  Ir24  1  0.326362  0.671888  0.500275  1
  Ir  Ir25  1  0.673311  0.328869  0.500342  1
  Ir  Ir26  1  0.000859  0.999318  0.999603  1
  Ir  Ir27  1  0.000859  0.999318  0.500397  1
