# generated using pymatgen
data_Dy7Ho3(In2Ni)4
_symmetry_space_group_name_H-M   'P 1'
_cell_length_a   3.60863800
_cell_length_b   8.02829854
_cell_length_c   17.98412926
_cell_angle_alpha   90.04249705
_cell_angle_beta   90.00000000
_cell_angle_gamma   90.00000000
_symmetry_Int_Tables_number   1
_chemical_formula_structural   Dy7Ho3(In2Ni)4
_chemical_formula_sum   'Dy7 Ho3 In8 Ni4'
_cell_volume   521.02207941
_cell_formula_units_Z   1
loop_
 _symmetry_equiv_pos_site_id
 _symmetry_equiv_pos_as_xyz
  1  'x, y, z'
loop_
 _atom_site_type_symbol
 _atom_site_label
 _atom_site_symmetry_multiplicity
 _atom_site_fract_x
 _atom_site_fract_y
 _atom_site_fract_z
 _atom_site_occupancy
  Dy  Dy0  1  0.500000  0.754302  0.721538  1
  Dy  Dy1  1  0.500000  0.254014  0.778557  1
  Dy  Dy2  1  0.500000  0.500000  0.999900  1
  Dy  Dy3  1  0.500000  0.746397  0.221487  1
  Dy  Dy4  1  0.500000  0.246312  0.278218  1
  Dy  Dy5  1  0.500000  0.999664  0.500219  1
  Dy  Dy6  1  0.500000  0.616285  0.411262  1
  Ho  Ho7  1  0.500000  0.383457  0.588977  1
  Ho  Ho8  1  0.500000  0.883019  0.911059  1
  Ho  Ho9  1  0.500000  0.117177  0.088775  1
  In  In10  1  0.000000  0.796540  0.068808  1
  In  In11  1  0.000000  0.927299  0.347678  1
  In  In12  1  0.000000  0.074719  0.652646  1
  In  In13  1  0.000000  0.572486  0.847475  1
  In  In14  1  0.000000  0.704381  0.568934  1
  In  In15  1  0.000000  0.204052  0.931032  1
  In  In16  1  0.000000  0.293474  0.431368  1
  In  In17  1  0.000000  0.426863  0.152336  1
  Ni  Ni18  1  0.000000  0.976459  0.804324  1
  Ni  Ni19  1  0.000000  0.523269  0.304196  1
  Ni  Ni20  1  0.000000  0.475987  0.695707  1
  Ni  Ni21  1  0.000000  0.023845  0.195505  1
