# generated using pymatgen
data_Yb2HoAl3CuSi2
_symmetry_space_group_name_H-M   'P 1'
_cell_length_a   6.89133904
_cell_length_b   6.89133915
_cell_length_c   4.29087200
_cell_angle_alpha   90.00000000
_cell_angle_beta   90.00000000
_cell_angle_gamma   120.83036608
_symmetry_Int_Tables_number   1
_chemical_formula_structural   Yb2HoAl3CuSi2
_chemical_formula_sum   'Yb2 Ho1 Al3 Cu1 Si2'
_cell_volume   174.97999365
_cell_formula_units_Z   1
loop_
 _symmetry_equiv_pos_site_id
 _symmetry_equiv_pos_as_xyz
  1  'x, y, z'
loop_
 _atom_site_type_symbol
 _atom_site_label
 _atom_site_symmetry_multiplicity
 _atom_site_fract_x
 _atom_site_fract_y
 _atom_site_fract_z
 _atom_site_occupancy
  Yb  Yb0  1  0.413313  0.999617  0.000000  1
  Yb  Yb1  1  0.999617  0.413312  0.000000  1
  Ho  Ho2  1  0.583565  0.583564  0.000000  1
  Al  Al3  1  0.759996  0.994380  0.499999  1
  Al  Al4  1  0.240955  0.240955  0.499999  1
  Al  Al5  1  0.994380  0.759996  0.499999  1
  Cu  Cu6  1  0.002057  0.002057  0.000000  1
  Si  Si7  1  0.665705  0.340413  0.499999  1
  Si  Si8  1  0.340413  0.665705  0.499999  1
