# generated using pymatgen
data_Er8Tm2Si5Sn
_symmetry_space_group_name_H-M   'P 1'
_cell_length_a   8.45514100
_cell_length_b   8.45513993
_cell_length_c   6.29947500
_cell_angle_alpha   89.99967594
_cell_angle_beta   89.99967365
_cell_angle_gamma   120.18257809
_symmetry_Int_Tables_number   1
_chemical_formula_structural   Er8Tm2Si5Sn
_chemical_formula_sum   'Er8 Tm2 Si5 Sn1'
_cell_volume   389.29129584
_cell_formula_units_Z   1
loop_
 _symmetry_equiv_pos_site_id
 _symmetry_equiv_pos_as_xyz
  1  'x, y, z'
loop_
 _atom_site_type_symbol
 _atom_site_label
 _atom_site_symmetry_multiplicity
 _atom_site_fract_x
 _atom_site_fract_y
 _atom_site_fract_z
 _atom_site_occupancy
  Er  Er0  1  0.673632  0.331603  0.503053  1
  Er  Er1  1  0.331603  0.673632  0.503053  1
  Er  Er2  1  0.765622  0.765622  0.249939  1
  Er  Er3  1  0.240071  0.989376  0.249938  1
  Er  Er4  1  0.989376  0.240071  0.249938  1
  Er  Er5  1  0.240658  0.240658  0.750058  1
  Er  Er6  1  0.756569  0.998819  0.750070  1
  Er  Er7  1  0.998819  0.756569  0.750070  1
  Tm  Tm8  1  0.331619  0.673640  0.996961  1
  Tm  Tm9  1  0.673640  0.331619  0.996961  1
  Si  Si10  1  0.604140  0.998638  0.249820  1
  Si  Si11  1  0.998638  0.604140  0.249820  1
  Si  Si12  1  0.605582  0.605582  0.750141  1
  Si  Si13  1  0.393842  0.001371  0.750174  1
  Si  Si14  1  0.001371  0.393842  0.750174  1
  Sn  Sn15  1  0.394818  0.394818  0.249827  1
