# generated using pymatgen
data_Zr6Al4CuTcC2
_symmetry_space_group_name_H-M   'P 1'
_cell_length_a   8.66490981
_cell_length_b   8.69997779
_cell_length_c   8.69997721
_cell_angle_alpha   60.13319618
_cell_angle_beta   60.13324622
_cell_angle_gamma   60.13324015
_symmetry_Int_Tables_number   1
_chemical_formula_structural   Zr6Al4CuTcC2
_chemical_formula_sum   'Zr12 Al8 Cu2 Tc2 C4'
_cell_volume   465.15110625
_cell_formula_units_Z   2
loop_
 _symmetry_equiv_pos_site_id
 _symmetry_equiv_pos_as_xyz
  1  'x, y, z'
loop_
 _atom_site_type_symbol
 _atom_site_label
 _atom_site_symmetry_multiplicity
 _atom_site_fract_x
 _atom_site_fract_y
 _atom_site_fract_z
 _atom_site_occupancy
  Zr  Zr0  1  0.941890  0.943229  0.560714  1
  Zr  Zr1  1  0.692662  0.307338  0.307338  1
  Zr  Zr2  1  0.305670  0.694330  0.694330  1
  Zr  Zr3  1  0.695833  0.689286  0.306771  1
  Zr  Zr4  1  0.695833  0.306771  0.689286  1
  Zr  Zr5  1  0.308110  0.689286  0.306771  1
  Zr  Zr6  1  0.554167  0.943229  0.560714  1
  Zr  Zr7  1  0.557338  0.942662  0.942662  1
  Zr  Zr8  1  0.944330  0.555670  0.555670  1
  Zr  Zr9  1  0.941890  0.560714  0.943229  1
  Zr  Zr10  1  0.308110  0.306771  0.689286  1
  Zr  Zr11  1  0.554167  0.560714  0.943229  1
  Al  Al12  1  0.920039  0.242625  0.917295  1
  Al  Al13  1  0.329961  0.332705  0.007375  1
  Al  Al14  1  0.009277  0.330964  0.330964  1
  Al  Al15  1  0.328795  0.330964  0.330964  1
  Al  Al16  1  0.240723  0.919036  0.919036  1
  Al  Al17  1  0.921205  0.919036  0.919036  1
  Al  Al18  1  0.920039  0.917295  0.242625  1
  Al  Al19  1  0.329961  0.007375  0.332705  1
  Cu  Cu20  1  0.625000  0.125000  0.125000  1
  Cu  Cu21  1  0.125000  0.125000  0.125000  1
  Tc  Tc22  1  0.125000  0.625000  0.125000  1
  Tc  Tc23  1  0.125000  0.125000  0.625000  1
  C  C24  1  0.625000  0.125000  0.625000  1
  C  C25  1  0.625000  0.625000  0.125000  1
  C  C26  1  0.125000  0.625000  0.625000  1
  C  C27  1  0.625000  0.625000  0.625000  1
