# generated using pymatgen
data_Li4Nd3ScSi8
_symmetry_space_group_name_H-M   'P 1'
_cell_length_a   3.84096100
_cell_length_b   7.65065549
_cell_length_c   10.30511210
_cell_angle_alpha   90.25151978
_cell_angle_beta   90.00000000
_cell_angle_gamma   90.00000000
_symmetry_Int_Tables_number   1
_chemical_formula_structural   Li4Nd3ScSi8
_chemical_formula_sum   'Li4 Nd3 Sc1 Si8'
_cell_volume   302.82176018
_cell_formula_units_Z   1
loop_
 _symmetry_equiv_pos_site_id
 _symmetry_equiv_pos_as_xyz
  1  'x, y, z'
loop_
 _atom_site_type_symbol
 _atom_site_label
 _atom_site_symmetry_multiplicity
 _atom_site_fract_x
 _atom_site_fract_y
 _atom_site_fract_z
 _atom_site_occupancy
  Li  Li0  1  0.250000  0.984841  0.391268  1
  Li  Li1  1  0.750000  0.007590  0.604107  1
  Li  Li2  1  0.250000  0.494837  0.110803  1
  Li  Li3  1  0.750000  0.505456  0.889796  1
  Nd  Nd4  1  0.250000  0.144634  0.865624  1
  Nd  Nd5  1  0.750000  0.860712  0.138001  1
  Nd  Nd6  1  0.250000  0.638422  0.634730  1
  Sc  Sc7  1  0.750000  0.369411  0.364492  1
  Si  Si8  1  0.750000  0.280064  0.081807  1
  Si  Si9  1  0.250000  0.727103  0.929886  1
  Si  Si10  1  0.750000  0.760119  0.428659  1
  Si  Si11  1  0.250000  0.235140  0.555322  1
  Si  Si12  1  0.750000  0.839912  0.822346  1
  Si  Si13  1  0.250000  0.168718  0.189848  1
  Si  Si14  1  0.750000  0.337753  0.669954  1
  Si  Si15  1  0.250000  0.645288  0.323358  1
