# generated using pymatgen
data_Ca2TbSmV4O12
_symmetry_space_group_name_H-M   'P 1'
_cell_length_a   5.36622180
_cell_length_b   7.73768096
_cell_length_c   5.61238391
_cell_angle_alpha   90.04553672
_cell_angle_beta   90.25538059
_cell_angle_gamma   89.95296025
_symmetry_Int_Tables_number   1
_chemical_formula_structural   Ca2TbSmV4O12
_chemical_formula_sum   'Ca2 Tb1 Sm1 V4 O12'
_cell_volume   233.03556865
_cell_formula_units_Z   1
loop_
 _symmetry_equiv_pos_site_id
 _symmetry_equiv_pos_as_xyz
  1  'x, y, z'
loop_
 _atom_site_type_symbol
 _atom_site_label
 _atom_site_symmetry_multiplicity
 _atom_site_fract_x
 _atom_site_fract_y
 _atom_site_fract_z
 _atom_site_occupancy
  Ca  Ca0  1  0.510120  0.250147  0.554644  1
  Ca  Ca1  1  0.993345  0.249577  0.050628  1
  Tb  Tb2  1  0.479001  0.749504  0.435863  1
  Sm  Sm3  1  0.010667  0.750311  0.941634  1
  V  V4  1  0.502345  0.495405  0.998373  1
  V  V5  1  0.992706  0.495054  0.500016  1
  V  V6  1  0.992747  0.005046  0.499651  1
  V  V7  1  0.502235  0.004698  0.997862  1
  O  O8  1  0.892298  0.750020  0.529949  1
  O  O9  1  0.590738  0.750016  0.033966  1
  O  O10  1  0.091946  0.250029  0.469382  1
  O  O11  1  0.411875  0.249985  0.965186  1
  O  O12  1  0.809264  0.459681  0.801998  1
  O  O13  1  0.714693  0.040814  0.308210  1
  O  O14  1  0.285188  0.555508  0.691351  1
  O  O15  1  0.208027  0.945074  0.210437  1
  O  O16  1  0.206887  0.554288  0.209579  1
  O  O17  1  0.284772  0.944078  0.691536  1
  O  O18  1  0.713389  0.459661  0.310118  1
  O  O19  1  0.807755  0.041111  0.799622  1
