# generated using pymatgen
data_Sm2NiH8Rh
_symmetry_space_group_name_H-M   'P 1'
_cell_length_a   3.78051218
_cell_length_b   4.86239500
_cell_length_c   6.28793217
_cell_angle_alpha   90.00000000
_cell_angle_beta   107.51145143
_cell_angle_gamma   90.00000000
_symmetry_Int_Tables_number   1
_chemical_formula_structural   Sm2NiH8Rh
_chemical_formula_sum   'Sm2 Ni1 H8 Rh1'
_cell_volume   110.23026453
_cell_formula_units_Z   1
loop_
 _symmetry_equiv_pos_site_id
 _symmetry_equiv_pos_as_xyz
  1  'x, y, z'
loop_
 _atom_site_type_symbol
 _atom_site_label
 _atom_site_symmetry_multiplicity
 _atom_site_fract_x
 _atom_site_fract_y
 _atom_site_fract_z
 _atom_site_occupancy
  Sm  Sm0  1  0.364224  0.750000  0.227217  1
  Sm  Sm1  1  0.631744  0.249999  0.761836  1
  Ni  Ni2  1  0.092779  0.750000  0.702273  1
  H  H3  1  0.805518  0.996385  0.108515  1
  H  H4  1  0.805518  0.503615  0.108515  1
  H  H5  1  0.410585  0.249999  0.320186  1
  H  H6  1  0.005616  0.992721  0.509974  1
  H  H7  1  0.005616  0.507279  0.509974  1
  H  H8  1  0.588660  0.750000  0.676368  1
  H  H9  1  0.191107  0.497599  0.881824  1
  H  H10  1  0.191107  0.002401  0.881824  1
  Rh  Rh11  1  0.907521  0.249999  0.311491  1
