# generated using pymatgen
data_YHo2PtRh8
_symmetry_space_group_name_H-M   'P 1'
_cell_length_a   5.26752500
_cell_length_b   5.26752521
_cell_length_c   17.54283800
_cell_angle_alpha   90.00000000
_cell_angle_beta   90.00000000
_cell_angle_gamma   119.99999238
_symmetry_Int_Tables_number   1
_chemical_formula_structural   YHo2PtRh8
_chemical_formula_sum   'Y2 Ho4 Pt2 Rh16'
_cell_volume   421.54480976
_cell_formula_units_Z   2
loop_
 _symmetry_equiv_pos_site_id
 _symmetry_equiv_pos_as_xyz
  1  'x, y, z'
loop_
 _atom_site_type_symbol
 _atom_site_label
 _atom_site_symmetry_multiplicity
 _atom_site_fract_x
 _atom_site_fract_y
 _atom_site_fract_z
 _atom_site_occupancy
  Y  Y0  1  0.333333  0.666667  0.750000  1
  Y  Y1  1  0.666667  0.333333  0.250000  1
  Ho  Ho2  1  0.333333  0.666667  0.957544  1
  Ho  Ho3  1  0.666667  0.333333  0.042456  1
  Ho  Ho4  1  0.666667  0.333333  0.457544  1
  Ho  Ho5  1  0.333333  0.666667  0.542456  1
  Pt  Pt6  1  0.000000  0.000000  0.500000  1
  Pt  Pt7  1  0.000000  0.000000  0.000000  1
  Rh  Rh8  1  0.167941  0.832059  0.374068  1
  Rh  Rh9  1  0.167941  0.335882  0.374068  1
  Rh  Rh10  1  0.664118  0.832059  0.374068  1
  Rh  Rh11  1  0.832059  0.167941  0.625932  1
  Rh  Rh12  1  0.832059  0.664118  0.625932  1
  Rh  Rh13  1  0.335882  0.167941  0.625932  1
  Rh  Rh14  1  0.832059  0.167941  0.874068  1
  Rh  Rh15  1  0.832059  0.664118  0.874068  1
  Rh  Rh16  1  0.335882  0.167941  0.874068  1
  Rh  Rh17  1  0.167941  0.832059  0.125932  1
  Rh  Rh18  1  0.167941  0.335882  0.125932  1
  Rh  Rh19  1  0.664118  0.832059  0.125932  1
  Rh  Rh20  1  0.333333  0.666667  0.250000  1
  Rh  Rh21  1  0.666667  0.333333  0.750000  1
  Rh  Rh22  1  0.000000  0.000000  0.250000  1
  Rh  Rh23  1  0.000000  0.000000  0.750000  1
