# generated using pymatgen
data_AlZn4GaPd10
_symmetry_space_group_name_H-M   'P 1'
_cell_length_a   4.13123900
_cell_length_b   5.45280160
_cell_length_c   10.56138516
_cell_angle_alpha   90.05371229
_cell_angle_beta   90.00000000
_cell_angle_gamma   90.00000000
_symmetry_Int_Tables_number   1
_chemical_formula_structural   AlZn4GaPd10
_chemical_formula_sum   'Al1 Zn4 Ga1 Pd10'
_cell_volume   237.91438788
_cell_formula_units_Z   1
loop_
 _symmetry_equiv_pos_site_id
 _symmetry_equiv_pos_as_xyz
  1  'x, y, z'
loop_
 _atom_site_type_symbol
 _atom_site_label
 _atom_site_symmetry_multiplicity
 _atom_site_fract_x
 _atom_site_fract_y
 _atom_site_fract_z
 _atom_site_occupancy
  Al  Al0  1  0.000000  0.500000  0.500000  1
  Zn  Zn1  1  0.500000  0.162234  0.360326  1
  Zn  Zn2  1  0.500000  0.837766  0.639674  1
  Zn  Zn3  1  0.500000  0.660764  0.140409  1
  Zn  Zn4  1  0.500000  0.339236  0.859591  1
  Ga  Ga5  1  0.000000  0.000000  0.000000  1
  Pd  Pd6  1  0.500000  0.182600  0.107364  1
  Pd  Pd7  1  0.500000  0.817400  0.892636  1
  Pd  Pd8  1  0.500000  0.680745  0.393659  1
  Pd  Pd9  1  0.500000  0.319255  0.606341  1
  Pd  Pd10  1  0.000000  0.000000  0.500000  1
  Pd  Pd11  1  0.000000  0.500000  0.000000  1
  Pd  Pd12  1  0.000000  0.900610  0.234648  1
  Pd  Pd13  1  0.000000  0.099390  0.765352  1
  Pd  Pd14  1  0.000000  0.400876  0.266664  1
  Pd  Pd15  1  0.000000  0.599124  0.733336  1
