# generated using pymatgen
data_Ho20Ir3Os4Pt5
_symmetry_space_group_name_H-M   'P 1'
_cell_length_a   10.88396031
_cell_length_b   10.88396031
_cell_length_c   6.40587210
_cell_angle_alpha   89.98542620
_cell_angle_beta   89.98542620
_cell_angle_gamma   89.72550029
_symmetry_Int_Tables_number   1
_chemical_formula_structural   Ho20Ir3Os4Pt5
_chemical_formula_sum   'Ho20 Ir3 Os4 Pt5'
_cell_volume   758.83464483
_cell_formula_units_Z   1
loop_
 _symmetry_equiv_pos_site_id
 _symmetry_equiv_pos_as_xyz
  1  'x, y, z'
loop_
 _atom_site_type_symbol
 _atom_site_label
 _atom_site_symmetry_multiplicity
 _atom_site_fract_x
 _atom_site_fract_y
 _atom_site_fract_z
 _atom_site_occupancy
  Ho  Ho0  1  0.296758  0.087922  0.373586  1
  Ho  Ho1  1  0.297010  0.911810  0.872935  1
  Ho  Ho2  1  0.703057  0.084695  0.873298  1
  Ho  Ho3  1  0.703108  0.911813  0.372677  1
  Ho  Ho4  1  0.584102  0.793067  0.877097  1
  Ho  Ho5  1  0.582782  0.204404  0.373335  1
  Ho  Ho6  1  0.415747  0.794180  0.376133  1
  Ho  Ho7  1  0.413457  0.205131  0.878002  1
  Ho  Ho8  1  0.206933  0.415898  0.622903  1
  Ho  Ho9  1  0.205820  0.584253  0.123867  1
  Ho  Ho10  1  0.795596  0.417218  0.126665  1
  Ho  Ho11  1  0.794869  0.586543  0.621998  1
  Ho  Ho12  1  0.912078  0.703242  0.126414  1
  Ho  Ho13  1  0.915305  0.296943  0.626702  1
  Ho  Ho14  1  0.088190  0.702990  0.627065  1
  Ho  Ho15  1  0.088187  0.296892  0.127323  1
  Ho  Ho16  1  0.999800  0.999859  0.499635  1
  Ho  Ho17  1  0.000141  0.000200  0.000365  1
  Ho  Ho18  1  0.498604  0.501565  0.001056  1
  Ho  Ho19  1  0.498435  0.501396  0.498944  1
  Ir  Ir20  1  0.653033  0.651757  0.250065  1
  Ir  Ir21  1  0.348243  0.346967  0.249935  1
  Ir  Ir22  1  0.346741  0.653259  0.750000  1
  Os  Os23  1  0.500313  0.000196  0.124479  1
  Os  Os24  1  0.500100  0.000408  0.625833  1
  Os  Os25  1  0.999592  0.499900  0.874167  1
  Os  Os26  1  0.999804  0.499687  0.375521  1
  Pt  Pt27  1  0.846951  0.153049  0.250000  1
  Pt  Pt28  1  0.847591  0.848325  0.750392  1
  Pt  Pt29  1  0.151675  0.152409  0.749608  1
  Pt  Pt30  1  0.152389  0.847611  0.250000  1
  Pt  Pt31  1  0.653589  0.346411  0.750000  1
