# generated using pymatgen
data_Ho4Al4Pd3Rh
_symmetry_space_group_name_H-M   'P 1'
_cell_length_a   4.41468000
_cell_length_b   6.82810242
_cell_length_c   7.83027648
_cell_angle_alpha   89.95975954
_cell_angle_beta   90.00000000
_cell_angle_gamma   90.00000000
_symmetry_Int_Tables_number   1
_chemical_formula_structural   Ho4Al4Pd3Rh
_chemical_formula_sum   'Ho4 Al4 Pd3 Rh1'
_cell_volume   236.03491280
_cell_formula_units_Z   1
loop_
 _symmetry_equiv_pos_site_id
 _symmetry_equiv_pos_as_xyz
  1  'x, y, z'
loop_
 _atom_site_type_symbol
 _atom_site_label
 _atom_site_symmetry_multiplicity
 _atom_site_fract_x
 _atom_site_fract_y
 _atom_site_fract_z
 _atom_site_occupancy
  Ho  Ho0  1  0.250000  0.533680  0.179858  1
  Ho  Ho1  1  0.750000  0.462581  0.817637  1
  Ho  Ho2  1  0.750000  0.972492  0.679068  1
  Ho  Ho3  1  0.250000  0.037754  0.323299  1
  Al  Al4  1  0.250000  0.635866  0.561001  1
  Al  Al5  1  0.750000  0.358090  0.441736  1
  Al  Al6  1  0.750000  0.858745  0.059897  1
  Al  Al7  1  0.250000  0.142647  0.937418  1
  Pd  Pd8  1  0.250000  0.768896  0.879473  1
  Pd  Pd9  1  0.750000  0.231797  0.121632  1
  Pd  Pd10  1  0.750000  0.732275  0.378758  1
  Rh  Rh11  1  0.250000  0.265177  0.620223  1
