# generated using pymatgen
data_Pr4ErIn3Cl
_symmetry_space_group_name_H-M   'P 1'
_cell_length_a   9.53053000
_cell_length_b   9.53052905
_cell_length_c   6.73280100
_cell_angle_alpha   90.00000000
_cell_angle_beta   90.00000000
_cell_angle_gamma   120.00000328
_symmetry_Int_Tables_number   1
_chemical_formula_structural   Pr4ErIn3Cl
_chemical_formula_sum   'Pr8 Er2 In6 Cl2'
_cell_volume   529.61522095
_cell_formula_units_Z   2
loop_
 _symmetry_equiv_pos_site_id
 _symmetry_equiv_pos_as_xyz
  1  'x, y, z'
loop_
 _atom_site_type_symbol
 _atom_site_label
 _atom_site_symmetry_multiplicity
 _atom_site_fract_x
 _atom_site_fract_y
 _atom_site_fract_z
 _atom_site_occupancy
  Pr  Pr0  1  0.739975  0.739975  0.252726  1
  Pr  Pr1  1  0.000000  0.739975  0.747274  1
  Pr  Pr2  1  0.739975  0.000000  0.747274  1
  Pr  Pr3  1  0.260025  0.260025  0.747274  1
  Pr  Pr4  1  0.000000  0.260025  0.252726  1
  Pr  Pr5  1  0.260025  0.000000  0.252726  1
  Pr  Pr6  1  0.333333  0.666667  0.000000  1
  Pr  Pr7  1  0.666667  0.333333  0.000000  1
  Er  Er8  1  0.333333  0.666667  0.500000  1
  Er  Er9  1  0.666667  0.333333  0.500000  1
  In  In10  1  0.395429  0.000000  0.743028  1
  In  In11  1  0.000000  0.604571  0.256972  1
  In  In12  1  0.604571  0.000000  0.256972  1
  In  In13  1  0.000000  0.395429  0.743028  1
  In  In14  1  0.395429  0.395429  0.256972  1
  In  In15  1  0.604571  0.604571  0.743028  1
  Cl  Cl16  1  0.000000  0.000000  0.500000  1
  Cl  Cl17  1  0.000000  0.000000  0.000000  1
