# generated using pymatgen
data_Lu12ZnCdCo4
_symmetry_space_group_name_H-M   'P 1'
_cell_length_a   8.12864695
_cell_length_b   8.12864558
_cell_length_c   8.12864671
_cell_angle_alpha   111.90662642
_cell_angle_beta   110.54697548
_cell_angle_gamma   106.01742846
_symmetry_Int_Tables_number   1
_chemical_formula_structural   Lu12ZnCdCo4
_chemical_formula_sum   'Lu12 Zn1 Cd1 Co4'
_cell_volume   412.27929629
_cell_formula_units_Z   1
loop_
 _symmetry_equiv_pos_site_id
 _symmetry_equiv_pos_as_xyz
  1  'x, y, z'
loop_
 _atom_site_type_symbol
 _atom_site_label
 _atom_site_symmetry_multiplicity
 _atom_site_fract_x
 _atom_site_fract_y
 _atom_site_fract_z
 _atom_site_occupancy
  Lu  Lu0  1  0.430936  0.230307  0.200627  1
  Lu  Lu1  1  0.569064  0.769693  0.799373  1
  Lu  Lu2  1  0.029679  0.230307  0.799373  1
  Lu  Lu3  1  0.970321  0.769693  0.200627  1
  Lu  Lu4  1  0.183321  0.283742  0.467064  1
  Lu  Lu5  1  0.816679  0.716258  0.532936  1
  Lu  Lu6  1  0.183321  0.716258  0.899579  1
  Lu  Lu7  1  0.816679  0.283742  0.100421  1
  Lu  Lu8  1  0.318042  0.624537  0.306496  1
  Lu  Lu9  1  0.681958  0.375463  0.693504  1
  Lu  Lu10  1  0.318042  0.011546  0.693504  1
  Lu  Lu11  1  0.681958  0.988454  0.306496  1
  Zn  Zn12  1  0.000000  0.000000  0.000000  1
  Cd  Cd13  1  0.500000  0.500000  0.000000  1
  Co  Co14  1  0.366087  0.000000  0.366087  1
  Co  Co15  1  0.633913  0.000000  0.633913  1
  Co  Co16  1  0.114604  0.614604  0.500000  1
  Co  Co17  1  0.885396  0.385396  0.500000  1
