# generated using pymatgen
data_La14Nd2Cd4CoNi3
_symmetry_space_group_name_H-M   'P 1'
_cell_length_a   10.00352457
_cell_length_b   10.00310163
_cell_length_c   10.00280577
_cell_angle_alpha   59.92145960
_cell_angle_beta   59.86553198
_cell_angle_gamma   59.88304070
_symmetry_Int_Tables_number   1
_chemical_formula_structural   La14Nd2Cd4CoNi3
_chemical_formula_sum   'La14 Nd2 Cd4 Co1 Ni3'
_cell_volume   706.00736253
_cell_formula_units_Z   1
loop_
 _symmetry_equiv_pos_site_id
 _symmetry_equiv_pos_as_xyz
  1  'x, y, z'
loop_
 _atom_site_type_symbol
 _atom_site_label
 _atom_site_symmetry_multiplicity
 _atom_site_fract_x
 _atom_site_fract_y
 _atom_site_fract_z
 _atom_site_occupancy
  La  La0  1  0.561808  0.939257  0.934874  1
  La  La1  1  0.693303  0.694709  0.307764  1
  La  La2  1  0.155027  0.154178  0.540295  1
  La  La3  1  0.306988  0.695910  0.692319  1
  La  La4  1  0.152500  0.151767  0.154502  1
  La  La5  1  0.539246  0.154800  0.156275  1
  La  La6  1  0.308640  0.686970  0.309861  1
  La  La7  1  0.310225  0.309556  0.683710  1
  La  La8  1  0.694343  0.306197  0.692553  1
  La  La9  1  0.941104  0.563561  0.562456  1
  La  La10  1  0.561617  0.561693  0.941401  1
  La  La11  1  0.155176  0.538258  0.155702  1
  La  La12  1  0.685340  0.308615  0.310671  1
  La  La13  1  0.939751  0.559487  0.937482  1
  Nd  Nd14  1  0.936454  0.938992  0.560950  1
  Nd  Nd15  1  0.562706  0.941936  0.561947  1
  Cd  Cd16  1  0.237844  0.920773  0.919404  1
  Cd  Cd17  1  0.920775  0.921229  0.919548  1
  Cd  Cd18  1  0.919334  0.920819  0.239191  1
  Cd  Cd19  1  0.920580  0.236885  0.920717  1
  Co  Co20  1  0.358888  0.356452  0.359279  1
  Ni  Ni21  1  0.923317  0.356680  0.358036  1
  Ni  Ni22  1  0.357848  0.357333  0.923023  1
  Ni  Ni23  1  0.357184  0.923941  0.358038  1
