# generated using pymatgen
data_NaYbEuB2Pt7
_symmetry_space_group_name_H-M   'P 1'
_cell_length_a   8.23282835
_cell_length_b   8.23282858
_cell_length_c   8.23282769
_cell_angle_alpha   39.15026783
_cell_angle_beta   39.15026654
_cell_angle_gamma   39.15026360
_symmetry_Int_Tables_number   1
_chemical_formula_structural   NaYbEuB2Pt7
_chemical_formula_sum   'Na1 Yb1 Eu1 B2 Pt7'
_cell_volume   200.09277851
_cell_formula_units_Z   1
loop_
 _symmetry_equiv_pos_site_id
 _symmetry_equiv_pos_as_xyz
  1  'x, y, z'
loop_
 _atom_site_type_symbol
 _atom_site_label
 _atom_site_symmetry_multiplicity
 _atom_site_fract_x
 _atom_site_fract_y
 _atom_site_fract_z
 _atom_site_occupancy
  Na  Na0  1  0.998813  0.998813  0.998813  1
  Yb  Yb1  1  0.862088  0.862088  0.862088  1
  Eu  Eu2  1  0.140135  0.140135  0.140135  1
  B  B3  1  0.667693  0.667693  0.667693  1
  B  B4  1  0.332242  0.332242  0.332242  1
  Pt  Pt5  1  0.434701  0.933012  0.434701  1
  Pt  Pt6  1  0.434701  0.434701  0.933012  1
  Pt  Pt7  1  0.933012  0.434701  0.434701  1
  Pt  Pt8  1  0.565178  0.066139  0.565178  1
  Pt  Pt9  1  0.565178  0.565178  0.066139  1
  Pt  Pt10  1  0.066139  0.565178  0.565178  1
  Pt  Pt11  1  0.500122  0.500122  0.500122  1
