# generated using pymatgen
data_Y3(ThRu)2
_symmetry_space_group_name_H-M   'P 1'
_cell_length_a   6.41292515
_cell_length_b   7.23086417
_cell_length_c   8.90880288
_cell_angle_alpha   95.72139388
_cell_angle_beta   111.09532752
_cell_angle_gamma   89.99999476
_symmetry_Int_Tables_number   1
_chemical_formula_structural   Y3(ThRu)2
_chemical_formula_sum   'Y6 Th4 Ru4'
_cell_volume   383.21798841
_cell_formula_units_Z   2
loop_
 _symmetry_equiv_pos_site_id
 _symmetry_equiv_pos_as_xyz
  1  'x, y, z'
loop_
 _atom_site_type_symbol
 _atom_site_label
 _atom_site_symmetry_multiplicity
 _atom_site_fract_x
 _atom_site_fract_y
 _atom_site_fract_z
 _atom_site_occupancy
  Y  Y0  1  0.640826  0.816403  0.430291  1
  Y  Y1  1  0.210535  0.683597  0.569709  1
  Y  Y2  1  0.359174  0.183597  0.569709  1
  Y  Y3  1  0.789465  0.316403  0.430291  1
  Y  Y4  1  0.420716  0.750000  0.000000  1
  Y  Y5  1  0.579284  0.250000  0.000000  1
  Th  Th6  1  0.988877  0.909155  0.191503  1
  Th  Th7  1  0.797373  0.590845  0.808497  1
  Th  Th8  1  0.011123  0.090845  0.808497  1
  Th  Th9  1  0.202627  0.409155  0.191503  1
  Ru  Ru10  1  0.841716  0.586378  0.218543  1
  Ru  Ru11  1  0.623174  0.913622  0.781457  1
  Ru  Ru12  1  0.158284  0.413622  0.781457  1
  Ru  Ru13  1  0.376826  0.086378  0.218543  1
