# generated using pymatgen
data_Mg2Zn2NiIr
_symmetry_space_group_name_H-M   'P 1'
_cell_length_a   4.98711570
_cell_length_b   5.12697144
_cell_length_c   5.12697227
_cell_angle_alpha   121.46257256
_cell_angle_beta   116.29379693
_cell_angle_gamma   92.77939033
_symmetry_Int_Tables_number   1
_chemical_formula_structural   Mg2Zn2NiIr
_chemical_formula_sum   'Mg2 Zn2 Ni1 Ir1'
_cell_volume   93.30266783
_cell_formula_units_Z   1
loop_
 _symmetry_equiv_pos_site_id
 _symmetry_equiv_pos_as_xyz
  1  'x, y, z'
loop_
 _atom_site_type_symbol
 _atom_site_label
 _atom_site_symmetry_multiplicity
 _atom_site_fract_x
 _atom_site_fract_y
 _atom_site_fract_z
 _atom_site_occupancy
  Mg  Mg0  1  0.123673  0.862772  0.260900  1
  Mg  Mg1  1  0.876327  0.137228  0.739100  1
  Zn  Zn2  1  0.500000  0.500000  0.500000  1
  Zn  Zn3  1  0.500000  0.000000  0.000000  1
  Ni  Ni4  1  0.000000  0.500000  0.500000  1
  Ir  Ir5  1  0.500000  0.500000  0.000000  1
