# generated using pymatgen
data_Er2TmCdSi2Ag3
_symmetry_space_group_name_H-M   'P 1'
_cell_length_a   7.17744200
_cell_length_b   7.17715030
_cell_length_c   4.19728500
_cell_angle_alpha   90.00000000
_cell_angle_beta   90.00000000
_cell_angle_gamma   119.99866672
_symmetry_Int_Tables_number   1
_chemical_formula_structural   Er2TmCdSi2Ag3
_chemical_formula_sum   'Er2 Tm1 Cd1 Si2 Ag3'
_cell_volume   187.25208351
_cell_formula_units_Z   1
loop_
 _symmetry_equiv_pos_site_id
 _symmetry_equiv_pos_as_xyz
  1  'x, y, z'
loop_
 _atom_site_type_symbol
 _atom_site_label
 _atom_site_symmetry_multiplicity
 _atom_site_fract_x
 _atom_site_fract_y
 _atom_site_fract_z
 _atom_site_occupancy
  Er  Er0  1  0.427574  0.427617  0.500000  1
  Er  Er1  1  0.572426  0.000043  0.500000  1
  Tm  Tm2  1  0.000000  0.572362  0.500000  1
  Cd  Cd3  1  0.000000  0.999787  0.500000  1
  Si  Si4  1  0.666947  0.333513  0.000000  1
  Si  Si5  1  0.333053  0.666567  0.000000  1
  Ag  Ag6  1  0.735920  0.735819  0.000000  1
  Ag  Ag7  1  0.264080  0.999899  0.000000  1
  Ag  Ag8  1  0.000000  0.264393  0.000000  1
