# generated using pymatgen
data_Pr9Ho11(SnSb)8
_symmetry_space_group_name_H-M   'P 1'
_cell_length_a   8.28633503
_cell_length_b   8.33600909
_cell_length_c   15.79414500
_cell_angle_alpha   89.99638465
_cell_angle_beta   90.00516512
_cell_angle_gamma   90.00784275
_symmetry_Int_Tables_number   1
_chemical_formula_structural   Pr9Ho11(SnSb)8
_chemical_formula_sum   'Pr9 Ho11 Sn8 Sb8'
_cell_volume   1090.97998366
_cell_formula_units_Z   1
loop_
 _symmetry_equiv_pos_site_id
 _symmetry_equiv_pos_as_xyz
  1  'x, y, z'
loop_
 _atom_site_type_symbol
 _atom_site_label
 _atom_site_symmetry_multiplicity
 _atom_site_fract_x
 _atom_site_fract_y
 _atom_site_fract_z
 _atom_site_occupancy
  Pr  Pr0  1  0.887192  0.662733  0.881941  1
  Pr  Pr1  1  0.548497  0.324904  0.894526  1
  Pr  Pr2  1  0.044272  0.175270  0.602674  1
  Pr  Pr3  1  0.455264  0.673895  0.395799  1
  Pr  Pr4  1  0.950873  0.828640  0.107441  1
  Pr  Pr5  1  0.454527  0.673476  0.105382  1
  Pr  Pr6  1  0.956309  0.824916  0.395578  1
  Pr  Pr7  1  0.542976  0.325023  0.603478  1
  Pr  Pr8  1  0.046635  0.172506  0.894104  1
  Ho  Ho9  1  0.383265  0.839403  0.877851  1
  Ho  Ho10  1  0.882259  0.660153  0.620804  1
  Ho  Ho11  1  0.616871  0.160269  0.378543  1
  Ho  Ho12  1  0.116666  0.340573  0.121168  1
  Ho  Ho13  1  0.613675  0.159858  0.123403  1
  Ho  Ho14  1  0.116994  0.339936  0.378502  1
  Ho  Ho15  1  0.383618  0.840815  0.619844  1
  Ho  Ho16  1  0.218980  0.497783  0.748770  1
  Ho  Ho17  1  0.717105  0.001763  0.749134  1
  Ho  Ho18  1  0.781942  0.501122  0.251902  1
  Ho  Ho19  1  0.281808  0.998656  0.249994  1
  Sn  Sn20  1  0.582299  0.632875  0.747920  1
  Sn  Sn21  1  0.086062  0.869381  0.746880  1
  Sn  Sn22  1  0.415528  0.367202  0.250942  1
  Sn  Sn23  1  0.916318  0.133702  0.250607  1
  Sn  Sn24  1  0.355839  0.137827  0.749146  1
  Sn  Sn25  1  0.855628  0.360054  0.748149  1
  Sn  Sn26  1  0.643660  0.861452  0.250963  1
  Sn  Sn27  1  0.144499  0.637783  0.250267  1
  Sb  Sb28  1  0.276473  0.028130  0.047655  1
  Sb  Sb29  1  0.779679  0.468864  0.453281  1
  Sb  Sb30  1  0.720685  0.969294  0.546289  1
  Sb  Sb31  1  0.230581  0.523729  0.952554  1
  Sb  Sb32  1  0.716707  0.977726  0.954046  1
  Sb  Sb33  1  0.219186  0.531617  0.546510  1
  Sb  Sb34  1  0.279927  0.030990  0.452256  1
  Sb  Sb35  1  0.777205  0.467681  0.051700  1
