# generated using pymatgen
data_Tb2TmSi3(Ni3Sn)3
_symmetry_space_group_name_H-M   'P 1'
_cell_length_a   3.89011300
_cell_length_b   9.19660539
_cell_length_c   9.19660505
_cell_angle_alpha   59.98881240
_cell_angle_beta   90.00000000
_cell_angle_gamma   90.00000000
_symmetry_Int_Tables_number   1
_chemical_formula_structural   Tb2TmSi3(Ni3Sn)3
_chemical_formula_sum   'Tb2 Tm1 Si3 Ni9 Sn3'
_cell_volume   284.90427523
_cell_formula_units_Z   1
loop_
 _symmetry_equiv_pos_site_id
 _symmetry_equiv_pos_as_xyz
  1  'x, y, z'
loop_
 _atom_site_type_symbol
 _atom_site_label
 _atom_site_symmetry_multiplicity
 _atom_site_fract_x
 _atom_site_fract_y
 _atom_site_fract_z
 _atom_site_occupancy
  Tb  Tb0  1  0.500000  0.333476  0.333264  1
  Tb  Tb1  1  0.500000  0.666736  0.666524  1
  Tm  Tm2  1  0.000000  0.999968  0.000032  1
  Si  Si3  1  0.500000  0.753347  0.246653  1
  Si  Si4  1  0.500000  0.246758  0.999905  1
  Si  Si5  1  0.500000  0.000095  0.753242  1
  Ni  Ni6  1  0.000000  0.215096  0.152641  1
  Ni  Ni7  1  0.000000  0.152708  0.632239  1
  Ni  Ni8  1  0.000000  0.631879  0.215350  1
  Ni  Ni9  1  0.000000  0.847359  0.784904  1
  Ni  Ni10  1  0.000000  0.367761  0.847292  1
  Ni  Ni11  1  0.000000  0.784650  0.368121  1
  Ni  Ni12  1  0.500000  0.260569  0.739431  1
  Ni  Ni13  1  0.500000  0.739464  0.999985  1
  Ni  Ni14  1  0.500000  0.000015  0.260536  1
  Sn  Sn15  1  0.000000  0.461276  0.538724  1
  Sn  Sn16  1  0.000000  0.538732  0.999991  1
  Sn  Sn17  1  0.000000  0.000009  0.461268  1
