# generated using pymatgen
data_TbYHo2Pt4F28
_symmetry_space_group_name_H-M   'P 1'
_cell_length_a   5.55286600
_cell_length_b   8.88726658
_cell_length_c   11.99662201
_cell_angle_alpha   62.45694302
_cell_angle_beta   90.00344727
_cell_angle_gamma   90.00181567
_symmetry_Int_Tables_number   1
_chemical_formula_structural   TbYHo2Pt4F28
_chemical_formula_sum   'Tb1 Y1 Ho2 Pt4 F28'
_cell_volume   524.93224161
_cell_formula_units_Z   1
loop_
 _symmetry_equiv_pos_site_id
 _symmetry_equiv_pos_as_xyz
  1  'x, y, z'
loop_
 _atom_site_type_symbol
 _atom_site_label
 _atom_site_symmetry_multiplicity
 _atom_site_fract_x
 _atom_site_fract_y
 _atom_site_fract_z
 _atom_site_occupancy
  Tb  Tb0  1  0.260849  0.186882  0.735366  1
  Y  Y1  1  0.760965  0.813340  0.764575  1
  Ho  Ho2  1  0.238938  0.185381  0.235806  1
  Ho  Ho3  1  0.738936  0.814617  0.264206  1
  Pt  Pt4  1  0.758722  0.271757  0.957925  1
  Pt  Pt5  1  0.258790  0.728232  0.542081  1
  Pt  Pt6  1  0.241062  0.726880  0.044284  1
  Pt  Pt7  1  0.741032  0.273127  0.455711  1
  F  F8  1  0.435454  0.702443  0.916682  1
  F  F9  1  0.935433  0.297529  0.583295  1
  F  F10  1  0.562939  0.296770  0.084869  1
  F  F11  1  0.062952  0.703220  0.415146  1
  F  F12  1  0.440758  0.278666  0.541423  1
  F  F13  1  0.940653  0.721327  0.958528  1
  F  F14  1  0.560038  0.722824  0.456526  1
  F  F15  1  0.060057  0.277167  0.043473  1
  F  F16  1  0.774939  0.520588  0.858857  1
  F  F17  1  0.274934  0.479587  0.641072  1
  F  F18  1  0.225400  0.477534  0.142139  1
  F  F19  1  0.725400  0.522467  0.357854  1
  F  F20  1  0.753974  0.022910  0.051014  1
  F  F21  1  0.253975  0.977112  0.448974  1
  F  F22  1  0.245698  0.975626  0.950714  1
  F  F23  1  0.745697  0.024341  0.549287  1
  F  F24  1  0.966199  0.724658  0.635506  1
  F  F25  1  0.466311  0.275330  0.864553  1
  F  F26  1  0.034177  0.274730  0.363036  1
  F  F27  1  0.534167  0.725256  0.136967  1
  F  F28  1  0.050697  0.745959  0.176016  1
  F  F29  1  0.550693  0.254028  0.323979  1
  F  F30  1  0.947007  0.254300  0.825187  1
  F  F31  1  0.447179  0.745708  0.674920  1
  F  F32  1  0.416604  0.970636  0.232680  1
  F  F33  1  0.916596  0.029357  0.267317  1
  F  F34  1  0.586554  0.030633  0.767880  1
  F  F35  1  0.086220  0.969079  0.732154  1
