# generated using pymatgen
data_Ho5LuMnBi2
_symmetry_space_group_name_H-M   'P 1'
_cell_length_a   8.25640900
_cell_length_b   8.24539282
_cell_length_c   4.27291800
_cell_angle_alpha   90.00000000
_cell_angle_beta   90.00000000
_cell_angle_gamma   120.04420172
_symmetry_Int_Tables_number   1
_chemical_formula_structural   Ho5LuMnBi2
_chemical_formula_sum   'Ho5 Lu1 Mn1 Bi2'
_cell_volume   251.80487255
_cell_formula_units_Z   1
loop_
 _symmetry_equiv_pos_site_id
 _symmetry_equiv_pos_as_xyz
  1  'x, y, z'
loop_
 _atom_site_type_symbol
 _atom_site_label
 _atom_site_symmetry_multiplicity
 _atom_site_fract_x
 _atom_site_fract_y
 _atom_site_fract_z
 _atom_site_occupancy
  Ho  Ho0  1  0.001060  0.610831  0.500000  1
  Ho  Ho1  1  0.390229  0.389169  0.500000  1
  Ho  Ho2  1  0.767951  0.767271  0.000000  1
  Ho  Ho3  1  0.000679  0.232729  0.000000  1
  Ho  Ho4  1  0.608172  0.000000  0.500000  1
  Lu  Lu5  1  0.231239  0.000000  0.000000  1
  Mn  Mn6  1  0.002105  0.000000  0.500000  1
  Bi  Bi7  1  0.333605  0.668645  0.000000  1
  Bi  Bi8  1  0.664960  0.331355  0.000000  1
