# generated using pymatgen
data_Dy7Zr(Si4Mo3)4
_symmetry_space_group_name_H-M   'P 1'
_cell_length_a   6.75081960
_cell_length_b   6.91803525
_cell_length_c   12.91734474
_cell_angle_alpha   89.92300524
_cell_angle_beta   90.00717206
_cell_angle_gamma   89.89467605
_symmetry_Int_Tables_number   1
_chemical_formula_structural   Dy7Zr(Si4Mo3)4
_chemical_formula_sum   'Dy7 Zr1 Si16 Mo12'
_cell_volume   603.26953465
_cell_formula_units_Z   1
loop_
 _symmetry_equiv_pos_site_id
 _symmetry_equiv_pos_as_xyz
  1  'x, y, z'
loop_
 _atom_site_type_symbol
 _atom_site_label
 _atom_site_symmetry_multiplicity
 _atom_site_fract_x
 _atom_site_fract_y
 _atom_site_fract_z
 _atom_site_occupancy
  Dy  Dy0  1  0.496051  0.332591  0.093466  1
  Dy  Dy1  1  0.996835  0.166521  0.406169  1
  Dy  Dy2  1  0.502491  0.666794  0.594166  1
  Dy  Dy3  1  0.002202  0.834003  0.907286  1
  Dy  Dy4  1  0.502349  0.667234  0.906881  1
  Dy  Dy5  1  0.002838  0.833112  0.594070  1
  Dy  Dy6  1  0.496854  0.332895  0.405055  1
  Zr  Zr7  1  0.996666  0.169522  0.097357  1
  Si  Si8  1  0.658688  0.042873  0.546944  1
  Si  Si9  1  0.158363  0.454599  0.955291  1
  Si  Si10  1  0.334508  0.959776  0.046340  1
  Si  Si11  1  0.841326  0.542898  0.452362  1
  Si  Si12  1  0.341717  0.956948  0.452448  1
  Si  Si13  1  0.842386  0.539391  0.046713  1
  Si  Si14  1  0.661893  0.043070  0.955266  1
  Si  Si15  1  0.158686  0.457753  0.546814  1
  Si  Si16  1  0.535527  0.365110  0.750356  1
  Si  Si17  1  0.035137  0.134011  0.749784  1
  Si  Si18  1  0.465939  0.635033  0.249402  1
  Si  Si19  1  0.965487  0.867558  0.248196  1
  Si  Si20  1  0.803251  0.629085  0.750555  1
  Si  Si21  1  0.302415  0.870148  0.750509  1
  Si  Si22  1  0.195415  0.368533  0.248735  1
  Si  Si23  1  0.700160  0.130628  0.248954  1
  Mo  Mo24  1  0.831664  0.334719  0.625372  1
  Mo  Mo25  1  0.330782  0.164448  0.875508  1
  Mo  Mo26  1  0.168626  0.664398  0.124726  1
  Mo  Mo27  1  0.669760  0.836790  0.374284  1
  Mo  Mo28  1  0.168337  0.665732  0.373586  1
  Mo  Mo29  1  0.669520  0.838444  0.124506  1
  Mo  Mo30  1  0.832894  0.333168  0.876619  1
  Mo  Mo31  1  0.331262  0.163994  0.624926  1
  Mo  Mo32  1  0.665257  0.998701  0.751130  1
  Mo  Mo33  1  0.165687  0.500670  0.750206  1
  Mo  Mo34  1  0.334190  0.003575  0.247672  1
  Mo  Mo35  1  0.834839  0.495275  0.248346  1
