# generated using pymatgen
data_La7Pr
_symmetry_space_group_name_H-M   'P 1'
_cell_length_a   7.45368765
_cell_length_b   7.45368668
_cell_length_c   10.57570600
_cell_angle_alpha   90.00000000
_cell_angle_beta   90.00000000
_cell_angle_gamma   90.00601944
_symmetry_Int_Tables_number   1
_chemical_formula_structural   La7Pr
_chemical_formula_sum   'La14 Pr2'
_cell_volume   587.55927859
_cell_formula_units_Z   2
loop_
 _symmetry_equiv_pos_site_id
 _symmetry_equiv_pos_as_xyz
  1  'x, y, z'
loop_
 _atom_site_type_symbol
 _atom_site_label
 _atom_site_symmetry_multiplicity
 _atom_site_fract_x
 _atom_site_fract_y
 _atom_site_fract_z
 _atom_site_occupancy
  La  La0  1  0.505036  0.505036  0.250000  1
  La  La1  1  0.494964  0.494964  0.750000  1
  La  La2  1  0.250233  0.749767  0.500000  1
  La  La3  1  0.250233  0.749767  0.000000  1
  La  La4  1  0.749767  0.250233  0.500000  1
  La  La5  1  0.749767  0.250233  0.000000  1
  La  La6  1  0.250008  0.250008  0.001855  1
  La  La7  1  0.749992  0.749992  0.998145  1
  La  La8  1  0.250008  0.250008  0.498145  1
  La  La9  1  0.749992  0.749992  0.501855  1
  La  La10  1  0.495092  0.004910  0.250000  1
  La  La11  1  0.995090  0.504908  0.750000  1
  La  La12  1  0.504908  0.995090  0.750000  1
  La  La13  1  0.004910  0.495092  0.250000  1
  Pr  Pr14  1  0.995596  0.995595  0.250000  1
  Pr  Pr15  1  0.004405  0.004404  0.750000  1
