# generated using pymatgen
data_DyEr5Al24Os5Rh3
_symmetry_space_group_name_H-M   'P 1'
_cell_length_a   8.75875237
_cell_length_b   8.78135783
_cell_length_c   9.55258841
_cell_angle_alpha   90.00199111
_cell_angle_beta   89.81027052
_cell_angle_gamma   119.31122794
_symmetry_Int_Tables_number   1
_chemical_formula_structural   DyEr5Al24Os5Rh3
_chemical_formula_sum   'Dy1 Er5 Al24 Os5 Rh3'
_cell_volume   640.65630162
_cell_formula_units_Z   1
loop_
 _symmetry_equiv_pos_site_id
 _symmetry_equiv_pos_as_xyz
  1  'x, y, z'
loop_
 _atom_site_type_symbol
 _atom_site_label
 _atom_site_symmetry_multiplicity
 _atom_site_fract_x
 _atom_site_fract_y
 _atom_site_fract_z
 _atom_site_occupancy
  Dy  Dy0  1  0.186945  0.383818  0.251777  1
  Er  Er1  1  0.812456  0.614603  0.747912  1
  Er  Er2  1  0.612463  0.814161  0.251533  1
  Er  Er3  1  0.387637  0.185848  0.748487  1
  Er  Er4  1  0.197177  0.808882  0.252030  1
  Er  Er5  1  0.802904  0.191402  0.747942  1
  Al  Al6  1  0.333668  0.667869  0.024890  1
  Al  Al7  1  0.666567  0.332523  0.974769  1
  Al  Al8  1  0.667450  0.332800  0.522779  1
  Al  Al9  1  0.332581  0.667420  0.477519  1
  Al  Al10  1  0.162057  0.325705  0.577586  1
  Al  Al11  1  0.837933  0.674382  0.422885  1
  Al  Al12  1  0.673311  0.836549  0.576753  1
  Al  Al13  1  0.835716  0.674404  0.077326  1
  Al  Al14  1  0.326854  0.163304  0.423560  1
  Al  Al15  1  0.164345  0.325640  0.922190  1
  Al  Al16  1  0.163634  0.834233  0.576187  1
  Al  Al17  1  0.326567  0.163003  0.076556  1
  Al  Al18  1  0.835935  0.165614  0.424147  1
  Al  Al19  1  0.673602  0.836869  0.923158  1
  Al  Al20  1  0.833613  0.162915  0.076296  1
  Al  Al21  1  0.166033  0.836937  0.923436  1
  Al  Al22  1  0.561509  0.126293  0.249567  1
  Al  Al23  1  0.438516  0.873662  0.750474  1
  Al  Al24  1  0.875533  0.439585  0.250046  1
  Al  Al25  1  0.124124  0.560618  0.750042  1
  Al  Al26  1  0.560728  0.440536  0.249606  1
  Al  Al27  1  0.439837  0.559621  0.750388  1
  Al  Al28  1  0.998503  0.001194  0.250094  1
  Al  Al29  1  0.001007  0.997850  0.749958  1
  Os  Os30  1  0.500117  0.000303  0.999905  1
  Os  Os31  1  0.500080  0.000196  0.500132  1
  Os  Os32  1  0.999666  0.500194  0.500422  1
  Os  Os33  1  0.999935  0.999978  0.000050  1
  Os  Os34  1  0.999934  0.999994  0.500000  1
  Rh  Rh35  1  0.999738  0.500306  0.999594  1
  Rh  Rh36  1  0.500701  0.500404  0.999583  1
  Rh  Rh37  1  0.500626  0.500383  0.500422  1
