# generated using pymatgen
data_Ca3PuN4
_symmetry_space_group_name_H-M   'P 1'
_cell_length_a   6.91527271
_cell_length_b   9.17223081
_cell_length_c   6.02567992
_cell_angle_alpha   29.16044188
_cell_angle_beta   54.98319455
_cell_angle_gamma   41.06754465
_symmetry_Int_Tables_number   1
_chemical_formula_structural   Ca3PuN4
_chemical_formula_sum   'Ca3 Pu1 N4'
_cell_volume   117.99672094
_cell_formula_units_Z   1
loop_
 _symmetry_equiv_pos_site_id
 _symmetry_equiv_pos_as_xyz
  1  'x, y, z'
loop_
 _atom_site_type_symbol
 _atom_site_label
 _atom_site_symmetry_multiplicity
 _atom_site_fract_x
 _atom_site_fract_y
 _atom_site_fract_z
 _atom_site_occupancy
  Ca  Ca0  1  0.250000  0.500000  0.000000  1
  Ca  Ca1  1  0.750000  0.500000  0.000000  1
  Ca  Ca2  1  0.500000  0.000000  0.000000  1
  Pu  Pu3  1  0.000000  0.000000  0.000000  1
  N  N4  1  0.500000  0.500000  0.500000  1
  N  N5  1  0.200295  0.000000  0.599409  1
  N  N6  1  0.000000  0.500000  0.500000  1
  N  N7  1  0.799705  0.000000  0.400591  1
