# generated using pymatgen
data_Yb3Pr(Tm3Ru2)2
_symmetry_space_group_name_H-M   'P 1'
_cell_length_a   6.39404616
_cell_length_b   7.22460232
_cell_length_c   8.47528241
_cell_angle_alpha   97.25778140
_cell_angle_beta   112.04567788
_cell_angle_gamma   89.91028123
_symmetry_Int_Tables_number   1
_chemical_formula_structural   Yb3Pr(Tm3Ru2)2
_chemical_formula_sum   'Yb3 Pr1 Tm6 Ru4'
_cell_volume   359.53015812
_cell_formula_units_Z   1
loop_
 _symmetry_equiv_pos_site_id
 _symmetry_equiv_pos_as_xyz
  1  'x, y, z'
loop_
 _atom_site_type_symbol
 _atom_site_label
 _atom_site_symmetry_multiplicity
 _atom_site_fract_x
 _atom_site_fract_y
 _atom_site_fract_z
 _atom_site_occupancy
  Yb  Yb0  1  0.980189  0.421908  0.187912  1
  Yb  Yb1  1  0.208720  0.919467  0.189189  1
  Yb  Yb2  1  0.020386  0.579790  0.816305  1
  Pr  Pr3  1  0.792199  0.080475  0.814514  1
  Tm  Tm4  1  0.198865  0.184134  0.567334  1
  Tm  Tm5  1  0.628503  0.313943  0.431784  1
  Tm  Tm6  1  0.798779  0.815849  0.430954  1
  Tm  Tm7  1  0.371667  0.688076  0.564890  1
  Tm  Tm8  1  0.428716  0.251859  0.002292  1
  Tm  Tm9  1  0.568355  0.749669  0.002020  1
  Ru  Ru10  1  0.585126  0.424134  0.768859  1
  Ru  Ru11  1  0.813291  0.075016  0.226669  1
  Ru  Ru12  1  0.419165  0.572902  0.231424  1
  Ru  Ru13  1  0.186041  0.922779  0.765856  1
