# generated using pymatgen
data_Sc18PaRe7O6
_symmetry_space_group_name_H-M   'P 1'
_cell_length_a   8.67181400
_cell_length_b   8.67181381
_cell_length_c   8.31883600
_cell_angle_alpha   90.00000000
_cell_angle_beta   90.00000000
_cell_angle_gamma   120.00000073
_symmetry_Int_Tables_number   1
_chemical_formula_structural   Sc18PaRe7O6
_chemical_formula_sum   'Sc18 Pa1 Re7 O6'
_cell_volume   541.76767618
_cell_formula_units_Z   1
loop_
 _symmetry_equiv_pos_site_id
 _symmetry_equiv_pos_as_xyz
  1  'x, y, z'
loop_
 _atom_site_type_symbol
 _atom_site_label
 _atom_site_symmetry_multiplicity
 _atom_site_fract_x
 _atom_site_fract_y
 _atom_site_fract_z
 _atom_site_occupancy
  Sc  Sc0  1  0.456962  0.913925  0.249150  1
  Sc  Sc1  1  0.543038  0.086075  0.750850  1
  Sc  Sc2  1  0.086075  0.543038  0.249150  1
  Sc  Sc3  1  0.913925  0.456962  0.750850  1
  Sc  Sc4  1  0.456962  0.543038  0.249150  1
  Sc  Sc5  1  0.543038  0.456962  0.750850  1
  Sc  Sc6  1  0.202681  0.405360  0.548863  1
  Sc  Sc7  1  0.797319  0.594640  0.451137  1
  Sc  Sc8  1  0.594640  0.797319  0.548863  1
  Sc  Sc9  1  0.794775  0.589551  0.049850  1
  Sc  Sc10  1  0.405360  0.202681  0.451137  1
  Sc  Sc11  1  0.205225  0.410449  0.950150  1
  Sc  Sc12  1  0.202681  0.797319  0.548863  1
  Sc  Sc13  1  0.410449  0.205225  0.049850  1
  Sc  Sc14  1  0.797319  0.202681  0.451137  1
  Sc  Sc15  1  0.589551  0.794775  0.950150  1
  Sc  Sc16  1  0.794775  0.205225  0.049850  1
  Sc  Sc17  1  0.205225  0.794775  0.950150  1
  Pa  Pa18  1  0.000000  0.000000  0.000000  1
  Re  Re19  1  0.109628  0.219256  0.256317  1
  Re  Re20  1  0.890372  0.780744  0.743683  1
  Re  Re21  1  0.780744  0.890372  0.256317  1
  Re  Re22  1  0.219256  0.109628  0.743683  1
  Re  Re23  1  0.109628  0.890372  0.256317  1
  Re  Re24  1  0.890372  0.109628  0.743683  1
  Re  Re25  1  0.000000  0.000000  0.500000  1
  O  O26  1  0.500000  0.000000  0.000000  1
  O  O27  1  0.000000  0.500000  0.000000  1
  O  O28  1  0.500000  0.000000  0.500000  1
  O  O29  1  0.500000  0.500000  0.000000  1
  O  O30  1  0.000000  0.500000  0.500000  1
  O  O31  1  0.500000  0.500000  0.500000  1
