# generated using pymatgen
data_Er12InFe4Pd
_symmetry_space_group_name_H-M   'P 1'
_cell_length_a   8.26797616
_cell_length_b   8.26797562
_cell_length_c   8.26797654
_cell_angle_alpha   110.64596202
_cell_angle_beta   110.86302089
_cell_angle_gamma   106.93415937
_symmetry_Int_Tables_number   1
_chemical_formula_structural   Er12InFe4Pd
_chemical_formula_sum   'Er12 In1 Fe4 Pd1'
_cell_volume   434.44875047
_cell_formula_units_Z   1
loop_
 _symmetry_equiv_pos_site_id
 _symmetry_equiv_pos_as_xyz
  1  'x, y, z'
loop_
 _atom_site_type_symbol
 _atom_site_label
 _atom_site_symmetry_multiplicity
 _atom_site_fract_x
 _atom_site_fract_y
 _atom_site_fract_z
 _atom_site_occupancy
  Er  Er0  1  0.187441  0.290549  0.477990  1
  Er  Er1  1  0.812559  0.709451  0.522010  1
  Er  Er2  1  0.187441  0.709451  0.896892  1
  Er  Er3  1  0.812559  0.290549  0.103108  1
  Er  Er4  1  0.312887  0.612835  0.299949  1
  Er  Er5  1  0.687113  0.387165  0.700051  1
  Er  Er6  1  0.312887  0.012938  0.700051  1
  Er  Er7  1  0.687113  0.987062  0.299949  1
  Er  Er8  1  0.418200  0.217476  0.200724  1
  Er  Er9  1  0.581800  0.782524  0.799276  1
  Er  Er10  1  0.016752  0.217476  0.799276  1
  Er  Er11  1  0.983248  0.782524  0.200724  1
  In  In12  1  0.500000  0.500000  0.000000  1
  Fe  Fe13  1  0.109414  0.609414  0.500000  1
  Fe  Fe14  1  0.890586  0.390586  0.500000  1
  Fe  Fe15  1  0.384091  0.000000  0.384091  1
  Fe  Fe16  1  0.615909  0.000000  0.615909  1
  Pd  Pd17  1  0.000000  0.000000  0.000000  1
