# generated using pymatgen
data_Sm4Lu(SiHg)2
_symmetry_space_group_name_H-M   'P 1'
_cell_length_a   9.00083000
_cell_length_b   9.00083060
_cell_length_c   7.61842700
_cell_angle_alpha   90.00000000
_cell_angle_beta   90.00000000
_cell_angle_gamma   130.13476387
_symmetry_Int_Tables_number   1
_chemical_formula_structural   Sm4Lu(SiHg)2
_chemical_formula_sum   'Sm8 Lu2 Si4 Hg4'
_cell_volume   471.87312229
_cell_formula_units_Z   2
loop_
 _symmetry_equiv_pos_site_id
 _symmetry_equiv_pos_as_xyz
  1  'x, y, z'
loop_
 _atom_site_type_symbol
 _atom_site_label
 _atom_site_symmetry_multiplicity
 _atom_site_fract_x
 _atom_site_fract_y
 _atom_site_fract_z
 _atom_site_occupancy
  Sm  Sm0  1  0.556316  0.811001  0.176952  1
  Sm  Sm1  1  0.311001  0.056316  0.323048  1
  Sm  Sm2  1  0.188999  0.443684  0.823048  1
  Sm  Sm3  1  0.943684  0.688999  0.676952  1
  Sm  Sm4  1  0.688999  0.943684  0.676952  1
  Sm  Sm5  1  0.443684  0.188999  0.823048  1
  Sm  Sm6  1  0.811001  0.556316  0.176952  1
  Sm  Sm7  1  0.056316  0.311001  0.323048  1
  Lu  Lu8  1  0.500000  0.500000  0.500000  1
  Lu  Lu9  1  0.000000  0.000000  0.000000  1
  Si  Si10  1  0.617833  0.617833  0.879346  1
  Si  Si11  1  0.117833  0.117833  0.620654  1
  Si  Si12  1  0.882167  0.882167  0.379346  1
  Si  Si13  1  0.382167  0.382167  0.120654  1
  Hg  Hg14  1  0.281079  0.718921  0.500000  1
  Hg  Hg15  1  0.218921  0.781079  0.000000  1
  Hg  Hg16  1  0.718921  0.281079  0.500000  1
  Hg  Hg17  1  0.781079  0.218921  0.000000  1
