# generated using pymatgen
data_Tb3CBr5
_symmetry_space_group_name_H-M   'P 1'
_cell_length_a   7.38616544
_cell_length_b   8.89936912
_cell_length_c   9.01384339
_cell_angle_alpha   107.16971359
_cell_angle_beta   96.44387774
_cell_angle_gamma   104.39839088
_symmetry_Int_Tables_number   1
_chemical_formula_structural   Tb3CBr5
_chemical_formula_sum   'Tb6 C2 Br10'
_cell_volume   537.16894704
_cell_formula_units_Z   2
loop_
 _symmetry_equiv_pos_site_id
 _symmetry_equiv_pos_as_xyz
  1  'x, y, z'
loop_
 _atom_site_type_symbol
 _atom_site_label
 _atom_site_symmetry_multiplicity
 _atom_site_fract_x
 _atom_site_fract_y
 _atom_site_fract_z
 _atom_site_occupancy
  Tb  Tb0  1  0.889435  0.956770  0.227848  1
  Tb  Tb1  1  0.110565  0.043230  0.772152  1
  Tb  Tb2  1  0.028303  0.726525  0.919140  1
  Tb  Tb3  1  0.971697  0.273475  0.080860  1
  Tb  Tb4  1  0.615525  0.857674  0.808057  1
  Tb  Tb5  1  0.384475  0.142326  0.191943  1
  C  C6  1  0.905337  0.968369  0.955161  1
  C  C7  1  0.094663  0.031631  0.044839  1
  Br  Br8  1  0.753668  0.916785  0.539928  1
  Br  Br9  1  0.246332  0.083215  0.460072  1
  Br  Br10  1  0.459923  0.815240  0.088999  1
  Br  Br11  1  0.540077  0.184760  0.911001  1
  Br  Br12  1  0.808673  0.262409  0.351239  1
  Br  Br13  1  0.191327  0.737591  0.648761  1
  Br  Br14  1  0.910086  0.629560  0.174480  1
  Br  Br15  1  0.089914  0.370440  0.825520  1
  Br  Br16  1  0.660126  0.544238  0.725621  1
  Br  Br17  1  0.339874  0.455762  0.274379  1
