# generated using pymatgen
data_Lu10In8CoRh3
_symmetry_space_group_name_H-M   'P 1'
_cell_length_a   3.51779800
_cell_length_b   7.93686503
_cell_length_c   18.02252473
_cell_angle_alpha   90.09258400
_cell_angle_beta   90.00000000
_cell_angle_gamma   90.00000000
_symmetry_Int_Tables_number   1
_chemical_formula_structural   Lu10In8CoRh3
_chemical_formula_sum   'Lu10 In8 Co1 Rh3'
_cell_volume   503.19342265
_cell_formula_units_Z   1
loop_
 _symmetry_equiv_pos_site_id
 _symmetry_equiv_pos_as_xyz
  1  'x, y, z'
loop_
 _atom_site_type_symbol
 _atom_site_label
 _atom_site_symmetry_multiplicity
 _atom_site_fract_x
 _atom_site_fract_y
 _atom_site_fract_z
 _atom_site_occupancy
  Lu  Lu0  1  0.000000  0.499762  0.498448  1
  Lu  Lu1  1  0.000000  0.000738  0.001208  1
  Lu  Lu2  1  0.000000  0.740430  0.276019  1
  Lu  Lu3  1  0.000000  0.253639  0.721577  1
  Lu  Lu4  1  0.000000  0.753559  0.779445  1
  Lu  Lu5  1  0.000000  0.252503  0.220303  1
  Lu  Lu6  1  0.000000  0.615727  0.091176  1
  Lu  Lu7  1  0.000000  0.383028  0.914137  1
  Lu  Lu8  1  0.000000  0.881708  0.586598  1
  Lu  Lu9  1  0.000000  0.117907  0.411396  1
  In  In10  1  0.500000  0.706273  0.935104  1
  In  In11  1  0.500000  0.296593  0.068996  1
  In  In12  1  0.500000  0.793479  0.432019  1
  In  In13  1  0.500000  0.207212  0.565902  1
  In  In14  1  0.500000  0.570803  0.648936  1
  In  In15  1  0.500000  0.430377  0.347698  1
  In  In16  1  0.500000  0.927799  0.149288  1
  In  In17  1  0.500000  0.071934  0.851847  1
  Co  Co18  1  0.500000  0.523413  0.195977  1
  Rh  Rh19  1  0.500000  0.473959  0.804709  1
  Rh  Rh20  1  0.500000  0.973755  0.696061  1
  Rh  Rh21  1  0.500000  0.025408  0.303157  1
