# generated using pymatgen
data_ErTm3LuCoSb2
_symmetry_space_group_name_H-M   'P 1'
_cell_length_a   7.73734300
_cell_length_b   8.70804400
_cell_length_c   12.02096700
_cell_angle_alpha   90.00000000
_cell_angle_beta   90.00000000
_cell_angle_gamma   90.00000000
_symmetry_Int_Tables_number   1
_chemical_formula_structural   ErTm3LuCoSb2
_chemical_formula_sum   'Er4 Tm12 Lu4 Co4 Sb8'
_cell_volume   809.93817559
_cell_formula_units_Z   4
loop_
 _symmetry_equiv_pos_site_id
 _symmetry_equiv_pos_as_xyz
  1  'x, y, z'
loop_
 _atom_site_type_symbol
 _atom_site_label
 _atom_site_symmetry_multiplicity
 _atom_site_fract_x
 _atom_site_fract_y
 _atom_site_fract_z
 _atom_site_occupancy
  Er  Er0  1  0.622562  0.749931  0.308328  1
  Er  Er1  1  0.122562  0.250069  0.191672  1
  Er  Er2  1  0.377438  0.249931  0.691672  1
  Er  Er3  1  0.877438  0.750069  0.808328  1
  Tm  Tm4  1  0.157690  0.750080  0.204598  1
  Tm  Tm5  1  0.657690  0.249920  0.295402  1
  Tm  Tm6  1  0.842310  0.250080  0.795402  1
  Tm  Tm7  1  0.342310  0.749920  0.704598  1
  Tm  Tm8  1  0.449749  0.749927  0.998013  1
  Tm  Tm9  1  0.949749  0.250073  0.501987  1
  Tm  Tm10  1  0.550251  0.249927  0.001987  1
  Tm  Tm11  1  0.050251  0.750073  0.498013  1
  Tm  Tm12  1  0.175972  0.037772  0.934383  1
  Tm  Tm13  1  0.675972  0.962228  0.565617  1
  Tm  Tm14  1  0.824028  0.537772  0.065617  1
  Tm  Tm15  1  0.324028  0.462228  0.434383  1
  Lu  Lu16  1  0.824605  0.962220  0.065553  1
  Lu  Lu17  1  0.324605  0.037780  0.434447  1
  Lu  Lu18  1  0.175395  0.462220  0.934447  1
  Lu  Lu19  1  0.675395  0.537780  0.565553  1
  Co  Co20  1  0.430448  0.749954  0.490703  1
  Co  Co21  1  0.930448  0.250046  0.009297  1
  Co  Co22  1  0.569552  0.249954  0.509297  1
  Co  Co23  1  0.069552  0.750046  0.990703  1
  Sb  Sb24  1  0.931583  0.991467  0.327541  1
  Sb  Sb25  1  0.431583  0.008533  0.172459  1
  Sb  Sb26  1  0.068417  0.491467  0.672459  1
  Sb  Sb27  1  0.568417  0.508533  0.827541  1
  Sb  Sb28  1  0.068535  0.008563  0.672445  1
  Sb  Sb29  1  0.568535  0.991437  0.827555  1
  Sb  Sb30  1  0.931465  0.508563  0.327555  1
  Sb  Sb31  1  0.431465  0.491437  0.172445  1
