# generated using pymatgen
data_YbSmDyGa8Ag3
_symmetry_space_group_name_H-M   'P 1'
_cell_length_a   4.36944786
_cell_length_b   8.33812524
_cell_length_c   8.33812513
_cell_angle_alpha   70.57470623
_cell_angle_beta   74.81026548
_cell_angle_gamma   74.81026500
_symmetry_Int_Tables_number   1
_chemical_formula_structural   YbSmDyGa8Ag3
_chemical_formula_sum   'Yb1 Sm1 Dy1 Ga8 Ag3'
_cell_volume   271.32965249
_cell_formula_units_Z   1
loop_
 _symmetry_equiv_pos_site_id
 _symmetry_equiv_pos_as_xyz
  1  'x, y, z'
loop_
 _atom_site_type_symbol
 _atom_site_label
 _atom_site_symmetry_multiplicity
 _atom_site_fract_x
 _atom_site_fract_y
 _atom_site_fract_z
 _atom_site_occupancy
  Yb  Yb0  1  0.802465  0.197535  0.197535  1
  Sm  Sm1  1  0.499847  0.500153  0.500153  1
  Dy  Dy2  1  0.199937  0.800063  0.800063  1
  Ga  Ga3  1  0.642385  0.075521  0.639709  1
  Ga  Ga4  1  0.355398  0.926690  0.362515  1
  Ga  Ga5  1  0.642385  0.639709  0.075521  1
  Ga  Ga6  1  0.355398  0.362515  0.926690  1
  Ga  Ga7  1  0.840026  0.789921  0.530028  1
  Ga  Ga8  1  0.162010  0.206154  0.469826  1
  Ga  Ga9  1  0.840026  0.530028  0.789921  1
  Ga  Ga10  1  0.162010  0.469826  0.206154  1
  Ag  Ag11  1  0.499742  0.000258  0.000258  1
  Ag  Ag12  1  0.999186  0.805232  0.196397  1
  Ag  Ag13  1  0.999186  0.196397  0.805232  1
