# generated using pymatgen
data_Li4BPPd6
_symmetry_space_group_name_H-M   'P 1'
_cell_length_a   7.06237000
_cell_length_b   6.97730751
_cell_length_c   6.97730751
_cell_angle_alpha   88.99094575
_cell_angle_beta   90.00000000
_cell_angle_gamma   90.00000000
_symmetry_Int_Tables_number   1
_chemical_formula_structural   Li4BPPd6
_chemical_formula_sum   'Li8 B2 P2 Pd12'
_cell_volume   343.76277046
_cell_formula_units_Z   2
loop_
 _symmetry_equiv_pos_site_id
 _symmetry_equiv_pos_as_xyz
  1  'x, y, z'
loop_
 _atom_site_type_symbol
 _atom_site_label
 _atom_site_symmetry_multiplicity
 _atom_site_fract_x
 _atom_site_fract_y
 _atom_site_fract_z
 _atom_site_occupancy
  Li  Li0  1  0.300856  0.295620  0.299105  1
  Li  Li1  1  0.050508  0.447299  0.557269  1
  Li  Li2  1  0.550508  0.052701  0.442731  1
  Li  Li3  1  0.449144  0.549105  0.045620  1
  Li  Li4  1  0.199492  0.692731  0.802701  1
  Li  Li5  1  0.949144  0.950895  0.954380  1
  Li  Li6  1  0.800856  0.204380  0.700895  1
  Li  Li7  1  0.699492  0.807269  0.197299  1
  B  B8  1  0.875000  0.369354  0.119354  1
  B  B9  1  0.375000  0.130646  0.880646  1
  P  P10  1  0.625000  0.618983  0.631017  1
  P  P11  1  0.125000  0.881017  0.368983  1
  Pd  Pd12  1  0.188779  0.059548  0.642397  1
  Pd  Pd13  1  0.433914  0.358254  0.687037  1
  Pd  Pd14  1  0.061221  0.607603  0.190452  1
  Pd  Pd15  1  0.933914  0.141746  0.312963  1
  Pd  Pd16  1  0.316086  0.937037  0.108254  1
  Pd  Pd17  1  0.688779  0.440452  0.357603  1
  Pd  Pd18  1  0.561221  0.892397  0.809548  1
  Pd  Pd19  1  0.625000  0.194687  0.055313  1
  Pd  Pd20  1  0.375000  0.678550  0.428550  1
  Pd  Pd21  1  0.875000  0.821450  0.571450  1
  Pd  Pd22  1  0.125000  0.305313  0.944687  1
  Pd  Pd23  1  0.816086  0.562963  0.891746  1
