# generated using pymatgen
data_Mg2In6BIr4
_symmetry_space_group_name_H-M   'P 1'
_cell_length_a   8.81139266
_cell_length_b   8.82018226
_cell_length_c   8.80372323
_cell_angle_alpha   60.07880582
_cell_angle_beta   60.01080673
_cell_angle_gamma   59.99265111
_symmetry_Int_Tables_number   1
_chemical_formula_structural   Mg2In6BIr4
_chemical_formula_sum   'Mg4 In12 B2 Ir8'
_cell_volume   484.10863118
_cell_formula_units_Z   2
loop_
 _symmetry_equiv_pos_site_id
 _symmetry_equiv_pos_as_xyz
  1  'x, y, z'
loop_
 _atom_site_type_symbol
 _atom_site_label
 _atom_site_symmetry_multiplicity
 _atom_site_fract_x
 _atom_site_fract_y
 _atom_site_fract_z
 _atom_site_occupancy
  Mg  Mg0  1  0.125000  0.125000  0.625000  1
  Mg  Mg1  1  0.125000  0.625000  0.125000  1
  Mg  Mg2  1  0.125000  0.125000  0.125000  1
  Mg  Mg3  1  0.625000  0.125000  0.125000  1
  In  In4  1  0.952143  0.952585  0.547646  1
  In  In5  1  0.297747  0.702337  0.297726  1
  In  In6  1  0.702289  0.297488  0.702296  1
  In  In7  1  0.297857  0.297415  0.702354  1
  In  In8  1  0.702315  0.297430  0.297925  1
  In  In9  1  0.702237  0.702381  0.297694  1
  In  In10  1  0.952270  0.547636  0.547755  1
  In  In11  1  0.547685  0.952570  0.952075  1
  In  In12  1  0.547711  0.952512  0.547704  1
  In  In13  1  0.547763  0.547619  0.952306  1
  In  In14  1  0.952253  0.547663  0.952274  1
  In  In15  1  0.297730  0.702364  0.702245  1
  B  B16  1  0.250243  0.249440  0.250159  1
  B  B17  1  0.999757  0.000560  0.999841  1
  Ir  Ir18  1  0.901444  0.901027  0.901557  1
  Ir  Ir19  1  0.901267  0.296380  0.901137  1
  Ir  Ir20  1  0.295936  0.901081  0.901539  1
  Ir  Ir21  1  0.348461  0.349038  0.954053  1
  Ir  Ir22  1  0.954064  0.348919  0.348461  1
  Ir  Ir23  1  0.901539  0.900962  0.295947  1
  Ir  Ir24  1  0.348733  0.953620  0.348863  1
  Ir  Ir25  1  0.348556  0.348973  0.348443  1
