# generated using pymatgen
data_LaY6MnBr12
_symmetry_space_group_name_H-M   'P 1'
_cell_length_a   9.36349194
_cell_length_b   9.38267225
_cell_length_c   9.10987329
_cell_angle_alpha   106.35342026
_cell_angle_beta   107.37261043
_cell_angle_gamma   106.76894421
_symmetry_Int_Tables_number   1
_chemical_formula_structural   LaY6MnBr12
_chemical_formula_sum   'La1 Y6 Mn1 Br12'
_cell_volume   669.52987504
_cell_formula_units_Z   1
loop_
 _symmetry_equiv_pos_site_id
 _symmetry_equiv_pos_as_xyz
  1  'x, y, z'
loop_
 _atom_site_type_symbol
 _atom_site_label
 _atom_site_symmetry_multiplicity
 _atom_site_fract_x
 _atom_site_fract_y
 _atom_site_fract_z
 _atom_site_occupancy
  La  La0  1  0.594062  0.520943  0.789784  1
  Y  Y1  1  0.000291  0.002888  0.996535  1
  Y  Y2  1  0.520515  0.805413  0.599161  1
  Y  Y3  1  0.808741  0.600338  0.524111  1
  Y  Y4  1  0.404066  0.477449  0.210808  1
  Y  Y5  1  0.478888  0.191848  0.399074  1
  Y  Y6  1  0.190810  0.399308  0.481038  1
  Mn  Mn7  1  0.508191  0.500088  0.526230  1
  Br  Br8  1  0.567116  0.163914  0.712974  1
  Br  Br9  1  0.177621  0.717096  0.564559  1
  Br  Br10  1  0.714103  0.566429  0.180914  1
  Br  Br11  1  0.426181  0.810389  0.272322  1
  Br  Br12  1  0.818861  0.280865  0.425573  1
  Br  Br13  1  0.261505  0.424038  0.818204  1
  Br  Br14  1  0.674965  0.900553  0.966255  1
  Br  Br15  1  0.881827  0.959455  0.657830  1
  Br  Br16  1  0.978093  0.681704  0.888012  1
  Br  Br17  1  0.332700  0.123307  0.037553  1
  Br  Br18  1  0.117986  0.039810  0.333647  1
  Br  Br19  1  0.043474  0.334162  0.115415  1
