# generated using pymatgen
data_ErThAlRu2
_symmetry_space_group_name_H-M   'P 1'
_cell_length_a   5.70071538
_cell_length_b   5.70071442
_cell_length_c   7.11306456
_cell_angle_alpha   87.38933850
_cell_angle_beta   92.61066329
_cell_angle_gamma   116.59663651
_symmetry_Int_Tables_number   1
_chemical_formula_structural   ErThAlRu2
_chemical_formula_sum   'Er2 Th2 Al2 Ru4'
_cell_volume   206.40362481
_cell_formula_units_Z   2
loop_
 _symmetry_equiv_pos_site_id
 _symmetry_equiv_pos_as_xyz
  1  'x, y, z'
loop_
 _atom_site_type_symbol
 _atom_site_label
 _atom_site_symmetry_multiplicity
 _atom_site_fract_x
 _atom_site_fract_y
 _atom_site_fract_z
 _atom_site_occupancy
  Er  Er0  1  0.342097  0.657903  0.084794  1
  Er  Er1  1  0.657903  0.342097  0.915206  1
  Th  Th2  1  0.166085  0.833915  0.601171  1
  Th  Th3  1  0.833915  0.166085  0.398829  1
  Al  Al4  1  0.000000  0.000000  0.000000  1
  Al  Al5  1  0.500000  0.500000  0.500000  1
  Ru  Ru6  1  0.858735  0.646214  0.259656  1
  Ru  Ru7  1  0.646214  0.858735  0.740344  1
  Ru  Ru8  1  0.141265  0.353786  0.740344  1
  Ru  Ru9  1  0.353786  0.141265  0.259656  1
