# generated using pymatgen
data_Hf8Ta12Be3Si13
_symmetry_space_group_name_H-M   'P 1'
_cell_length_a   6.61556344
_cell_length_b   6.78034070
_cell_length_c   12.99341300
_cell_angle_alpha   90.00000000
_cell_angle_beta   90.00000000
_cell_angle_gamma   89.79644372
_symmetry_Int_Tables_number   1
_chemical_formula_structural   Hf8Ta12Be3Si13
_chemical_formula_sum   'Hf8 Ta12 Be3 Si13'
_cell_volume   582.82591899
_cell_formula_units_Z   1
loop_
 _symmetry_equiv_pos_site_id
 _symmetry_equiv_pos_as_xyz
  1  'x, y, z'
loop_
 _atom_site_type_symbol
 _atom_site_label
 _atom_site_symmetry_multiplicity
 _atom_site_fract_x
 _atom_site_fract_y
 _atom_site_fract_z
 _atom_site_occupancy
  Hf  Hf0  1  0.499898  0.670875  0.596787  1
  Hf  Hf1  1  0.000606  0.828609  0.903559  1
  Hf  Hf2  1  0.502379  0.330980  0.094775  1
  Hf  Hf3  1  0.002163  0.173708  0.404063  1
  Hf  Hf4  1  0.502379  0.330980  0.405225  1
  Hf  Hf5  1  0.002163  0.173708  0.095937  1
  Hf  Hf6  1  0.499898  0.670875  0.903213  1
  Hf  Hf7  1  0.000606  0.828609  0.596441  1
  Ta  Ta8  1  0.659530  0.177971  0.627954  1
  Ta  Ta9  1  0.161203  0.321473  0.872196  1
  Ta  Ta10  1  0.342102  0.820525  0.125437  1
  Ta  Ta11  1  0.832675  0.672875  0.376061  1
  Ta  Ta12  1  0.342102  0.820525  0.374563  1
  Ta  Ta13  1  0.832675  0.672875  0.123939  1
  Ta  Ta14  1  0.659530  0.177971  0.872046  1
  Ta  Ta15  1  0.161203  0.321473  0.627804  1
  Ta  Ta16  1  0.832278  0.493779  0.750000  1
  Ta  Ta17  1  0.332876  0.005245  0.750000  1
  Ta  Ta18  1  0.166309  0.505137  0.250000  1
  Ta  Ta19  1  0.663561  0.994359  0.250000  1
  Be  Be20  1  0.453407  0.385461  0.750000  1
  Be  Be21  1  0.954073  0.114090  0.750000  1
  Be  Be22  1  0.544959  0.613658  0.250000  1
  Si  Si23  1  0.671392  0.966747  0.464669  1
  Si  Si24  1  0.169909  0.533728  0.036011  1
  Si  Si25  1  0.329501  0.034432  0.962620  1
  Si  Si26  1  0.829393  0.464442  0.539291  1
  Si  Si27  1  0.329501  0.034432  0.537380  1
  Si  Si28  1  0.829393  0.464442  0.960709  1
  Si  Si29  1  0.671392  0.966747  0.035331  1
  Si  Si30  1  0.169909  0.533728  0.463989  1
  Si  Si31  1  0.040416  0.885930  0.250000  1
  Si  Si32  1  0.714391  0.870864  0.750000  1
  Si  Si33  1  0.212706  0.628858  0.750000  1
  Si  Si34  1  0.297294  0.139078  0.250000  1
  Si  Si35  1  0.786229  0.370808  0.250000  1
