# generated using pymatgen
data_Yb10CdCuBi6
_symmetry_space_group_name_H-M   'P 1'
_cell_length_a   9.33610100
_cell_length_b   9.33610070
_cell_length_c   7.08087200
_cell_angle_alpha   90.00000000
_cell_angle_beta   90.00000000
_cell_angle_gamma   120.00000462
_symmetry_Int_Tables_number   1
_chemical_formula_structural   Yb10CdCuBi6
_chemical_formula_sum   'Yb10 Cd1 Cu1 Bi6'
_cell_volume   534.50087918
_cell_formula_units_Z   1
loop_
 _symmetry_equiv_pos_site_id
 _symmetry_equiv_pos_as_xyz
  1  'x, y, z'
loop_
 _atom_site_type_symbol
 _atom_site_label
 _atom_site_symmetry_multiplicity
 _atom_site_fract_x
 _atom_site_fract_y
 _atom_site_fract_z
 _atom_site_occupancy
  Yb  Yb0  1  0.261983  0.261983  0.725295  1
  Yb  Yb1  1  0.738017  0.738017  0.274705  1
  Yb  Yb2  1  0.333333  0.666667  0.500000  1
  Yb  Yb3  1  0.261983  0.000000  0.274705  1
  Yb  Yb4  1  0.666667  0.333333  0.500000  1
  Yb  Yb5  1  0.000000  0.738017  0.725295  1
  Yb  Yb6  1  0.666667  0.333333  0.000000  1
  Yb  Yb7  1  0.000000  0.261983  0.274705  1
  Yb  Yb8  1  0.738017  0.000000  0.725295  1
  Yb  Yb9  1  0.333333  0.666667  0.000000  1
  Cd  Cd10  1  0.000000  0.000000  0.000000  1
  Cu  Cu11  1  0.000000  0.000000  0.500000  1
  Bi  Bi12  1  0.386513  0.000000  0.751618  1
  Bi  Bi13  1  0.613487  0.000000  0.248382  1
  Bi  Bi14  1  0.613487  0.613487  0.751618  1
  Bi  Bi15  1  0.000000  0.613487  0.248382  1
  Bi  Bi16  1  0.000000  0.386513  0.751618  1
  Bi  Bi17  1  0.386513  0.386513  0.248382  1
