# generated using pymatgen
data_Ho2Tm3Lu3(WO6)4
_symmetry_space_group_name_H-M   'P 1'
_cell_length_a   5.33687252
_cell_length_b   7.62975276
_cell_length_c   11.33560266
_cell_angle_alpha   75.29625312
_cell_angle_beta   90.02591731
_cell_angle_gamma   90.04855846
_symmetry_Int_Tables_number   1
_chemical_formula_structural   Ho2Tm3Lu3(WO6)4
_chemical_formula_sum   'Ho2 Tm3 Lu3 W4 O24'
_cell_volume   446.45839838
_cell_formula_units_Z   1
loop_
 _symmetry_equiv_pos_site_id
 _symmetry_equiv_pos_as_xyz
  1  'x, y, z'
loop_
 _atom_site_type_symbol
 _atom_site_label
 _atom_site_symmetry_multiplicity
 _atom_site_fract_x
 _atom_site_fract_y
 _atom_site_fract_z
 _atom_site_occupancy
  Ho  Ho0  1  0.684761  0.499742  0.750582  1
  Ho  Ho1  1  0.315627  0.499683  0.249720  1
  Tm  Tm2  1  0.742762  0.000425  0.750825  1
  Tm  Tm3  1  0.257227  0.000047  0.249329  1
  Tm  Tm4  1  0.181922  0.794597  0.578509  1
  Lu  Lu5  1  0.818741  0.793714  0.078929  1
  Lu  Lu6  1  0.181866  0.206358  0.921046  1
  Lu  Lu7  1  0.817446  0.206410  0.421018  1
  W  W8  1  0.257413  0.724874  0.885666  1
  W  W9  1  0.743236  0.724806  0.384532  1
  W  W10  1  0.256779  0.275006  0.614775  1
  W  W11  1  0.743003  0.274903  0.114793  1
  O  O12  1  0.046569  0.942794  0.896493  1
  O  O13  1  0.543602  0.843930  0.932120  1
  O  O14  1  0.953935  0.943060  0.395647  1
  O  O15  1  0.458798  0.794426  0.725610  1
  O  O16  1  0.457710  0.844570  0.429899  1
  O  O17  1  0.978747  0.713521  0.770714  1
  O  O18  1  0.542815  0.794290  0.223867  1
  O  O19  1  0.849151  0.634712  0.549475  1
  O  O20  1  0.357175  0.488129  0.885271  1
  O  O21  1  0.021634  0.713688  0.269665  1
  O  O22  1  0.358616  0.511182  0.614981  1
  O  O23  1  0.851160  0.364455  0.950221  1
  O  O24  1  0.149144  0.634896  0.050189  1
  O  O25  1  0.642931  0.487854  0.384490  1
  O  O26  1  0.979509  0.286906  0.730569  1
  O  O27  1  0.643356  0.511715  0.114775  1
  O  O28  1  0.148571  0.364890  0.450077  1
  O  O29  1  0.457321  0.205186  0.775650  1
  O  O30  1  0.021051  0.286049  0.230216  1
  O  O31  1  0.542177  0.155319  0.568669  1
  O  O32  1  0.542439  0.205274  0.275466  1
  O  O33  1  0.043249  0.058727  0.603957  1
  O  O34  1  0.455979  0.156692  0.068578  1
  O  O35  1  0.953579  0.057172  0.103676  1
