# generated using pymatgen
data_Pa2Al3Pd
_symmetry_space_group_name_H-M   'P 1'
_cell_length_a   5.65019700
_cell_length_b   5.65019576
_cell_length_c   8.39465800
_cell_angle_alpha   90.00000000
_cell_angle_beta   90.00000000
_cell_angle_gamma   120.00000138
_symmetry_Int_Tables_number   1
_chemical_formula_structural   Pa2Al3Pd
_chemical_formula_sum   'Pa4 Al6 Pd2'
_cell_volume   232.09229270
_cell_formula_units_Z   2
loop_
 _symmetry_equiv_pos_site_id
 _symmetry_equiv_pos_as_xyz
  1  'x, y, z'
loop_
 _atom_site_type_symbol
 _atom_site_label
 _atom_site_symmetry_multiplicity
 _atom_site_fract_x
 _atom_site_fract_y
 _atom_site_fract_z
 _atom_site_occupancy
  Pa  Pa0  1  0.666666  0.333334  0.087934  1
  Pa  Pa1  1  0.666666  0.333334  0.412065  1
  Pa  Pa2  1  0.333334  0.666667  0.587934  1
  Pa  Pa3  1  0.333334  0.666667  0.912066  1
  Al  Al4  1  0.168329  0.336659  0.250000  1
  Al  Al5  1  0.168329  0.831671  0.250000  1
  Al  Al6  1  0.663341  0.831671  0.250000  1
  Al  Al7  1  0.336659  0.168330  0.750000  1
  Al  Al8  1  0.831671  0.168330  0.750000  1
  Al  Al9  1  0.831670  0.663340  0.750000  1
  Pd  Pd10  1  0.000000  0.000000  0.000000  1
  Pd  Pd11  1  0.000000  0.000000  0.500000  1
