# generated using pymatgen
data_Sc2V3Ni9P7
_symmetry_space_group_name_H-M   'P 1'
_cell_length_a   9.06776500
_cell_length_b   9.06776402
_cell_length_c   3.57576700
_cell_angle_alpha   90.00000000
_cell_angle_beta   90.00000000
_cell_angle_gamma   119.99999994
_symmetry_Int_Tables_number   1
_chemical_formula_structural   Sc2V3Ni9P7
_chemical_formula_sum   'Sc2 V3 Ni9 P7'
_cell_volume   254.62457074
_cell_formula_units_Z   1
loop_
 _symmetry_equiv_pos_site_id
 _symmetry_equiv_pos_as_xyz
  1  'x, y, z'
loop_
 _atom_site_type_symbol
 _atom_site_label
 _atom_site_symmetry_multiplicity
 _atom_site_fract_x
 _atom_site_fract_y
 _atom_site_fract_z
 _atom_site_occupancy
  Sc  Sc0  1  0.333333  0.666667  0.000000  1
  Sc  Sc1  1  0.666667  0.333333  0.500000  1
  V  V2  1  0.221561  0.121151  0.500000  1
  V  V3  1  0.878849  0.100410  0.500000  1
  V  V4  1  0.899590  0.778439  0.500000  1
  Ni  Ni5  1  0.125031  0.282738  0.000000  1
  Ni  Ni6  1  0.717262  0.842293  0.000000  1
  Ni  Ni7  1  0.157707  0.874969  0.000000  1
  Ni  Ni8  1  0.436726  0.373470  0.000000  1
  Ni  Ni9  1  0.626530  0.063256  0.000000  1
  Ni  Ni10  1  0.936744  0.563274  0.000000  1
  Ni  Ni11  1  0.056781  0.441249  0.500000  1
  Ni  Ni12  1  0.558751  0.615532  0.500000  1
  Ni  Ni13  1  0.384468  0.943219  0.500000  1
  P  P14  1  0.291004  0.410500  0.500000  1
  P  P15  1  0.589500  0.880504  0.500000  1
  P  P16  1  0.119496  0.708996  0.500000  1
  P  P17  1  0.412851  0.119271  0.000000  1
  P  P18  1  0.880729  0.293581  0.000000  1
  P  P19  1  0.706419  0.587149  0.000000  1
  P  P20  1  0.000000  0.000000  0.000000  1
