# generated using pymatgen
data_Mg2GaSiPt2
_symmetry_space_group_name_H-M   'P 1'
_cell_length_a   6.51396700
_cell_length_b   4.03857000
_cell_length_c   7.70766400
_cell_angle_alpha   90.00000000
_cell_angle_beta   90.00000000
_cell_angle_gamma   90.00000000
_symmetry_Int_Tables_number   1
_chemical_formula_structural   Mg2GaSiPt2
_chemical_formula_sum   'Mg4 Ga2 Si2 Pt4'
_cell_volume   202.76637785
_cell_formula_units_Z   2
loop_
 _symmetry_equiv_pos_site_id
 _symmetry_equiv_pos_as_xyz
  1  'x, y, z'
loop_
 _atom_site_type_symbol
 _atom_site_label
 _atom_site_symmetry_multiplicity
 _atom_site_fract_x
 _atom_site_fract_y
 _atom_site_fract_z
 _atom_site_occupancy
  Mg  Mg0  1  0.972292  0.750000  0.168227  1
  Mg  Mg1  1  0.472292  0.750000  0.331773  1
  Mg  Mg2  1  0.525380  0.250001  0.668238  1
  Mg  Mg3  1  0.025381  0.250001  0.831762  1
  Ga  Ga4  1  0.662370  0.250001  0.057617  1
  Ga  Ga5  1  0.162370  0.250001  0.442382  1
  Si  Si6  1  0.849950  0.750000  0.554839  1
  Si  Si7  1  0.349951  0.750000  0.945162  1
  Pt  Pt8  1  0.276093  0.250001  0.120935  1
  Pt  Pt9  1  0.776094  0.250001  0.379064  1
  Pt  Pt10  1  0.213914  0.750000  0.647183  1
  Pt  Pt11  1  0.713914  0.750000  0.852818  1
