# generated using pymatgen
data_Tb5Er3(CdRu)2
_symmetry_space_group_name_H-M   'P 1'
_cell_length_a   9.61075973
_cell_length_b   9.61338561
_cell_length_c   9.61338536
_cell_angle_alpha   59.98192405
_cell_angle_beta   60.00903526
_cell_angle_gamma   60.00903592
_symmetry_Int_Tables_number   1
_chemical_formula_structural   Tb5Er3(CdRu)2
_chemical_formula_sum   'Tb10 Er6 Cd4 Ru4'
_cell_volume   628.05164373
_cell_formula_units_Z   2
loop_
 _symmetry_equiv_pos_site_id
 _symmetry_equiv_pos_as_xyz
  1  'x, y, z'
loop_
 _atom_site_type_symbol
 _atom_site_label
 _atom_site_symmetry_multiplicity
 _atom_site_fract_x
 _atom_site_fract_y
 _atom_site_fract_z
 _atom_site_occupancy
  Tb  Tb0  1  0.189414  0.810586  0.189414  1
  Tb  Tb1  1  0.810586  0.189414  0.810586  1
  Tb  Tb2  1  0.189414  0.189414  0.810586  1
  Tb  Tb3  1  0.810586  0.810586  0.189414  1
  Tb  Tb4  1  0.938526  0.561474  0.561474  1
  Tb  Tb5  1  0.561474  0.938526  0.938526  1
  Tb  Tb6  1  0.561430  0.938570  0.561430  1
  Tb  Tb7  1  0.938570  0.561430  0.938570  1
  Tb  Tb8  1  0.561430  0.561430  0.938570  1
  Tb  Tb9  1  0.938570  0.938570  0.561430  1
  Er  Er10  1  0.346133  0.345352  0.345352  1
  Er  Er11  1  0.345352  0.346133  0.963161  1
  Er  Er12  1  0.345352  0.963161  0.346133  1
  Er  Er13  1  0.963161  0.345352  0.345352  1
  Er  Er14  1  0.810249  0.189751  0.189751  1
  Er  Er15  1  0.189751  0.810249  0.810249  1
  Cd  Cd16  1  0.579855  0.580074  0.580074  1
  Cd  Cd17  1  0.580074  0.579855  0.259995  1
  Cd  Cd18  1  0.580074  0.259995  0.579855  1
  Cd  Cd19  1  0.259995  0.580074  0.580074  1
  Ru  Ru20  1  0.139083  0.139233  0.139233  1
  Ru  Ru21  1  0.139233  0.139083  0.582451  1
  Ru  Ru22  1  0.139233  0.582451  0.139083  1
  Ru  Ru23  1  0.582451  0.139233  0.139233  1
