# generated using pymatgen
data_TbY2Ho(Al3Rh)6
_symmetry_space_group_name_H-M   'P 1'
_cell_length_a   7.55664708
_cell_length_b   7.55488875
_cell_length_c   9.48176600
_cell_angle_alpha   90.00000000
_cell_angle_beta   90.00000000
_cell_angle_gamma   119.35704850
_symmetry_Int_Tables_number   1
_chemical_formula_structural   TbY2Ho(Al3Rh)6
_chemical_formula_sum   'Tb1 Y2 Ho1 Al18 Rh6'
_cell_volume   471.79625011
_cell_formula_units_Z   1
loop_
 _symmetry_equiv_pos_site_id
 _symmetry_equiv_pos_as_xyz
  1  'x, y, z'
loop_
 _atom_site_type_symbol
 _atom_site_label
 _atom_site_symmetry_multiplicity
 _atom_site_fract_x
 _atom_site_fract_y
 _atom_site_fract_z
 _atom_site_occupancy
  Tb  Tb0  1  0.005557  0.329249  0.750000  1
  Y  Y1  1  0.670812  0.994465  0.250000  1
  Y  Y2  1  0.329173  0.005443  0.750000  1
  Ho  Ho3  1  0.994578  0.670896  0.250000  1
  Al  Al4  1  0.127944  0.127573  0.250000  1
  Al  Al5  1  0.872190  0.872087  0.750000  1
  Al  Al6  1  0.001132  0.335580  0.074490  1
  Al  Al7  1  0.998846  0.664840  0.926392  1
  Al  Al8  1  0.998846  0.664840  0.573608  1
  Al  Al9  1  0.334962  0.000823  0.425619  1
  Al  Al10  1  0.001132  0.335580  0.425510  1
  Al  Al11  1  0.664725  0.998775  0.574041  1
  Al  Al12  1  0.664725  0.998775  0.925959  1
  Al  Al13  1  0.334962  0.000823  0.074381  1
  Al  Al14  1  0.333336  0.333284  0.550111  1
  Al  Al15  1  0.666933  0.666688  0.449208  1
  Al  Al16  1  0.666933  0.666688  0.050792  1
  Al  Al17  1  0.333336  0.333284  0.949889  1
  Al  Al18  1  0.338441  0.548889  0.250000  1
  Al  Al19  1  0.661281  0.451074  0.750000  1
  Al  Al20  1  0.549290  0.339366  0.250000  1
  Al  Al21  1  0.451047  0.661176  0.750000  1
  Rh  Rh22  1  0.671994  0.328214  0.000212  1
  Rh  Rh23  1  0.328097  0.671962  0.000207  1
  Rh  Rh24  1  0.328097  0.671962  0.499793  1
  Rh  Rh25  1  0.671994  0.328214  0.499788  1
  Rh  Rh26  1  0.999819  0.999725  0.000342  1
  Rh  Rh27  1  0.999819  0.999725  0.499658  1
