# generated using pymatgen
data_Hf6NiBiPb
_symmetry_space_group_name_H-M   'P 1'
_cell_length_a   3.63656500
_cell_length_b   7.87035580
_cell_length_c   7.87035700
_cell_angle_alpha   120.00000085
_cell_angle_beta   90.00000000
_cell_angle_gamma   90.00000000
_symmetry_Int_Tables_number   1
_chemical_formula_structural   Hf6NiBiPb
_chemical_formula_sum   'Hf6 Ni1 Bi1 Pb1'
_cell_volume   195.07911699
_cell_formula_units_Z   1
loop_
 _symmetry_equiv_pos_site_id
 _symmetry_equiv_pos_as_xyz
  1  'x, y, z'
loop_
 _atom_site_type_symbol
 _atom_site_label
 _atom_site_symmetry_multiplicity
 _atom_site_fract_x
 _atom_site_fract_y
 _atom_site_fract_z
 _atom_site_occupancy
  Hf  Hf0  1  0.500000  0.764480  0.762619  1
  Hf  Hf1  1  0.500000  0.998139  0.235520  1
  Hf  Hf2  1  0.500000  0.237381  0.001861  1
  Hf  Hf3  1  0.000000  0.387028  0.387319  1
  Hf  Hf4  1  0.000000  0.000291  0.612972  1
  Hf  Hf5  1  0.000000  0.612681  0.999709  1
  Ni  Ni6  1  0.000000  0.000000  0.000000  1
  Bi  Bi7  1  0.500000  0.333333  0.666667  1
  Pb  Pb8  1  0.500000  0.666667  0.333333  1
