# generated using pymatgen
data_Sr8Ca11PaPt16
_symmetry_space_group_name_H-M   'P 1'
_cell_length_a   7.69076977
_cell_length_b   7.83216311
_cell_length_c   14.87797300
_cell_angle_alpha   90.08657836
_cell_angle_beta   90.37731988
_cell_angle_gamma   89.94792289
_symmetry_Int_Tables_number   1
_chemical_formula_structural   Sr8Ca11PaPt16
_chemical_formula_sum   'Sr8 Ca11 Pa1 Pt16'
_cell_volume   896.15928973
_cell_formula_units_Z   1
loop_
 _symmetry_equiv_pos_site_id
 _symmetry_equiv_pos_as_xyz
  1  'x, y, z'
loop_
 _atom_site_type_symbol
 _atom_site_label
 _atom_site_symmetry_multiplicity
 _atom_site_fract_x
 _atom_site_fract_y
 _atom_site_fract_z
 _atom_site_occupancy
  Sr  Sr0  1  0.504063  0.328834  0.905103  1
  Sr  Sr1  1  0.999789  0.176385  0.593340  1
  Sr  Sr2  1  0.500160  0.674445  0.403627  1
  Sr  Sr3  1  0.995244  0.822837  0.099030  1
  Sr  Sr4  1  0.500251  0.672012  0.099641  1
  Sr  Sr5  1  0.999968  0.824042  0.404034  1
  Sr  Sr6  1  0.501847  0.323733  0.593477  1
  Sr  Sr7  1  0.996076  0.182554  0.904406  1
  Ca  Ca8  1  0.835871  0.666639  0.621705  1
  Ca  Ca9  1  0.663877  0.168453  0.377791  1
  Ca  Ca10  1  0.161365  0.332587  0.121845  1
  Ca  Ca11  1  0.660383  0.166255  0.121244  1
  Ca  Ca12  1  0.164126  0.330783  0.377979  1
  Ca  Ca13  1  0.336365  0.830471  0.620317  1
  Ca  Ca14  1  0.839794  0.665442  0.878802  1
  Ca  Ca15  1  0.173535  0.490794  0.746488  1
  Ca  Ca16  1  0.684909  0.008152  0.746363  1
  Ca  Ca17  1  0.824197  0.501399  0.251433  1
  Ca  Ca18  1  0.322489  0.995507  0.252075  1
  Pa  Pa19  1  0.338880  0.839621  0.875531  1
  Pt  Pt20  1  0.316570  0.028251  0.030205  1
  Pt  Pt21  1  0.836085  0.462639  0.459078  1
  Pt  Pt22  1  0.665795  0.962784  0.541996  1
  Pt  Pt23  1  0.182463  0.565409  0.956432  1
  Pt  Pt24  1  0.648897  0.952383  0.952089  1
  Pt  Pt25  1  0.163491  0.533738  0.542026  1
  Pt  Pt26  1  0.337424  0.035783  0.458893  1
  Pt  Pt27  1  0.841750  0.461917  0.040410  1
  Pt  Pt28  1  0.532625  0.635614  0.761053  1
  Pt  Pt29  1  0.057264  0.867927  0.757658  1
  Pt  Pt30  1  0.453429  0.373934  0.248552  1
  Pt  Pt31  1  0.953947  0.122185  0.249297  1
  Pt  Pt32  1  0.310746  0.119952  0.758239  1
  Pt  Pt33  1  0.790218  0.377047  0.749162  1
  Pt  Pt34  1  0.702612  0.870863  0.250032  1
  Pt  Pt35  1  0.203490  0.628625  0.250649  1
