# generated using pymatgen
data_Tb16In3HgPd4
_symmetry_space_group_name_H-M   'P 1'
_cell_length_a   9.76642528
_cell_length_b   9.75953264
_cell_length_c   9.75953300
_cell_angle_alpha   60.00000218
_cell_angle_beta   60.02334540
_cell_angle_gamma   60.02333489
_symmetry_Int_Tables_number   1
_chemical_formula_structural   Tb16In3HgPd4
_chemical_formula_sum   'Tb16 In3 Hg1 Pd4'
_cell_volume   658.00898228
_cell_formula_units_Z   1
loop_
 _symmetry_equiv_pos_site_id
 _symmetry_equiv_pos_as_xyz
  1  'x, y, z'
loop_
 _atom_site_type_symbol
 _atom_site_label
 _atom_site_symmetry_multiplicity
 _atom_site_fract_x
 _atom_site_fract_y
 _atom_site_fract_z
 _atom_site_occupancy
  Tb  Tb0  1  0.352442  0.353417  0.353417  1
  Tb  Tb1  1  0.352442  0.353417  0.940725  1
  Tb  Tb2  1  0.352442  0.940725  0.353417  1
  Tb  Tb3  1  0.942188  0.352605  0.352605  1
  Tb  Tb4  1  0.809888  0.190228  0.190228  1
  Tb  Tb5  1  0.190351  0.810330  0.810330  1
  Tb  Tb6  1  0.190351  0.810330  0.188989  1
  Tb  Tb7  1  0.809888  0.190228  0.809657  1
  Tb  Tb8  1  0.190351  0.188989  0.810330  1
  Tb  Tb9  1  0.809888  0.809657  0.190228  1
  Tb  Tb10  1  0.939863  0.563205  0.563205  1
  Tb  Tb11  1  0.564650  0.935876  0.935876  1
  Tb  Tb12  1  0.564650  0.935876  0.563596  1
  Tb  Tb13  1  0.939863  0.563205  0.933728  1
  Tb  Tb14  1  0.564650  0.563596  0.935876  1
  Tb  Tb15  1  0.939863  0.933728  0.563205  1
  In  In16  1  0.581866  0.583270  0.583270  1
  In  In17  1  0.581866  0.583270  0.251593  1
  In  In18  1  0.581866  0.251593  0.583270  1
  Hg  Hg19  1  0.239938  0.586687  0.586687  1
  Pd  Pd20  1  0.144427  0.143733  0.143733  1
  Pd  Pd21  1  0.144427  0.143733  0.568106  1
  Pd  Pd22  1  0.144427  0.568106  0.143733  1
  Pd  Pd23  1  0.567418  0.144194  0.144194  1
