# generated using pymatgen
data_PrNd7Ga3Tc
_symmetry_space_group_name_H-M   'P 1'
_cell_length_a   10.49636300
_cell_length_b   10.49640067
_cell_length_c   7.11795300
_cell_angle_alpha   90.00000000
_cell_angle_beta   90.00000000
_cell_angle_gamma   119.99991410
_symmetry_Int_Tables_number   1
_chemical_formula_structural   PrNd7Ga3Tc
_chemical_formula_sum   'Pr2 Nd14 Ga6 Tc2'
_cell_volume   679.14946948
_cell_formula_units_Z   2
loop_
 _symmetry_equiv_pos_site_id
 _symmetry_equiv_pos_as_xyz
  1  'x, y, z'
loop_
 _atom_site_type_symbol
 _atom_site_label
 _atom_site_symmetry_multiplicity
 _atom_site_fract_x
 _atom_site_fract_y
 _atom_site_fract_z
 _atom_site_occupancy
  Pr  Pr0  1  0.999997  0.000001  0.272568  1
  Pr  Pr1  1  0.000003  0.999999  0.772568  1
  Nd  Nd2  1  0.169393  0.830603  0.990701  1
  Nd  Nd3  1  0.338790  0.169395  0.490699  1
  Nd  Nd4  1  0.830607  0.661211  0.490701  1
  Nd  Nd5  1  0.169393  0.338789  0.990701  1
  Nd  Nd6  1  0.661210  0.830605  0.990699  1
  Nd  Nd7  1  0.830607  0.169397  0.490701  1
  Nd  Nd8  1  0.333338  0.666668  0.665378  1
  Nd  Nd9  1  0.666662  0.333332  0.165378  1
  Nd  Nd10  1  0.464104  0.535900  0.296338  1
  Nd  Nd11  1  0.928207  0.464104  0.796338  1
  Nd  Nd12  1  0.535896  0.071793  0.796336  1
  Nd  Nd13  1  0.464104  0.928207  0.296336  1
  Nd  Nd14  1  0.071793  0.535896  0.296338  1
  Nd  Nd15  1  0.535896  0.464100  0.796338  1
  Ga  Ga16  1  0.165545  0.834455  0.537630  1
  Ga  Ga17  1  0.331086  0.165540  0.037628  1
  Ga  Ga18  1  0.834456  0.668911  0.037632  1
  Ga  Ga19  1  0.165544  0.331089  0.537632  1
  Ga  Ga20  1  0.668914  0.834460  0.537628  1
  Ga  Ga21  1  0.834455  0.165545  0.037630  1
  Tc  Tc22  1  0.333334  0.666667  0.051051  1
  Tc  Tc23  1  0.666666  0.333333  0.551051  1
