# generated using pymatgen
data_Ho5Ga3P9Ir19
_symmetry_space_group_name_H-M   'P 1'
_cell_length_a   12.84933600
_cell_length_b   12.84933466
_cell_length_c   3.95036300
_cell_angle_alpha   90.00000000
_cell_angle_beta   90.00000000
_cell_angle_gamma   119.99999316
_symmetry_Int_Tables_number   1
_chemical_formula_structural   Ho5Ga3P9Ir19
_chemical_formula_sum   'Ho5 Ga3 P9 Ir19'
_cell_volume   564.84461474
_cell_formula_units_Z   1
loop_
 _symmetry_equiv_pos_site_id
 _symmetry_equiv_pos_as_xyz
  1  'x, y, z'
loop_
 _atom_site_type_symbol
 _atom_site_label
 _atom_site_symmetry_multiplicity
 _atom_site_fract_x
 _atom_site_fract_y
 _atom_site_fract_z
 _atom_site_occupancy
  Ho  Ho0  1  0.333333  0.666667  0.500000  1
  Ho  Ho1  1  0.666667  0.333333  0.500000  1
  Ho  Ho2  1  0.181445  0.181445  0.000000  1
  Ho  Ho3  1  0.818555  0.000000  0.000000  1
  Ho  Ho4  1  0.000000  0.818555  0.000000  1
  Ga  Ga5  1  0.357092  0.357092  0.500000  1
  Ga  Ga6  1  0.642908  0.000000  0.500000  1
  Ga  Ga7  1  0.000000  0.642908  0.500000  1
  P  P8  1  0.309754  0.826534  0.000000  1
  P  P9  1  0.173466  0.483220  0.000000  1
  P  P10  1  0.516780  0.690246  0.000000  1
  P  P11  1  0.826534  0.309754  0.000000  1
  P  P12  1  0.483220  0.173466  0.000000  1
  P  P13  1  0.690246  0.516780  0.000000  1
  P  P14  1  0.820897  0.820897  0.500000  1
  P  P15  1  0.179103  0.000000  0.500000  1
  P  P16  1  0.000000  0.179103  0.500000  1
  Ir  Ir17  1  0.205064  0.826107  0.500000  1
  Ir  Ir18  1  0.173893  0.378957  0.500000  1
  Ir  Ir19  1  0.621043  0.794936  0.500000  1
  Ir  Ir20  1  0.826107  0.205064  0.500000  1
  Ir  Ir21  1  0.378957  0.173893  0.500000  1
  Ir  Ir22  1  0.794936  0.621043  0.500000  1
  Ir  Ir23  1  0.133830  0.637384  0.000000  1
  Ir  Ir24  1  0.362616  0.496445  0.000000  1
  Ir  Ir25  1  0.503555  0.866170  0.000000  1
  Ir  Ir26  1  0.637384  0.133830  0.000000  1
  Ir  Ir27  1  0.496445  0.362616  0.000000  1
  Ir  Ir28  1  0.866170  0.503555  0.000000  1
  Ir  Ir29  1  0.549741  0.549741  0.500000  1
  Ir  Ir30  1  0.450259  0.000000  0.500000  1
  Ir  Ir31  1  0.000000  0.450259  0.500000  1
  Ir  Ir32  1  0.716741  0.716741  0.000000  1
  Ir  Ir33  1  0.283259  0.000000  0.000000  1
  Ir  Ir34  1  0.000000  0.283259  0.000000  1
  Ir  Ir35  1  0.000000  0.000000  0.500000  1
