# generated using pymatgen
data_Ho5Er4Th3Ru4
_symmetry_space_group_name_H-M   'P 1'
_cell_length_a   6.31817808
_cell_length_b   7.20851105
_cell_length_c   9.44212101
_cell_angle_alpha   90.00571569
_cell_angle_beta   90.00175996
_cell_angle_gamma   90.50331946
_symmetry_Int_Tables_number   1
_chemical_formula_structural   Ho5Er4Th3Ru4
_chemical_formula_sum   'Ho5 Er4 Th3 Ru4'
_cell_volume   430.02156310
_cell_formula_units_Z   1
loop_
 _symmetry_equiv_pos_site_id
 _symmetry_equiv_pos_as_xyz
  1  'x, y, z'
loop_
 _atom_site_type_symbol
 _atom_site_label
 _atom_site_symmetry_multiplicity
 _atom_site_fract_x
 _atom_site_fract_y
 _atom_site_fract_z
 _atom_site_occupancy
  Ho  Ho0  1  0.334667  0.677396  0.063715  1
  Ho  Ho1  1  0.164833  0.175503  0.435482  1
  Ho  Ho2  1  0.667835  0.323726  0.566882  1
  Ho  Ho3  1  0.829589  0.823674  0.931315  1
  Ho  Ho4  1  0.362055  0.963856  0.749986  1
  Er  Er5  1  0.667372  0.323688  0.933299  1
  Er  Er6  1  0.829575  0.824016  0.568571  1
  Er  Er7  1  0.335041  0.677308  0.436370  1
  Er  Er8  1  0.164430  0.175352  0.064470  1
  Th  Th9  1  0.850653  0.546845  0.250131  1
  Th  Th10  1  0.646605  0.044752  0.249875  1
  Th  Th11  1  0.150563  0.453457  0.750057  1
  Ru  Ru12  1  0.035154  0.870987  0.250856  1
  Ru  Ru13  1  0.466614  0.369331  0.249205  1
  Ru  Ru14  1  0.962213  0.131922  0.750612  1
  Ru  Ru15  1  0.532801  0.618186  0.749175  1
