# generated using pymatgen
data_Sm2DyY3NiBr10
_symmetry_space_group_name_H-M   'P 1'
_cell_length_a   7.37650676
_cell_length_b   9.22460152
_cell_length_c   9.35063300
_cell_angle_alpha   107.66607507
_cell_angle_beta   96.56706943
_cell_angle_gamma   105.38927699
_symmetry_Int_Tables_number   1
_chemical_formula_structural   Sm2DyY3NiBr10
_chemical_formula_sum   'Sm2 Dy1 Y3 Ni1 Br10'
_cell_volume   571.21826467
_cell_formula_units_Z   1
loop_
 _symmetry_equiv_pos_site_id
 _symmetry_equiv_pos_as_xyz
  1  'x, y, z'
loop_
 _atom_site_type_symbol
 _atom_site_label
 _atom_site_symmetry_multiplicity
 _atom_site_fract_x
 _atom_site_fract_y
 _atom_site_fract_z
 _atom_site_occupancy
  Sm  Sm0  1  0.126788  0.048370  0.756587  1
  Sm  Sm1  1  0.873607  0.951358  0.243497  1
  Dy  Dy2  1  0.968300  0.291396  0.090927  1
  Y  Y3  1  0.031556  0.707252  0.908749  1
  Y  Y4  1  0.352611  0.131223  0.173313  1
  Y  Y5  1  0.647680  0.869278  0.826927  1
  Ni  Ni6  1  0.000476  0.000248  0.000281  1
  Br  Br7  1  0.550977  0.179838  0.917724  1
  Br  Br8  1  0.449674  0.820757  0.082685  1
  Br  Br9  1  0.344615  0.449440  0.269491  1
  Br  Br10  1  0.653225  0.550774  0.729790  1
  Br  Br11  1  0.254605  0.083374  0.453015  1
  Br  Br12  1  0.745635  0.917217  0.547171  1
  Br  Br13  1  0.777689  0.256278  0.340785  1
  Br  Br14  1  0.223362  0.744401  0.658558  1
  Br  Br15  1  0.082947  0.373618  0.830549  1
  Br  Br16  1  0.916253  0.625178  0.169955  1
