# generated using pymatgen
data_Pr3Sn2Pt2RhPb
_symmetry_space_group_name_H-M   'P 1'
_cell_length_a   7.76860700
_cell_length_b   7.71838818
_cell_length_c   4.13582300
_cell_angle_alpha   90.00000000
_cell_angle_beta   90.00000000
_cell_angle_gamma   120.21546827
_symmetry_Int_Tables_number   1
_chemical_formula_structural   Pr3Sn2Pt2RhPb
_chemical_formula_sum   'Pr3 Sn2 Pt2 Rh1 Pb1'
_cell_volume   214.29661090
_cell_formula_units_Z   1
loop_
 _symmetry_equiv_pos_site_id
 _symmetry_equiv_pos_as_xyz
  1  'x, y, z'
loop_
 _atom_site_type_symbol
 _atom_site_label
 _atom_site_symmetry_multiplicity
 _atom_site_fract_x
 _atom_site_fract_y
 _atom_site_fract_z
 _atom_site_occupancy
  Pr  Pr0  1  0.591395  0.000000  0.500000  1
  Pr  Pr1  1  0.410626  0.412865  0.500000  1
  Pr  Pr2  1  0.997761  0.587135  0.500000  1
  Sn  Sn3  1  0.750569  0.751751  0.000000  1
  Sn  Sn4  1  0.998818  0.248249  0.000000  1
  Pt  Pt5  1  0.335641  0.658401  0.000000  1
  Pt  Pt6  1  0.677241  0.341599  0.000000  1
  Rh  Rh7  1  0.988000  0.000000  0.500000  1
  Pb  Pb8  1  0.249949  0.000000  0.000000  1
