# generated using pymatgen
data_Ce2MnCr4(NiP)7
_symmetry_space_group_name_H-M   'P 1'
_cell_length_a   9.24344680
_cell_length_b   9.19682310
_cell_length_c   3.69249300
_cell_angle_alpha   90.00000000
_cell_angle_beta   90.00000000
_cell_angle_gamma   120.09570167
_symmetry_Int_Tables_number   1
_chemical_formula_structural   Ce2MnCr4(NiP)7
_chemical_formula_sum   'Ce2 Mn1 Cr4 Ni7 P7'
_cell_volume   271.58293008
_cell_formula_units_Z   1
loop_
 _symmetry_equiv_pos_site_id
 _symmetry_equiv_pos_as_xyz
  1  'x, y, z'
loop_
 _atom_site_type_symbol
 _atom_site_label
 _atom_site_symmetry_multiplicity
 _atom_site_fract_x
 _atom_site_fract_y
 _atom_site_fract_z
 _atom_site_occupancy
  Ce  Ce0  1  0.663821  0.330625  0.500000  1
  Ce  Ce1  1  0.336236  0.666682  0.000000  1
  Mn  Mn2  1  0.384259  0.430424  0.500000  1
  Cr  Cr3  1  0.879957  0.784112  0.500000  1
  Cr  Cr4  1  0.902379  0.119679  0.500000  1
  Cr  Cr5  1  0.048878  0.616946  0.500000  1
  Cr  Cr6  1  0.212777  0.095108  0.500000  1
  Ni  Ni7  1  0.155297  0.274994  0.000000  1
  Ni  Ni8  1  0.121359  0.843895  0.000000  1
  Ni  Ni9  1  0.721906  0.877436  0.000000  1
  Ni  Ni10  1  0.942563  0.373019  0.000000  1
  Ni  Ni11  1  0.566147  0.951760  0.500000  1
  Ni  Ni12  1  0.629362  0.570467  0.000000  1
  Ni  Ni13  1  0.431719  0.062028  0.000000  1
  P  P14  1  0.595364  0.705765  0.500000  1
  P  P15  1  0.117984  0.404732  0.500000  1
  P  P16  1  0.885480  0.592621  0.000000  1
  P  P17  1  0.292596  0.889591  0.500000  1
  P  P18  1  0.997896  0.997807  0.000000  1
  P  P19  1  0.707289  0.112192  0.000000  1
  P  P20  1  0.406731  0.300119  0.000000  1
