# generated using pymatgen
data_Tb2Ce3Zn2Ru3
_symmetry_space_group_name_H-M   'P 1'
_cell_length_a   8.28897632
_cell_length_b   8.28897634
_cell_length_c   8.28897600
_cell_angle_alpha   110.02535140
_cell_angle_beta   110.02536616
_cell_angle_gamma   110.02535023
_symmetry_Int_Tables_number   1
_chemical_formula_structural   Tb2Ce3Zn2Ru3
_chemical_formula_sum   'Tb4 Ce6 Zn4 Ru6'
_cell_volume   429.18032471
_cell_formula_units_Z   2
loop_
 _symmetry_equiv_pos_site_id
 _symmetry_equiv_pos_as_xyz
  1  'x, y, z'
loop_
 _atom_site_type_symbol
 _atom_site_label
 _atom_site_symmetry_multiplicity
 _atom_site_fract_x
 _atom_site_fract_y
 _atom_site_fract_z
 _atom_site_occupancy
  Tb  Tb0  1  0.758900  0.758900  0.758900  1
  Tb  Tb1  1  0.309627  0.561390  0.753316  1
  Tb  Tb2  1  0.753316  0.309627  0.561390  1
  Tb  Tb3  1  0.561390  0.753316  0.309627  1
  Ce  Ce4  1  0.719494  0.505223  0.999308  1
  Ce  Ce5  1  0.999308  0.719494  0.505223  1
  Ce  Ce6  1  0.505223  0.999308  0.719494  1
  Ce  Ce7  1  0.242448  0.185172  0.936304  1
  Ce  Ce8  1  0.936304  0.242448  0.185172  1
  Ce  Ce9  1  0.185172  0.936304  0.242448  1
  Zn  Zn10  1  0.400869  0.400869  0.400869  1
  Zn  Zn11  1  0.094197  0.499115  0.006760  1
  Zn  Zn12  1  0.006760  0.094197  0.499115  1
  Zn  Zn13  1  0.499115  0.006760  0.094197  1
  Ru  Ru14  1  0.889596  0.112645  0.754712  1
  Ru  Ru15  1  0.754712  0.889596  0.112645  1
  Ru  Ru16  1  0.112645  0.754712  0.889596  1
  Ru  Ru17  1  0.241104  0.632425  0.397396  1
  Ru  Ru18  1  0.397396  0.241104  0.632425  1
  Ru  Ru19  1  0.632425  0.397396  0.241104  1
