# generated using pymatgen
data_Sc3ZnGa4Co
_symmetry_space_group_name_H-M   'P 1'
_cell_length_a   6.59344400
_cell_length_b   6.57917410
_cell_length_c   4.08953000
_cell_angle_alpha   90.00000000
_cell_angle_beta   90.00000000
_cell_angle_gamma   120.07178433
_symmetry_Int_Tables_number   1
_chemical_formula_structural   Sc3ZnGa4Co
_chemical_formula_sum   'Sc3 Zn1 Ga4 Co1'
_cell_volume   153.52288776
_cell_formula_units_Z   1
loop_
 _symmetry_equiv_pos_site_id
 _symmetry_equiv_pos_as_xyz
  1  'x, y, z'
loop_
 _atom_site_type_symbol
 _atom_site_label
 _atom_site_symmetry_multiplicity
 _atom_site_fract_x
 _atom_site_fract_y
 _atom_site_fract_z
 _atom_site_occupancy
  Sc  Sc0  1  0.594829  0.000000  0.500000  1
  Sc  Sc1  1  0.405216  0.404767  0.500000  1
  Sc  Sc2  1  0.000449  0.595233  0.500000  1
  Zn  Zn3  1  0.237882  0.000000  0.000000  1
  Ga  Ga4  1  0.002954  0.234550  0.000000  1
  Ga  Ga5  1  0.665365  0.331142  0.000000  1
  Ga  Ga6  1  0.334222  0.668858  0.000000  1
  Ga  Ga7  1  0.768403  0.765450  0.000000  1
  Co  Co8  1  0.990680  0.000000  0.500000  1
