# generated using pymatgen
data_Lu2Si2Pt3
_symmetry_space_group_name_H-M   'P 1'
_cell_length_a   4.13747600
_cell_length_b   6.58230100
_cell_length_c   8.86339600
_cell_angle_alpha   90.00000000
_cell_angle_beta   90.00000000
_cell_angle_gamma   90.00000000
_symmetry_Int_Tables_number   1
_chemical_formula_structural   Lu2Si2Pt3
_chemical_formula_sum   'Lu4 Si4 Pt6'
_cell_volume   241.38672302
_cell_formula_units_Z   2
loop_
 _symmetry_equiv_pos_site_id
 _symmetry_equiv_pos_as_xyz
  1  'x, y, z'
loop_
 _atom_site_type_symbol
 _atom_site_label
 _atom_site_symmetry_multiplicity
 _atom_site_fract_x
 _atom_site_fract_y
 _atom_site_fract_z
 _atom_site_occupancy
  Lu  Lu0  1  0.000000  0.889406  0.329769  1
  Lu  Lu1  1  0.000000  0.110594  0.670231  1
  Lu  Lu2  1  0.000000  0.389406  0.170231  1
  Lu  Lu3  1  0.000000  0.610594  0.829769  1
  Si  Si4  1  0.500000  0.574387  0.353647  1
  Si  Si5  1  0.500000  0.425613  0.646353  1
  Si  Si6  1  0.500000  0.074387  0.146353  1
  Si  Si7  1  0.500000  0.925613  0.853647  1
  Pt  Pt8  1  0.500000  0.693341  0.087936  1
  Pt  Pt9  1  0.500000  0.306659  0.912064  1
  Pt  Pt10  1  0.500000  0.193341  0.412064  1
  Pt  Pt11  1  0.500000  0.806659  0.587936  1
  Pt  Pt12  1  0.000000  0.500000  0.500000  1
  Pt  Pt13  1  0.000000  0.000000  0.000000  1
