# generated using pymatgen
data_Dy12TlCo5
_symmetry_space_group_name_H-M   'P 1'
_cell_length_a   8.30581078
_cell_length_b   8.30579265
_cell_length_c   8.30581028
_cell_angle_alpha   110.72833201
_cell_angle_beta   110.62644037
_cell_angle_gamma   107.08502953
_symmetry_Int_Tables_number   1
_chemical_formula_structural   Dy12TlCo5
_chemical_formula_sum   'Dy12 Tl1 Co5'
_cell_volume   440.51428313
_cell_formula_units_Z   1
loop_
 _symmetry_equiv_pos_site_id
 _symmetry_equiv_pos_as_xyz
  1  'x, y, z'
loop_
 _atom_site_type_symbol
 _atom_site_label
 _atom_site_symmetry_multiplicity
 _atom_site_fract_x
 _atom_site_fract_y
 _atom_site_fract_z
 _atom_site_occupancy
  Dy  Dy0  1  0.814267  0.706710  0.520978  1
  Dy  Dy1  1  0.185733  0.293290  0.479022  1
  Dy  Dy2  1  0.185732  0.706710  0.892442  1
  Dy  Dy3  1  0.814268  0.293290  0.107558  1
  Dy  Dy4  1  0.685580  0.380012  0.694433  1
  Dy  Dy5  1  0.314420  0.619988  0.305567  1
  Dy  Dy6  1  0.685579  0.991146  0.305567  1
  Dy  Dy7  1  0.314421  0.008854  0.694433  1
  Dy  Dy8  1  0.600830  0.792619  0.808211  1
  Dy  Dy9  1  0.399170  0.207381  0.191789  1
  Dy  Dy10  1  0.984408  0.792619  0.191788  1
  Dy  Dy11  1  0.015592  0.207381  0.808212  1
  Tl  Tl12  1  0.500000  0.500000  0.000000  1
  Co  Co13  1  0.620913  0.000000  0.620913  1
  Co  Co14  1  0.379087  0.000000  0.379087  1
  Co  Co15  1  0.112454  0.612454  0.500000  1
  Co  Co16  1  0.887546  0.387546  0.500000  1
  Co  Co17  1  0.000000  0.000000  0.000000  1
