# generated using pymatgen
data_HoMgZnNi3
_symmetry_space_group_name_H-M   'P 1'
_cell_length_a   5.08427308
_cell_length_b   5.08427196
_cell_length_c   4.94636280
_cell_angle_alpha   59.07334346
_cell_angle_beta   59.07332869
_cell_angle_gamma   59.99999216
_symmetry_Int_Tables_number   1
_chemical_formula_structural   HoMgZnNi3
_chemical_formula_sum   'Ho1 Mg1 Zn1 Ni3'
_cell_volume   89.12539275
_cell_formula_units_Z   1
loop_
 _symmetry_equiv_pos_site_id
 _symmetry_equiv_pos_as_xyz
  1  'x, y, z'
loop_
 _atom_site_type_symbol
 _atom_site_label
 _atom_site_symmetry_multiplicity
 _atom_site_fract_x
 _atom_site_fract_y
 _atom_site_fract_z
 _atom_site_occupancy
  Ho  Ho0  1  0.247081  0.247081  0.258757  1
  Mg  Mg1  1  0.997554  0.997554  0.007338  1
  Zn  Zn2  1  0.626825  0.626825  0.119525  1
  Ni  Ni3  1  0.627220  0.124100  0.621460  1
  Ni  Ni4  1  0.124100  0.627220  0.621460  1
  Ni  Ni5  1  0.627220  0.627220  0.621460  1
