# generated using pymatgen
data_YCoP3(RuRh)2
_symmetry_space_group_name_H-M   'P 1'
_cell_length_a   3.84370100
_cell_length_b   10.85243500
_cell_length_c   12.19758800
_cell_angle_alpha   90.00000000
_cell_angle_beta   90.00000000
_cell_angle_gamma   90.00000000
_symmetry_Int_Tables_number   1
_chemical_formula_structural   YCoP3(RuRh)2
_chemical_formula_sum   'Y4 Co4 P12 Ru8 Rh8'
_cell_volume   508.80427320
_cell_formula_units_Z   4
loop_
 _symmetry_equiv_pos_site_id
 _symmetry_equiv_pos_as_xyz
  1  'x, y, z'
loop_
 _atom_site_type_symbol
 _atom_site_label
 _atom_site_symmetry_multiplicity
 _atom_site_fract_x
 _atom_site_fract_y
 _atom_site_fract_z
 _atom_site_occupancy
  Y  Y0  1  0.250000  0.913570  0.204953  1
  Y  Y1  1  0.750000  0.086430  0.795047  1
  Y  Y2  1  0.750000  0.413570  0.295047  1
  Y  Y3  1  0.250000  0.586430  0.704953  1
  Co  Co4  1  0.250000  0.035849  0.433891  1
  Co  Co5  1  0.750000  0.964151  0.566109  1
  Co  Co6  1  0.750000  0.535849  0.066109  1
  Co  Co7  1  0.250000  0.464151  0.933891  1
  P  P8  1  0.250000  0.074981  0.607810  1
  P  P9  1  0.750000  0.925019  0.392190  1
  P  P10  1  0.750000  0.574981  0.892190  1
  P  P11  1  0.250000  0.425019  0.107810  1
  P  P12  1  0.250000  0.229587  0.378561  1
  P  P13  1  0.750000  0.770413  0.621439  1
  P  P14  1  0.750000  0.729587  0.121439  1
  P  P15  1  0.250000  0.270413  0.878561  1
  P  P16  1  0.250000  0.904366  0.895056  1
  P  P17  1  0.750000  0.095634  0.104944  1
  P  P18  1  0.750000  0.404366  0.604944  1
  P  P19  1  0.250000  0.595634  0.395056  1
  Ru  Ru20  1  0.250000  0.786803  0.487729  1
  Ru  Ru21  1  0.750000  0.213197  0.512271  1
  Ru  Ru22  1  0.750000  0.286803  0.012271  1
  Ru  Ru23  1  0.250000  0.713197  0.987729  1
  Ru  Ru24  1  0.250000  0.095572  0.990972  1
  Ru  Ru25  1  0.750000  0.904428  0.009028  1
  Ru  Ru26  1  0.750000  0.595572  0.509028  1
  Ru  Ru27  1  0.250000  0.404428  0.490972  1
  Rh  Rh28  1  0.250000  0.267366  0.682031  1
  Rh  Rh29  1  0.750000  0.732634  0.317969  1
  Rh  Rh30  1  0.750000  0.767366  0.817969  1
  Rh  Rh31  1  0.250000  0.232634  0.182031  1
  Rh  Rh32  1  0.250000  0.609935  0.202388  1
  Rh  Rh33  1  0.750000  0.390065  0.797612  1
  Rh  Rh34  1  0.750000  0.109935  0.297612  1
  Rh  Rh35  1  0.250000  0.890065  0.702388  1
