# generated using pymatgen
data_MnNb2GeRu4
_symmetry_space_group_name_H-M   'P 1'
_cell_length_a   6.26142600
_cell_length_b   4.42514600
_cell_length_c   8.83488700
_cell_angle_alpha   90.00000000
_cell_angle_beta   89.99984444
_cell_angle_gamma   90.00000000
_symmetry_Int_Tables_number   1
_chemical_formula_structural   MnNb2GeRu4
_chemical_formula_sum   'Mn2 Nb4 Ge2 Ru8'
_cell_volume   244.79461249
_cell_formula_units_Z   2
loop_
 _symmetry_equiv_pos_site_id
 _symmetry_equiv_pos_as_xyz
  1  'x, y, z'
loop_
 _atom_site_type_symbol
 _atom_site_label
 _atom_site_symmetry_multiplicity
 _atom_site_fract_x
 _atom_site_fract_y
 _atom_site_fract_z
 _atom_site_occupancy
  Mn  Mn0  1  0.749992  0.250001  0.624720  1
  Mn  Mn1  1  0.250009  0.750001  0.875284  1
  Nb  Nb2  1  0.249994  0.250001  0.120546  1
  Nb  Nb3  1  0.750006  0.750001  0.379455  1
  Nb  Nb4  1  0.249993  0.250001  0.630126  1
  Nb  Nb5  1  0.750008  0.750001  0.869875  1
  Ge  Ge6  1  0.750003  0.250001  0.125884  1
  Ge  Ge7  1  0.249996  0.750001  0.374113  1
  Ru  Ru8  1  0.502125  0.750001  0.126887  1
  Ru  Ru9  1  0.997901  0.750001  0.126878  1
  Ru  Ru10  1  0.497873  0.250001  0.373114  1
  Ru  Ru11  1  0.002100  0.250001  0.373119  1
  Ru  Ru12  1  0.001887  0.750001  0.622195  1
  Ru  Ru13  1  0.498110  0.750001  0.622174  1
  Ru  Ru14  1  0.998113  0.250001  0.877806  1
  Ru  Ru15  1  0.501891  0.250001  0.877824  1
