# generated using pymatgen
data_KBa3SbO6
_symmetry_space_group_name_H-M   'P 1'
_cell_length_a   7.35115544
_cell_length_b   7.35115551
_cell_length_c   7.35115530
_cell_angle_alpha   89.43769684
_cell_angle_beta   89.43769397
_cell_angle_gamma   89.43769129
_symmetry_Int_Tables_number   1
_chemical_formula_structural   KBa3SbO6
_chemical_formula_sum   'K2 Ba6 Sb2 O12'
_cell_volume   397.19564060
_cell_formula_units_Z   2
loop_
 _symmetry_equiv_pos_site_id
 _symmetry_equiv_pos_as_xyz
  1  'x, y, z'
loop_
 _atom_site_type_symbol
 _atom_site_label
 _atom_site_symmetry_multiplicity
 _atom_site_fract_x
 _atom_site_fract_y
 _atom_site_fract_z
 _atom_site_occupancy
  K  K0  1  0.250000  0.250000  0.250000  1
  K  K1  1  0.750000  0.750000  0.750000  1
  Ba  Ba2  1  0.897572  0.250000  0.602428  1
  Ba  Ba3  1  0.602428  0.897572  0.250000  1
  Ba  Ba4  1  0.750000  0.397572  0.102428  1
  Ba  Ba5  1  0.102428  0.750000  0.397572  1
  Ba  Ba6  1  0.397572  0.102428  0.750000  1
  Ba  Ba7  1  0.250000  0.602428  0.897572  1
  Sb  Sb8  1  0.000000  0.000000  0.000000  1
  Sb  Sb9  1  0.500000  0.500000  0.500000  1
  O  O10  1  0.561777  0.235825  0.428948  1
  O  O11  1  0.428948  0.561777  0.235825  1
  O  O12  1  0.235825  0.428948  0.561777  1
  O  O13  1  0.938223  0.071052  0.264175  1
  O  O14  1  0.264175  0.938223  0.071052  1
  O  O15  1  0.071052  0.264175  0.938223  1
  O  O16  1  0.438223  0.764175  0.571052  1
  O  O17  1  0.571052  0.438223  0.764175  1
  O  O18  1  0.764175  0.571052  0.438223  1
  O  O19  1  0.061777  0.928948  0.735825  1
  O  O20  1  0.928948  0.735825  0.061777  1
  O  O21  1  0.735825  0.061777  0.928948  1
