# generated using pymatgen
data_Ce3Er(FeSn)4
_symmetry_space_group_name_H-M   'P 1'
_cell_length_a   6.29230023
_cell_length_b   6.29230016
_cell_length_c   9.59583933
_cell_angle_alpha   75.79131110
_cell_angle_beta   75.79131069
_cell_angle_gamma   43.34756298
_symmetry_Int_Tables_number   1
_chemical_formula_structural   Ce3Er(FeSn)4
_chemical_formula_sum   'Ce3 Er1 Fe4 Sn4'
_cell_volume   251.53005535
_cell_formula_units_Z   1
loop_
 _symmetry_equiv_pos_site_id
 _symmetry_equiv_pos_as_xyz
  1  'x, y, z'
loop_
 _atom_site_type_symbol
 _atom_site_label
 _atom_site_symmetry_multiplicity
 _atom_site_fract_x
 _atom_site_fract_y
 _atom_site_fract_z
 _atom_site_occupancy
  Ce  Ce0  1  0.857077  0.857077  0.426006  1
  Ce  Ce1  1  0.866746  0.866746  0.926520  1
  Ce  Ce2  1  0.142022  0.142022  0.084902  1
  Er  Er3  1  0.116123  0.116123  0.594113  1
  Fe  Fe4  1  0.816247  0.816247  0.153402  1
  Fe  Fe5  1  0.194822  0.194822  0.289587  1
  Fe  Fe6  1  0.188398  0.188398  0.849533  1
  Fe  Fe7  1  0.808494  0.808494  0.653864  1
  Sn  Sn8  1  0.421684  0.421684  0.161995  1
  Sn  Sn9  1  0.403502  0.403502  0.667522  1
  Sn  Sn10  1  0.591906  0.591906  0.838216  1
  Sn  Sn11  1  0.592981  0.592981  0.354339  1
