# generated using pymatgen
data_Zr3Sc5P12(IrRh3)4
_symmetry_space_group_name_H-M   'P 1'
_cell_length_a   12.81535500
_cell_length_b   12.81535476
_cell_length_c   3.87894100
_cell_angle_alpha   90.00000000
_cell_angle_beta   90.00000000
_cell_angle_gamma   119.99999804
_symmetry_Int_Tables_number   1
_chemical_formula_structural   Zr3Sc5P12(IrRh3)4
_chemical_formula_sum   'Zr3 Sc5 P12 Ir4 Rh12'
_cell_volume   551.70267324
_cell_formula_units_Z   1
loop_
 _symmetry_equiv_pos_site_id
 _symmetry_equiv_pos_as_xyz
  1  'x, y, z'
loop_
 _atom_site_type_symbol
 _atom_site_label
 _atom_site_symmetry_multiplicity
 _atom_site_fract_x
 _atom_site_fract_y
 _atom_site_fract_z
 _atom_site_occupancy
  Zr  Zr0  1  0.448243  0.000000  0.000000  1
  Zr  Zr1  1  0.000000  0.448243  0.000000  1
  Zr  Zr2  1  0.551757  0.551757  0.000000  1
  Sc  Sc3  1  0.333333  0.666667  0.000000  1
  Sc  Sc4  1  0.666667  0.333333  0.000000  1
  Sc  Sc5  1  0.815538  0.000000  0.500000  1
  Sc  Sc6  1  0.000000  0.815538  0.500000  1
  Sc  Sc7  1  0.184462  0.184462  0.500000  1
  P  P8  1  0.173929  0.000000  0.000000  1
  P  P9  1  0.000000  0.173929  0.000000  1
  P  P10  1  0.826071  0.826071  0.000000  1
  P  P11  1  0.171108  0.484245  0.500000  1
  P  P12  1  0.515755  0.686863  0.500000  1
  P  P13  1  0.313137  0.828892  0.500000  1
  P  P14  1  0.686863  0.515755  0.500000  1
  P  P15  1  0.828892  0.313137  0.500000  1
  P  P16  1  0.484245  0.171108  0.500000  1
  P  P17  1  0.652317  0.000000  0.000000  1
  P  P18  1  0.000000  0.652317  0.000000  1
  P  P19  1  0.347683  0.347683  0.000000  1
  Ir  Ir20  1  0.274049  0.000000  0.500000  1
  Ir  Ir21  1  0.000000  0.274049  0.500000  1
  Ir  Ir22  1  0.725951  0.725951  0.500000  1
  Ir  Ir23  1  0.000000  0.000000  0.000000  1
  Rh  Rh24  1  0.356012  0.490209  0.500000  1
  Rh  Rh25  1  0.509791  0.865802  0.500000  1
  Rh  Rh26  1  0.134198  0.643988  0.500000  1
  Rh  Rh27  1  0.865802  0.509791  0.500000  1
  Rh  Rh28  1  0.643988  0.134198  0.500000  1
  Rh  Rh29  1  0.490209  0.356012  0.500000  1
  Rh  Rh30  1  0.178398  0.371014  0.000000  1
  Rh  Rh31  1  0.628986  0.807385  0.000000  1
  Rh  Rh32  1  0.192615  0.821602  0.000000  1
  Rh  Rh33  1  0.807385  0.628986  0.000000  1
  Rh  Rh34  1  0.821602  0.192615  0.000000  1
  Rh  Rh35  1  0.371014  0.178398  0.000000  1
