# generated using pymatgen
data_Tb4Co16Si9P3Ru4
_symmetry_space_group_name_H-M   'P 1'
_cell_length_a   3.72945000
_cell_length_b   10.49284190
_cell_length_c   11.92659099
_cell_angle_alpha   89.95296686
_cell_angle_beta   90.00000000
_cell_angle_gamma   90.00000000
_symmetry_Int_Tables_number   1
_chemical_formula_structural   Tb4Co16Si9P3Ru4
_chemical_formula_sum   'Tb4 Co16 Si9 P3 Ru4'
_cell_volume   466.71751306
_cell_formula_units_Z   1
loop_
 _symmetry_equiv_pos_site_id
 _symmetry_equiv_pos_as_xyz
  1  'x, y, z'
loop_
 _atom_site_type_symbol
 _atom_site_label
 _atom_site_symmetry_multiplicity
 _atom_site_fract_x
 _atom_site_fract_y
 _atom_site_fract_z
 _atom_site_occupancy
  Tb  Tb0  1  0.250000  0.581199  0.701790  1
  Tb  Tb1  1  0.250000  0.917710  0.203493  1
  Tb  Tb2  1  0.750000  0.417721  0.295914  1
  Tb  Tb3  1  0.750000  0.081465  0.797446  1
  Co  Co4  1  0.250000  0.406353  0.491925  1
  Co  Co5  1  0.250000  0.089382  0.990037  1
  Co  Co6  1  0.750000  0.589556  0.512685  1
  Co  Co7  1  0.750000  0.910613  0.010250  1
  Co  Co8  1  0.250000  0.212232  0.172371  1
  Co  Co9  1  0.250000  0.286344  0.673779  1
  Co  Co10  1  0.750000  0.787838  0.827425  1
  Co  Co11  1  0.750000  0.714465  0.326479  1
  Co  Co12  1  0.250000  0.886599  0.704291  1
  Co  Co13  1  0.250000  0.614523  0.199653  1
  Co  Co14  1  0.750000  0.113819  0.296555  1
  Co  Co15  1  0.750000  0.385718  0.796134  1
  Co  Co16  1  0.250000  0.468189  0.930123  1
  Co  Co17  1  0.250000  0.032275  0.431322  1
  Co  Co18  1  0.750000  0.531167  0.067022  1
  Co  Co19  1  0.750000  0.969844  0.569801  1
  Si  Si20  1  0.250000  0.416198  0.111151  1
  Si  Si21  1  0.250000  0.083884  0.612285  1
  Si  Si22  1  0.750000  0.583970  0.886963  1
  Si  Si23  1  0.750000  0.916142  0.389144  1
  Si  Si24  1  0.250000  0.272045  0.866170  1
  Si  Si25  1  0.250000  0.227967  0.365869  1
  Si  Si26  1  0.750000  0.727171  0.133836  1
  Si  Si27  1  0.750000  0.772554  0.634017  1
  Si  Si28  1  0.250000  0.599808  0.393017  1
  P  P29  1  0.250000  0.901420  0.891970  1
  P  P30  1  0.750000  0.400583  0.607572  1
  P  P31  1  0.750000  0.098558  0.108368  1
  Ru  Ru32  1  0.250000  0.709452  0.988630  1
  Ru  Ru33  1  0.250000  0.794469  0.492274  1
  Ru  Ru34  1  0.750000  0.290113  0.009968  1
  Ru  Ru35  1  0.750000  0.208654  0.510272  1
