# generated using pymatgen
data_Tb8HfTa6Si16W5
_symmetry_space_group_name_H-M   'P 1'
_cell_length_a   6.99330754
_cell_length_b   6.99736736
_cell_length_c   12.97842802
_cell_angle_alpha   90.12708736
_cell_angle_beta   89.94118704
_cell_angle_gamma   90.05125403
_symmetry_Int_Tables_number   1
_chemical_formula_structural   Tb8HfTa6Si16W5
_chemical_formula_sum   'Tb8 Hf1 Ta6 Si16 W5'
_cell_volume   635.09387576
_cell_formula_units_Z   1
loop_
 _symmetry_equiv_pos_site_id
 _symmetry_equiv_pos_as_xyz
  1  'x, y, z'
loop_
 _atom_site_type_symbol
 _atom_site_label
 _atom_site_symmetry_multiplicity
 _atom_site_fract_x
 _atom_site_fract_y
 _atom_site_fract_z
 _atom_site_occupancy
  Tb  Tb0  1  0.000627  0.338305  0.218480  1
  Tb  Tb1  1  0.001908  0.662433  0.718204  1
  Tb  Tb2  1  0.162111  0.500104  0.467132  1
  Tb  Tb3  1  0.499658  0.837266  0.031975  1
  Tb  Tb4  1  0.838451  0.500698  0.970463  1
  Tb  Tb5  1  0.498789  0.162360  0.530303  1
  Tb  Tb6  1  0.336136  0.999531  0.782440  1
  Tb  Tb7  1  0.662878  0.000202  0.280273  1
  Hf  Hf8  1  0.667188  0.331047  0.750052  1
  Ta  Ta9  1  0.168855  0.167569  0.001755  1
  Ta  Ta10  1  0.831955  0.832232  0.499027  1
  Ta  Ta11  1  0.333549  0.668037  0.249030  1
  Ta  Ta12  1  0.158366  0.996048  0.375173  1
  Ta  Ta13  1  0.843099  0.005851  0.877545  1
  Ta  Ta14  1  0.504511  0.658711  0.624315  1
  Si  Si15  1  0.376319  0.298560  0.317082  1
  Si  Si16  1  0.625493  0.704742  0.818439  1
  Si  Si17  1  0.201228  0.875634  0.567858  1
  Si  Si18  1  0.128565  0.792771  0.932349  1
  Si  Si19  1  0.796202  0.124518  0.068845  1
  Si  Si20  1  0.870826  0.206673  0.431918  1
  Si  Si21  1  0.290944  0.370587  0.682634  1
  Si  Si22  1  0.703891  0.625431  0.182280  1
  Si  Si23  1  0.292050  0.040332  0.186458  1
  Si  Si24  1  0.708606  0.957353  0.686271  1
  Si  Si25  1  0.460908  0.791701  0.435863  1
  Si  Si26  1  0.208885  0.539391  0.063077  1
  Si  Si27  1  0.536922  0.209556  0.939649  1
  Si  Si28  1  0.794825  0.459860  0.561444  1
  Si  Si29  1  0.043477  0.294166  0.813889  1
  Si  Si30  1  0.959032  0.707215  0.312442  1
  W  W31  1  0.338901  0.492603  0.874857  1
  W  W32  1  0.492697  0.340807  0.126710  1
  W  W33  1  0.661623  0.508849  0.373288  1
  W  W34  1  0.991198  0.161682  0.623665  1
  W  W35  1  0.009331  0.837175  0.124816  1
