# generated using pymatgen
data_TbHo2Zr(Al8Pt3)3
_symmetry_space_group_name_H-M   'P 1'
_cell_length_a   7.52098188
_cell_length_b   7.52730770
_cell_length_c   13.10121501
_cell_angle_alpha   84.54216306
_cell_angle_beta   79.01795067
_cell_angle_gamma   59.90092427
_symmetry_Int_Tables_number   1
_chemical_formula_structural   TbHo2Zr(Al8Pt3)3
_chemical_formula_sum   'Tb1 Ho2 Zr1 Al24 Pt9'
_cell_volume   629.93381315
_cell_formula_units_Z   1
loop_
 _symmetry_equiv_pos_site_id
 _symmetry_equiv_pos_as_xyz
  1  'x, y, z'
loop_
 _atom_site_type_symbol
 _atom_site_label
 _atom_site_symmetry_multiplicity
 _atom_site_fract_x
 _atom_site_fract_y
 _atom_site_fract_z
 _atom_site_occupancy
  Tb  Tb0  1  0.266700  0.501355  0.191806  1
  Ho  Ho1  1  0.606431  0.831909  0.191892  1
  Ho  Ho2  1  0.733889  0.498635  0.807609  1
  Zr  Zr3  1  0.393397  0.168058  0.809065  1
  Al  Al4  1  0.681952  0.836394  0.941857  1
  Al  Al5  1  0.316642  0.166140  0.053594  1
  Al  Al6  1  0.146413  0.832830  0.562471  1
  Al  Al7  1  0.853188  0.167117  0.438295  1
  Al  Al8  1  0.479957  0.166808  0.560804  1
  Al  Al9  1  0.519272  0.833836  0.441171  1
  Al  Al10  1  0.217230  0.165175  0.330453  1
  Al  Al11  1  0.779501  0.836888  0.672513  1
  Al  Al12  1  0.436400  0.504315  0.672838  1
  Al  Al13  1  0.562326  0.493819  0.329889  1
  Al  Al14  1  0.111277  0.159965  0.671753  1
  Al  Al15  1  0.889808  0.839804  0.331127  1
  Al  Al16  1  0.354005  0.496368  0.941694  1
  Al  Al17  1  0.648068  0.500134  0.055181  1
  Al  Al18  1  0.018688  0.168042  0.950505  1
  Al  Al19  1  0.984510  0.832965  0.046125  1
  Al  Al20  1  0.186718  0.499284  0.441281  1
  Al  Al21  1  0.813662  0.500397  0.559127  1
  Al  Al22  1  0.734243  0.163592  0.183767  1
  Al  Al23  1  0.265812  0.841692  0.816225  1
  Al  Al24  1  0.066529  0.626013  0.814900  1
  Al  Al25  1  0.938975  0.368376  0.184597  1
  Al  Al26  1  0.850461  0.041372  0.815518  1
  Al  Al27  1  0.144654  0.958985  0.183909  1
  Pt  Pt28  1  0.119554  0.491189  0.639277  1
  Pt  Pt29  1  0.878839  0.508482  0.361589  1
  Pt  Pt30  1  0.657620  0.171855  0.998781  1
  Pt  Pt31  1  0.343914  0.827632  0.999122  1
  Pt  Pt32  1  0.537592  0.166415  0.362039  1
  Pt  Pt33  1  0.463266  0.832514  0.639262  1
  Pt  Pt34  1  0.778349  0.176367  0.637961  1
  Pt  Pt35  1  0.220672  0.824906  0.363147  1
  Pt  Pt36  1  0.999486  0.500376  0.998858  1
