# generated using pymatgen
data_YTm5Fe2(Co4P3)4
_symmetry_space_group_name_H-M   'P 1'
_cell_length_a   3.68069800
_cell_length_b   10.49794400
_cell_length_c   12.13296000
_cell_angle_alpha   90.00000000
_cell_angle_beta   90.00000000
_cell_angle_gamma   90.00000000
_symmetry_Int_Tables_number   1
_chemical_formula_structural   YTm5Fe2(Co4P3)4
_chemical_formula_sum   'Y1 Tm5 Fe2 Co16 P12'
_cell_volume   468.81468051
_cell_formula_units_Z   1
loop_
 _symmetry_equiv_pos_site_id
 _symmetry_equiv_pos_as_xyz
  1  'x, y, z'
loop_
 _atom_site_type_symbol
 _atom_site_label
 _atom_site_symmetry_multiplicity
 _atom_site_fract_x
 _atom_site_fract_y
 _atom_site_fract_z
 _atom_site_occupancy
  Y  Y0  1  0.000000  0.500000  0.522448  1
  Tm  Tm1  1  0.500000  0.000000  0.477440  1
  Tm  Tm2  1  0.500000  0.818446  0.205074  1
  Tm  Tm3  1  0.500000  0.181554  0.205074  1
  Tm  Tm4  1  0.000000  0.681811  0.795173  1
  Tm  Tm5  1  0.000000  0.318189  0.795173  1
  Fe  Fe6  1  0.500000  0.500000  0.157306  1
  Fe  Fe7  1  0.000000  0.000000  0.842031  1
  Co  Co8  1  0.500000  0.500000  0.703061  1
  Co  Co9  1  0.000000  0.000000  0.298146  1
  Co  Co10  1  0.000000  0.500000  0.986278  1
  Co  Co11  1  0.500000  0.000000  0.013959  1
  Co  Co12  1  0.500000  0.332762  0.993883  1
  Co  Co13  1  0.500000  0.667238  0.993883  1
  Co  Co14  1  0.000000  0.167017  0.006123  1
  Co  Co15  1  0.000000  0.832983  0.006123  1
  Co  Co16  1  0.500000  0.295752  0.430573  1
  Co  Co17  1  0.500000  0.704248  0.430573  1
  Co  Co18  1  0.000000  0.202227  0.569286  1
  Co  Co19  1  0.000000  0.797773  0.569286  1
  Co  Co20  1  0.500000  0.878511  0.709029  1
  Co  Co21  1  0.500000  0.121489  0.709029  1
  Co  Co22  1  0.000000  0.622032  0.290615  1
  Co  Co23  1  0.000000  0.377968  0.290615  1
  P  P24  1  0.500000  0.500000  0.881844  1
  P  P25  1  0.000000  0.000000  0.118626  1
  P  P26  1  0.500000  0.500000  0.342746  1
  P  P27  1  0.000000  0.000000  0.655807  1
  P  P28  1  0.500000  0.310375  0.617184  1
  P  P29  1  0.500000  0.689625  0.617184  1
  P  P30  1  0.000000  0.188325  0.383323  1
  P  P31  1  0.000000  0.811675  0.383323  1
  P  P32  1  0.500000  0.847113  0.892073  1
  P  P33  1  0.500000  0.152887  0.892073  1
  P  P34  1  0.000000  0.653249  0.107817  1
  P  P35  1  0.000000  0.346751  0.107817  1
