# generated using pymatgen
data_Er4Ga18Ir5Pt
_symmetry_space_group_name_H-M   'P 1'
_cell_length_a   7.59592338
_cell_length_b   7.59592424
_cell_length_c   9.47395597
_cell_angle_alpha   89.97408218
_cell_angle_beta   89.97408041
_cell_angle_gamma   119.96745747
_symmetry_Int_Tables_number   1
_chemical_formula_structural   Er4Ga18Ir5Pt
_chemical_formula_sum   'Er4 Ga18 Ir5 Pt1'
_cell_volume   473.54945011
_cell_formula_units_Z   1
loop_
 _symmetry_equiv_pos_site_id
 _symmetry_equiv_pos_as_xyz
  1  'x, y, z'
loop_
 _atom_site_type_symbol
 _atom_site_label
 _atom_site_symmetry_multiplicity
 _atom_site_fract_x
 _atom_site_fract_y
 _atom_site_fract_z
 _atom_site_occupancy
  Er  Er0  1  0.996868  0.668687  0.750801  1
  Er  Er1  1  0.004048  0.331845  0.249212  1
  Er  Er2  1  0.668155  0.995952  0.750788  1
  Er  Er3  1  0.331313  0.003132  0.249199  1
  Ga  Ga4  1  0.127133  0.126656  0.750207  1
  Ga  Ga5  1  0.873344  0.872867  0.249793  1
  Ga  Ga6  1  0.001200  0.333912  0.581728  1
  Ga  Ga7  1  0.004048  0.668737  0.418354  1
  Ga  Ga8  1  0.001668  0.666057  0.080267  1
  Ga  Ga9  1  0.333943  0.998332  0.919733  1
  Ga  Ga10  1  0.998278  0.333734  0.919478  1
  Ga  Ga11  1  0.666266  0.001722  0.080522  1
  Ga  Ga12  1  0.666088  0.998800  0.418272  1
  Ga  Ga13  1  0.331263  0.995952  0.581646  1
  Ga  Ga14  1  0.332107  0.332055  0.065550  1
  Ga  Ga15  1  0.667945  0.667893  0.934450  1
  Ga  Ga16  1  0.667631  0.670368  0.567261  1
  Ga  Ga17  1  0.329632  0.332369  0.432739  1
  Ga  Ga18  1  0.339703  0.546929  0.750310  1
  Ga  Ga19  1  0.660494  0.454692  0.247855  1
  Ga  Ga20  1  0.545308  0.339506  0.752145  1
  Ga  Ga21  1  0.453071  0.660297  0.249690  1
  Ir  Ir22  1  0.328568  0.671432  0.500000  1
  Ir  Ir23  1  0.328243  0.671757  0.000000  1
  Ir  Ir24  1  0.671926  0.328074  0.000000  1
  Ir  Ir25  1  0.000113  0.999887  0.500000  1
  Ir  Ir26  1  0.999966  0.000034  0.000000  1
  Pt  Pt27  1  0.671676  0.328324  0.500000  1
