# generated using pymatgen
data_Sc3Al7Si5Os3
_symmetry_space_group_name_H-M   'P 1'
_cell_length_a   8.48206000
_cell_length_b   8.48206049
_cell_length_c   9.04807300
_cell_angle_alpha   90.00000000
_cell_angle_beta   90.00000000
_cell_angle_gamma   119.99999810
_symmetry_Int_Tables_number   1
_chemical_formula_structural   Sc3Al7Si5Os3
_chemical_formula_sum   'Sc6 Al14 Si10 Os6'
_cell_volume   563.75374681
_cell_formula_units_Z   2
loop_
 _symmetry_equiv_pos_site_id
 _symmetry_equiv_pos_as_xyz
  1  'x, y, z'
loop_
 _atom_site_type_symbol
 _atom_site_label
 _atom_site_symmetry_multiplicity
 _atom_site_fract_x
 _atom_site_fract_y
 _atom_site_fract_z
 _atom_site_occupancy
  Sc  Sc0  1  0.198268  0.801732  0.250000  1
  Sc  Sc1  1  0.198268  0.396536  0.250000  1
  Sc  Sc2  1  0.603464  0.801732  0.250000  1
  Sc  Sc3  1  0.801732  0.198268  0.750000  1
  Sc  Sc4  1  0.801732  0.603464  0.750000  1
  Sc  Sc5  1  0.396536  0.198268  0.750000  1
  Al  Al6  1  0.157317  0.842683  0.919105  1
  Al  Al7  1  0.157317  0.314634  0.919105  1
  Al  Al8  1  0.685366  0.842683  0.919105  1
  Al  Al9  1  0.842683  0.157317  0.080895  1
  Al  Al10  1  0.842683  0.685366  0.080895  1
  Al  Al11  1  0.314634  0.157317  0.080895  1
  Al  Al12  1  0.842683  0.157317  0.419105  1
  Al  Al13  1  0.842683  0.685366  0.419105  1
  Al  Al14  1  0.314634  0.157317  0.419105  1
  Al  Al15  1  0.157317  0.842683  0.580895  1
  Al  Al16  1  0.157317  0.314634  0.580895  1
  Al  Al17  1  0.685366  0.842683  0.580895  1
  Al  Al18  1  0.000000  0.000000  0.250000  1
  Al  Al19  1  0.000000  0.000000  0.750000  1
  Si  Si20  1  0.566556  0.433444  0.250000  1
  Si  Si21  1  0.566556  0.133112  0.250000  1
  Si  Si22  1  0.866888  0.433444  0.250000  1
  Si  Si23  1  0.433444  0.566556  0.750000  1
  Si  Si24  1  0.433444  0.866888  0.750000  1
  Si  Si25  1  0.133112  0.566556  0.750000  1
  Si  Si26  1  0.333333  0.666667  0.452275  1
  Si  Si27  1  0.666667  0.333333  0.547725  1
  Si  Si28  1  0.666667  0.333333  0.952275  1
  Si  Si29  1  0.333333  0.666667  0.047725  1
  Os  Os30  1  0.500000  0.500000  0.500000  1
  Os  Os31  1  0.500000  0.000000  0.500000  1
  Os  Os32  1  0.000000  0.500000  0.500000  1
  Os  Os33  1  0.500000  0.500000  0.000000  1
  Os  Os34  1  0.500000  0.000000  0.000000  1
  Os  Os35  1  0.000000  0.500000  0.000000  1
