# generated using pymatgen
data_NdGdMgMnO6
_symmetry_space_group_name_H-M   'P 1'
_cell_length_a   5.39891724
_cell_length_b   5.61894700
_cell_length_c   7.72304402
_cell_angle_alpha   90.00000000
_cell_angle_beta   89.95660222
_cell_angle_gamma   90.00000000
_symmetry_Int_Tables_number   1
_chemical_formula_structural   NdGdMgMnO6
_chemical_formula_sum   'Nd2 Gd2 Mg2 Mn2 O12'
_cell_volume   234.28797127
_cell_formula_units_Z   2
loop_
 _symmetry_equiv_pos_site_id
 _symmetry_equiv_pos_as_xyz
  1  'x, y, z'
loop_
 _atom_site_type_symbol
 _atom_site_label
 _atom_site_symmetry_multiplicity
 _atom_site_fract_x
 _atom_site_fract_y
 _atom_site_fract_z
 _atom_site_occupancy
  Nd  Nd0  1  0.513776  0.556042  0.249285  1
  Nd  Nd1  1  0.986224  0.056042  0.250715  1
  Gd  Gd2  1  0.485602  0.438682  0.751213  1
  Gd  Gd3  1  0.014398  0.938682  0.748787  1
  Mg  Mg4  1  0.500005  0.998653  0.997068  1
  Mg  Mg5  1  0.999995  0.498653  0.502932  1
  Mn  Mn6  1  0.501991  0.000130  0.503187  1
  Mn  Mn7  1  0.998009  0.500130  0.996813  1
  O  O8  1  0.414232  0.976058  0.259687  1
  O  O9  1  0.085768  0.476058  0.240313  1
  O  O10  1  0.598659  0.032600  0.741554  1
  O  O11  1  0.901341  0.532600  0.758446  1
  O  O12  1  0.807822  0.786317  0.046794  1
  O  O13  1  0.692178  0.286317  0.453206  1
  O  O14  1  0.211386  0.193192  0.550502  1
  O  O15  1  0.288614  0.693192  0.949498  1
  O  O16  1  0.190903  0.212860  0.945482  1
  O  O17  1  0.309097  0.712860  0.554518  1
  O  O18  1  0.789056  0.805466  0.457326  1
  O  O19  1  0.710944  0.305466  0.042674  1
