# generated using pymatgen
data_Ho4Al3Zn4Sn
_symmetry_space_group_name_H-M   'P 1'
_cell_length_a   4.48969000
_cell_length_b   4.48968935
_cell_length_c   14.54278400
_cell_angle_alpha   90.00000000
_cell_angle_beta   90.00000000
_cell_angle_gamma   119.99997531
_symmetry_Int_Tables_number   1
_chemical_formula_structural   Ho4Al3Zn4Sn
_chemical_formula_sum   'Ho4 Al3 Zn4 Sn1'
_cell_volume   253.86974172
_cell_formula_units_Z   1
loop_
 _symmetry_equiv_pos_site_id
 _symmetry_equiv_pos_as_xyz
  1  'x, y, z'
loop_
 _atom_site_type_symbol
 _atom_site_label
 _atom_site_symmetry_multiplicity
 _atom_site_fract_x
 _atom_site_fract_y
 _atom_site_fract_z
 _atom_site_occupancy
  Ho  Ho0  1  0.000000  0.000000  0.254154  1
  Ho  Ho1  1  0.000000  0.000000  0.741499  1
  Ho  Ho2  1  0.000000  0.000000  0.010170  1
  Ho  Ho3  1  0.000000  0.000000  0.497867  1
  Al  Al4  1  0.333333  0.666667  0.608298  1
  Al  Al5  1  0.666667  0.333333  0.364255  1
  Al  Al6  1  0.666667  0.333333  0.143563  1
  Zn  Zn7  1  0.333333  0.666667  0.122790  1
  Zn  Zn8  1  0.666667  0.333333  0.839848  1
  Zn  Zn9  1  0.666667  0.333333  0.635031  1
  Zn  Zn10  1  0.333333  0.666667  0.394039  1
  Sn  Sn11  1  0.333333  0.666667  0.888487  1
