# generated using pymatgen
data_Rb4Lu5Pa3S16
_symmetry_space_group_name_H-M   'P 1'
_cell_length_a   6.71690089
_cell_length_b   7.71746884
_cell_length_c   16.55871500
_cell_angle_alpha   90.00474404
_cell_angle_beta   89.92409069
_cell_angle_gamma   89.97374703
_symmetry_Int_Tables_number   1
_chemical_formula_structural   Rb4Lu5Pa3S16
_chemical_formula_sum   'Rb4 Lu5 Pa3 S16'
_cell_volume   858.36110091
_cell_formula_units_Z   1
loop_
 _symmetry_equiv_pos_site_id
 _symmetry_equiv_pos_as_xyz
  1  'x, y, z'
loop_
 _atom_site_type_symbol
 _atom_site_label
 _atom_site_symmetry_multiplicity
 _atom_site_fract_x
 _atom_site_fract_y
 _atom_site_fract_z
 _atom_site_occupancy
  Rb  Rb0  1  0.346604  0.001626  0.002773  1
  Rb  Rb1  1  0.653422  0.498383  0.497225  1
  Rb  Rb2  1  0.027325  0.001078  0.497638  1
  Rb  Rb3  1  0.972688  0.498924  0.002360  1
  Lu  Lu4  1  0.000164  0.008790  0.247401  1
  Lu  Lu5  1  0.000005  0.000074  0.752328  1
  Lu  Lu6  1  0.999842  0.491201  0.252606  1
  Lu  Lu7  1  0.999974  0.499938  0.747661  1
  Lu  Lu8  1  0.500014  0.249986  0.249998  1
  Pa  Pa9  1  0.499993  0.749995  0.750010  1
  Pa  Pa10  1  0.500008  0.749995  0.250001  1
  Pa  Pa11  1  0.500003  0.250011  0.750004  1
  S  S12  1  0.833732  0.247532  0.340731  1
  S  S13  1  0.834457  0.752029  0.659156  1
  S  S14  1  0.170426  0.748145  0.160849  1
  S  S15  1  0.165403  0.252007  0.840770  1
  S  S16  1  0.166286  0.252458  0.159274  1
  S  S17  1  0.165490  0.747985  0.840840  1
  S  S18  1  0.829573  0.751849  0.339149  1
  S  S19  1  0.834554  0.248005  0.659223  1
  S  S20  1  0.665075  0.997404  0.160225  1
  S  S21  1  0.670530  0.000010  0.842212  1
  S  S22  1  0.334935  0.502597  0.339777  1
  S  S23  1  0.329471  0.500008  0.657784  1
  S  S24  1  0.332755  0.997858  0.338250  1
  S  S25  1  0.327521  0.000036  0.659548  1
  S  S26  1  0.667255  0.502116  0.161752  1
  S  S27  1  0.672495  0.499959  0.840454  1
