# generated using pymatgen
data_TbNd3(MoO4)6
_symmetry_space_group_name_H-M   'P 1'
_cell_length_a   7.60422177
_cell_length_b   7.60422239
_cell_length_c   10.90629400
_cell_angle_alpha   89.88246893
_cell_angle_beta   90.11752806
_cell_angle_gamma   89.84509015
_symmetry_Int_Tables_number   1
_chemical_formula_structural   TbNd3(MoO4)6
_chemical_formula_sum   'Tb1 Nd3 Mo6 O24'
_cell_volume   630.64268879
_cell_formula_units_Z   1
loop_
 _symmetry_equiv_pos_site_id
 _symmetry_equiv_pos_as_xyz
  1  'x, y, z'
loop_
 _atom_site_type_symbol
 _atom_site_label
 _atom_site_symmetry_multiplicity
 _atom_site_fract_x
 _atom_site_fract_y
 _atom_site_fract_z
 _atom_site_occupancy
  Tb  Tb0  1  0.191140  0.308860  0.735774  1
  Nd  Nd1  1  0.688929  0.189213  0.261546  1
  Nd  Nd2  1  0.814047  0.685953  0.739225  1
  Nd  Nd3  1  0.310787  0.811071  0.261546  1
  Mo  Mo4  1  0.495000  0.496023  0.996501  1
  Mo  Mo5  1  0.003977  0.005000  0.996501  1
  Mo  Mo6  1  0.707058  0.209019  0.646259  1
  Mo  Mo7  1  0.791815  0.708185  0.355119  1
  Mo  Mo8  1  0.290981  0.792942  0.646259  1
  Mo  Mo9  1  0.208569  0.291431  0.360836  1
  O  O10  1  0.311757  0.450235  0.897953  1
  O  O11  1  0.189150  0.962601  0.093959  1
  O  O12  1  0.685722  0.539497  0.905105  1
  O  O13  1  0.816993  0.051336  0.091049  1
  O  O14  1  0.537399  0.310850  0.093959  1
  O  O15  1  0.960503  0.814278  0.905105  1
  O  O16  1  0.448664  0.683007  0.091049  1
  O  O17  1  0.049765  0.188243  0.897953  1
  O  O18  1  0.000230  0.226132  0.301449  1
  O  O19  1  0.501119  0.730737  0.704529  1
  O  O20  1  0.999642  0.774473  0.295860  1
  O  O21  1  0.496864  0.277038  0.702891  1
  O  O22  1  0.769263  0.998881  0.704529  1
  O  O23  1  0.725527  0.500358  0.295860  1
  O  O24  1  0.222962  0.003136  0.702891  1
  O  O25  1  0.273868  0.499770  0.301449  1
  O  O26  1  0.696255  0.197888  0.483203  1
  O  O27  1  0.804646  0.695354  0.518001  1
  O  O28  1  0.302112  0.803745  0.483203  1
  O  O29  1  0.196724  0.303276  0.524088  1
  O  O30  1  0.876829  0.367926  0.691842  1
  O  O31  1  0.627408  0.872592  0.308819  1
  O  O32  1  0.132074  0.623171  0.691842  1
  O  O33  1  0.372225  0.127775  0.313844  1
