# generated using pymatgen
data_Tb4Er8Co4BiOs
_symmetry_space_group_name_H-M   'P 1'
_cell_length_a   8.28874594
_cell_length_b   8.28874517
_cell_length_c   8.28874491
_cell_angle_alpha   110.46187717
_cell_angle_beta   110.92037949
_cell_angle_gamma   107.05835458
_symmetry_Int_Tables_number   1
_chemical_formula_structural   Tb4Er8Co4BiOs
_chemical_formula_sum   'Tb4 Er8 Co4 Bi1 Os1'
_cell_volume   437.78641887
_cell_formula_units_Z   1
loop_
 _symmetry_equiv_pos_site_id
 _symmetry_equiv_pos_as_xyz
  1  'x, y, z'
loop_
 _atom_site_type_symbol
 _atom_site_label
 _atom_site_symmetry_multiplicity
 _atom_site_fract_x
 _atom_site_fract_y
 _atom_site_fract_z
 _atom_site_occupancy
  Tb  Tb0  1  0.281201  0.182079  0.463279  1
  Tb  Tb1  1  0.718799  0.817921  0.536721  1
  Tb  Tb2  1  0.281201  0.817921  0.099123  1
  Tb  Tb3  1  0.718799  0.182079  0.900877  1
  Er  Er4  1  0.622274  0.312397  0.309877  1
  Er  Er5  1  0.377726  0.687603  0.690123  1
  Er  Er6  1  0.002521  0.312397  0.690123  1
  Er  Er7  1  0.997479  0.687603  0.309877  1
  Er  Er8  1  0.213958  0.410391  0.196433  1
  Er  Er9  1  0.786042  0.589609  0.803567  1
  Er  Er10  1  0.213958  0.017525  0.803567  1
  Er  Er11  1  0.786042  0.982475  0.196433  1
  Co  Co12  1  0.000000  0.375543  0.375543  1
  Co  Co13  1  0.000000  0.624457  0.624457  1
  Co  Co14  1  0.388689  0.888689  0.500000  1
  Co  Co15  1  0.611311  0.111311  0.500000  1
  Bi  Bi16  1  0.500000  0.500000  0.000000  1
  Os  Os17  1  0.000000  0.000000  0.000000  1
