# generated using pymatgen
data_Tb3Y13MgCo4Ag3
_symmetry_space_group_name_H-M   'P 1'
_cell_length_a   9.50117087
_cell_length_b   9.52202089
_cell_length_c   9.52202100
_cell_angle_alpha   60.00000308
_cell_angle_beta   59.92738409
_cell_angle_gamma   59.92737994
_symmetry_Int_Tables_number   1
_chemical_formula_structural   Tb3Y13MgCo4Ag3
_chemical_formula_sum   'Tb3 Y13 Mg1 Co4 Ag3'
_cell_volume   608.47514407
_cell_formula_units_Z   1
loop_
 _symmetry_equiv_pos_site_id
 _symmetry_equiv_pos_as_xyz
  1  'x, y, z'
loop_
 _atom_site_type_symbol
 _atom_site_label
 _atom_site_symmetry_multiplicity
 _atom_site_fract_x
 _atom_site_fract_y
 _atom_site_fract_z
 _atom_site_occupancy
  Tb  Tb0  1  0.346817  0.346381  0.346381  1
  Tb  Tb1  1  0.346817  0.346381  0.960421  1
  Tb  Tb2  1  0.346817  0.960421  0.346381  1
  Y  Y3  1  0.947647  0.350784  0.350784  1
  Y  Y4  1  0.810483  0.188612  0.188612  1
  Y  Y5  1  0.186403  0.813502  0.813502  1
  Y  Y6  1  0.186403  0.813502  0.186594  1
  Y  Y7  1  0.810483  0.188612  0.812293  1
  Y  Y8  1  0.186403  0.186594  0.813502  1
  Y  Y9  1  0.810483  0.812293  0.188612  1
  Y  Y10  1  0.935678  0.562866  0.562866  1
  Y  Y11  1  0.561931  0.937002  0.937002  1
  Y  Y12  1  0.561931  0.937002  0.564065  1
  Y  Y13  1  0.935678  0.562866  0.938591  1
  Y  Y14  1  0.561931  0.564065  0.937002  1
  Y  Y15  1  0.935678  0.938591  0.562866  1
  Mg  Mg16  1  0.287644  0.570785  0.570785  1
  Co  Co17  1  0.139958  0.142608  0.142608  1
  Co  Co18  1  0.139958  0.142608  0.574827  1
  Co  Co19  1  0.139958  0.574827  0.142608  1
  Co  Co20  1  0.572652  0.142449  0.142449  1
  Ag  Ag21  1  0.582748  0.582594  0.582594  1
  Ag  Ag22  1  0.582748  0.582594  0.252064  1
  Ag  Ag23  1  0.582748  0.252064  0.582594  1
