# generated using pymatgen
data_Tb15ThInAg3Ir4
_symmetry_space_group_name_H-M   'P 1'
_cell_length_a   9.64946814
_cell_length_b   9.66837403
_cell_length_c   9.61057883
_cell_angle_alpha   59.94184419
_cell_angle_beta   59.86604316
_cell_angle_gamma   60.06465695
_symmetry_Int_Tables_number   1
_chemical_formula_structural   Tb15ThInAg3Ir4
_chemical_formula_sum   'Tb15 Th1 In1 Ag3 Ir4'
_cell_volume   633.38833099
_cell_formula_units_Z   1
loop_
 _symmetry_equiv_pos_site_id
 _symmetry_equiv_pos_as_xyz
  1  'x, y, z'
loop_
 _atom_site_type_symbol
 _atom_site_label
 _atom_site_symmetry_multiplicity
 _atom_site_fract_x
 _atom_site_fract_y
 _atom_site_fract_z
 _atom_site_occupancy
  Tb  Tb0  1  0.940845  0.939249  0.559848  1
  Tb  Tb1  1  0.942081  0.558471  0.938564  1
  Tb  Tb2  1  0.313964  0.687122  0.311850  1
  Tb  Tb3  1  0.937859  0.560410  0.563871  1
  Tb  Tb4  1  0.312982  0.311200  0.685000  1
  Tb  Tb5  1  0.101221  0.100356  0.101574  1
  Tb  Tb6  1  0.560884  0.558471  0.938564  1
  Tb  Tb7  1  0.102045  0.102767  0.693144  1
  Tb  Tb8  1  0.690819  0.311200  0.685000  1
  Tb  Tb9  1  0.687064  0.687122  0.311850  1
  Tb  Tb10  1  0.689486  0.310994  0.310035  1
  Tb  Tb11  1  0.314176  0.688026  0.683622  1
  Tb  Tb12  1  0.560059  0.939249  0.559848  1
  Tb  Tb13  1  0.696850  0.100356  0.101574  1
  Tb  Tb14  1  0.559122  0.942250  0.939508  1
  Th  Th15  1  0.097589  0.704528  0.100296  1
  In  In16  1  0.330120  0.328656  0.011104  1
  Ag  Ag17  1  0.333008  0.332813  0.333756  1
  Ag  Ag18  1  0.000423  0.332813  0.333756  1
  Ag  Ag19  1  0.332483  0.001556  0.333476  1
  Ir  Ir20  1  0.890962  0.892954  0.893146  1
  Ir  Ir21  1  0.891446  0.894076  0.323031  1
  Ir  Ir22  1  0.322938  0.892954  0.893146  1
  Ir  Ir23  1  0.891578  0.322408  0.894438  1
