# generated using pymatgen
data_Nd6Dy5Y5(CdPt)4
_symmetry_space_group_name_H-M   'P 1'
_cell_length_a   9.78719208
_cell_length_b   9.80895401
_cell_length_c   9.80895448
_cell_angle_alpha   60.08117373
_cell_angle_beta   60.07336104
_cell_angle_gamma   60.07336531
_symmetry_Int_Tables_number   1
_chemical_formula_structural   Nd6Dy5Y5(CdPt)4
_chemical_formula_sum   'Nd6 Dy5 Y5 Cd4 Pt4'
_cell_volume   667.01489677
_cell_formula_units_Z   1
loop_
 _symmetry_equiv_pos_site_id
 _symmetry_equiv_pos_as_xyz
  1  'x, y, z'
loop_
 _atom_site_type_symbol
 _atom_site_label
 _atom_site_symmetry_multiplicity
 _atom_site_fract_x
 _atom_site_fract_y
 _atom_site_fract_z
 _atom_site_occupancy
  Nd  Nd0  1  0.937736  0.562264  0.562264  1
  Nd  Nd1  1  0.562269  0.937731  0.937731  1
  Nd  Nd2  1  0.562481  0.938005  0.561964  1
  Nd  Nd3  1  0.937550  0.561964  0.938005  1
  Nd  Nd4  1  0.562481  0.561964  0.938005  1
  Nd  Nd5  1  0.937550  0.938005  0.561964  1
  Dy  Dy6  1  0.350458  0.350600  0.350600  1
  Dy  Dy7  1  0.350686  0.350803  0.947824  1
  Dy  Dy8  1  0.350686  0.947824  0.350803  1
  Dy  Dy9  1  0.948342  0.350600  0.350600  1
  Dy  Dy10  1  0.811205  0.188795  0.188795  1
  Y  Y11  1  0.188989  0.811011  0.811011  1
  Y  Y12  1  0.189036  0.811066  0.188926  1
  Y  Y13  1  0.810972  0.188926  0.811066  1
  Y  Y14  1  0.189036  0.188926  0.811066  1
  Y  Y15  1  0.810972  0.811066  0.188926  1
  Cd  Cd16  1  0.579877  0.579925  0.579925  1
  Cd  Cd17  1  0.579896  0.580030  0.260177  1
  Cd  Cd18  1  0.579896  0.260177  0.580030  1
  Cd  Cd19  1  0.260274  0.579925  0.579925  1
  Pt  Pt20  1  0.142558  0.143350  0.143350  1
  Pt  Pt21  1  0.143153  0.143137  0.570559  1
  Pt  Pt22  1  0.143153  0.570559  0.143137  1
  Pt  Pt23  1  0.570743  0.143350  0.143350  1
