# generated using pymatgen
data_BaLiLaS3
_symmetry_space_group_name_H-M   'P 1'
_cell_length_a   7.15342319
_cell_length_b   7.15342397
_cell_length_c   10.87159400
_cell_angle_alpha   90.00000000
_cell_angle_beta   90.00000000
_cell_angle_gamma   145.47550695
_symmetry_Int_Tables_number   1
_chemical_formula_structural   BaLiLaS3
_chemical_formula_sum   'Ba2 Li2 La2 S6'
_cell_volume   315.29649355
_cell_formula_units_Z   2
loop_
 _symmetry_equiv_pos_site_id
 _symmetry_equiv_pos_as_xyz
  1  'x, y, z'
loop_
 _atom_site_type_symbol
 _atom_site_label
 _atom_site_symmetry_multiplicity
 _atom_site_fract_x
 _atom_site_fract_y
 _atom_site_fract_z
 _atom_site_occupancy
  Ba  Ba0  1  0.751647  0.248354  0.250000  1
  Ba  Ba1  1  0.248354  0.751647  0.750000  1
  Li  Li2  1  0.026151  0.973850  0.250000  1
  Li  Li3  1  0.973850  0.026151  0.750000  1
  La  La4  1  0.500001  0.500001  0.000000  1
  La  La5  1  0.500001  0.500001  0.500000  1
  S  S6  1  0.131949  0.868052  0.072451  1
  S  S7  1  0.428706  0.571295  0.250000  1
  S  S8  1  0.131949  0.868052  0.427549  1
  S  S9  1  0.868052  0.131949  0.572451  1
  S  S10  1  0.571295  0.428706  0.750000  1
  S  S11  1  0.868052  0.131949  0.927550  1
