# generated using pymatgen
data_RbP2RuPt
_symmetry_space_group_name_H-M   'P 1'
_cell_length_a   7.48710837
_cell_length_b   7.48710836
_cell_length_c   7.48710755
_cell_angle_alpha   149.17735198
_cell_angle_beta   149.17735518
_cell_angle_gamma   44.15031697
_symmetry_Int_Tables_number   1
_chemical_formula_structural   RbP2RuPt
_chemical_formula_sum   'Rb1 P2 Ru1 Pt1'
_cell_volume   109.86848443
_cell_formula_units_Z   1
loop_
 _symmetry_equiv_pos_site_id
 _symmetry_equiv_pos_as_xyz
  1  'x, y, z'
loop_
 _atom_site_type_symbol
 _atom_site_label
 _atom_site_symmetry_multiplicity
 _atom_site_fract_x
 _atom_site_fract_y
 _atom_site_fract_z
 _atom_site_occupancy
  Rb  Rb0  1  0.000000  0.000000  0.000000  1
  P  P1  1  0.343450  0.343450  0.000000  1
  P  P2  1  0.656550  0.656550  0.000000  1
  Ru  Ru3  1  0.250000  0.750000  0.500000  1
  Pt  Pt4  1  0.750000  0.250000  0.500000  1
