# generated using pymatgen
data_Sm4Si2GePd27
_symmetry_space_group_name_H-M   'P 1'
_cell_length_a   8.94918888
_cell_length_b   8.94918888
_cell_length_c   7.13628177
_cell_angle_alpha   90.48445949
_cell_angle_beta   90.48445949
_cell_angle_gamma   88.57862484
_symmetry_Int_Tables_number   1
_chemical_formula_structural   Sm4Si2GePd27
_chemical_formula_sum   'Sm4 Si2 Ge1 Pd27'
_cell_volume   571.31468591
_cell_formula_units_Z   1
loop_
 _symmetry_equiv_pos_site_id
 _symmetry_equiv_pos_as_xyz
  1  'x, y, z'
loop_
 _atom_site_type_symbol
 _atom_site_label
 _atom_site_symmetry_multiplicity
 _atom_site_fract_x
 _atom_site_fract_y
 _atom_site_fract_z
 _atom_site_occupancy
  Sm  Sm0  1  0.511343  0.011343  0.931010  1
  Sm  Sm1  1  0.988657  0.488657  0.068990  1
  Sm  Sm2  1  0.003904  0.996096  0.500000  1
  Sm  Sm3  1  0.496096  0.503904  0.500000  1
  Si  Si4  1  0.505011  0.005011  0.444632  1
  Si  Si5  1  0.994989  0.494989  0.555368  1
  Ge  Ge6  1  0.250000  0.750000  0.000000  1
  Pd  Pd7  1  0.340014  0.840014  0.599814  1
  Pd  Pd8  1  0.333104  0.166977  0.619647  1
  Pd  Pd9  1  0.666977  0.833104  0.619647  1
  Pd  Pd10  1  0.667275  0.167275  0.614832  1
  Pd  Pd11  1  0.159986  0.659986  0.400186  1
  Pd  Pd12  1  0.166896  0.333023  0.380353  1
  Pd  Pd13  1  0.833023  0.666896  0.380353  1
  Pd  Pd14  1  0.832725  0.332725  0.385168  1
  Pd  Pd15  1  0.501396  0.773386  0.252811  1
  Pd  Pd16  1  0.496432  0.234152  0.256891  1
  Pd  Pd17  1  0.273386  0.001396  0.252811  1
  Pd  Pd18  1  0.734152  0.996432  0.256891  1
  Pd  Pd19  1  0.998604  0.726614  0.747189  1
  Pd  Pd20  1  0.003568  0.265848  0.743109  1
  Pd  Pd21  1  0.226614  0.498604  0.747189  1
  Pd  Pd22  1  0.765848  0.503568  0.743109  1
  Pd  Pd23  1  0.498161  0.355725  0.854058  1
  Pd  Pd24  1  0.487955  0.666529  0.863706  1
  Pd  Pd25  1  0.855725  0.998161  0.854058  1
  Pd  Pd26  1  0.166529  0.987955  0.863706  1
  Pd  Pd27  1  0.001839  0.144275  0.145942  1
  Pd  Pd28  1  0.012045  0.833471  0.136294  1
  Pd  Pd29  1  0.644275  0.501839  0.145942  1
  Pd  Pd30  1  0.333471  0.512045  0.136294  1
  Pd  Pd31  1  0.250000  0.250000  0.000000  1
  Pd  Pd32  1  0.750000  0.750000  0.000000  1
  Pd  Pd33  1  0.750000  0.250000  0.000000  1
