# generated using pymatgen
data_Yb2V3P7Ir9
_symmetry_space_group_name_H-M   'P 1'
_cell_length_a   3.92144500
_cell_length_b   9.55945983
_cell_length_c   9.55323600
_cell_angle_alpha   120.00348877
_cell_angle_beta   89.99992695
_cell_angle_gamma   90.00013842
_symmetry_Int_Tables_number   1
_chemical_formula_structural   Yb2V3P7Ir9
_chemical_formula_sum   'Yb2 V3 P7 Ir9'
_cell_volume   310.13112181
_cell_formula_units_Z   1
loop_
 _symmetry_equiv_pos_site_id
 _symmetry_equiv_pos_as_xyz
  1  'x, y, z'
loop_
 _atom_site_type_symbol
 _atom_site_label
 _atom_site_symmetry_multiplicity
 _atom_site_fract_x
 _atom_site_fract_y
 _atom_site_fract_z
 _atom_site_occupancy
  Yb  Yb0  1  0.261889  0.666697  0.333368  1
  Yb  Yb1  1  0.761854  0.333322  0.666636  1
  V  V2  1  0.761948  0.091592  0.875204  1
  V  V3  1  0.761950  0.124902  0.216483  1
  V  V4  1  0.761951  0.783541  0.908436  1
  P  P5  1  0.262085  0.000003  0.999973  1
  P  P6  1  0.761884  0.881785  0.595282  1
  P  P7  1  0.761896  0.404568  0.286509  1
  P  P8  1  0.761882  0.713461  0.118113  1
  P  P9  1  0.261853  0.120394  0.417282  1
  P  P10  1  0.261854  0.582699  0.703102  1
  P  P11  1  0.261858  0.296978  0.879597  1
  Ir  Ir12  1  0.261920  0.890374  0.159888  1
  Ir  Ir13  1  0.261912  0.840100  0.730406  1
  Ir  Ir14  1  0.261917  0.269644  0.109693  1
  Ir  Ir15  1  0.761902  0.611726  0.557779  1
  Ir  Ir16  1  0.761908  0.442151  0.053910  1
  Ir  Ir17  1  0.761909  0.945945  0.388192  1
  Ir  Ir18  1  0.261874  0.367838  0.436558  1
  Ir  Ir19  1  0.261879  0.563575  0.931438  1
  Ir  Ir20  1  0.261877  0.068701  0.632152  1
