# generated using pymatgen
data_ErGaCoO5
_symmetry_space_group_name_H-M   'P 1'
_cell_length_a   5.71290300
_cell_length_b   7.24706500
_cell_length_c   8.39680000
_cell_angle_alpha   90.00000000
_cell_angle_beta   90.00000000
_cell_angle_gamma   90.00000000
_symmetry_Int_Tables_number   1
_chemical_formula_structural   ErGaCoO5
_chemical_formula_sum   'Er4 Ga4 Co4 O20'
_cell_volume   347.64246110
_cell_formula_units_Z   4
loop_
 _symmetry_equiv_pos_site_id
 _symmetry_equiv_pos_as_xyz
  1  'x, y, z'
loop_
 _atom_site_type_symbol
 _atom_site_label
 _atom_site_symmetry_multiplicity
 _atom_site_fract_x
 _atom_site_fract_y
 _atom_site_fract_z
 _atom_site_occupancy
  Er  Er0  1  0.500000  0.365476  0.330845  1
  Er  Er1  1  0.500000  0.634524  0.669155  1
  Er  Er2  1  0.500000  0.134524  0.830845  1
  Er  Er3  1  0.500000  0.865476  0.169155  1
  Ga  Ga4  1  0.000000  0.109671  0.147915  1
  Ga  Ga5  1  0.000000  0.890329  0.852085  1
  Ga  Ga6  1  0.000000  0.390329  0.647915  1
  Ga  Ga7  1  0.000000  0.609671  0.352085  1
  Co  Co8  1  0.249293  0.000000  0.500000  1
  Co  Co9  1  0.750707  0.000000  0.500000  1
  Co  Co10  1  0.750707  0.500000  0.000000  1
  Co  Co11  1  0.249293  0.500000  0.000000  1
  O  O12  1  0.500000  0.340739  0.057371  1
  O  O13  1  0.500000  0.659261  0.942629  1
  O  O14  1  0.500000  0.159261  0.557371  1
  O  O15  1  0.500000  0.840739  0.442629  1
  O  O16  1  0.231501  0.000000  0.000000  1
  O  O17  1  0.768499  0.000000  0.000000  1
  O  O18  1  0.768499  0.500000  0.500000  1
  O  O19  1  0.231501  0.500000  0.500000  1
  O  O20  1  0.260187  0.107093  0.295858  1
  O  O21  1  0.739813  0.892907  0.704142  1
  O  O22  1  0.260187  0.892907  0.704142  1
  O  O23  1  0.739813  0.392907  0.795858  1
  O  O24  1  0.739813  0.107093  0.295858  1
  O  O25  1  0.260187  0.607093  0.204142  1
  O  O26  1  0.739813  0.607093  0.204142  1
  O  O27  1  0.260187  0.392907  0.795858  1
  O  O28  1  0.000000  0.353949  0.070926  1
  O  O29  1  0.000000  0.646051  0.929074  1
  O  O30  1  0.000000  0.146051  0.570926  1
  O  O31  1  0.000000  0.853949  0.429074  1
