# generated using pymatgen
data_Pr3Co8P6W
_symmetry_space_group_name_H-M   'P 1'
_cell_length_a   3.79274400
_cell_length_b   10.71930400
_cell_length_c   12.47315500
_cell_angle_alpha   90.00000000
_cell_angle_beta   90.00000000
_cell_angle_gamma   90.00000000
_symmetry_Int_Tables_number   1
_chemical_formula_structural   Pr3Co8P6W
_chemical_formula_sum   'Pr6 Co16 P12 W2'
_cell_volume   507.10330019
_cell_formula_units_Z   2
loop_
 _symmetry_equiv_pos_site_id
 _symmetry_equiv_pos_as_xyz
  1  'x, y, z'
loop_
 _atom_site_type_symbol
 _atom_site_label
 _atom_site_symmetry_multiplicity
 _atom_site_fract_x
 _atom_site_fract_y
 _atom_site_fract_z
 _atom_site_occupancy
  Pr  Pr0  1  0.000000  0.500000  0.523467  1
  Pr  Pr1  1  0.500000  0.000000  0.476533  1
  Pr  Pr2  1  0.500000  0.819071  0.205297  1
  Pr  Pr3  1  0.500000  0.180929  0.205297  1
  Pr  Pr4  1  0.000000  0.680929  0.794703  1
  Pr  Pr5  1  0.000000  0.319071  0.794703  1
  Co  Co6  1  0.500000  0.500000  0.703228  1
  Co  Co7  1  0.000000  0.000000  0.296772  1
  Co  Co8  1  0.000000  0.500000  0.988222  1
  Co  Co9  1  0.500000  0.000000  0.011778  1
  Co  Co10  1  0.500000  0.332697  0.992367  1
  Co  Co11  1  0.500000  0.667303  0.992367  1
  Co  Co12  1  0.000000  0.167303  0.007633  1
  Co  Co13  1  0.000000  0.832697  0.007633  1
  Co  Co14  1  0.500000  0.295821  0.430715  1
  Co  Co15  1  0.500000  0.704179  0.430715  1
  Co  Co16  1  0.000000  0.204179  0.569285  1
  Co  Co17  1  0.000000  0.795821  0.569285  1
  Co  Co18  1  0.500000  0.881242  0.709969  1
  Co  Co19  1  0.500000  0.118758  0.709969  1
  Co  Co20  1  0.000000  0.618758  0.290031  1
  Co  Co21  1  0.000000  0.381242  0.290031  1
  P  P22  1  0.500000  0.500000  0.885995  1
  P  P23  1  0.000000  0.000000  0.114005  1
  P  P24  1  0.500000  0.500000  0.344011  1
  P  P25  1  0.000000  0.000000  0.655989  1
  P  P26  1  0.500000  0.305675  0.613847  1
  P  P27  1  0.500000  0.694325  0.613847  1
  P  P28  1  0.000000  0.194325  0.386153  1
  P  P29  1  0.000000  0.805675  0.386153  1
  P  P30  1  0.500000  0.846643  0.895644  1
  P  P31  1  0.500000  0.153357  0.895644  1
  P  P32  1  0.000000  0.653357  0.104356  1
  P  P33  1  0.000000  0.346643  0.104356  1
  W  W34  1  0.500000  0.500000  0.153599  1
  W  W35  1  0.000000  0.000000  0.846401  1
