# generated using pymatgen
data_Yb4ErSn3H
_symmetry_space_group_name_H-M   'P 1'
_cell_length_a   9.34471101
_cell_length_b   9.33254602
_cell_length_c   9.34909406
_cell_angle_alpha   128.95438437
_cell_angle_beta   128.90755589
_cell_angle_gamma   75.05999277
_symmetry_Int_Tables_number   1
_chemical_formula_structural   Yb4ErSn3H
_chemical_formula_sum   'Yb8 Er2 Sn6 H2'
_cell_volume   480.56451218
_cell_formula_units_Z   2
loop_
 _symmetry_equiv_pos_site_id
 _symmetry_equiv_pos_as_xyz
  1  'x, y, z'
loop_
 _atom_site_type_symbol
 _atom_site_label
 _atom_site_symmetry_multiplicity
 _atom_site_fract_x
 _atom_site_fract_y
 _atom_site_fract_z
 _atom_site_occupancy
  Yb  Yb0  1  0.001445  0.998180  0.000735  1
  Yb  Yb1  1  0.184237  0.684873  0.172922  1
  Yb  Yb2  1  0.007585  0.184391  0.497537  1
  Yb  Yb3  1  0.686261  0.509051  0.500204  1
  Yb  Yb4  1  0.489468  0.989745  0.177088  1
  Yb  Yb5  1  0.813293  0.312980  0.822867  1
  Yb  Yb6  1  0.988751  0.813203  0.499535  1
  Yb  Yb7  1  0.313498  0.488644  0.499225  1
  Er  Er8  1  0.497599  0.501705  0.000368  1
  Er  Er9  1  0.512507  0.014272  0.824666  1
  Sn  Sn10  1  0.258854  0.248059  0.995746  1
  Sn  Sn11  1  0.741993  0.751176  0.996173  1
  Sn  Sn12  1  0.863995  0.371050  0.234838  1
  Sn  Sn13  1  0.130153  0.622396  0.754834  1
  Sn  Sn14  1  0.372624  0.132451  0.510098  1
  Sn  Sn15  1  0.625203  0.865617  0.496756  1
  H  H16  1  0.262499  0.762408  0.514431  1
  H  H17  1  0.750033  0.249801  0.501975  1
