# generated using pymatgen
data_SmHo3Ni2(Sn5Rh2)2
_symmetry_space_group_name_H-M   'P 1'
_cell_length_a   13.36639801
_cell_length_b   13.36760084
_cell_length_c   7.21474003
_cell_angle_alpha   89.99618597
_cell_angle_beta   90.00014144
_cell_angle_gamma   160.98264619
_symmetry_Int_Tables_number   1
_chemical_formula_structural   SmHo3Ni2(Sn5Rh2)2
_chemical_formula_sum   'Sm1 Ho3 Ni2 Sn10 Rh4'
_cell_volume   420.06092547
_cell_formula_units_Z   1
loop_
 _symmetry_equiv_pos_site_id
 _symmetry_equiv_pos_as_xyz
  1  'x, y, z'
loop_
 _atom_site_type_symbol
 _atom_site_label
 _atom_site_symmetry_multiplicity
 _atom_site_fract_x
 _atom_site_fract_y
 _atom_site_fract_z
 _atom_site_occupancy
  Sm  Sm0  1  0.171944  0.828261  0.747772  1
  Ho  Ho1  1  0.829182  0.170665  0.246275  1
  Ho  Ho2  1  0.475741  0.524359  0.757709  1
  Ho  Ho3  1  0.523713  0.476221  0.258414  1
  Ni  Ni4  1  0.048875  0.949735  0.983882  1
  Ni  Ni5  1  0.950305  0.051066  0.482294  1
  Sn  Sn6  1  0.881715  0.118243  0.766807  1
  Sn  Sn7  1  0.118432  0.881578  0.265209  1
  Sn  Sn8  1  0.703697  0.296318  0.451958  1
  Sn  Sn9  1  0.296623  0.703469  0.953476  1
  Sn  Sn10  1  0.592292  0.406511  0.890414  1
  Sn  Sn11  1  0.406589  0.594427  0.390430  1
  Sn  Sn12  1  0.954511  0.045381  0.102239  1
  Sn  Sn13  1  0.044914  0.955027  0.602167  1
  Sn  Sn14  1  0.291569  0.708594  0.520207  1
  Sn  Sn15  1  0.709689  0.290341  0.023184  1
  Rh  Rh16  1  0.778499  0.221687  0.733560  1
  Rh  Rh17  1  0.222549  0.777481  0.234613  1
  Rh  Rh18  1  0.396291  0.603585  0.018083  1
  Rh  Rh19  1  0.602869  0.397050  0.515312  1
