# generated using pymatgen
data_Sc7Pa(MnB6)4
_symmetry_space_group_name_H-M   'P 1'
_cell_length_a   3.41025700
_cell_length_b   8.85226287
_cell_length_c   11.18399404
_cell_angle_alpha   90.11353147
_cell_angle_beta   90.00000000
_cell_angle_gamma   90.00000000
_symmetry_Int_Tables_number   1
_chemical_formula_structural   Sc7Pa(MnB6)4
_chemical_formula_sum   'Sc7 Pa1 Mn4 B24'
_cell_volume   337.62724541
_cell_formula_units_Z   1
loop_
 _symmetry_equiv_pos_site_id
 _symmetry_equiv_pos_as_xyz
  1  'x, y, z'
loop_
 _atom_site_type_symbol
 _atom_site_label
 _atom_site_symmetry_multiplicity
 _atom_site_fract_x
 _atom_site_fract_y
 _atom_site_fract_z
 _atom_site_occupancy
  Sc  Sc0  1  0.000000  0.680483  0.588135  1
  Sc  Sc1  1  0.000000  0.822424  0.083611  1
  Sc  Sc2  1  0.000000  0.176175  0.914534  1
  Sc  Sc3  1  0.000000  0.940954  0.369324  1
  Sc  Sc4  1  0.000000  0.054642  0.632664  1
  Sc  Sc5  1  0.000000  0.443829  0.127730  1
  Sc  Sc6  1  0.000000  0.558038  0.869971  1
  Pa  Pa7  1  0.000000  0.322831  0.414557  1
  Mn  Mn8  1  0.000000  0.639046  0.319327  1
  Mn  Mn9  1  0.000000  0.360941  0.680041  1
  Mn  Mn10  1  0.000000  0.140799  0.180646  1
  Mn  Mn11  1  0.000000  0.860543  0.819507  1
  B  B12  1  0.500000  0.556869  0.432614  1
  B  B13  1  0.500000  0.447330  0.570171  1
  B  B14  1  0.500000  0.053640  0.065703  1
  B  B15  1  0.500000  0.945966  0.933851  1
  B  B16  1  0.500000  0.751009  0.418629  1
  B  B17  1  0.500000  0.248876  0.585464  1
  B  B18  1  0.500000  0.249819  0.078380  1
  B  B19  1  0.500000  0.750047  0.919408  1
  B  B20  1  0.500000  0.792963  0.263654  1
  B  B21  1  0.500000  0.206590  0.738268  1
  B  B22  1  0.500000  0.291536  0.231912  1
  B  B23  1  0.500000  0.707250  0.765035  1
  B  B24  1  0.500000  0.631849  0.182146  1
  B  B25  1  0.500000  0.370318  0.816712  1
  B  B26  1  0.500000  0.128139  0.313833  1
  B  B27  1  0.500000  0.869062  0.684845  1
  B  B28  1  0.500000  0.980792  0.210213  1
  B  B29  1  0.500000  0.017745  0.789352  1
  B  B30  1  0.500000  0.485601  0.285454  1
  B  B31  1  0.500000  0.519058  0.713855  1
  B  B32  1  0.500000  0.601060  0.026506  1
  B  B33  1  0.500000  0.399902  0.971788  1
  B  B34  1  0.500000  0.095908  0.473984  1
  B  B35  1  0.500000  0.897965  0.528176  1
