# generated using pymatgen
data_Pr4Nd12MgHg3Ru4
_symmetry_space_group_name_H-M   'P 1'
_cell_length_a   9.96387908
_cell_length_b   9.96806954
_cell_length_c   9.97197340
_cell_angle_alpha   59.63737696
_cell_angle_beta   59.61850512
_cell_angle_gamma   59.58135515
_symmetry_Int_Tables_number   1
_chemical_formula_structural   Pr4Nd12MgHg3Ru4
_chemical_formula_sum   'Pr4 Nd12 Mg1 Hg3 Ru4'
_cell_volume   694.16524315
_cell_formula_units_Z   1
loop_
 _symmetry_equiv_pos_site_id
 _symmetry_equiv_pos_as_xyz
  1  'x, y, z'
loop_
 _atom_site_type_symbol
 _atom_site_label
 _atom_site_symmetry_multiplicity
 _atom_site_fract_x
 _atom_site_fract_y
 _atom_site_fract_z
 _atom_site_occupancy
  Pr  Pr0  1  0.558004  0.557415  0.941742  1
  Pr  Pr1  1  0.187385  0.813433  0.187862  1
  Pr  Pr2  1  0.809846  0.810103  0.188080  1
  Pr  Pr3  1  0.187078  0.187417  0.813539  1
  Nd  Nd4  1  0.405184  0.785914  0.405353  1
  Nd  Nd5  1  0.810044  0.188467  0.809373  1
  Nd  Nd6  1  0.937974  0.938159  0.559953  1
  Nd  Nd7  1  0.811956  0.188069  0.188254  1
  Nd  Nd8  1  0.938311  0.559848  0.938088  1
  Nd  Nd9  1  0.786174  0.404959  0.405193  1
  Nd  Nd10  1  0.560350  0.938184  0.937847  1
  Nd  Nd11  1  0.188552  0.809933  0.809010  1
  Nd  Nd12  1  0.558071  0.941741  0.557492  1
  Nd  Nd13  1  0.401889  0.402009  0.402572  1
  Nd  Nd14  1  0.941657  0.557870  0.557885  1
  Nd  Nd15  1  0.405304  0.405194  0.785734  1
  Mg  Mg16  1  0.180606  0.180847  0.180804  1
  Hg  Hg17  1  0.164961  0.500349  0.164581  1
  Hg  Hg18  1  0.164469  0.164457  0.501150  1
  Hg  Hg19  1  0.500878  0.164999  0.164639  1
  Ru  Ru20  1  0.163916  0.612750  0.612676  1
  Ru  Ru21  1  0.612825  0.612065  0.164415  1
  Ru  Ru22  1  0.611662  0.611819  0.611626  1
  Ru  Ru23  1  0.612902  0.163996  0.612131  1
