# generated using pymatgen
data_Yb4CdO5
_symmetry_space_group_name_H-M   'P 1'
_cell_length_a   5.81303103
_cell_length_b   5.81303124
_cell_length_c   7.50330526
_cell_angle_alpha   130.18294693
_cell_angle_beta   130.18294929
_cell_angle_gamma   48.25179692
_symmetry_Int_Tables_number   1
_chemical_formula_structural   Yb4CdO5
_chemical_formula_sum   'Yb4 Cd1 O5'
_cell_volume   133.78318155
_cell_formula_units_Z   1
loop_
 _symmetry_equiv_pos_site_id
 _symmetry_equiv_pos_as_xyz
  1  'x, y, z'
loop_
 _atom_site_type_symbol
 _atom_site_label
 _atom_site_symmetry_multiplicity
 _atom_site_fract_x
 _atom_site_fract_y
 _atom_site_fract_z
 _atom_site_occupancy
  Yb  Yb0  1  0.998453  0.998453  0.997023  1
  Yb  Yb1  1  0.398660  0.398660  0.200157  1
  Yb  Yb2  1  0.801335  0.801335  0.399821  1
  Yb  Yb3  1  0.201565  0.201565  0.603021  1
  Cd  Cd4  1  0.599962  0.599962  0.799982  1
  O  O5  1  0.497632  0.497632  0.004232  1
  O  O6  1  0.906935  0.906935  0.209543  1
  O  O7  1  0.293097  0.293097  0.390437  1
  O  O8  1  0.702398  0.702398  0.595840  1
  O  O9  1  0.099961  0.099961  0.799944  1
