# generated using pymatgen
data_Ce4Er12MgCo4Ag3
_symmetry_space_group_name_H-M   'P 1'
_cell_length_a   9.37282154
_cell_length_b   9.39261548
_cell_length_c   9.39261600
_cell_angle_alpha   59.99999815
_cell_angle_beta   59.93011430
_cell_angle_gamma   59.93010888
_symmetry_Int_Tables_number   1
_chemical_formula_structural   Ce4Er12MgCo4Ag3
_chemical_formula_sum   'Ce4 Er12 Mg1 Co4 Ag3'
_cell_volume   584.07534420
_cell_formula_units_Z   1
loop_
 _symmetry_equiv_pos_site_id
 _symmetry_equiv_pos_as_xyz
  1  'x, y, z'
loop_
 _atom_site_type_symbol
 _atom_site_label
 _atom_site_symmetry_multiplicity
 _atom_site_fract_x
 _atom_site_fract_y
 _atom_site_fract_z
 _atom_site_occupancy
  Ce  Ce0  1  0.594090  0.594766  0.594766  1
  Ce  Ce1  1  0.594090  0.594766  0.216378  1
  Ce  Ce2  1  0.594090  0.216378  0.594766  1
  Ce  Ce3  1  0.207122  0.597626  0.597626  1
  Er  Er4  1  0.059883  0.439608  0.439608  1
  Er  Er5  1  0.435960  0.063325  0.063325  1
  Er  Er6  1  0.435960  0.063325  0.437389  1
  Er  Er7  1  0.059883  0.439608  0.060902  1
  Er  Er8  1  0.435960  0.437389  0.063325  1
  Er  Er9  1  0.059883  0.060902  0.439608  1
  Er  Er10  1  0.184494  0.813800  0.813800  1
  Er  Er11  1  0.812664  0.186613  0.186613  1
  Er  Er12  1  0.812664  0.186613  0.814110  1
  Er  Er13  1  0.184494  0.813800  0.187908  1
  Er  Er14  1  0.812664  0.814110  0.186613  1
  Er  Er15  1  0.184494  0.187908  0.813800  1
  Mg  Mg16  1  0.535962  0.821346  0.821346  1
  Co  Co17  1  0.394156  0.396741  0.396741  1
  Co  Co18  1  0.394156  0.396741  0.812365  1
  Co  Co19  1  0.394156  0.812365  0.396741  1
  Co  Co20  1  0.810111  0.396630  0.396630  1
  Ag  Ag21  1  0.834356  0.833612  0.833612  1
  Ag  Ag22  1  0.834356  0.833612  0.498420  1
  Ag  Ag23  1  0.834356  0.498420  0.833612  1
