# generated using pymatgen
data_Yb(EuPd)2
_symmetry_space_group_name_H-M   'P 1'
_cell_length_a   7.75491088
_cell_length_b   7.75491242
_cell_length_c   7.75491178
_cell_angle_alpha   71.27328920
_cell_angle_beta   71.27328483
_cell_angle_gamma   71.27328607
_symmetry_Int_Tables_number   1
_chemical_formula_structural   Yb(EuPd)2
_chemical_formula_sum   'Yb3 Eu6 Pd6'
_cell_volume   405.75739700
_cell_formula_units_Z   3
loop_
 _symmetry_equiv_pos_site_id
 _symmetry_equiv_pos_as_xyz
  1  'x, y, z'
loop_
 _atom_site_type_symbol
 _atom_site_label
 _atom_site_symmetry_multiplicity
 _atom_site_fract_x
 _atom_site_fract_y
 _atom_site_fract_z
 _atom_site_occupancy
  Yb  Yb0  1  0.500000  0.500000  0.500000  1
  Yb  Yb1  1  0.699287  0.699287  0.699287  1
  Yb  Yb2  1  0.300713  0.300713  0.300713  1
  Eu  Eu3  1  0.893802  0.166659  0.659009  1
  Eu  Eu4  1  0.659009  0.893802  0.166659  1
  Eu  Eu5  1  0.166659  0.659009  0.893802  1
  Eu  Eu6  1  0.106198  0.833341  0.340991  1
  Eu  Eu7  1  0.340991  0.106198  0.833341  1
  Eu  Eu8  1  0.833341  0.340991  0.106198  1
  Pd  Pd9  1  0.910496  0.538266  0.350248  1
  Pd  Pd10  1  0.350248  0.910496  0.538266  1
  Pd  Pd11  1  0.538266  0.350248  0.910496  1
  Pd  Pd12  1  0.089504  0.461734  0.649752  1
  Pd  Pd13  1  0.649752  0.089504  0.461734  1
  Pd  Pd14  1  0.461734  0.649752  0.089504  1
