# generated using pymatgen
data_Zr2Pa13S20
_symmetry_space_group_name_H-M   'P 1'
_cell_length_a   27.59913473
_cell_length_b   27.59913369
_cell_length_c   6.60294994
_cell_angle_alpha   98.31271290
_cell_angle_beta   98.31271209
_cell_angle_gamma   8.73092497
_symmetry_Int_Tables_number   1
_chemical_formula_structural   Zr2Pa13S20
_chemical_formula_sum   'Zr2 Pa13 S20'
_cell_volume   755.38873509
_cell_formula_units_Z   1
loop_
 _symmetry_equiv_pos_site_id
 _symmetry_equiv_pos_as_xyz
  1  'x, y, z'
loop_
 _atom_site_type_symbol
 _atom_site_label
 _atom_site_symmetry_multiplicity
 _atom_site_fract_x
 _atom_site_fract_y
 _atom_site_fract_z
 _atom_site_occupancy
  Zr  Zr0  1  0.599854  0.599854  0.700943  1
  Zr  Zr1  1  0.299736  0.299736  0.602223  1
  Pa  Pa2  1  0.348143  0.348143  0.954771  1
  Pa  Pa3  1  0.750460  0.750460  0.739883  1
  Pa  Pa4  1  0.149658  0.149658  0.549540  1
  Pa  Pa5  1  0.050715  0.050715  0.850413  1
  Pa  Pa6  1  0.552029  0.552029  0.348134  1
  Pa  Pa7  1  0.450128  0.450128  0.650005  1
  Pa  Pa8  1  0.949818  0.949818  0.149475  1
  Pa  Pa9  1  0.399427  0.399427  0.301070  1
  Pa  Pa10  1  0.849223  0.849223  0.450300  1
  Pa  Pa11  1  0.252472  0.252472  0.255947  1
  Pa  Pa12  1  0.698712  0.698712  0.396446  1
  Pa  Pa13  1  0.648098  0.648098  0.051901  1
  Pa  Pa14  1  0.501212  0.501212  0.999128  1
  S  S15  1  0.076260  0.076260  0.520304  1
  S  S16  1  0.474128  0.474128  0.315794  1
  S  S17  1  0.372822  0.372822  0.624250  1
  S  S18  1  0.875171  0.875171  0.112415  1
  S  S19  1  0.777688  0.777688  0.421516  1
  S  S20  1  0.273890  0.273890  0.905678  1
  S  S21  1  0.728263  0.728263  0.089843  1
  S  S22  1  0.174875  0.174875  0.209151  1
  S  S23  1  0.673047  0.673047  0.722045  1
  S  S24  1  0.123713  0.123713  0.878006  1
  S  S25  1  0.575601  0.575601  0.010876  1
  S  S26  1  0.025131  0.025131  0.188117  1
  S  S27  1  0.527385  0.527385  0.677998  1
  S  S28  1  0.976425  0.976425  0.815082  1
  S  S29  1  0.425874  0.425874  0.981650  1
  S  S30  1  0.923812  0.923812  0.486982  1
  S  S31  1  0.823831  0.823831  0.783332  1
  S  S32  1  0.324272  0.324272  0.290628  1
  S  S33  1  0.223544  0.223544  0.575057  1
  S  S34  1  0.624582  0.624582  0.391100  1
