# generated using pymatgen
data_Dy9HoPt18
_symmetry_space_group_name_H-M   'P 1'
_cell_length_a   9.77918214
_cell_length_b   9.77918214
_cell_length_c   5.77657600
_cell_angle_alpha   90.00000000
_cell_angle_beta   90.00000000
_cell_angle_gamma   89.98088809
_symmetry_Int_Tables_number   1
_chemical_formula_structural   Dy9HoPt18
_chemical_formula_sum   'Dy9 Ho1 Pt18'
_cell_volume   552.42781470
_cell_formula_units_Z   1
loop_
 _symmetry_equiv_pos_site_id
 _symmetry_equiv_pos_as_xyz
  1  'x, y, z'
loop_
 _atom_site_type_symbol
 _atom_site_label
 _atom_site_symmetry_multiplicity
 _atom_site_fract_x
 _atom_site_fract_y
 _atom_site_fract_z
 _atom_site_occupancy
  Dy  Dy0  1  0.452214  0.809395  0.000000  1
  Dy  Dy1  1  0.547786  0.190605  0.000000  1
  Dy  Dy2  1  0.190605  0.547786  0.000000  1
  Dy  Dy3  1  0.809395  0.452214  0.000000  1
  Dy  Dy4  1  0.500000  0.500000  0.500000  1
  Dy  Dy5  1  0.309355  0.047755  0.500000  1
  Dy  Dy6  1  0.690645  0.952245  0.500000  1
  Dy  Dy7  1  0.952245  0.690645  0.500000  1
  Dy  Dy8  1  0.047755  0.309355  0.500000  1
  Ho  Ho9  1  0.000000  0.000000  0.000000  1
  Pt  Pt10  1  0.191354  0.808646  0.250810  1
  Pt  Pt11  1  0.808646  0.191354  0.749190  1
  Pt  Pt12  1  0.808646  0.191354  0.250810  1
  Pt  Pt13  1  0.191354  0.808646  0.749190  1
  Pt  Pt14  1  0.440070  0.781540  0.500000  1
  Pt  Pt15  1  0.559930  0.218460  0.500000  1
  Pt  Pt16  1  0.218460  0.559930  0.500000  1
  Pt  Pt17  1  0.781540  0.440070  0.500000  1
  Pt  Pt18  1  0.308491  0.308491  0.249061  1
  Pt  Pt19  1  0.691509  0.691509  0.750939  1
  Pt  Pt20  1  0.691509  0.691509  0.249061  1
  Pt  Pt21  1  0.308491  0.308491  0.750939  1
  Pt  Pt22  1  0.281223  0.059830  0.000000  1
  Pt  Pt23  1  0.718777  0.940170  0.000000  1
  Pt  Pt24  1  0.940170  0.718777  0.000000  1
  Pt  Pt25  1  0.059830  0.281223  0.000000  1
  Pt  Pt26  1  0.000000  0.000000  0.500000  1
  Pt  Pt27  1  0.500000  0.500000  0.000000  1
