# generated using pymatgen
data_BaLaTbSe4
_symmetry_space_group_name_H-M   'P 1'
_cell_length_a   4.34866700
_cell_length_b   12.85135700
_cell_length_c   15.57764800
_cell_angle_alpha   90.00000000
_cell_angle_beta   90.00000000
_cell_angle_gamma   90.00000000
_symmetry_Int_Tables_number   1
_chemical_formula_structural   BaLaTbSe4
_chemical_formula_sum   'Ba4 La4 Tb4 Se16'
_cell_volume   870.57667467
_cell_formula_units_Z   4
loop_
 _symmetry_equiv_pos_site_id
 _symmetry_equiv_pos_as_xyz
  1  'x, y, z'
loop_
 _atom_site_type_symbol
 _atom_site_label
 _atom_site_symmetry_multiplicity
 _atom_site_fract_x
 _atom_site_fract_y
 _atom_site_fract_z
 _atom_site_occupancy
  Ba  Ba0  1  0.250000  0.752093  0.344166  1
  Ba  Ba1  1  0.250000  0.252093  0.155834  1
  Ba  Ba2  1  0.750000  0.247907  0.655834  1
  Ba  Ba3  1  0.750000  0.747907  0.844166  1
  La  La4  1  0.250000  0.415878  0.390889  1
  La  La5  1  0.250000  0.915878  0.109111  1
  La  La6  1  0.750000  0.584122  0.609111  1
  La  La7  1  0.750000  0.084122  0.890889  1
  Tb  Tb8  1  0.250000  0.430511  0.897434  1
  Tb  Tb9  1  0.250000  0.930511  0.602566  1
  Tb  Tb10  1  0.750000  0.569489  0.102566  1
  Tb  Tb11  1  0.750000  0.069489  0.397434  1
  Se  Se12  1  0.250000  0.224249  0.821146  1
  Se  Se13  1  0.250000  0.724249  0.678854  1
  Se  Se14  1  0.750000  0.775751  0.178854  1
  Se  Se15  1  0.750000  0.275751  0.321146  1
  Se  Se16  1  0.250000  0.131322  0.516178  1
  Se  Se17  1  0.250000  0.631322  0.983822  1
  Se  Se18  1  0.750000  0.868678  0.483822  1
  Se  Se19  1  0.750000  0.368678  0.016178  1
  Se  Se20  1  0.250000  0.509308  0.211742  1
  Se  Se21  1  0.250000  0.009308  0.288258  1
  Se  Se22  1  0.750000  0.490692  0.788258  1
  Se  Se23  1  0.750000  0.990692  0.711742  1
  Se  Se24  1  0.250000  0.423956  0.582919  1
  Se  Se25  1  0.250000  0.923956  0.917081  1
  Se  Se26  1  0.750000  0.576044  0.417081  1
  Se  Se27  1  0.750000  0.076044  0.082919  1
