# generated using pymatgen
data_Tb7LuTe4
_symmetry_space_group_name_H-M   'P 1'
_cell_length_a   4.09463100
_cell_length_b   11.58985834
_cell_length_c   22.18943343
_cell_angle_alpha   90.07537145
_cell_angle_beta   90.00000000
_cell_angle_gamma   90.00000000
_symmetry_Int_Tables_number   1
_chemical_formula_structural   Tb7LuTe4
_chemical_formula_sum   'Tb21 Lu3 Te12'
_cell_volume   1053.02512997
_cell_formula_units_Z   3
loop_
 _symmetry_equiv_pos_site_id
 _symmetry_equiv_pos_as_xyz
  1  'x, y, z'
loop_
 _atom_site_type_symbol
 _atom_site_label
 _atom_site_symmetry_multiplicity
 _atom_site_fract_x
 _atom_site_fract_y
 _atom_site_fract_z
 _atom_site_occupancy
  Tb  Tb0  1  0.250000  0.151121  0.392532  1
  Tb  Tb1  1  0.750000  0.848956  0.607365  1
  Tb  Tb2  1  0.750000  0.651626  0.108006  1
  Tb  Tb3  1  0.250000  0.348867  0.892277  1
  Tb  Tb4  1  0.250000  0.455546  0.340387  1
  Tb  Tb5  1  0.750000  0.544320  0.659601  1
  Tb  Tb6  1  0.750000  0.956023  0.159791  1
  Tb  Tb7  1  0.250000  0.044513  0.840275  1
  Tb  Tb8  1  0.250000  0.734810  0.233746  1
  Tb  Tb9  1  0.750000  0.265419  0.766306  1
  Tb  Tb10  1  0.750000  0.234651  0.266393  1
  Tb  Tb11  1  0.250000  0.765351  0.733410  1
  Tb  Tb12  1  0.250000  0.115730  0.034544  1
  Tb  Tb13  1  0.750000  0.885068  0.965477  1
  Tb  Tb14  1  0.750000  0.615571  0.465441  1
  Tb  Tb15  1  0.250000  0.384390  0.534564  1
  Tb  Tb16  1  0.250000  0.413986  0.146353  1
  Tb  Tb17  1  0.750000  0.586276  0.852754  1
  Tb  Tb18  1  0.750000  0.914114  0.353684  1
  Tb  Tb19  1  0.250000  0.085924  0.646322  1
  Tb  Tb20  1  0.250000  0.610074  0.983363  1
  Lu  Lu21  1  0.750000  0.386905  0.017814  1
  Lu  Lu22  1  0.750000  0.110796  0.517464  1
  Lu  Lu23  1  0.250000  0.889137  0.482533  1
  Te  Te24  1  0.250000  0.849822  0.068745  1
  Te  Te25  1  0.750000  0.150401  0.931539  1
  Te  Te26  1  0.750000  0.349287  0.431421  1
  Te  Te27  1  0.250000  0.650729  0.568568  1
  Te  Te28  1  0.250000  0.712494  0.373300  1
  Te  Te29  1  0.750000  0.287435  0.626686  1
  Te  Te30  1  0.750000  0.212499  0.126701  1
  Te  Te31  1  0.250000  0.788051  0.872836  1
  Te  Te32  1  0.250000  0.020568  0.261310  1
  Te  Te33  1  0.750000  0.979459  0.738622  1
  Te  Te34  1  0.750000  0.520717  0.238793  1
  Te  Te35  1  0.250000  0.479362  0.761076  1
