# generated using pymatgen
data_TbNd7(LuPb3)2
_symmetry_space_group_name_H-M   'P 1'
_cell_length_a   9.28802200
_cell_length_b   9.28802286
_cell_length_c   6.79066900
_cell_angle_alpha   90.00000000
_cell_angle_beta   90.00000000
_cell_angle_gamma   119.99999692
_symmetry_Int_Tables_number   1
_chemical_formula_structural   TbNd7(LuPb3)2
_chemical_formula_sum   'Tb1 Nd7 Lu2 Pb6'
_cell_volume   507.32903524
_cell_formula_units_Z   1
loop_
 _symmetry_equiv_pos_site_id
 _symmetry_equiv_pos_as_xyz
  1  'x, y, z'
loop_
 _atom_site_type_symbol
 _atom_site_label
 _atom_site_symmetry_multiplicity
 _atom_site_fract_x
 _atom_site_fract_y
 _atom_site_fract_z
 _atom_site_occupancy
  Tb  Tb0  1  0.333333  0.666667  0.500000  1
  Nd  Nd1  1  0.666667  0.333333  0.500000  1
  Nd  Nd2  1  0.759381  0.759619  0.751562  1
  Nd  Nd3  1  0.240381  0.999762  0.751562  1
  Nd  Nd4  1  0.000238  0.240619  0.751562  1
  Nd  Nd5  1  0.240381  0.240619  0.248438  1
  Nd  Nd6  1  0.759381  0.999762  0.248438  1
  Nd  Nd7  1  0.000238  0.759619  0.248438  1
  Lu  Lu8  1  0.666667  0.333333  0.000000  1
  Lu  Lu9  1  0.333333  0.666667  0.000000  1
  Pb  Pb10  1  0.396142  0.397918  0.756380  1
  Pb  Pb11  1  0.602082  0.998224  0.756380  1
  Pb  Pb12  1  0.001776  0.603858  0.756380  1
  Pb  Pb13  1  0.602082  0.603858  0.243620  1
  Pb  Pb14  1  0.396142  0.998224  0.243620  1
  Pb  Pb15  1  0.001776  0.397918  0.243620  1
