# generated using pymatgen
data_TbLu3(Sc4Pb5)2
_symmetry_space_group_name_H-M   'P 1'
_cell_length_a   6.32770935
_cell_length_b   9.14104028
_cell_length_c   11.26929842
_cell_angle_alpha   113.99052739
_cell_angle_beta   106.30496444
_cell_angle_gamma   90.00000715
_symmetry_Int_Tables_number   1
_chemical_formula_structural   TbLu3(Sc4Pb5)2
_chemical_formula_sum   'Tb1 Lu3 Sc8 Pb10'
_cell_volume   566.71133377
_cell_formula_units_Z   1
loop_
 _symmetry_equiv_pos_site_id
 _symmetry_equiv_pos_as_xyz
  1  'x, y, z'
loop_
 _atom_site_type_symbol
 _atom_site_label
 _atom_site_symmetry_multiplicity
 _atom_site_fract_x
 _atom_site_fract_y
 _atom_site_fract_z
 _atom_site_occupancy
  Tb  Tb0  1  0.141795  0.255870  0.283590  1
  Lu  Lu1  1  0.858146  0.743949  0.716293  1
  Lu  Lu2  1  0.641874  0.027584  0.283748  1
  Lu  Lu3  1  0.358157  0.971989  0.716315  1
  Sc  Sc4  1  0.559459  0.309063  0.618411  1
  Sc  Sc5  1  0.440897  0.691089  0.381944  1
  Sc  Sc6  1  0.941047  0.691089  0.381944  1
  Sc  Sc7  1  0.058953  0.309063  0.618411  1
  Sc  Sc8  1  0.436466  0.677564  0.872932  1
  Sc  Sc9  1  0.563341  0.322549  0.126681  1
  Sc  Sc10  1  0.936479  0.195475  0.872959  1
  Sc  Sc11  1  0.063470  0.804255  0.126940  1
  Pb  Pb12  1  0.290165  0.593071  0.580332  1
  Pb  Pb13  1  0.710120  0.407663  0.420240  1
  Pb  Pb14  1  0.789867  0.987689  0.579735  1
  Pb  Pb15  1  0.210387  0.011455  0.420773  1
  Pb  Pb16  1  0.249973  0.999627  0.999619  1
  Pb  Pb17  1  0.749646  0.999627  0.999619  1
  Pb  Pb18  1  0.069645  0.475058  0.139290  1
  Pb  Pb19  1  0.930106  0.526336  0.860212  1
  Pb  Pb20  1  0.569957  0.666126  0.139915  1
  Pb  Pb21  1  0.430048  0.333807  0.860095  1
