# generated using pymatgen
data_Mg4Si4NiRh3
_symmetry_space_group_name_H-M   'P 1'
_cell_length_a   6.56534425
_cell_length_b   4.03493200
_cell_length_c   6.94561907
_cell_angle_alpha   90.00000000
_cell_angle_beta   89.55620905
_cell_angle_gamma   90.00000000
_symmetry_Int_Tables_number   1
_chemical_formula_structural   Mg4Si4NiRh3
_chemical_formula_sum   'Mg4 Si4 Ni1 Rh3'
_cell_volume   183.98891413
_cell_formula_units_Z   1
loop_
 _symmetry_equiv_pos_site_id
 _symmetry_equiv_pos_as_xyz
  1  'x, y, z'
loop_
 _atom_site_type_symbol
 _atom_site_label
 _atom_site_symmetry_multiplicity
 _atom_site_fract_x
 _atom_site_fract_y
 _atom_site_fract_z
 _atom_site_occupancy
  Mg  Mg0  1  0.000530  0.750000  0.175183  1
  Mg  Mg1  1  0.507828  0.750000  0.321202  1
  Mg  Mg2  1  0.495589  0.250001  0.677718  1
  Mg  Mg3  1  0.999190  0.250001  0.822021  1
  Si  Si4  1  0.707789  0.250001  0.118580  1
  Si  Si5  1  0.206261  0.250001  0.376490  1
  Si  Si6  1  0.788195  0.750000  0.629778  1
  Si  Si7  1  0.299164  0.750000  0.875785  1
  Ni  Ni8  1  0.650845  0.750000  0.945314  1
  Rh  Rh9  1  0.349105  0.250001  0.053604  1
  Rh  Rh10  1  0.842665  0.250001  0.447403  1
  Rh  Rh11  1  0.152837  0.750000  0.556918  1
