# generated using pymatgen
data_Dy2(LuTl)3
_symmetry_space_group_name_H-M   'P 1'
_cell_length_a   9.02012046
_cell_length_b   8.96758434
_cell_length_c   6.48944200
_cell_angle_alpha   90.00000000
_cell_angle_beta   90.00000000
_cell_angle_gamma   120.55622714
_symmetry_Int_Tables_number   1
_chemical_formula_structural   Dy2(LuTl)3
_chemical_formula_sum   'Dy4 Lu6 Tl6'
_cell_volume   452.02683919
_cell_formula_units_Z   2
loop_
 _symmetry_equiv_pos_site_id
 _symmetry_equiv_pos_as_xyz
  1  'x, y, z'
loop_
 _atom_site_type_symbol
 _atom_site_label
 _atom_site_symmetry_multiplicity
 _atom_site_fract_x
 _atom_site_fract_y
 _atom_site_fract_z
 _atom_site_occupancy
  Dy  Dy0  1  0.000055  0.235638  0.250000  1
  Dy  Dy1  1  0.765339  0.765155  0.250000  1
  Dy  Dy2  1  0.234664  0.234847  0.750001  1
  Dy  Dy3  1  0.999943  0.764370  0.750001  1
  Lu  Lu4  1  0.334264  0.666093  0.999955  1
  Lu  Lu5  1  0.665732  0.333891  0.499960  1
  Lu  Lu6  1  0.665732  0.333891  0.000039  1
  Lu  Lu7  1  0.334264  0.666093  0.500044  1
  Lu  Lu8  1  0.236850  0.999827  0.250000  1
  Lu  Lu9  1  0.763161  0.000195  0.750001  1
  Tl  Tl10  1  0.597195  0.998840  0.250000  1
  Tl  Tl11  1  0.402805  0.001147  0.750001  1
  Tl  Tl12  1  0.000237  0.597998  0.250000  1
  Tl  Tl13  1  0.403083  0.401767  0.250000  1
  Tl  Tl14  1  0.596908  0.598223  0.750001  1
  Tl  Tl15  1  0.999768  0.402023  0.750001  1
