# generated using pymatgen
data_Rb2PrSm3(CuSe4)2
_symmetry_space_group_name_H-M   'P 1'
_cell_length_a   4.24454100
_cell_length_b   7.59608760
_cell_length_c   14.64336585
_cell_angle_alpha   90.15584184
_cell_angle_beta   90.00000000
_cell_angle_gamma   73.77620580
_symmetry_Int_Tables_number   1
_chemical_formula_structural   Rb2PrSm3(CuSe4)2
_chemical_formula_sum   'Rb2 Pr1 Sm3 Cu2 Se8'
_cell_volume   453.32691203
_cell_formula_units_Z   1
loop_
 _symmetry_equiv_pos_site_id
 _symmetry_equiv_pos_as_xyz
  1  'x, y, z'
loop_
 _atom_site_type_symbol
 _atom_site_label
 _atom_site_symmetry_multiplicity
 _atom_site_fract_x
 _atom_site_fract_y
 _atom_site_fract_z
 _atom_site_occupancy
  Rb  Rb0  1  0.891330  0.217341  0.251137  1
  Rb  Rb1  1  0.108734  0.782534  0.749366  1
  Pr  Pr2  1  0.633453  0.733095  0.063279  1
  Sm  Sm3  1  0.634768  0.730465  0.438171  1
  Sm  Sm4  1  0.365784  0.268431  0.563274  1
  Sm  Sm5  1  0.364444  0.271110  0.935221  1
  Cu  Cu6  1  0.162404  0.675193  0.249933  1
  Cu  Cu7  1  0.838507  0.322987  0.749127  1
  Se  Se8  1  0.996941  0.006117  0.998135  1
  Se  Se9  1  0.264382  0.471237  0.112839  1
  Se  Se10  1  0.570570  0.858862  0.253065  1
  Se  Se11  1  0.261118  0.477764  0.388903  1
  Se  Se12  1  0.000050  0.999901  0.500457  1
  Se  Se13  1  0.739066  0.521870  0.611714  1
  Se  Se14  1  0.429757  0.140487  0.749152  1
  Se  Se15  1  0.738698  0.522605  0.886226  1
