# generated using pymatgen
data_Th2ReC2
_symmetry_space_group_name_H-M   'P 1'
_cell_length_a   5.35627700
_cell_length_b   6.69705200
_cell_length_c   10.14187600
_cell_angle_alpha   90.00000000
_cell_angle_beta   90.00000000
_cell_angle_gamma   90.00000000
_symmetry_Int_Tables_number   1
_chemical_formula_structural   Th2ReC2
_chemical_formula_sum   'Th8 Re4 C8'
_cell_volume   363.80192763
_cell_formula_units_Z   4
loop_
 _symmetry_equiv_pos_site_id
 _symmetry_equiv_pos_as_xyz
  1  'x, y, z'
loop_
 _atom_site_type_symbol
 _atom_site_label
 _atom_site_symmetry_multiplicity
 _atom_site_fract_x
 _atom_site_fract_y
 _atom_site_fract_z
 _atom_site_occupancy
  Th  Th0  1  0.250000  0.474560  0.777261  1
  Th  Th1  1  0.750000  0.025440  0.277261  1
  Th  Th2  1  0.250000  0.974560  0.722739  1
  Th  Th3  1  0.750000  0.525440  0.222739  1
  Th  Th4  1  0.250000  0.810134  0.048660  1
  Th  Th5  1  0.750000  0.689866  0.548660  1
  Th  Th6  1  0.250000  0.310134  0.451340  1
  Th  Th7  1  0.750000  0.189866  0.951340  1
  Re  Re8  1  0.250000  0.274422  0.137435  1
  Re  Re9  1  0.750000  0.225578  0.637435  1
  Re  Re10  1  0.250000  0.774422  0.362565  1
  Re  Re11  1  0.750000  0.725578  0.862565  1
  C  C12  1  0.250000  0.169689  0.948432  1
  C  C13  1  0.750000  0.830311  0.051568  1
  C  C14  1  0.250000  0.669689  0.551568  1
  C  C15  1  0.750000  0.330311  0.448432  1
  C  C16  1  0.250000  0.034620  0.256756  1
  C  C17  1  0.750000  0.465380  0.756756  1
  C  C18  1  0.250000  0.534620  0.243244  1
  C  C19  1  0.750000  0.965380  0.743244  1
