# generated using pymatgen
data_Pr5NdCo16(P6W)2
_symmetry_space_group_name_H-M   'P 1'
_cell_length_a   3.79338000
_cell_length_b   10.72577624
_cell_length_c   12.46758227
_cell_angle_alpha   89.97598706
_cell_angle_beta   90.00000000
_cell_angle_gamma   90.00000000
_symmetry_Int_Tables_number   1
_chemical_formula_structural   Pr5NdCo16(P6W)2
_chemical_formula_sum   'Pr5 Nd1 Co16 P12 W2'
_cell_volume   507.26779040
_cell_formula_units_Z   1
loop_
 _symmetry_equiv_pos_site_id
 _symmetry_equiv_pos_as_xyz
  1  'x, y, z'
loop_
 _atom_site_type_symbol
 _atom_site_label
 _atom_site_symmetry_multiplicity
 _atom_site_fract_x
 _atom_site_fract_y
 _atom_site_fract_z
 _atom_site_occupancy
  Pr  Pr0  1  0.000000  0.500165  0.523305  1
  Pr  Pr1  1  0.500000  0.999793  0.476627  1
  Pr  Pr2  1  0.500000  0.180806  0.205228  1
  Pr  Pr3  1  0.000000  0.680922  0.794738  1
  Pr  Pr4  1  0.000000  0.319059  0.794841  1
  Nd  Nd5  1  0.500000  0.818851  0.205088  1
  Co  Co6  1  0.500000  0.500033  0.702839  1
  Co  Co7  1  0.000000  0.999313  0.296915  1
  Co  Co8  1  0.000000  0.500312  0.988619  1
  Co  Co9  1  0.500000  0.999709  0.011851  1
  Co  Co10  1  0.500000  0.332775  0.992237  1
  Co  Co11  1  0.500000  0.667530  0.992379  1
  Co  Co12  1  0.000000  0.166951  0.008031  1
  Co  Co13  1  0.000000  0.832691  0.008274  1
  Co  Co14  1  0.500000  0.295630  0.430758  1
  Co  Co15  1  0.500000  0.704513  0.430349  1
  Co  Co16  1  0.000000  0.204243  0.569178  1
  Co  Co17  1  0.000000  0.795773  0.568926  1
  Co  Co18  1  0.500000  0.881297  0.709722  1
  Co  Co19  1  0.500000  0.118710  0.709797  1
  Co  Co20  1  0.000000  0.619212  0.289883  1
  Co  Co21  1  0.000000  0.381417  0.290202  1
  P  P22  1  0.500000  0.500158  0.886046  1
  P  P23  1  0.000000  0.999377  0.114477  1
  P  P24  1  0.500000  0.499998  0.343892  1
  P  P25  1  0.000000  0.000018  0.656089  1
  P  P26  1  0.500000  0.305741  0.613850  1
  P  P27  1  0.500000  0.694393  0.613606  1
  P  P28  1  0.000000  0.194114  0.386122  1
  P  P29  1  0.000000  0.805940  0.385381  1
  P  P30  1  0.500000  0.846823  0.895678  1
  P  P31  1  0.500000  0.153044  0.895828  1
  P  P32  1  0.000000  0.653721  0.104719  1
  P  P33  1  0.000000  0.346816  0.104369  1
  W  W34  1  0.500000  0.500255  0.153569  1
  W  W35  1  0.000000  0.999896  0.846588  1
