# generated using pymatgen
data_Yb2Dy(MnC3)2
_symmetry_space_group_name_H-M   'P 1'
_cell_length_a   8.05362473
_cell_length_b   8.05302129
_cell_length_c   4.97623400
_cell_angle_alpha   90.00000000
_cell_angle_beta   90.00000000
_cell_angle_gamma   119.95381255
_symmetry_Int_Tables_number   1
_chemical_formula_structural   Yb2Dy(MnC3)2
_chemical_formula_sum   'Yb4 Dy2 Mn4 C12'
_cell_volume   279.62989621
_cell_formula_units_Z   2
loop_
 _symmetry_equiv_pos_site_id
 _symmetry_equiv_pos_as_xyz
  1  'x, y, z'
loop_
 _atom_site_type_symbol
 _atom_site_label
 _atom_site_symmetry_multiplicity
 _atom_site_fract_x
 _atom_site_fract_y
 _atom_site_fract_z
 _atom_site_occupancy
  Yb  Yb0  1  0.685688  0.073110  0.250000  1
  Yb  Yb1  1  0.319078  0.927701  0.750000  1
  Yb  Yb2  1  0.074024  0.385863  0.750000  1
  Yb  Yb3  1  0.387499  0.313598  0.250000  1
  Dy  Dy4  1  0.619745  0.688759  0.750000  1
  Dy  Dy5  1  0.931666  0.616841  0.250000  1
  Mn  Mn6  1  0.001878  0.002072  0.501185  1
  Mn  Mn7  1  0.001878  0.002072  0.998815  1
  Mn  Mn8  1  0.667182  0.336804  0.750000  1
  Mn  Mn9  1  0.329870  0.666047  0.250000  1
  C  C10  1  0.959399  0.776723  0.750000  1
  C  C11  1  0.178674  0.955159  0.250000  1
  C  C12  1  0.769643  0.806250  0.250000  1
  C  C13  1  0.224764  0.178290  0.750000  1
  C  C14  1  0.811506  0.041486  0.750000  1
  C  C15  1  0.045292  0.224554  0.250000  1
  C  C16  1  0.862590  0.581725  0.750000  1
  C  C17  1  0.277430  0.859516  0.250000  1
  C  C18  1  0.574858  0.721175  0.250000  1
  C  C19  1  0.418051  0.278792  0.750000  1
  C  C20  1  0.137252  0.417465  0.250000  1
  C  C21  1  0.722033  0.145998  0.750000  1
