# generated using pymatgen
data_Ho5HgIr2
_symmetry_space_group_name_H-M   'P 1'
_cell_length_a   7.71563003
_cell_length_b   7.71562956
_cell_length_c   8.54014400
_cell_angle_alpha   116.85455560
_cell_angle_beta   116.85456214
_cell_angle_gamma   89.99999999
_symmetry_Int_Tables_number   1
_chemical_formula_structural   Ho5HgIr2
_chemical_formula_sum   'Ho10 Hg2 Ir4'
_cell_volume   391.13492343
_cell_formula_units_Z   2
loop_
 _symmetry_equiv_pos_site_id
 _symmetry_equiv_pos_as_xyz
  1  'x, y, z'
loop_
 _atom_site_type_symbol
 _atom_site_label
 _atom_site_symmetry_multiplicity
 _atom_site_fract_x
 _atom_site_fract_y
 _atom_site_fract_z
 _atom_site_occupancy
  Ho  Ho0  1  0.500000  0.500000  0.000000  1
  Ho  Ho1  1  0.000000  0.000000  0.000000  1
  Ho  Ho2  1  0.977746  0.794541  0.272287  1
  Ho  Ho3  1  0.294541  0.477746  0.272287  1
  Ho  Ho4  1  0.794541  0.294541  0.272287  1
  Ho  Ho5  1  0.477746  0.977746  0.272287  1
  Ho  Ho6  1  0.022254  0.205459  0.727713  1
  Ho  Ho7  1  0.705459  0.522254  0.727713  1
  Ho  Ho8  1  0.205459  0.705459  0.727713  1
  Ho  Ho9  1  0.522254  0.022254  0.727713  1
  Hg  Hg10  1  0.750000  0.750000  0.500000  1
  Hg  Hg11  1  0.250000  0.250000  0.500000  1
  Ir  Ir12  1  0.640882  0.859118  0.000000  1
  Ir  Ir13  1  0.359118  0.140882  0.000000  1
  Ir  Ir14  1  0.859118  0.359118  0.000000  1
  Ir  Ir15  1  0.140882  0.640882  0.000000  1
