# generated using pymatgen
data_Y9Tm(AlSb)3
_symmetry_space_group_name_H-M   'P 1'
_cell_length_a   8.83356790
_cell_length_b   8.85551709
_cell_length_c   6.49522400
_cell_angle_alpha   90.00786113
_cell_angle_beta   89.97415272
_cell_angle_gamma   120.10042770
_symmetry_Int_Tables_number   1
_chemical_formula_structural   Y9Tm(AlSb)3
_chemical_formula_sum   'Y9 Tm1 Al3 Sb3'
_cell_volume   439.57644238
_cell_formula_units_Z   1
loop_
 _symmetry_equiv_pos_site_id
 _symmetry_equiv_pos_as_xyz
  1  'x, y, z'
loop_
 _atom_site_type_symbol
 _atom_site_label
 _atom_site_symmetry_multiplicity
 _atom_site_fract_x
 _atom_site_fract_y
 _atom_site_fract_z
 _atom_site_occupancy
  Y  Y0  1  0.333150  0.678079  0.002493  1
  Y  Y1  1  0.666707  0.327228  0.497877  1
  Y  Y2  1  0.666556  0.326053  0.002245  1
  Y  Y3  1  0.234709  0.990366  0.250796  1
  Y  Y4  1  0.759218  0.001051  0.749401  1
  Y  Y5  1  0.989301  0.235123  0.250181  1
  Y  Y6  1  0.761750  0.763013  0.250300  1
  Y  Y7  1  0.244878  0.234600  0.749860  1
  Y  Y8  1  0.011161  0.768042  0.749320  1
  Tm  Tm9  1  0.332939  0.679247  0.497155  1
  Al  Al10  1  0.598342  0.998006  0.252055  1
  Al  Al11  1  0.404194  0.002242  0.748112  1
  Al  Al12  1  0.995785  0.599634  0.251411  1
  Sb  Sb13  1  0.387601  0.392275  0.251249  1
  Sb  Sb14  1  0.608702  0.607934  0.749112  1
  Sb  Sb15  1  0.005006  0.397104  0.748434  1
