# generated using pymatgen
data_Dy2Er3(TcB3)2
_symmetry_space_group_name_H-M   'P 1'
_cell_length_a   5.50982187
_cell_length_b   5.50982396
_cell_length_c   8.48986910
_cell_angle_alpha   71.06508393
_cell_angle_beta   71.06507636
_cell_angle_gamma   59.99999371
_symmetry_Int_Tables_number   1
_chemical_formula_structural   Dy2Er3(TcB3)2
_chemical_formula_sum   'Dy2 Er3 Tc2 B6'
_cell_volume   206.94565892
_cell_formula_units_Z   1
loop_
 _symmetry_equiv_pos_site_id
 _symmetry_equiv_pos_as_xyz
  1  'x, y, z'
loop_
 _atom_site_type_symbol
 _atom_site_label
 _atom_site_symmetry_multiplicity
 _atom_site_fract_x
 _atom_site_fract_y
 _atom_site_fract_z
 _atom_site_occupancy
  Dy  Dy0  1  0.000125  0.000125  0.999625  1
  Dy  Dy1  1  0.581737  0.581737  0.254788  1
  Er  Er2  1  0.246681  0.246681  0.259958  1
  Er  Er3  1  0.753241  0.753241  0.740276  1
  Er  Er4  1  0.419301  0.419301  0.742097  1
  Tc  Tc5  1  0.110491  0.110491  0.668527  1
  Tc  Tc6  1  0.889221  0.889221  0.332338  1
  B  B7  1  0.171100  0.828489  0.500398  1
  B  B8  1  0.828489  0.500013  0.500398  1
  B  B9  1  0.500013  0.171100  0.500398  1
  B  B10  1  0.171100  0.500013  0.500398  1
  B  B11  1  0.500013  0.828489  0.500398  1
  B  B12  1  0.828489  0.171100  0.500398  1
