# generated using pymatgen
data_La2Y18Si15Au
_symmetry_space_group_name_H-M   'P 1'
_cell_length_a   7.47253902
_cell_length_b   7.77795041
_cell_length_c   14.77240116
_cell_angle_alpha   89.62381840
_cell_angle_beta   89.99484727
_cell_angle_gamma   89.84105880
_symmetry_Int_Tables_number   1
_chemical_formula_structural   La2Y18Si15Au
_chemical_formula_sum   'La2 Y18 Si15 Au1'
_cell_volume   858.56547612
_cell_formula_units_Z   1
loop_
 _symmetry_equiv_pos_site_id
 _symmetry_equiv_pos_as_xyz
  1  'x, y, z'
loop_
 _atom_site_type_symbol
 _atom_site_label
 _atom_site_symmetry_multiplicity
 _atom_site_fract_x
 _atom_site_fract_y
 _atom_site_fract_z
 _atom_site_occupancy
  La  La0  1  0.523823  0.571158  0.342346  1
  La  La1  1  0.024002  0.428983  0.656183  1
  Y  Y2  1  0.815809  0.573698  0.872062  1
  Y  Y3  1  0.311511  0.421407  0.128037  1
  Y  Y4  1  0.182763  0.928277  0.373321  1
  Y  Y5  1  0.682746  0.070124  0.627055  1
  Y  Y6  1  0.183126  0.928051  0.628316  1
  Y  Y7  1  0.683332  0.071341  0.371295  1
  Y  Y8  1  0.820105  0.569133  0.129003  1
  Y  Y9  1  0.315549  0.425884  0.870953  1
  Y  Y10  1  0.644303  0.233653  0.999539  1
  Y  Y11  1  0.149956  0.758446  0.000761  1
  Y  Y12  1  0.351442  0.262964  0.500045  1
  Y  Y13  1  0.851153  0.736815  0.499896  1
  Y  Y14  1  0.472001  0.937598  0.845084  1
  Y  Y15  1  0.971830  0.066796  0.152509  1
  Y  Y16  1  0.469925  0.937968  0.153740  1
  Y  Y17  1  0.970393  0.067464  0.848763  1
  Y  Y18  1  0.528885  0.566229  0.651687  1
  Y  Y19  1  0.028683  0.433934  0.348855  1
  Si  Si20  1  0.020399  0.351333  0.999855  1
  Si  Si21  1  0.477653  0.859015  0.501128  1
  Si  Si22  1  0.976974  0.140596  0.499073  1
  Si  Si23  1  0.649226  0.277420  0.790892  1
  Si  Si24  1  0.151042  0.723383  0.208966  1
  Si  Si25  1  0.352381  0.216323  0.289054  1
  Si  Si26  1  0.853478  0.784070  0.712278  1
  Si  Si27  1  0.361941  0.220332  0.709497  1
  Si  Si28  1  0.862142  0.780301  0.289155  1
  Si  Si29  1  0.644644  0.270091  0.205829  1
  Si  Si30  1  0.146757  0.729850  0.793929  1
  Si  Si31  1  0.773419  0.881133  0.000704  1
  Si  Si32  1  0.259560  0.124886  0.999410  1
  Si  Si33  1  0.235035  0.627351  0.501744  1
  Si  Si34  1  0.733996  0.373609  0.498394  1
  Au  Au35  1  0.520014  0.650386  0.000639  1
