# generated using pymatgen
data_LaPr(BIr)8
_symmetry_space_group_name_H-M   'P 1'
_cell_length_a   3.98692500
_cell_length_b   7.73268800
_cell_length_c   7.73268800
_cell_angle_alpha   90.00000000
_cell_angle_beta   90.00000000
_cell_angle_gamma   90.00000000
_symmetry_Int_Tables_number   1
_chemical_formula_structural   LaPr(BIr)8
_chemical_formula_sum   'La1 Pr1 B8 Ir8'
_cell_volume   238.39604221
_cell_formula_units_Z   1
loop_
 _symmetry_equiv_pos_site_id
 _symmetry_equiv_pos_as_xyz
  1  'x, y, z'
loop_
 _atom_site_type_symbol
 _atom_site_label
 _atom_site_symmetry_multiplicity
 _atom_site_fract_x
 _atom_site_fract_y
 _atom_site_fract_z
 _atom_site_occupancy
  La  La0  1  0.250000  0.250000  0.250000  1
  Pr  Pr1  1  0.750000  0.750000  0.750000  1
  B  B2  1  0.357860  0.908397  0.029273  1
  B  B3  1  0.357860  0.591603  0.470727  1
  B  B4  1  0.857011  0.529932  0.091424  1
  B  B5  1  0.857011  0.970068  0.408576  1
  B  B6  1  0.642989  0.091424  0.970068  1
  B  B7  1  0.642989  0.408576  0.529932  1
  B  B8  1  0.142140  0.470727  0.908397  1
  B  B9  1  0.142140  0.029273  0.591603  1
  Ir  Ir10  1  0.142163  0.409667  0.640655  1
  Ir  Ir11  1  0.142163  0.090333  0.859345  1
  Ir  Ir12  1  0.641828  0.140557  0.591496  1
  Ir  Ir13  1  0.641828  0.359443  0.908504  1
  Ir  Ir14  1  0.858172  0.591496  0.359443  1
  Ir  Ir15  1  0.858172  0.908504  0.140557  1
  Ir  Ir16  1  0.357837  0.859345  0.409667  1
  Ir  Ir17  1  0.357837  0.640655  0.090333  1
