# generated using pymatgen
data_Sc11IrOs2Rh
_symmetry_space_group_name_H-M   'P 1'
_cell_length_a   9.48063008
_cell_length_b   9.47478728
_cell_length_c   9.48735467
_cell_angle_alpha   59.99689015
_cell_angle_beta   59.93578260
_cell_angle_gamma   60.06733952
_symmetry_Int_Tables_number   1
_chemical_formula_structural   Sc11IrOs2Rh
_chemical_formula_sum   'Sc22 Ir2 Os4 Rh2'
_cell_volume   602.60912239
_cell_formula_units_Z   2
loop_
 _symmetry_equiv_pos_site_id
 _symmetry_equiv_pos_as_xyz
  1  'x, y, z'
loop_
 _atom_site_type_symbol
 _atom_site_label
 _atom_site_symmetry_multiplicity
 _atom_site_fract_x
 _atom_site_fract_y
 _atom_site_fract_z
 _atom_site_occupancy
  Sc  Sc0  1  0.801991  0.801991  0.198009  1
  Sc  Sc1  1  0.197366  0.802634  0.197366  1
  Sc  Sc2  1  0.802845  0.197155  0.197155  1
  Sc  Sc3  1  0.198009  0.198009  0.801991  1
  Sc  Sc4  1  0.802634  0.197366  0.802634  1
  Sc  Sc5  1  0.197155  0.802845  0.802845  1
  Sc  Sc6  1  0.616495  0.619246  0.149922  1
  Sc  Sc7  1  0.614337  0.149922  0.619246  1
  Sc  Sc8  1  0.149922  0.614337  0.616495  1
  Sc  Sc9  1  0.619246  0.616495  0.614337  1
  Sc  Sc10  1  0.383505  0.380754  0.850078  1
  Sc  Sc11  1  0.385663  0.850078  0.380754  1
  Sc  Sc12  1  0.850078  0.385663  0.383505  1
  Sc  Sc13  1  0.380754  0.383505  0.385663  1
  Sc  Sc14  1  0.843836  0.842518  0.468746  1
  Sc  Sc15  1  0.844899  0.468746  0.842518  1
  Sc  Sc16  1  0.468746  0.844899  0.843836  1
  Sc  Sc17  1  0.842518  0.843836  0.844899  1
  Sc  Sc18  1  0.156164  0.157482  0.531254  1
  Sc  Sc19  1  0.155101  0.531254  0.157482  1
  Sc  Sc20  1  0.531254  0.155101  0.156164  1
  Sc  Sc21  1  0.157482  0.156164  0.155101  1
  Ir  Ir22  1  0.500000  0.000000  0.500000  1
  Ir  Ir23  1  0.000000  0.500000  0.000000  1
  Os  Os24  1  0.000000  0.000000  0.000000  1
  Os  Os25  1  0.500000  0.500000  0.500000  1
  Os  Os26  1  0.000000  0.500000  0.500000  1
  Os  Os27  1  0.500000  0.000000  0.000000  1
  Rh  Rh28  1  0.000000  0.000000  0.500000  1
  Rh  Rh29  1  0.500000  0.500000  0.000000  1
