# generated using pymatgen
data_Hf9Re2SiMo2
_symmetry_space_group_name_H-M   'P 1'
_cell_length_a   8.62064100
_cell_length_b   8.63124274
_cell_length_c   8.67788900
_cell_angle_alpha   90.00000000
_cell_angle_beta   90.00000000
_cell_angle_gamma   119.95829883
_symmetry_Int_Tables_number   1
_chemical_formula_structural   Hf9Re2SiMo2
_chemical_formula_sum   'Hf18 Re4 Si2 Mo4'
_cell_volume   559.42253059
_cell_formula_units_Z   2
loop_
 _symmetry_equiv_pos_site_id
 _symmetry_equiv_pos_as_xyz
  1  'x, y, z'
loop_
 _atom_site_type_symbol
 _atom_site_label
 _atom_site_symmetry_multiplicity
 _atom_site_fract_x
 _atom_site_fract_y
 _atom_site_fract_z
 _atom_site_occupancy
  Hf  Hf0  1  0.803865  0.607720  0.545956  1
  Hf  Hf1  1  0.804003  0.195805  0.545281  1
  Hf  Hf2  1  0.391735  0.195762  0.545312  1
  Hf  Hf3  1  0.194537  0.389077  0.450081  1
  Hf  Hf4  1  0.195328  0.805476  0.450851  1
  Hf  Hf5  1  0.610204  0.805503  0.450832  1
  Hf  Hf6  1  0.194537  0.389077  0.049919  1
  Hf  Hf7  1  0.195328  0.805476  0.049149  1
  Hf  Hf8  1  0.610204  0.805503  0.049168  1
  Hf  Hf9  1  0.803865  0.607720  0.954044  1
  Hf  Hf10  1  0.804003  0.195805  0.954719  1
  Hf  Hf11  1  0.391735  0.195762  0.954688  1
  Hf  Hf12  1  0.462035  0.924069  0.750000  1
  Hf  Hf13  1  0.461646  0.538036  0.750000  1
  Hf  Hf14  1  0.076350  0.538010  0.750000  1
  Hf  Hf15  1  0.539642  0.079301  0.250000  1
  Hf  Hf16  1  0.538826  0.459860  0.250000  1
  Hf  Hf17  1  0.921079  0.459890  0.250000  1
  Re  Re18  1  0.890084  0.110423  0.250000  1
  Re  Re19  1  0.220354  0.110413  0.250000  1
  Re  Re20  1  0.000132  0.000262  0.500124  1
  Re  Re21  1  0.000132  0.000262  0.999876  1
  Si  Si22  1  0.666444  0.332944  0.750000  1
  Si  Si23  1  0.332991  0.665924  0.250000  1
  Mo  Mo24  1  0.109686  0.219418  0.750000  1
  Mo  Mo25  1  0.109985  0.890213  0.750000  1
  Mo  Mo26  1  0.780220  0.890232  0.750000  1
  Mo  Mo27  1  0.891050  0.782053  0.250000  1
