# generated using pymatgen
data_Dy2Tm3ReRuO12
_symmetry_space_group_name_H-M   'P 1'
_cell_length_a   6.78857925
_cell_length_b   6.78857996
_cell_length_c   7.44566337
_cell_angle_alpha   73.95921098
_cell_angle_beta   73.95920844
_cell_angle_gamma   49.15712458
_symmetry_Int_Tables_number   1
_chemical_formula_structural   Dy2Tm3ReRuO12
_chemical_formula_sum   'Dy2 Tm3 Re1 Ru1 O12'
_cell_volume   247.30807322
_cell_formula_units_Z   1
loop_
 _symmetry_equiv_pos_site_id
 _symmetry_equiv_pos_as_xyz
  1  'x, y, z'
loop_
 _atom_site_type_symbol
 _atom_site_label
 _atom_site_symmetry_multiplicity
 _atom_site_fract_x
 _atom_site_fract_y
 _atom_site_fract_z
 _atom_site_occupancy
  Dy  Dy0  1  0.818665  0.786761  0.356899  1
  Dy  Dy1  1  0.213239  0.181335  0.643101  1
  Tm  Tm2  1  0.191317  0.179746  0.174202  1
  Tm  Tm3  1  0.820254  0.808683  0.825798  1
  Tm  Tm4  1  0.511108  0.488892  0.500000  1
  Re  Re5  1  0.701039  0.298961  0.000000  1
  Ru  Ru6  1  0.267279  0.732721  0.000000  1
  O  O7  1  0.415320  0.935173  0.916579  1
  O  O8  1  0.064827  0.584680  0.083421  1
  O  O9  1  0.586748  0.094442  0.086077  1
  O  O10  1  0.905558  0.413252  0.913923  1
  O  O11  1  0.611174  0.090436  0.570114  1
  O  O12  1  0.909564  0.388826  0.429886  1
  O  O13  1  0.411089  0.897292  0.421335  1
  O  O14  1  0.983867  0.014436  0.823363  1
  O  O15  1  0.985564  0.016133  0.176637  1
  O  O16  1  0.497908  0.497227  0.795327  1
  O  O17  1  0.502773  0.502092  0.204673  1
  O  O18  1  0.102708  0.588911  0.578665  1
