# generated using pymatgen
data_Ce4Co2CuSn2Pd
_symmetry_space_group_name_H-M   'P 1'
_cell_length_a   7.59172758
_cell_length_b   7.59172855
_cell_length_c   3.69636200
_cell_angle_alpha   90.00000000
_cell_angle_beta   90.00000000
_cell_angle_gamma   91.33150806
_symmetry_Int_Tables_number   1
_chemical_formula_structural   Ce4Co2CuSn2Pd
_chemical_formula_sum   'Ce4 Co2 Cu1 Sn2 Pd1'
_cell_volume   212.97984184
_cell_formula_units_Z   1
loop_
 _symmetry_equiv_pos_site_id
 _symmetry_equiv_pos_as_xyz
  1  'x, y, z'
loop_
 _atom_site_type_symbol
 _atom_site_label
 _atom_site_symmetry_multiplicity
 _atom_site_fract_x
 _atom_site_fract_y
 _atom_site_fract_z
 _atom_site_occupancy
  Ce  Ce0  1  0.688394  0.190582  0.500000  1
  Ce  Ce1  1  0.309418  0.811606  0.500000  1
  Ce  Ce2  1  0.163342  0.336658  0.500000  1
  Ce  Ce3  1  0.838673  0.661327  0.500000  1
  Co  Co4  1  0.130821  0.632140  0.000000  1
  Co  Co5  1  0.867860  0.369179  0.000000  1
  Cu  Cu6  1  0.625155  0.874845  0.000000  1
  Sn  Sn7  1  0.997675  0.999422  0.000000  1
  Sn  Sn8  1  0.500578  0.502325  0.000000  1
  Pd  Pd9  1  0.378085  0.121915  0.000000  1
