# generated using pymatgen
data_Y4ZnGa(Co2B)6
_symmetry_space_group_name_H-M   'P 1'
_cell_length_a   5.11434572
_cell_length_b   5.11822648
_cell_length_c   12.54974643
_cell_angle_alpha   90.00567279
_cell_angle_beta   89.98572542
_cell_angle_gamma   119.99417538
_symmetry_Int_Tables_number   1
_chemical_formula_structural   Y4ZnGa(Co2B)6
_chemical_formula_sum   'Y4 Zn1 Ga1 Co12 B6'
_cell_volume   284.51203176
_cell_formula_units_Z   1
loop_
 _symmetry_equiv_pos_site_id
 _symmetry_equiv_pos_as_xyz
  1  'x, y, z'
loop_
 _atom_site_type_symbol
 _atom_site_label
 _atom_site_symmetry_multiplicity
 _atom_site_fract_x
 _atom_site_fract_y
 _atom_site_fract_z
 _atom_site_occupancy
  Y  Y0  1  0.000024  0.000047  0.999972  1
  Y  Y1  1  0.000000  0.000003  0.500023  1
  Y  Y2  1  0.999980  0.000008  0.259883  1
  Y  Y3  1  0.000012  0.999997  0.740251  1
  Zn  Zn4  1  0.666776  0.333488  0.999888  1
  Ga  Ga5  1  0.333199  0.666530  0.999895  1
  Co  Co6  1  0.499567  0.999103  0.160220  1
  Co  Co7  1  0.499573  0.500466  0.160251  1
  Co  Co8  1  0.000903  0.500454  0.160251  1
  Co  Co9  1  0.499493  0.999046  0.839676  1
  Co  Co10  1  0.499493  0.500462  0.839665  1
  Co  Co11  1  0.000889  0.500453  0.839689  1
  Co  Co12  1  0.500016  0.000035  0.385539  1
  Co  Co13  1  0.500014  0.499984  0.385544  1
  Co  Co14  1  0.999961  0.499981  0.385534  1
  Co  Co15  1  0.500011  0.000035  0.614526  1
  Co  Co16  1  0.500011  0.499975  0.614524  1
  Co  Co17  1  0.999954  0.499974  0.614517  1
  B  B18  1  0.333381  0.666718  0.500022  1
  B  B19  1  0.666597  0.333263  0.500023  1
  B  B20  1  0.333372  0.666719  0.268849  1
  B  B21  1  0.666582  0.333277  0.268514  1
  B  B22  1  0.666678  0.333300  0.731545  1
  B  B23  1  0.333312  0.666681  0.731202  1
