# generated using pymatgen
data_Dy4Al15Ga2GeIr6
_symmetry_space_group_name_H-M   'P 1'
_cell_length_a   7.55145909
_cell_length_b   7.54743761
_cell_length_c   9.49245000
_cell_angle_alpha   90.00000000
_cell_angle_beta   90.00000000
_cell_angle_gamma   119.60899535
_symmetry_Int_Tables_number   1
_chemical_formula_structural   Dy4Al15Ga2GeIr6
_chemical_formula_sum   'Dy4 Al15 Ga2 Ge1 Ir6'
_cell_volume   470.36720824
_cell_formula_units_Z   1
loop_
 _symmetry_equiv_pos_site_id
 _symmetry_equiv_pos_as_xyz
  1  'x, y, z'
loop_
 _atom_site_type_symbol
 _atom_site_label
 _atom_site_symmetry_multiplicity
 _atom_site_fract_x
 _atom_site_fract_y
 _atom_site_fract_z
 _atom_site_occupancy
  Dy  Dy0  1  0.994973  0.675938  0.750000  1
  Dy  Dy1  1  0.001204  0.326606  0.250000  1
  Dy  Dy2  1  0.676097  0.996286  0.750000  1
  Dy  Dy3  1  0.330251  0.006569  0.250000  1
  Al  Al4  1  0.000510  0.337815  0.573694  1
  Al  Al5  1  0.998393  0.665034  0.426081  1
  Al  Al6  1  0.998393  0.665034  0.073919  1
  Al  Al7  1  0.337442  0.999658  0.926465  1
  Al  Al8  1  0.000510  0.337815  0.926306  1
  Al  Al9  1  0.664429  0.996912  0.074024  1
  Al  Al10  1  0.664429  0.996912  0.425976  1
  Al  Al11  1  0.337442  0.999658  0.573535  1
  Al  Al12  1  0.333058  0.333401  0.057020  1
  Al  Al13  1  0.663789  0.663780  0.944382  1
  Al  Al14  1  0.663789  0.663780  0.555618  1
  Al  Al15  1  0.333058  0.333401  0.442980  1
  Al  Al16  1  0.336940  0.553543  0.750000  1
  Al  Al17  1  0.553208  0.337054  0.750000  1
  Al  Al18  1  0.449966  0.660961  0.250000  1
  Ga  Ga19  1  0.870991  0.870663  0.250000  1
  Ga  Ga20  1  0.661077  0.453064  0.250000  1
  Ge  Ge21  1  0.136087  0.136335  0.750000  1
  Ir  Ir22  1  0.669982  0.326479  0.501848  1
  Ir  Ir23  1  0.327479  0.669252  0.499728  1
  Ir  Ir24  1  0.327479  0.669252  0.000272  1
  Ir  Ir25  1  0.669982  0.326479  0.998152  1
  Ir  Ir26  1  0.999521  0.999160  0.503361  1
  Ir  Ir27  1  0.999521  0.999160  0.996639  1
