# generated using pymatgen
data_Gd6Dy4Si6F
_symmetry_space_group_name_H-M   'P 1'
_cell_length_a   8.41932800
_cell_length_b   8.41932806
_cell_length_c   6.31455100
_cell_angle_alpha   90.00000000
_cell_angle_beta   90.00000000
_cell_angle_gamma   119.99999976
_symmetry_Int_Tables_number   1
_chemical_formula_structural   Gd6Dy4Si6F
_chemical_formula_sum   'Gd6 Dy4 Si6 F1'
_cell_volume   387.63945045
_cell_formula_units_Z   1
loop_
 _symmetry_equiv_pos_site_id
 _symmetry_equiv_pos_as_xyz
  1  'x, y, z'
loop_
 _atom_site_type_symbol
 _atom_site_label
 _atom_site_symmetry_multiplicity
 _atom_site_fract_x
 _atom_site_fract_y
 _atom_site_fract_z
 _atom_site_occupancy
  Gd  Gd0  1  0.000000  0.751288  0.247632  1
  Gd  Gd1  1  0.248712  0.248712  0.247632  1
  Gd  Gd2  1  0.751288  0.000000  0.247632  1
  Gd  Gd3  1  0.000000  0.248712  0.752368  1
  Gd  Gd4  1  0.751288  0.751288  0.752368  1
  Gd  Gd5  1  0.248712  0.000000  0.752368  1
  Dy  Dy6  1  0.333333  0.666667  0.500000  1
  Dy  Dy7  1  0.666667  0.333333  0.500000  1
  Dy  Dy8  1  0.666667  0.333333  0.000000  1
  Dy  Dy9  1  0.333333  0.666667  0.000000  1
  Si  Si10  1  0.000000  0.394372  0.248716  1
  Si  Si11  1  0.605628  0.605628  0.248716  1
  Si  Si12  1  0.394372  0.000000  0.248716  1
  Si  Si13  1  0.000000  0.605628  0.751284  1
  Si  Si14  1  0.394372  0.394372  0.751284  1
  Si  Si15  1  0.605628  0.000000  0.751284  1
  F  F16  1  0.000000  0.000000  0.500000  1
