# generated using pymatgen
data_Eu4AlSnPd4
_symmetry_space_group_name_H-M   'P 1'
_cell_length_a   5.83111149
_cell_length_b   5.83111162
_cell_length_c   8.25424386
_cell_angle_alpha   78.50595210
_cell_angle_beta   78.50595383
_cell_angle_gamma   60.57560369
_symmetry_Int_Tables_number   1
_chemical_formula_structural   Eu4AlSnPd4
_chemical_formula_sum   'Eu4 Al1 Sn1 Pd4'
_cell_volume   237.85791149
_cell_formula_units_Z   1
loop_
 _symmetry_equiv_pos_site_id
 _symmetry_equiv_pos_as_xyz
  1  'x, y, z'
loop_
 _atom_site_type_symbol
 _atom_site_label
 _atom_site_symmetry_multiplicity
 _atom_site_fract_x
 _atom_site_fract_y
 _atom_site_fract_z
 _atom_site_occupancy
  Eu  Eu0  1  0.787456  0.509183  0.352811  1
  Eu  Eu1  1  0.490817  0.212544  0.147189  1
  Eu  Eu2  1  0.212606  0.488743  0.649833  1
  Eu  Eu3  1  0.511257  0.787394  0.850167  1
  Al  Al4  1  0.123338  0.876662  0.250000  1
  Sn  Sn5  1  0.853047  0.146953  0.750000  1
  Pd  Pd6  1  0.010191  0.736439  0.014663  1
  Pd  Pd7  1  0.263561  0.989809  0.485337  1
  Pd  Pd8  1  0.007045  0.259317  0.011169  1
  Pd  Pd9  1  0.740683  0.992955  0.488831  1
