# generated using pymatgen
data_Ca10Ag3Hg2Ir
_symmetry_space_group_name_H-M   'P 1'
_cell_length_a   9.25012454
_cell_length_b   9.25012473
_cell_length_c   9.26827178
_cell_angle_alpha   128.39923046
_cell_angle_beta   128.39923261
_cell_angle_gamma   75.83521438
_symmetry_Int_Tables_number   1
_chemical_formula_structural   Ca10Ag3Hg2Ir
_chemical_formula_sum   'Ca10 Ag3 Hg2 Ir1'
_cell_volume   474.04716788
_cell_formula_units_Z   1
loop_
 _symmetry_equiv_pos_site_id
 _symmetry_equiv_pos_as_xyz
  1  'x, y, z'
loop_
 _atom_site_type_symbol
 _atom_site_label
 _atom_site_symmetry_multiplicity
 _atom_site_fract_x
 _atom_site_fract_y
 _atom_site_fract_z
 _atom_site_occupancy
  Ca  Ca0  1  0.527970  0.014385  0.821782  1
  Ca  Ca1  1  0.206188  0.692603  0.178218  1
  Ca  Ca2  1  0.025301  0.188827  0.500000  1
  Ca  Ca3  1  0.682165  0.544140  0.500000  1
  Ca  Ca4  1  0.485615  0.972030  0.178218  1
  Ca  Ca5  1  0.807397  0.293812  0.821782  1
  Ca  Ca6  1  0.955860  0.817835  0.500000  1
  Ca  Ca7  1  0.311173  0.474699  0.500000  1
  Ca  Ca8  1  0.504856  0.512296  0.017153  1
  Ca  Ca9  1  0.987704  0.995144  0.982847  1
  Ag  Ag10  1  0.374116  0.125884  0.500000  1
  Ag  Ag11  1  0.125856  0.624921  0.750777  1
  Ag  Ag12  1  0.875079  0.374144  0.249223  1
  Hg  Hg13  1  0.252324  0.247676  0.000000  1
  Hg  Hg14  1  0.752324  0.747676  0.000000  1
  Ir  Ir15  1  0.626069  0.873931  0.500000  1
