# generated using pymatgen
data_Er(TmSe2)3
_symmetry_space_group_name_H-M   'P 1'
_cell_length_a   7.00501848
_cell_length_b   7.00174753
_cell_length_c   12.77550306
_cell_angle_alpha   100.67745041
_cell_angle_beta   100.68733893
_cell_angle_gamma   108.88800158
_symmetry_Int_Tables_number   1
_chemical_formula_structural   Er(TmSe2)3
_chemical_formula_sum   'Er2 Tm6 Se12'
_cell_volume   561.93551844
_cell_formula_units_Z   2
loop_
 _symmetry_equiv_pos_site_id
 _symmetry_equiv_pos_as_xyz
  1  'x, y, z'
loop_
 _atom_site_type_symbol
 _atom_site_label
 _atom_site_symmetry_multiplicity
 _atom_site_fract_x
 _atom_site_fract_y
 _atom_site_fract_z
 _atom_site_occupancy
  Er  Er0  1  0.377462  0.127462  0.754924  1
  Er  Er1  1  0.958721  0.208722  0.917443  1
  Tm  Tm2  1  0.041492  0.791492  0.082986  1
  Tm  Tm3  1  0.622604  0.872604  0.245206  1
  Tm  Tm4  1  0.127504  0.377504  0.255007  1
  Tm  Tm5  1  0.208565  0.958565  0.417130  1
  Tm  Tm6  1  0.791370  0.041371  0.582742  1
  Tm  Tm7  1  0.872512  0.622512  0.745025  1
  Se  Se8  1  0.803095  0.048112  0.088043  1
  Se  Se9  1  0.284949  0.539932  0.088043  1
  Se  Se10  1  0.368369  0.118412  0.249998  1
  Se  Se11  1  0.881628  0.631586  0.249998  1
  Se  Se12  1  0.951494  0.196517  0.412466  1
  Se  Se13  1  0.460973  0.715948  0.412466  1
  Se  Se14  1  0.539537  0.284465  0.586991  1
  Se  Se15  1  0.047455  0.802525  0.586991  1
  Se  Se16  1  0.117997  0.369360  0.749420  1
  Se  Se17  1  0.631423  0.880060  0.749420  1
  Se  Se18  1  0.716220  0.462881  0.912851  1
  Se  Se19  1  0.196630  0.949969  0.912851  1
