# generated using pymatgen
data_Ce2TcB8Ru
_symmetry_space_group_name_H-M   'P 1'
_cell_length_a   3.65486200
_cell_length_b   6.00556246
_cell_length_c   11.62727479
_cell_angle_alpha   89.94912540
_cell_angle_beta   90.00000000
_cell_angle_gamma   90.00000000
_symmetry_Int_Tables_number   1
_chemical_formula_structural   Ce2TcB8Ru
_chemical_formula_sum   'Ce4 Tc2 B16 Ru2'
_cell_volume   255.21279111
_cell_formula_units_Z   2
loop_
 _symmetry_equiv_pos_site_id
 _symmetry_equiv_pos_as_xyz
  1  'x, y, z'
loop_
 _atom_site_type_symbol
 _atom_site_label
 _atom_site_symmetry_multiplicity
 _atom_site_fract_x
 _atom_site_fract_y
 _atom_site_fract_z
 _atom_site_occupancy
  Ce  Ce0  1  0.500000  0.127694  0.150173  1
  Ce  Ce1  1  0.500000  0.872306  0.849827  1
  Ce  Ce2  1  0.500000  0.627898  0.350332  1
  Ce  Ce3  1  0.500000  0.372102  0.649668  1
  Tc  Tc4  1  0.500000  0.137009  0.408594  1
  Tc  Tc5  1  0.500000  0.862991  0.591406  1
  B  B6  1  0.000000  0.475346  0.190476  1
  B  B7  1  0.000000  0.524654  0.809524  1
  B  B8  1  0.000000  0.975185  0.309234  1
  B  B9  1  0.000000  0.024815  0.690766  1
  B  B10  1  0.000000  0.285943  0.314333  1
  B  B11  1  0.000000  0.714057  0.685667  1
  B  B12  1  0.000000  0.786257  0.184723  1
  B  B13  1  0.000000  0.213743  0.815277  1
  B  B14  1  0.000000  0.362339  0.468482  1
  B  B15  1  0.000000  0.637661  0.531518  1
  B  B16  1  0.000000  0.862606  0.031429  1
  B  B17  1  0.000000  0.137394  0.968571  1
  B  B18  1  0.000000  0.388962  0.046023  1
  B  B19  1  0.000000  0.611038  0.953977  1
  B  B20  1  0.000000  0.888335  0.454176  1
  B  B21  1  0.000000  0.111665  0.545824  1
  Ru  Ru22  1  0.500000  0.639721  0.092936  1
  Ru  Ru23  1  0.500000  0.360279  0.907064  1
