# generated using pymatgen
data_La2Mg3(ZnGe)3
_symmetry_space_group_name_H-M   'P 1'
_cell_length_a   7.99195000
_cell_length_b   7.99195110
_cell_length_c   4.18637600
_cell_angle_alpha   90.00000000
_cell_angle_beta   90.00000000
_cell_angle_gamma   119.99999543
_symmetry_Int_Tables_number   1
_chemical_formula_structural   La2Mg3(ZnGe)3
_chemical_formula_sum   'La2 Mg3 Zn3 Ge3'
_cell_volume   231.56582196
_cell_formula_units_Z   1
loop_
 _symmetry_equiv_pos_site_id
 _symmetry_equiv_pos_as_xyz
  1  'x, y, z'
loop_
 _atom_site_type_symbol
 _atom_site_label
 _atom_site_symmetry_multiplicity
 _atom_site_fract_x
 _atom_site_fract_y
 _atom_site_fract_z
 _atom_site_occupancy
  La  La0  1  0.666667  0.333333  0.000000  1
  La  La1  1  0.333333  0.666667  0.000000  1
  Mg  Mg2  1  0.717121  0.000000  0.500000  1
  Mg  Mg3  1  0.000000  0.717121  0.500000  1
  Mg  Mg4  1  0.282879  0.282879  0.500000  1
  Zn  Zn5  1  0.190044  0.000000  0.000000  1
  Zn  Zn6  1  0.809956  0.809956  0.000000  1
  Zn  Zn7  1  0.000000  0.190044  0.000000  1
  Ge  Ge8  1  0.381924  0.000000  0.500000  1
  Ge  Ge9  1  0.618076  0.618076  0.500000  1
  Ge  Ge10  1  0.000000  0.381924  0.500000  1
