# generated using pymatgen
data_ErSc(TiP)2
_symmetry_space_group_name_H-M   'P 1'
_cell_length_a   3.82328400
_cell_length_b   3.82328400
_cell_length_c   7.24647500
_cell_angle_alpha   90.00000000
_cell_angle_beta   90.00000000
_cell_angle_gamma   90.00000000
_symmetry_Int_Tables_number   1
_chemical_formula_structural   ErSc(TiP)2
_chemical_formula_sum   'Er1 Sc1 Ti2 P2'
_cell_volume   105.92535226
_cell_formula_units_Z   1
loop_
 _symmetry_equiv_pos_site_id
 _symmetry_equiv_pos_as_xyz
  1  'x, y, z'
loop_
 _atom_site_type_symbol
 _atom_site_label
 _atom_site_symmetry_multiplicity
 _atom_site_fract_x
 _atom_site_fract_y
 _atom_site_fract_z
 _atom_site_occupancy
  Er  Er0  1  0.500000  0.000000  0.641015  1
  Sc  Sc1  1  0.000000  0.500000  0.349822  1
  Ti  Ti2  1  0.500000  0.500000  0.003543  1
  Ti  Ti3  1  0.000000  0.000000  0.003543  1
  P  P4  1  0.500000  0.000000  0.248116  1
  P  P5  1  0.000000  0.500000  0.753961  1
