# generated using pymatgen
data_Dy8ZrSi16Mo11
_symmetry_space_group_name_H-M   'P 1'
_cell_length_a   6.78939604
_cell_length_b   6.98670370
_cell_length_c   13.00343500
_cell_angle_alpha   90.00000000
_cell_angle_beta   90.00000000
_cell_angle_gamma   90.13151868
_symmetry_Int_Tables_number   1
_chemical_formula_structural   Dy8ZrSi16Mo11
_chemical_formula_sum   'Dy8 Zr1 Si16 Mo11'
_cell_volume   616.82279558
_cell_formula_units_Z   1
loop_
 _symmetry_equiv_pos_site_id
 _symmetry_equiv_pos_as_xyz
  1  'x, y, z'
loop_
 _atom_site_type_symbol
 _atom_site_label
 _atom_site_symmetry_multiplicity
 _atom_site_fract_x
 _atom_site_fract_y
 _atom_site_fract_z
 _atom_site_occupancy
  Dy  Dy0  1  0.500357  0.330228  0.093057  1
  Dy  Dy1  1  0.998352  0.169766  0.406059  1
  Dy  Dy2  1  0.503326  0.667253  0.595132  1
  Dy  Dy3  1  0.003596  0.834532  0.905321  1
  Dy  Dy4  1  0.503326  0.667253  0.904868  1
  Dy  Dy5  1  0.003596  0.834532  0.594679  1
  Dy  Dy6  1  0.500357  0.330228  0.406943  1
  Dy  Dy7  1  0.998352  0.169766  0.093941  1
  Zr  Zr8  1  0.836217  0.505795  0.250000  1
  Si  Si9  1  0.806099  0.629084  0.750000  1
  Si  Si10  1  0.304348  0.872180  0.750000  1
  Si  Si11  1  0.208786  0.367591  0.250000  1
  Si  Si12  1  0.695934  0.117952  0.250000  1
  Si  Si13  1  0.534453  0.365154  0.750000  1
  Si  Si14  1  0.036717  0.135689  0.750000  1
  Si  Si15  1  0.453647  0.635072  0.250000  1
  Si  Si16  1  0.967198  0.875917  0.250000  1
  Si  Si17  1  0.658899  0.040900  0.548205  1
  Si  Si18  1  0.159512  0.458194  0.951697  1
  Si  Si19  1  0.338634  0.957341  0.045669  1
  Si  Si20  1  0.839581  0.542648  0.460447  1
  Si  Si21  1  0.338634  0.957341  0.454331  1
  Si  Si22  1  0.839581  0.542648  0.039553  1
  Si  Si23  1  0.658899  0.040900  0.951795  1
  Si  Si24  1  0.159512  0.458194  0.548303  1
  Mo  Mo25  1  0.666746  0.997985  0.750000  1
  Mo  Mo26  1  0.166321  0.501521  0.750000  1
  Mo  Mo27  1  0.333667  0.997136  0.250000  1
  Mo  Mo28  1  0.830022  0.334967  0.627426  1
  Mo  Mo29  1  0.331209  0.165694  0.874206  1
  Mo  Mo30  1  0.167464  0.667071  0.123394  1
  Mo  Mo31  1  0.663979  0.830867  0.376495  1
  Mo  Mo32  1  0.167464  0.667071  0.376606  1
  Mo  Mo33  1  0.663979  0.830867  0.123505  1
  Mo  Mo34  1  0.830022  0.334967  0.872574  1
  Mo  Mo35  1  0.331209  0.165694  0.625794  1
