# generated using pymatgen
data_LaPr15Mg4Ir3Pt
_symmetry_space_group_name_H-M   'P 1'
_cell_length_a   10.11682774
_cell_length_b   10.12145128
_cell_length_c   10.11855567
_cell_angle_alpha   60.11206076
_cell_angle_beta   60.02179701
_cell_angle_gamma   60.09365006
_symmetry_Int_Tables_number   1
_chemical_formula_structural   LaPr15Mg4Ir3Pt
_chemical_formula_sum   'La1 Pr15 Mg4 Ir3 Pt1'
_cell_volume   733.89815390
_cell_formula_units_Z   1
loop_
 _symmetry_equiv_pos_site_id
 _symmetry_equiv_pos_as_xyz
  1  'x, y, z'
loop_
 _atom_site_type_symbol
 _atom_site_label
 _atom_site_symmetry_multiplicity
 _atom_site_fract_x
 _atom_site_fract_y
 _atom_site_fract_z
 _atom_site_occupancy
  La  La0  1  0.344067  0.343949  0.344052  1
  Pr  Pr1  1  0.349660  0.349790  0.956901  1
  Pr  Pr2  1  0.349823  0.956753  0.349824  1
  Pr  Pr3  1  0.956936  0.349765  0.349650  1
  Pr  Pr4  1  0.807450  0.188858  0.188690  1
  Pr  Pr5  1  0.187077  0.810955  0.810952  1
  Pr  Pr6  1  0.188876  0.807408  0.188896  1
  Pr  Pr7  1  0.810783  0.187359  0.810797  1
  Pr  Pr8  1  0.188698  0.188861  0.807456  1
  Pr  Pr9  1  0.810931  0.810931  0.187135  1
  Pr  Pr10  1  0.938586  0.562959  0.562978  1
  Pr  Pr11  1  0.562720  0.937886  0.937862  1
  Pr  Pr12  1  0.562978  0.938763  0.562958  1
  Pr  Pr13  1  0.938045  0.562380  0.938044  1
  Pr  Pr14  1  0.563019  0.562964  0.938593  1
  Pr  Pr15  1  0.937858  0.937910  0.562673  1
  Mg  Mg16  1  0.579495  0.579343  0.579469  1
  Mg  Mg17  1  0.578905  0.578876  0.262956  1
  Mg  Mg18  1  0.578948  0.262849  0.578927  1
  Mg  Mg19  1  0.262935  0.578852  0.578876  1
  Ir  Ir20  1  0.142979  0.142832  0.574041  1
  Ir  Ir21  1  0.142857  0.573971  0.142872  1
  Ir  Ir22  1  0.574079  0.142822  0.142982  1
  Pt  Pt23  1  0.142293  0.142966  0.142417  1
