# generated using pymatgen
data_HfScAgS4
_symmetry_space_group_name_H-M   'P 1'
_cell_length_a   7.60651339
_cell_length_b   7.60651350
_cell_length_c   7.60651443
_cell_angle_alpha   119.69394433
_cell_angle_beta   120.19991730
_cell_angle_gamma   90.09250818
_symmetry_Int_Tables_number   1
_chemical_formula_structural   HfScAgS4
_chemical_formula_sum   'Hf2 Sc2 Ag2 S8'
_cell_volume   311.44329918
_cell_formula_units_Z   2
loop_
 _symmetry_equiv_pos_site_id
 _symmetry_equiv_pos_as_xyz
  1  'x, y, z'
loop_
 _atom_site_type_symbol
 _atom_site_label
 _atom_site_symmetry_multiplicity
 _atom_site_fract_x
 _atom_site_fract_y
 _atom_site_fract_z
 _atom_site_occupancy
  Hf  Hf0  1  0.000000  0.000000  0.000000  1
  Hf  Hf1  1  0.500000  0.000000  0.500000  1
  Sc  Sc2  1  0.000000  0.000000  0.500000  1
  Sc  Sc3  1  0.000000  0.500000  0.000000  1
  Ag  Ag4  1  0.379161  0.629161  0.750000  1
  Ag  Ag5  1  0.620839  0.370839  0.250000  1
  S  S6  1  0.244228  0.766795  0.022567  1
  S  S7  1  0.755772  0.778340  0.522567  1
  S  S8  1  0.216082  0.236169  0.979913  1
  S  S9  1  0.756256  0.236169  0.520087  1
  S  S10  1  0.783918  0.763831  0.020087  1
  S  S11  1  0.243744  0.763831  0.479913  1
  S  S12  1  0.755772  0.233205  0.977433  1
  S  S13  1  0.244228  0.221660  0.477433  1
