# generated using pymatgen
data_LaSmTmTaO7
_symmetry_space_group_name_H-M   'P 1'
_cell_length_a   6.55178323
_cell_length_b   6.55178292
_cell_length_c   7.64733500
_cell_angle_alpha   90.00000000
_cell_angle_beta   90.00000000
_cell_angle_gamma   108.87456752
_symmetry_Int_Tables_number   1
_chemical_formula_structural   LaSmTmTaO7
_chemical_formula_sum   'La2 Sm2 Tm2 Ta2 O14'
_cell_volume   310.61713541
_cell_formula_units_Z   2
loop_
 _symmetry_equiv_pos_site_id
 _symmetry_equiv_pos_as_xyz
  1  'x, y, z'
loop_
 _atom_site_type_symbol
 _atom_site_label
 _atom_site_symmetry_multiplicity
 _atom_site_fract_x
 _atom_site_fract_y
 _atom_site_fract_z
 _atom_site_occupancy
  La  La0  1  0.508538  0.508538  0.500000  1
  La  La1  1  0.508538  0.508538  0.000000  1
  Sm  Sm2  1  0.464993  0.001193  0.250000  1
  Sm  Sm3  1  0.001193  0.464993  0.750000  1
  Tm  Tm4  1  0.530908  0.002174  0.750000  1
  Tm  Tm5  1  0.002174  0.530908  0.250000  1
  Ta  Ta6  1  0.000405  0.000405  0.500000  1
  Ta  Ta7  1  0.000405  0.000405  0.000000  1
  O  O8  1  0.678785  0.931150  0.476245  1
  O  O9  1  0.931150  0.678785  0.523755  1
  O  O10  1  0.678785  0.931150  0.023755  1
  O  O11  1  0.931150  0.678785  0.976245  1
  O  O12  1  0.313518  0.061805  0.540470  1
  O  O13  1  0.061805  0.313518  0.459530  1
  O  O14  1  0.313518  0.061805  0.959530  1
  O  O15  1  0.061805  0.313518  0.040470  1
  O  O16  1  0.939467  0.063589  0.750000  1
  O  O17  1  0.063589  0.939467  0.250000  1
  O  O18  1  0.371876  0.644986  0.750000  1
  O  O19  1  0.644986  0.371876  0.250000  1
  O  O20  1  0.639208  0.353204  0.750000  1
  O  O21  1  0.353204  0.639208  0.250000  1
