# generated using pymatgen
data_DyTm(Be12Ni)2
_symmetry_space_group_name_H-M   'P 1'
_cell_length_a   7.24332448
_cell_length_b   7.30581467
_cell_length_c   7.21733306
_cell_angle_alpha   59.83011509
_cell_angle_beta   59.57070462
_cell_angle_gamma   59.47827539
_symmetry_Int_Tables_number   1
_chemical_formula_structural   DyTm(Be12Ni)2
_chemical_formula_sum   'Dy1 Tm1 Be24 Ni2'
_cell_volume   267.76642472
_cell_formula_units_Z   1
loop_
 _symmetry_equiv_pos_site_id
 _symmetry_equiv_pos_as_xyz
  1  'x, y, z'
loop_
 _atom_site_type_symbol
 _atom_site_label
 _atom_site_symmetry_multiplicity
 _atom_site_fract_x
 _atom_site_fract_y
 _atom_site_fract_z
 _atom_site_occupancy
  Dy  Dy0  1  0.248740  0.251260  0.248740  1
  Tm  Tm1  1  0.751587  0.748413  0.751587  1
  Be  Be2  1  0.499999  0.500001  0.499999  1
  Be  Be3  1  0.999953  0.000047  0.999953  1
  Be  Be4  1  0.568483  0.787477  0.431731  1
  Be  Be5  1  0.431731  0.212309  0.568483  1
  Be  Be6  1  0.294489  0.935288  0.705799  1
  Be  Be7  1  0.705799  0.064424  0.294489  1
  Be  Be8  1  0.932146  0.284875  0.067609  1
  Be  Be9  1  0.067609  0.715370  0.932146  1
  Be  Be10  1  0.205705  0.797958  0.560618  1
  Be  Be11  1  0.794088  0.201757  0.439646  1
  Be  Be12  1  0.439646  0.564510  0.794088  1
  Be  Be13  1  0.560618  0.435719  0.205705  1
  Be  Be14  1  0.711130  0.283939  0.935470  1
  Be  Be15  1  0.289136  0.716208  0.064302  1
  Be  Be16  1  0.064302  0.930353  0.289136  1
  Be  Be17  1  0.935470  0.069463  0.711130  1
  Be  Be18  1  0.561891  0.206820  0.795095  1
  Be  Be19  1  0.438382  0.792959  0.204612  1
  Be  Be20  1  0.795095  0.436192  0.561891  1
  Be  Be21  1  0.204612  0.564047  0.438382  1
  Be  Be22  1  0.936374  0.710890  0.289655  1
  Be  Be23  1  0.063370  0.289355  0.710638  1
  Be  Be24  1  0.289655  0.063080  0.936374  1
  Be  Be25  1  0.710638  0.936638  0.063370  1
  Ni  Ni26  1  0.799760  0.559154  0.199594  1
  Ni  Ni27  1  0.199594  0.441492  0.799760  1
