# generated using pymatgen
data_Er9Tm(GaCo5)2
_symmetry_space_group_name_H-M   'P 1'
_cell_length_a   5.43424508
_cell_length_b   5.43424395
_cell_length_c   20.39741035
_cell_angle_alpha   89.97663192
_cell_angle_beta   90.02336891
_cell_angle_gamma   136.82721163
_symmetry_Int_Tables_number   1
_chemical_formula_structural   Er9Tm(GaCo5)2
_chemical_formula_sum   'Er9 Tm1 Ga2 Co10'
_cell_volume   412.13256491
_cell_formula_units_Z   1
loop_
 _symmetry_equiv_pos_site_id
 _symmetry_equiv_pos_as_xyz
  1  'x, y, z'
loop_
 _atom_site_type_symbol
 _atom_site_label
 _atom_site_symmetry_multiplicity
 _atom_site_fract_x
 _atom_site_fract_y
 _atom_site_fract_z
 _atom_site_occupancy
  Er  Er0  1  0.291006  0.708994  0.250167  1
  Er  Er1  1  0.292457  0.707543  0.065984  1
  Er  Er2  1  0.995696  0.004304  0.842815  1
  Er  Er3  1  0.708935  0.291065  0.749987  1
  Er  Er4  1  0.707728  0.292272  0.565562  1
  Er  Er5  1  0.004132  0.995868  0.343002  1
  Er  Er6  1  0.995808  0.004192  0.657126  1
  Er  Er7  1  0.707331  0.292669  0.934217  1
  Er  Er8  1  0.004318  0.995682  0.157300  1
  Tm  Tm9  1  0.292370  0.707630  0.433993  1
  Ga  Ga10  1  0.999864  0.000136  0.499698  1
  Ga  Ga11  1  0.000019  0.999981  0.000090  1
  Co  Co12  1  0.292159  0.707841  0.654415  1
  Co  Co13  1  0.583734  0.416266  0.441285  1
  Co  Co14  1  0.411962  0.588038  0.750038  1
  Co  Co15  1  0.416397  0.583603  0.941453  1
  Co  Co16  1  0.588356  0.411644  0.250161  1
  Co  Co17  1  0.416110  0.583890  0.558183  1
  Co  Co18  1  0.708410  0.291590  0.345770  1
  Co  Co19  1  0.708097  0.291903  0.154544  1
  Co  Co20  1  0.583398  0.416602  0.058647  1
  Co  Co21  1  0.291715  0.708285  0.845562  1
