# generated using pymatgen
data_Tm3Hf(Co5P3)4
_symmetry_space_group_name_H-M   'P 1'
_cell_length_a   3.62434200
_cell_length_b   10.22191126
_cell_length_c   11.66943076
_cell_angle_alpha   90.02505504
_cell_angle_beta   90.00000000
_cell_angle_gamma   90.00000000
_symmetry_Int_Tables_number   1
_chemical_formula_structural   Tm3Hf(Co5P3)4
_chemical_formula_sum   'Tm3 Hf1 Co20 P12'
_cell_volume   432.32555550
_cell_formula_units_Z   1
loop_
 _symmetry_equiv_pos_site_id
 _symmetry_equiv_pos_as_xyz
  1  'x, y, z'
loop_
 _atom_site_type_symbol
 _atom_site_label
 _atom_site_symmetry_multiplicity
 _atom_site_fract_x
 _atom_site_fract_y
 _atom_site_fract_z
 _atom_site_occupancy
  Tm  Tm0  1  0.750000  0.082273  0.797238  1
  Tm  Tm1  1  0.750000  0.417284  0.297265  1
  Tm  Tm2  1  0.250000  0.582850  0.702680  1
  Hf  Hf3  1  0.250000  0.918442  0.200939  1
  Co  Co4  1  0.250000  0.782450  0.492528  1
  Co  Co5  1  0.750000  0.216979  0.506487  1
  Co  Co6  1  0.750000  0.281853  0.009839  1
  Co  Co7  1  0.250000  0.718586  0.992971  1
  Co  Co8  1  0.250000  0.090027  0.989848  1
  Co  Co9  1  0.750000  0.906505  0.017514  1
  Co  Co10  1  0.750000  0.593108  0.512027  1
  Co  Co11  1  0.250000  0.407068  0.487719  1
  Co  Co12  1  0.250000  0.277803  0.677091  1
  Co  Co13  1  0.750000  0.724584  0.322060  1
  Co  Co14  1  0.750000  0.779744  0.824055  1
  Co  Co15  1  0.250000  0.220908  0.177655  1
  Co  Co16  1  0.250000  0.619855  0.199607  1
  Co  Co17  1  0.750000  0.382717  0.801690  1
  Co  Co18  1  0.750000  0.112975  0.298229  1
  Co  Co19  1  0.250000  0.883502  0.698341  1
  Co  Co20  1  0.250000  0.029849  0.427319  1
  Co  Co21  1  0.750000  0.967309  0.565986  1
  Co  Co22  1  0.750000  0.534430  0.069427  1
  Co  Co23  1  0.250000  0.468169  0.932036  1
  P  P24  1  0.250000  0.081360  0.610595  1
  P  P25  1  0.750000  0.918495  0.383329  1
  P  P26  1  0.750000  0.581993  0.887695  1
  P  P27  1  0.250000  0.419118  0.113333  1
  P  P28  1  0.250000  0.230183  0.370522  1
  P  P29  1  0.750000  0.770027  0.629697  1
  P  P30  1  0.750000  0.733367  0.131899  1
  P  P31  1  0.250000  0.269062  0.871417  1
  P  P32  1  0.250000  0.898980  0.890448  1
  P  P33  1  0.750000  0.098682  0.110311  1
  P  P34  1  0.750000  0.398582  0.609446  1
  P  P35  1  0.250000  0.600884  0.390759  1
