# generated using pymatgen
data_Dy4Tm4Re3B24Rh
_symmetry_space_group_name_H-M   'P 1'
_cell_length_a   3.65835900
_cell_length_b   9.12626723
_cell_length_c   11.51281416
_cell_angle_alpha   90.13778222
_cell_angle_beta   90.00000000
_cell_angle_gamma   90.00000000
_symmetry_Int_Tables_number   1
_chemical_formula_structural   Dy4Tm4Re3B24Rh
_chemical_formula_sum   'Dy4 Tm4 Re3 B24 Rh1'
_cell_volume   384.37907845
_cell_formula_units_Z   1
loop_
 _symmetry_equiv_pos_site_id
 _symmetry_equiv_pos_as_xyz
  1  'x, y, z'
loop_
 _atom_site_type_symbol
 _atom_site_label
 _atom_site_symmetry_multiplicity
 _atom_site_fract_x
 _atom_site_fract_y
 _atom_site_fract_z
 _atom_site_occupancy
  Dy  Dy0  1  0.000000  0.318065  0.415487  1
  Dy  Dy1  1  0.000000  0.678542  0.590987  1
  Dy  Dy2  1  0.000000  0.826616  0.081585  1
  Dy  Dy3  1  0.000000  0.177839  0.912722  1
  Tm  Tm4  1  0.000000  0.943522  0.370274  1
  Tm  Tm5  1  0.000000  0.055785  0.628844  1
  Tm  Tm6  1  0.000000  0.441384  0.128740  1
  Tm  Tm7  1  0.000000  0.556596  0.871657  1
  Re  Re8  1  0.000000  0.362126  0.678179  1
  Re  Re9  1  0.000000  0.138668  0.180405  1
  Re  Re10  1  0.000000  0.861363  0.820483  1
  B  B11  1  0.500000  0.554202  0.433536  1
  B  B12  1  0.500000  0.446443  0.566798  1
  B  B13  1  0.500000  0.053723  0.066788  1
  B  B14  1  0.500000  0.947007  0.932423  1
  B  B15  1  0.500000  0.749773  0.419982  1
  B  B16  1  0.500000  0.249675  0.581107  1
  B  B17  1  0.500000  0.250193  0.081512  1
  B  B18  1  0.500000  0.750878  0.918712  1
  B  B19  1  0.500000  0.791439  0.265109  1
  B  B20  1  0.500000  0.207985  0.734047  1
  B  B21  1  0.500000  0.292235  0.235234  1
  B  B22  1  0.500000  0.707751  0.765892  1
  B  B23  1  0.500000  0.631266  0.183813  1
  B  B24  1  0.500000  0.369897  0.814514  1
  B  B25  1  0.500000  0.130198  0.315236  1
  B  B26  1  0.500000  0.869004  0.685070  1
  B  B27  1  0.500000  0.982542  0.212424  1
  B  B28  1  0.500000  0.017728  0.786511  1
  B  B29  1  0.500000  0.483038  0.287558  1
  B  B30  1  0.500000  0.518410  0.712852  1
  B  B31  1  0.500000  0.602475  0.028957  1
  B  B32  1  0.500000  0.398889  0.972577  1
  B  B33  1  0.500000  0.100142  0.471547  1
  B  B34  1  0.500000  0.896418  0.527757  1
  Rh  Rh35  1  0.000000  0.638185  0.320680  1
