# generated using pymatgen
data_Yb2GaFe3Cl16
_symmetry_space_group_name_H-M   'P 1'
_cell_length_a   7.57683812
_cell_length_b   7.38410602
_cell_length_c   13.55475102
_cell_angle_alpha   87.27126647
_cell_angle_beta   90.27592612
_cell_angle_gamma   90.18398134
_symmetry_Int_Tables_number   1
_chemical_formula_structural   Yb2GaFe3Cl16
_chemical_formula_sum   'Yb2 Ga1 Fe3 Cl16'
_cell_volume   757.49154743
_cell_formula_units_Z   1
loop_
 _symmetry_equiv_pos_site_id
 _symmetry_equiv_pos_as_xyz
  1  'x, y, z'
loop_
 _atom_site_type_symbol
 _atom_site_label
 _atom_site_symmetry_multiplicity
 _atom_site_fract_x
 _atom_site_fract_y
 _atom_site_fract_z
 _atom_site_occupancy
  Yb  Yb0  1  0.757154  0.075980  0.815421  1
  Yb  Yb1  1  0.243651  0.075846  0.316511  1
  Ga  Ga2  1  0.425588  0.640386  0.276198  1
  Fe  Fe3  1  0.934868  0.218621  0.579869  1
  Fe  Fe4  1  0.064603  0.214839  0.081024  1
  Fe  Fe5  1  0.574602  0.641042  0.778018  1
  Cl  Cl6  1  0.437028  0.615649  0.640702  1
  Cl  Cl7  1  0.564950  0.612676  0.141060  1
  Cl  Cl8  1  0.853386  0.736808  0.758027  1
  Cl  Cl9  1  0.145850  0.733044  0.260565  1
  Cl  Cl10  1  0.937204  0.476543  0.500608  1
  Cl  Cl11  1  0.062099  0.472704  0.001692  1
  Cl  Cl12  1  0.923959  0.006806  0.994005  1
  Cl  Cl13  1  0.075522  0.010904  0.493872  1
  Cl  Cl14  1  0.659833  0.130348  0.618580  1
  Cl  Cl15  1  0.340220  0.129474  0.121072  1
  Cl  Cl16  1  0.576448  0.377654  0.868055  1
  Cl  Cl17  1  0.424086  0.382983  0.370778  1
  Cl  Cl18  1  0.462569  0.869456  0.861073  1
  Cl  Cl19  1  0.536028  0.865307  0.363739  1
  Cl  Cl20  1  0.944771  0.222121  0.232146  1
  Cl  Cl21  1  0.055581  0.225608  0.731387  1
