# generated using pymatgen
data_Ho6Zn22CuS
_symmetry_space_group_name_H-M   'P 1'
_cell_length_a   8.97614437
_cell_length_b   8.99662601
_cell_length_c   8.99662600
_cell_angle_alpha   60.08506189
_cell_angle_beta   60.07527813
_cell_angle_gamma   60.07528376
_symmetry_Int_Tables_number   1
_chemical_formula_structural   Ho6Zn22CuS
_chemical_formula_sum   'Ho6 Zn22 Cu1 S1'
_cell_volume   514.64344506
_cell_formula_units_Z   1
loop_
 _symmetry_equiv_pos_site_id
 _symmetry_equiv_pos_as_xyz
  1  'x, y, z'
loop_
 _atom_site_type_symbol
 _atom_site_label
 _atom_site_symmetry_multiplicity
 _atom_site_fract_x
 _atom_site_fract_y
 _atom_site_fract_z
 _atom_site_occupancy
  Ho  Ho0  1  0.712647  0.287353  0.287353  1
  Ho  Ho1  1  0.712019  0.287462  0.712538  1
  Ho  Ho2  1  0.712019  0.712538  0.287462  1
  Ho  Ho3  1  0.287353  0.712647  0.712647  1
  Ho  Ho4  1  0.287981  0.712538  0.287462  1
  Ho  Ho5  1  0.287981  0.287462  0.712538  1
  Zn  Zn6  1  0.623887  0.122590  0.122590  1
  Zn  Zn7  1  0.125865  0.623808  0.124462  1
  Zn  Zn8  1  0.125865  0.124462  0.623808  1
  Zn  Zn9  1  0.130934  0.122590  0.122590  1
  Zn  Zn10  1  0.376113  0.877410  0.877410  1
  Zn  Zn11  1  0.874135  0.376192  0.875538  1
  Zn  Zn12  1  0.874135  0.875538  0.376192  1
  Zn  Zn13  1  0.869066  0.877410  0.877410  1
  Zn  Zn14  1  0.500000  0.000000  0.500000  1
  Zn  Zn15  1  0.500000  0.500000  0.000000  1
  Zn  Zn16  1  0.000000  0.500000  0.500000  1
  Zn  Zn17  1  0.000000  0.500000  0.000000  1
  Zn  Zn18  1  0.000000  0.000000  0.500000  1
  Zn  Zn19  1  0.000000  0.000000  0.000000  1
  Zn  Zn20  1  0.011579  0.329474  0.329474  1
  Zn  Zn21  1  0.331507  0.011651  0.325332  1
  Zn  Zn22  1  0.331507  0.325332  0.011651  1
  Zn  Zn23  1  0.329471  0.329474  0.329474  1
  Zn  Zn24  1  0.988421  0.670526  0.670526  1
  Zn  Zn25  1  0.668493  0.988349  0.674668  1
  Zn  Zn26  1  0.668493  0.674668  0.988349  1
  Zn  Zn27  1  0.670529  0.670526  0.670526  1
  Cu  Cu28  1  0.500000  0.000000  0.000000  1
  S  S29  1  0.500000  0.500000  0.500000  1
