# generated using pymatgen
data_DyCrF7
_symmetry_space_group_name_H-M   'P 1'
_cell_length_a   5.46120500
_cell_length_b   8.73887381
_cell_length_c   11.71798154
_cell_angle_alpha   62.97377172
_cell_angle_beta   90.00000000
_cell_angle_gamma   90.00000000
_symmetry_Int_Tables_number   1
_chemical_formula_structural   DyCrF7
_chemical_formula_sum   'Dy4 Cr4 F28'
_cell_volume   498.16852737
_cell_formula_units_Z   4
loop_
 _symmetry_equiv_pos_site_id
 _symmetry_equiv_pos_as_xyz
  1  'x, y, z'
loop_
 _atom_site_type_symbol
 _atom_site_label
 _atom_site_symmetry_multiplicity
 _atom_site_fract_x
 _atom_site_fract_y
 _atom_site_fract_z
 _atom_site_occupancy
  Dy  Dy0  1  0.761423  0.808665  0.766501  1
  Dy  Dy1  1  0.261423  0.191335  0.733499  1
  Dy  Dy2  1  0.238577  0.191335  0.233499  1
  Dy  Dy3  1  0.738577  0.808665  0.266501  1
  Cr  Cr4  1  0.757161  0.272666  0.956941  1
  Cr  Cr5  1  0.257161  0.727334  0.543059  1
  Cr  Cr6  1  0.242839  0.727334  0.043059  1
  Cr  Cr7  1  0.742839  0.272666  0.456941  1
  F  F8  1  0.434660  0.705676  0.921065  1
  F  F9  1  0.934660  0.294324  0.578935  1
  F  F10  1  0.565340  0.294324  0.078935  1
  F  F11  1  0.065340  0.705676  0.421065  1
  F  F12  1  0.452463  0.277679  0.542104  1
  F  F13  1  0.952463  0.722321  0.957896  1
  F  F14  1  0.547537  0.722321  0.457896  1
  F  F15  1  0.047537  0.277679  0.042104  1
  F  F16  1  0.774544  0.509098  0.863492  1
  F  F17  1  0.274544  0.490902  0.636508  1
  F  F18  1  0.225456  0.490902  0.136508  1
  F  F19  1  0.725456  0.509098  0.363492  1
  F  F20  1  0.755916  0.038271  0.046079  1
  F  F21  1  0.255916  0.961729  0.453921  1
  F  F22  1  0.244084  0.961729  0.953921  1
  F  F23  1  0.744084  0.038271  0.546079  1
  F  F24  1  0.974893  0.728356  0.634063  1
  F  F25  1  0.474893  0.271644  0.865937  1
  F  F26  1  0.025107  0.271644  0.365937  1
  F  F27  1  0.525107  0.728356  0.134063  1
  F  F28  1  0.053791  0.745672  0.170097  1
  F  F29  1  0.553791  0.254328  0.329903  1
  F  F30  1  0.946209  0.254328  0.829903  1
  F  F31  1  0.446209  0.745672  0.670097  1
  F  F32  1  0.412425  0.971069  0.228708  1
  F  F33  1  0.912425  0.028931  0.271292  1
  F  F34  1  0.587575  0.028931  0.771292  1
  F  F35  1  0.087575  0.971069  0.728708  1
