# generated using pymatgen
data_PrSm(AlCu)5
_symmetry_space_group_name_H-M   'P 1'
_cell_length_a   4.09237500
_cell_length_b   5.39678500
_cell_length_c   9.19571000
_cell_angle_alpha   90.00000000
_cell_angle_beta   90.00000000
_cell_angle_gamma   90.00000000
_symmetry_Int_Tables_number   1
_chemical_formula_structural   PrSm(AlCu)5
_chemical_formula_sum   'Pr1 Sm1 Al5 Cu5'
_cell_volume   203.09339822
_cell_formula_units_Z   1
loop_
 _symmetry_equiv_pos_site_id
 _symmetry_equiv_pos_as_xyz
  1  'x, y, z'
loop_
 _atom_site_type_symbol
 _atom_site_label
 _atom_site_symmetry_multiplicity
 _atom_site_fract_x
 _atom_site_fract_y
 _atom_site_fract_z
 _atom_site_occupancy
  Pr  Pr0  1  0.000000  0.000000  0.500000  1
  Sm  Sm1  1  0.000000  0.500000  0.000000  1
  Al  Al2  1  0.500000  0.000000  0.000000  1
  Al  Al3  1  0.500000  0.747612  0.257828  1
  Al  Al4  1  0.500000  0.252388  0.742172  1
  Al  Al5  1  0.500000  0.252388  0.257828  1
  Al  Al6  1  0.500000  0.747612  0.742172  1
  Cu  Cu7  1  0.000000  0.500000  0.333311  1
  Cu  Cu8  1  0.000000  0.000000  0.837183  1
  Cu  Cu9  1  0.000000  0.000000  0.162817  1
  Cu  Cu10  1  0.000000  0.500000  0.666689  1
  Cu  Cu11  1  0.500000  0.500000  0.500000  1
