# generated using pymatgen
data_KPAu2
_symmetry_space_group_name_H-M   'P 1'
_cell_length_a   8.43019868
_cell_length_b   8.43019877
_cell_length_c   8.43019900
_cell_angle_alpha   139.00967910
_cell_angle_beta   139.00967980
_cell_angle_gamma   59.36009293
_symmetry_Int_Tables_number   1
_chemical_formula_structural   KPAu2
_chemical_formula_sum   'K2 P2 Au4'
_cell_volume   255.24050185
_cell_formula_units_Z   2
loop_
 _symmetry_equiv_pos_site_id
 _symmetry_equiv_pos_as_xyz
  1  'x, y, z'
loop_
 _atom_site_type_symbol
 _atom_site_label
 _atom_site_symmetry_multiplicity
 _atom_site_fract_x
 _atom_site_fract_y
 _atom_site_fract_z
 _atom_site_occupancy
  K  K0  1  0.000000  0.000000  0.000000  1
  K  K1  1  0.750000  0.250000  0.500000  1
  P  P2  1  0.500000  0.500000  0.000000  1
  P  P3  1  0.250000  0.750000  0.500000  1
  Au  Au4  1  0.875001  0.597519  0.222520  1
  Au  Au5  1  0.402481  0.625001  0.277482  1
  Au  Au6  1  0.347518  0.125001  0.722519  1
  Au  Au7  1  0.375001  0.652481  0.777482  1
