# generated using pymatgen
data_Zr6In6Pd5Au
_symmetry_space_group_name_H-M   'P 1'
_cell_length_a   7.56922600
_cell_length_b   7.56922673
_cell_length_c   7.20023500
_cell_angle_alpha   90.00000000
_cell_angle_beta   90.00000000
_cell_angle_gamma   119.99997933
_symmetry_Int_Tables_number   1
_chemical_formula_structural   Zr6In6Pd5Au
_chemical_formula_sum   'Zr6 In6 Pd5 Au1'
_cell_volume   357.25669815
_cell_formula_units_Z   1
loop_
 _symmetry_equiv_pos_site_id
 _symmetry_equiv_pos_as_xyz
  1  'x, y, z'
loop_
 _atom_site_type_symbol
 _atom_site_label
 _atom_site_symmetry_multiplicity
 _atom_site_fract_x
 _atom_site_fract_y
 _atom_site_fract_z
 _atom_site_occupancy
  Zr  Zr0  1  0.389798  0.406954  0.746579  1
  Zr  Zr1  1  0.017156  0.610202  0.746579  1
  Zr  Zr2  1  0.593046  0.982844  0.746579  1
  Zr  Zr3  1  0.612943  0.024650  0.253041  1
  Zr  Zr4  1  0.975350  0.588294  0.253041  1
  Zr  Zr5  1  0.411706  0.387057  0.253041  1
  In  In6  1  0.271032  0.005369  0.998993  1
  In  In7  1  0.734336  0.728968  0.998993  1
  In  In8  1  0.994631  0.265664  0.998993  1
  In  In9  1  0.728087  0.729621  0.500150  1
  In  In10  1  0.270379  0.998466  0.500150  1
  In  In11  1  0.001534  0.271913  0.500150  1
  Pd  Pd12  1  0.666667  0.333333  0.962286  1
  Pd  Pd13  1  0.000000  0.000000  0.748165  1
  Pd  Pd14  1  0.666667  0.333333  0.538269  1
  Pd  Pd15  1  0.333333  0.666667  0.462499  1
  Pd  Pd16  1  0.000000  0.000000  0.251200  1
  Au  Au17  1  0.333333  0.666667  0.041292  1
