# generated using pymatgen
data_Ce4Np(TaN4)3
_symmetry_space_group_name_H-M   'P 1'
_cell_length_a   5.66332035
_cell_length_b   5.76557243
_cell_length_c   8.07561677
_cell_angle_alpha   90.01352453
_cell_angle_beta   90.07418127
_cell_angle_gamma   90.35409922
_symmetry_Int_Tables_number   1
_chemical_formula_structural   Ce4Np(TaN4)3
_chemical_formula_sum   'Ce4 Np1 Ta3 N12'
_cell_volume   263.68206499
_cell_formula_units_Z   1
loop_
 _symmetry_equiv_pos_site_id
 _symmetry_equiv_pos_as_xyz
  1  'x, y, z'
loop_
 _atom_site_type_symbol
 _atom_site_label
 _atom_site_symmetry_multiplicity
 _atom_site_fract_x
 _atom_site_fract_y
 _atom_site_fract_z
 _atom_site_occupancy
  Ce  Ce0  1  0.511152  0.553394  0.260835  1
  Ce  Ce1  1  0.995023  0.044173  0.259988  1
  Ce  Ce2  1  0.488848  0.446606  0.739165  1
  Ce  Ce3  1  0.004977  0.955827  0.740012  1
  Np  Np4  1  0.000000  0.500000  0.000000  1
  Ta  Ta5  1  0.500000  0.000000  0.500000  1
  Ta  Ta6  1  0.000000  0.500000  0.500000  1
  Ta  Ta7  1  0.500000  0.000000  0.000000  1
  N  N8  1  0.398364  0.968910  0.249649  1
  N  N9  1  0.106212  0.467281  0.253553  1
  N  N10  1  0.601636  0.031090  0.750351  1
  N  N11  1  0.893788  0.532719  0.746447  1
  N  N12  1  0.795492  0.804854  0.062134  1
  N  N13  1  0.700713  0.300166  0.451237  1
  N  N14  1  0.200224  0.199335  0.549367  1
  N  N15  1  0.302238  0.697440  0.942790  1
  N  N16  1  0.204508  0.195146  0.937866  1
  N  N17  1  0.299287  0.699834  0.548763  1
  N  N18  1  0.799776  0.800665  0.450633  1
  N  N19  1  0.697762  0.302560  0.057210  1
