# generated using pymatgen
data_YbNpUCu3Sb4
_symmetry_space_group_name_H-M   'P 1'
_cell_length_a   8.31730121
_cell_length_b   8.33652530
_cell_length_c   8.31730107
_cell_angle_alpha   109.08477531
_cell_angle_beta   109.32857120
_cell_angle_gamma   109.90767785
_symmetry_Int_Tables_number   1
_chemical_formula_structural   YbNpUCu3Sb4
_chemical_formula_sum   'Yb2 Np2 U2 Cu6 Sb8'
_cell_volume   444.43249171
_cell_formula_units_Z   2
loop_
 _symmetry_equiv_pos_site_id
 _symmetry_equiv_pos_as_xyz
  1  'x, y, z'
loop_
 _atom_site_type_symbol
 _atom_site_label
 _atom_site_symmetry_multiplicity
 _atom_site_fract_x
 _atom_site_fract_y
 _atom_site_fract_z
 _atom_site_occupancy
  Yb  Yb0  1  0.249989  0.124328  0.874686  1
  Yb  Yb1  1  0.750357  0.375672  0.625660  1
  Np  Np2  1  0.126198  0.877100  0.250149  1
  Np  Np3  1  0.373049  0.622900  0.749099  1
  U  U4  1  0.874133  0.250000  0.124133  1
  U  U5  1  0.626075  0.750000  0.376075  1
  Cu  Cu6  1  0.381793  0.250000  0.631793  1
  Cu  Cu7  1  0.118911  0.750000  0.868911  1
  Cu  Cu8  1  0.249878  0.625872  0.375376  1
  Cu  Cu9  1  0.749504  0.874128  0.124007  1
  Cu  Cu10  1  0.618167  0.368227  0.250241  1
  Cu  Cu11  1  0.882013  0.131773  0.749940  1
  Sb  Sb12  1  0.662765  0.499621  0.003895  1
  Sb  Sb13  1  0.504275  0.000379  0.663146  1
  Sb  Sb14  1  0.995706  0.659162  0.496123  1
  Sb  Sb15  1  0.836960  0.840838  0.836542  1
  Sb  Sb16  1  0.497357  0.995908  0.159898  1
  Sb  Sb17  1  0.163991  0.504092  0.001448  1
  Sb  Sb18  1  0.002717  0.162190  0.498353  1
  Sb  Sb19  1  0.336162  0.337810  0.340527  1
