# generated using pymatgen
data_Pr7Sm3(SnSb)4
_symmetry_space_group_name_H-M   'P 1'
_cell_length_a   8.42654400
_cell_length_b   8.48748289
_cell_length_c   16.19733600
_cell_angle_alpha   90.02628692
_cell_angle_beta   90.00000000
_cell_angle_gamma   90.00000000
_symmetry_Int_Tables_number   1
_chemical_formula_structural   Pr7Sm3(SnSb)4
_chemical_formula_sum   'Pr14 Sm6 Sn8 Sb8'
_cell_volume   1158.43574681
_cell_formula_units_Z   2
loop_
 _symmetry_equiv_pos_site_id
 _symmetry_equiv_pos_as_xyz
  1  'x, y, z'
loop_
 _atom_site_type_symbol
 _atom_site_label
 _atom_site_symmetry_multiplicity
 _atom_site_fract_x
 _atom_site_fract_y
 _atom_site_fract_z
 _atom_site_occupancy
  Pr  Pr0  1  0.609537  0.164301  0.383465  1
  Pr  Pr1  1  0.109537  0.335699  0.116535  1
  Pr  Pr2  1  0.608808  0.164214  0.117297  1
  Pr  Pr3  1  0.108808  0.335786  0.382703  1
  Pr  Pr4  1  0.391415  0.835734  0.617196  1
  Pr  Pr5  1  0.891415  0.664266  0.882804  1
  Pr  Pr6  1  0.549466  0.326550  0.893333  1
  Pr  Pr7  1  0.049466  0.173450  0.606667  1
  Pr  Pr8  1  0.450464  0.673965  0.393669  1
  Pr  Pr9  1  0.950464  0.826035  0.106331  1
  Pr  Pr10  1  0.451276  0.674446  0.105848  1
  Pr  Pr11  1  0.951276  0.825554  0.394152  1
  Pr  Pr12  1  0.548944  0.327258  0.607153  1
  Pr  Pr13  1  0.048944  0.172742  0.892847  1
  Sm  Sm14  1  0.389406  0.836862  0.880950  1
  Sm  Sm15  1  0.889406  0.663138  0.619050  1
  Sm  Sm16  1  0.218769  0.496627  0.749825  1
  Sm  Sm17  1  0.718769  0.003373  0.750175  1
  Sm  Sm18  1  0.781719  0.503893  0.250634  1
  Sm  Sm19  1  0.281719  0.996107  0.249366  1
  Sn  Sn20  1  0.589032  0.625146  0.750478  1
  Sn  Sn21  1  0.089032  0.874854  0.749522  1
  Sn  Sn22  1  0.411129  0.376860  0.250155  1
  Sn  Sn23  1  0.911129  0.123140  0.249845  1
  Sn  Sn24  1  0.352040  0.137320  0.750422  1
  Sn  Sn25  1  0.852040  0.362680  0.749578  1
  Sn  Sn26  1  0.648213  0.861843  0.250124  1
  Sn  Sn27  1  0.148213  0.638157  0.249876  1
  Sb  Sb28  1  0.268909  0.017425  0.046169  1
  Sb  Sb29  1  0.768909  0.482575  0.453831  1
  Sb  Sb30  1  0.734066  0.977538  0.548756  1
  Sb  Sb31  1  0.234066  0.522462  0.951244  1
  Sb  Sb32  1  0.728145  0.979567  0.951310  1
  Sb  Sb33  1  0.228145  0.520433  0.548690  1
  Sb  Sb34  1  0.268660  0.019138  0.451831  1
  Sb  Sb35  1  0.768660  0.480862  0.048169  1
