# generated using pymatgen
data_Eu4DyIrRh
_symmetry_space_group_name_H-M   'P 1'
_cell_length_a   6.78940605
_cell_length_b   7.52848286
_cell_length_c   9.00067190
_cell_angle_alpha   96.80159362
_cell_angle_beta   112.15794230
_cell_angle_gamma   89.99999910
_symmetry_Int_Tables_number   1
_chemical_formula_structural   Eu4DyIrRh
_chemical_formula_sum   'Eu8 Dy2 Ir2 Rh2'
_cell_volume   422.58517075
_cell_formula_units_Z   2
loop_
 _symmetry_equiv_pos_site_id
 _symmetry_equiv_pos_as_xyz
  1  'x, y, z'
loop_
 _atom_site_type_symbol
 _atom_site_label
 _atom_site_symmetry_multiplicity
 _atom_site_fract_x
 _atom_site_fract_y
 _atom_site_fract_z
 _atom_site_occupancy
  Eu  Eu0  1  0.802067  0.079085  0.821261  1
  Eu  Eu1  1  0.980806  0.420915  0.178739  1
  Eu  Eu2  1  0.199720  0.919433  0.176865  1
  Eu  Eu3  1  0.022855  0.580567  0.823135  1
  Eu  Eu4  1  0.204237  0.183711  0.570582  1
  Eu  Eu5  1  0.633654  0.316289  0.429418  1
  Eu  Eu6  1  0.795220  0.814235  0.430953  1
  Eu  Eu7  1  0.364268  0.685765  0.569047  1
  Dy  Dy8  1  0.435543  0.250000  0.000000  1
  Dy  Dy9  1  0.560811  0.750000  0.000000  1
  Ir  Ir10  1  0.402790  0.572302  0.203174  1
  Ir  Ir11  1  0.199616  0.927698  0.796826  1
  Rh  Rh12  1  0.597451  0.427979  0.796489  1
  Rh  Rh13  1  0.800963  0.072021  0.203511  1
