# generated using pymatgen
data_Sm3Tm2Sn3Se
_symmetry_space_group_name_H-M   'P 1'
_cell_length_a   9.22316600
_cell_length_b   9.22316681
_cell_length_c   6.74566800
_cell_angle_alpha   90.00000000
_cell_angle_beta   90.00000000
_cell_angle_gamma   119.99999708
_symmetry_Int_Tables_number   1
_chemical_formula_structural   Sm3Tm2Sn3Se
_chemical_formula_sum   'Sm6 Tm4 Sn6 Se2'
_cell_volume   496.95343411
_cell_formula_units_Z   2
loop_
 _symmetry_equiv_pos_site_id
 _symmetry_equiv_pos_as_xyz
  1  'x, y, z'
loop_
 _atom_site_type_symbol
 _atom_site_label
 _atom_site_symmetry_multiplicity
 _atom_site_fract_x
 _atom_site_fract_y
 _atom_site_fract_z
 _atom_site_occupancy
  Sm  Sm0  1  0.745883  0.745883  0.750000  1
  Sm  Sm1  1  0.254117  0.000000  0.750000  1
  Sm  Sm2  1  0.000000  0.254117  0.750000  1
  Sm  Sm3  1  0.254117  0.254117  0.250000  1
  Sm  Sm4  1  0.745883  0.000000  0.250000  1
  Sm  Sm5  1  0.000000  0.745883  0.250000  1
  Tm  Tm6  1  0.666667  0.333333  0.000000  1
  Tm  Tm7  1  0.333333  0.666667  0.000000  1
  Tm  Tm8  1  0.333333  0.666667  0.500000  1
  Tm  Tm9  1  0.666667  0.333333  0.500000  1
  Sn  Sn10  1  0.397655  0.397655  0.750000  1
  Sn  Sn11  1  0.602345  0.000000  0.750000  1
  Sn  Sn12  1  0.000000  0.602345  0.750000  1
  Sn  Sn13  1  0.602345  0.602345  0.250000  1
  Sn  Sn14  1  0.397655  0.000000  0.250000  1
  Sn  Sn15  1  0.000000  0.397655  0.250000  1
  Se  Se16  1  0.000000  0.000000  0.000000  1
  Se  Se17  1  0.000000  0.000000  0.500000  1
