# generated using pymatgen
data_Tb9Ho7(CdRu)4
_symmetry_space_group_name_H-M   'P 1'
_cell_length_a   9.62588346
_cell_length_b   9.63349946
_cell_length_c   9.62728011
_cell_angle_alpha   59.96902612
_cell_angle_beta   59.96198533
_cell_angle_gamma   59.98341936
_symmetry_Int_Tables_number   1
_chemical_formula_structural   Tb9Ho7(CdRu)4
_chemical_formula_sum   'Tb9 Ho7 Cd4 Ru4'
_cell_volume   630.85893759
_cell_formula_units_Z   1
loop_
 _symmetry_equiv_pos_site_id
 _symmetry_equiv_pos_as_xyz
  1  'x, y, z'
loop_
 _atom_site_type_symbol
 _atom_site_label
 _atom_site_symmetry_multiplicity
 _atom_site_fract_x
 _atom_site_fract_y
 _atom_site_fract_z
 _atom_site_occupancy
  Tb  Tb0  1  0.810608  0.189392  0.810608  1
  Tb  Tb1  1  0.189503  0.188679  0.811145  1
  Tb  Tb2  1  0.811145  0.810672  0.189503  1
  Tb  Tb3  1  0.939156  0.561325  0.561084  1
  Tb  Tb4  1  0.561084  0.938435  0.939156  1
  Tb  Tb5  1  0.561505  0.938495  0.561505  1
  Tb  Tb6  1  0.939169  0.560831  0.939169  1
  Tb  Tb7  1  0.561067  0.561321  0.939151  1
  Tb  Tb8  1  0.939151  0.938462  0.561067  1
  Ho  Ho9  1  0.346078  0.346618  0.345303  1
  Ho  Ho10  1  0.345001  0.346189  0.963344  1
  Ho  Ho11  1  0.345303  0.961999  0.346078  1
  Ho  Ho12  1  0.963344  0.345465  0.345001  1
  Ho  Ho13  1  0.810783  0.189156  0.189783  1
  Ho  Ho14  1  0.189783  0.810278  0.810783  1
  Ho  Ho15  1  0.189186  0.810814  0.189186  1
  Cd  Cd16  1  0.579741  0.580286  0.580045  1
  Cd  Cd17  1  0.579902  0.580153  0.259440  1
  Cd  Cd18  1  0.580045  0.259926  0.579741  1
  Cd  Cd19  1  0.259440  0.580503  0.579902  1
  Ru  Ru20  1  0.138948  0.139421  0.139123  1
  Ru  Ru21  1  0.139343  0.139479  0.581587  1
  Ru  Ru22  1  0.139123  0.582507  0.138948  1
  Ru  Ru23  1  0.581587  0.139591  0.139343  1
