# generated using pymatgen
data_Ce2TcBiF15
_symmetry_space_group_name_H-M   'P 1'
_cell_length_a   8.55394271
_cell_length_b   8.55394395
_cell_length_c   8.60947772
_cell_angle_alpha   79.67152758
_cell_angle_beta   79.67152271
_cell_angle_gamma   99.53031235
_symmetry_Int_Tables_number   1
_chemical_formula_structural   Ce2TcBiF15
_chemical_formula_sum   'Ce4 Tc2 Bi2 F30'
_cell_volume   596.84758763
_cell_formula_units_Z   2
loop_
 _symmetry_equiv_pos_site_id
 _symmetry_equiv_pos_as_xyz
  1  'x, y, z'
loop_
 _atom_site_type_symbol
 _atom_site_label
 _atom_site_symmetry_multiplicity
 _atom_site_fract_x
 _atom_site_fract_y
 _atom_site_fract_z
 _atom_site_occupancy
  Ce  Ce0  1  0.748754  0.679949  0.674616  1
  Ce  Ce1  1  0.320051  0.251246  0.825384  1
  Ce  Ce2  1  0.251246  0.320051  0.325384  1
  Ce  Ce3  1  0.679949  0.748754  0.174616  1
  Tc  Tc4  1  0.750559  0.249441  0.250000  1
  Tc  Tc5  1  0.249441  0.750559  0.750000  1
  Bi  Bi6  1  0.178638  0.821362  0.250000  1
  Bi  Bi7  1  0.821362  0.178638  0.750000  1
  F  F8  1  0.466801  0.533199  0.250000  1
  F  F9  1  0.752063  0.958288  0.967213  1
  F  F10  1  0.041712  0.247937  0.532787  1
  F  F11  1  0.247937  0.041712  0.032787  1
  F  F12  1  0.958288  0.752063  0.467213  1
  F  F13  1  0.533199  0.466801  0.750000  1
  F  F14  1  0.222851  0.514505  0.775522  1
  F  F15  1  0.232007  0.725076  0.982848  1
  F  F16  1  0.014728  0.729855  0.778567  1
  F  F17  1  0.729855  0.014728  0.278567  1
  F  F18  1  0.725076  0.232007  0.482848  1
  F  F19  1  0.514505  0.222851  0.275522  1
  F  F20  1  0.777150  0.485495  0.224478  1
  F  F21  1  0.767993  0.274924  0.017152  1
  F  F22  1  0.985272  0.270145  0.221433  1
  F  F23  1  0.270145  0.985272  0.721433  1
  F  F24  1  0.274924  0.767993  0.517152  1
  F  F25  1  0.485495  0.777149  0.724478  1
  F  F26  1  0.541972  0.151145  0.812254  1
  F  F27  1  0.193233  0.055601  0.348859  1
  F  F28  1  0.648573  0.688489  0.445260  1
  F  F29  1  0.688489  0.648573  0.945260  1
  F  F30  1  0.055601  0.193233  0.848859  1
  F  F31  1  0.151145  0.541972  0.312254  1
  F  F32  1  0.458028  0.848855  0.187746  1
  F  F33  1  0.806767  0.944399  0.651141  1
  F  F34  1  0.351427  0.311511  0.554740  1
  F  F35  1  0.311511  0.351427  0.054740  1
  F  F36  1  0.944399  0.806767  0.151141  1
  F  F37  1  0.848855  0.458028  0.687746  1
