# generated using pymatgen
data_Tb2Y4CrFe(Co4P3)4
_symmetry_space_group_name_H-M   'P 1'
_cell_length_a   3.70283400
_cell_length_b   10.52956700
_cell_length_c   12.18390100
_cell_angle_alpha   90.00000000
_cell_angle_beta   90.00000000
_cell_angle_gamma   90.00000000
_symmetry_Int_Tables_number   1
_chemical_formula_structural   Tb2Y4CrFe(Co4P3)4
_chemical_formula_sum   'Tb2 Y4 Cr1 Fe1 Co16 P12'
_cell_volume   475.04102430
_cell_formula_units_Z   1
loop_
 _symmetry_equiv_pos_site_id
 _symmetry_equiv_pos_as_xyz
  1  'x, y, z'
loop_
 _atom_site_type_symbol
 _atom_site_label
 _atom_site_symmetry_multiplicity
 _atom_site_fract_x
 _atom_site_fract_y
 _atom_site_fract_z
 _atom_site_occupancy
  Tb  Tb0  1  0.000000  0.500000  0.522276  1
  Tb  Tb1  1  0.500000  0.000000  0.478287  1
  Y  Y2  1  0.500000  0.817406  0.205328  1
  Y  Y3  1  0.500000  0.182594  0.205328  1
  Y  Y4  1  0.000000  0.682185  0.795437  1
  Y  Y5  1  0.000000  0.317815  0.795437  1
  Cr  Cr6  1  0.500000  0.500000  0.155696  1
  Fe  Fe7  1  0.000000  0.000000  0.843489  1
  Co  Co8  1  0.500000  0.500000  0.701928  1
  Co  Co9  1  0.000000  0.000000  0.297388  1
  Co  Co10  1  0.000000  0.500000  0.987283  1
  Co  Co11  1  0.500000  0.000000  0.013643  1
  Co  Co12  1  0.500000  0.333085  0.993443  1
  Co  Co13  1  0.500000  0.666915  0.993443  1
  Co  Co14  1  0.000000  0.167490  0.006235  1
  Co  Co15  1  0.000000  0.832510  0.006235  1
  Co  Co16  1  0.500000  0.296461  0.430182  1
  Co  Co17  1  0.500000  0.703539  0.430182  1
  Co  Co18  1  0.000000  0.203430  0.569176  1
  Co  Co19  1  0.000000  0.796570  0.569176  1
  Co  Co20  1  0.500000  0.878999  0.709180  1
  Co  Co21  1  0.500000  0.121001  0.709180  1
  Co  Co22  1  0.000000  0.620173  0.290552  1
  Co  Co23  1  0.000000  0.379827  0.290552  1
  P  P24  1  0.500000  0.500000  0.882114  1
  P  P25  1  0.000000  0.000000  0.117306  1
  P  P26  1  0.500000  0.500000  0.343553  1
  P  P27  1  0.000000  0.000000  0.658013  1
  P  P28  1  0.500000  0.310068  0.615963  1
  P  P29  1  0.500000  0.689932  0.615963  1
  P  P30  1  0.000000  0.189532  0.384054  1
  P  P31  1  0.000000  0.810468  0.384054  1
  P  P32  1  0.500000  0.848044  0.892519  1
  P  P33  1  0.500000  0.151956  0.892519  1
  P  P34  1  0.000000  0.652648  0.107443  1
  P  P35  1  0.000000  0.347352  0.107443  1
