# generated using pymatgen
data_Sr7Nd(Ge3Pd)4
_symmetry_space_group_name_H-M   'P 1'
_cell_length_a   8.70007100
_cell_length_b   8.70007118
_cell_length_c   8.95271600
_cell_angle_alpha   90.00000000
_cell_angle_beta   90.00000000
_cell_angle_gamma   119.99999550
_symmetry_Int_Tables_number   1
_chemical_formula_structural   Sr7Nd(Ge3Pd)4
_chemical_formula_sum   'Sr7 Nd1 Ge12 Pd4'
_cell_volume   586.85534184
_cell_formula_units_Z   1
loop_
 _symmetry_equiv_pos_site_id
 _symmetry_equiv_pos_as_xyz
  1  'x, y, z'
loop_
 _atom_site_type_symbol
 _atom_site_label
 _atom_site_symmetry_multiplicity
 _atom_site_fract_x
 _atom_site_fract_y
 _atom_site_fract_z
 _atom_site_occupancy
  Sr  Sr0  1  0.499613  0.500387  0.750000  1
  Sr  Sr1  1  0.500339  0.499661  0.250000  1
  Sr  Sr2  1  0.000772  0.500387  0.750000  1
  Sr  Sr3  1  0.999323  0.499661  0.250000  1
  Sr  Sr4  1  0.499613  0.999228  0.750000  1
  Sr  Sr5  1  0.500339  0.000677  0.250000  1
  Sr  Sr6  1  0.000000  0.000000  0.750000  1
  Nd  Nd7  1  0.000000  0.000000  0.250000  1
  Ge  Ge8  1  0.834068  0.165932  0.005163  1
  Ge  Ge9  1  0.165872  0.834128  0.005366  1
  Ge  Ge10  1  0.331864  0.165932  0.005163  1
  Ge  Ge11  1  0.165872  0.834128  0.494634  1
  Ge  Ge12  1  0.668255  0.834128  0.005366  1
  Ge  Ge13  1  0.834068  0.165932  0.494837  1
  Ge  Ge14  1  0.834068  0.668136  0.005163  1
  Ge  Ge15  1  0.668255  0.834128  0.494634  1
  Ge  Ge16  1  0.165872  0.331745  0.005366  1
  Ge  Ge17  1  0.331864  0.165932  0.494837  1
  Ge  Ge18  1  0.165872  0.331745  0.494634  1
  Ge  Ge19  1  0.834068  0.668136  0.494837  1
  Pd  Pd20  1  0.666667  0.333333  0.998148  1
  Pd  Pd21  1  0.333333  0.666667  0.000711  1
  Pd  Pd22  1  0.333333  0.666667  0.499289  1
  Pd  Pd23  1  0.666667  0.333333  0.501852  1
