# generated using pymatgen
data_Zr4MnFeOs6
_symmetry_space_group_name_H-M   'P 1'
_cell_length_a   5.10373902
_cell_length_b   5.28249663
_cell_length_c   8.56946800
_cell_angle_alpha   90.00000000
_cell_angle_beta   90.00000000
_cell_angle_gamma   121.16554738
_symmetry_Int_Tables_number   1
_chemical_formula_structural   Zr4MnFeOs6
_chemical_formula_sum   'Zr4 Mn1 Fe1 Os6'
_cell_volume   197.69272936
_cell_formula_units_Z   1
loop_
 _symmetry_equiv_pos_site_id
 _symmetry_equiv_pos_as_xyz
  1  'x, y, z'
loop_
 _atom_site_type_symbol
 _atom_site_label
 _atom_site_symmetry_multiplicity
 _atom_site_fract_x
 _atom_site_fract_y
 _atom_site_fract_z
 _atom_site_occupancy
  Zr  Zr0  1  0.337446  0.668724  0.065566  1
  Zr  Zr1  1  0.662857  0.331428  0.565639  1
  Zr  Zr2  1  0.662857  0.331428  0.934361  1
  Zr  Zr3  1  0.337446  0.668724  0.434434  1
  Mn  Mn4  1  0.333770  0.166885  0.250000  1
  Fe  Fe5  1  0.666235  0.833117  0.750000  1
  Os  Os6  1  0.000474  0.000237  0.500072  1
  Os  Os7  1  0.000474  0.000237  0.999928  1
  Os  Os8  1  0.172072  0.346780  0.750000  1
  Os  Os9  1  0.827148  0.174451  0.250000  1
  Os  Os10  1  0.827148  0.652698  0.250000  1
  Os  Os11  1  0.172072  0.825291  0.750000  1
