# generated using pymatgen
data_Gd2Th2InNi4Ag
_symmetry_space_group_name_H-M   'P 1'
_cell_length_a   7.48887800
_cell_length_b   7.45424621
_cell_length_c   3.64310500
_cell_angle_alpha   90.00000000
_cell_angle_beta   90.00000000
_cell_angle_gamma   92.52514576
_symmetry_Int_Tables_number   1
_chemical_formula_structural   Gd2Th2InNi4Ag
_chemical_formula_sum   'Gd2 Th2 In1 Ni4 Ag1'
_cell_volume   203.17499816
_cell_formula_units_Z   1
loop_
 _symmetry_equiv_pos_site_id
 _symmetry_equiv_pos_as_xyz
  1  'x, y, z'
loop_
 _atom_site_type_symbol
 _atom_site_label
 _atom_site_symmetry_multiplicity
 _atom_site_fract_x
 _atom_site_fract_y
 _atom_site_fract_z
 _atom_site_occupancy
  Gd  Gd0  1  0.176299  0.331134  0.500000  1
  Gd  Gd1  1  0.823701  0.668866  0.500000  1
  Th  Th2  1  0.667201  0.184223  0.500000  1
  Th  Th3  1  0.332799  0.815777  0.500000  1
  In  In4  1  0.000000  0.000000  0.000000  1
  Ni  Ni5  1  0.116207  0.629698  0.000000  1
  Ni  Ni6  1  0.883793  0.370302  0.000000  1
  Ni  Ni7  1  0.623627  0.883512  0.000000  1
  Ni  Ni8  1  0.376373  0.116488  0.000000  1
  Ag  Ag9  1  0.500000  0.500000  0.000000  1
