# generated using pymatgen
data_Dy3U(Fe3Si5)2
_symmetry_space_group_name_H-M   'P 1'
_cell_length_a   5.48914803
_cell_length_b   7.89858492
_cell_length_c   7.87212643
_cell_angle_alpha   94.04339120
_cell_angle_beta   109.56916321
_cell_angle_gamma   109.47233761
_symmetry_Int_Tables_number   1
_chemical_formula_structural   Dy3U(Fe3Si5)2
_chemical_formula_sum   'Dy3 U1 Fe6 Si10'
_cell_volume   296.75555090
_cell_formula_units_Z   1
loop_
 _symmetry_equiv_pos_site_id
 _symmetry_equiv_pos_as_xyz
  1  'x, y, z'
loop_
 _atom_site_type_symbol
 _atom_site_label
 _atom_site_symmetry_multiplicity
 _atom_site_fract_x
 _atom_site_fract_y
 _atom_site_fract_z
 _atom_site_occupancy
  Dy  Dy0  1  0.237777  0.870389  0.595437  1
  Dy  Dy1  1  0.264568  0.402193  0.132807  1
  Dy  Dy2  1  0.764671  0.131706  0.403653  1
  U  U3  1  0.719840  0.587870  0.864868  1
  Fe  Fe4  1  0.387729  0.267877  0.551256  1
  Fe  Fe5  1  0.140239  0.458824  0.746063  1
  Fe  Fe6  1  0.625266  0.739050  0.454621  1
  Fe  Fe7  1  0.869956  0.546546  0.252247  1
  Fe  Fe8  1  0.248071  0.001971  0.997882  1
  Fe  Fe9  1  0.747241  0.993478  0.000889  1
  Si  Si10  1  0.169005  0.071484  0.263219  1
  Si  Si11  1  0.327074  0.742239  0.931599  1
  Si  Si12  1  0.831865  0.925717  0.739007  1
  Si  Si13  1  0.666582  0.260031  0.068017  1
  Si  Si14  1  0.248740  0.206453  0.789713  1
  Si  Si15  1  0.749387  0.791866  0.210596  1
  Si  Si16  1  0.244158  0.509960  0.487422  1
  Si  Si17  1  0.755281  0.494749  0.506599  1
  Si  Si18  1  0.248660  0.775494  0.224623  1
  Si  Si19  1  0.753892  0.222103  0.779482  1
