# generated using pymatgen
data_GdSb3Pb4O13
_symmetry_space_group_name_H-M   'P 1'
_cell_length_a   7.71798531
_cell_length_b   7.71797419
_cell_length_c   7.71797721
_cell_angle_alpha   59.59710763
_cell_angle_beta   59.59712493
_cell_angle_gamma   59.59710466
_symmetry_Int_Tables_number   1
_chemical_formula_structural   GdSb3Pb4O13
_chemical_formula_sum   'Gd1 Sb3 Pb4 O13'
_cell_volume   322.10722439
_cell_formula_units_Z   1
loop_
 _symmetry_equiv_pos_site_id
 _symmetry_equiv_pos_as_xyz
  1  'x, y, z'
loop_
 _atom_site_type_symbol
 _atom_site_label
 _atom_site_symmetry_multiplicity
 _atom_site_fract_x
 _atom_site_fract_y
 _atom_site_fract_z
 _atom_site_occupancy
  Gd  Gd0  1  0.500061  0.500059  0.500060  1
  Sb  Sb1  1  0.001141  0.499971  0.499971  1
  Sb  Sb2  1  0.499971  0.499971  0.001140  1
  Sb  Sb3  1  0.499971  0.001140  0.499971  1
  Pb  Pb4  1  0.999251  0.999251  0.999251  1
  Pb  Pb5  1  0.497465  0.003043  0.003043  1
  Pb  Pb6  1  0.003043  0.003043  0.497465  1
  Pb  Pb7  1  0.003043  0.497465  0.003042  1
  O  O8  1  0.860970  0.413655  0.413655  1
  O  O9  1  0.417870  0.813666  0.813666  1
  O  O10  1  0.413655  0.413655  0.860970  1
  O  O11  1  0.813666  0.813666  0.417870  1
  O  O12  1  0.813666  0.417870  0.813666  1
  O  O13  1  0.413655  0.860970  0.413655  1
  O  O14  1  0.144882  0.582735  0.582736  1
  O  O15  1  0.582233  0.186875  0.186875  1
  O  O16  1  0.582736  0.582736  0.144881  1
  O  O17  1  0.186875  0.186875  0.582233  1
  O  O18  1  0.186875  0.582233  0.186875  1
  O  O19  1  0.582735  0.144881  0.582736  1
  O  O20  1  0.121240  0.121241  0.121241  1
