# generated using pymatgen
data_Li2Tb2Si2Ge
_symmetry_space_group_name_H-M   'P 1'
_cell_length_a   9.34724656
_cell_length_b   9.34724658
_cell_length_c   6.71359900
_cell_angle_alpha   90.00000000
_cell_angle_beta   90.00000000
_cell_angle_gamma   153.54450701
_symmetry_Int_Tables_number   1
_chemical_formula_structural   Li2Tb2Si2Ge
_chemical_formula_sum   'Li4 Tb4 Si4 Ge2'
_cell_volume   261.32017505
_cell_formula_units_Z   2
loop_
 _symmetry_equiv_pos_site_id
 _symmetry_equiv_pos_as_xyz
  1  'x, y, z'
loop_
 _atom_site_type_symbol
 _atom_site_label
 _atom_site_symmetry_multiplicity
 _atom_site_fract_x
 _atom_site_fract_y
 _atom_site_fract_z
 _atom_site_occupancy
  Li  Li0  1  0.810693  0.189307  0.559124  1
  Li  Li1  1  0.189307  0.810693  0.440876  1
  Li  Li2  1  0.189307  0.810693  0.059124  1
  Li  Li3  1  0.810693  0.189307  0.940876  1
  Tb  Tb4  1  0.551347  0.448653  0.250000  1
  Tb  Tb5  1  0.448653  0.551347  0.750000  1
  Tb  Tb6  1  0.345862  0.654138  0.250000  1
  Tb  Tb7  1  0.654138  0.345862  0.750000  1
  Si  Si8  1  0.940869  0.059131  0.072438  1
  Si  Si9  1  0.059131  0.940869  0.927562  1
  Si  Si10  1  0.059131  0.940869  0.572438  1
  Si  Si11  1  0.940869  0.059131  0.427562  1
  Ge  Ge12  1  0.719565  0.280435  0.250000  1
  Ge  Ge13  1  0.280435  0.719565  0.750000  1
