# generated using pymatgen
data_Ti5VCuPt21
_symmetry_space_group_name_H-M   'P 1'
_cell_length_a   5.57219300
_cell_length_b   5.57221384
_cell_length_c   15.91696300
_cell_angle_alpha   90.00021030
_cell_angle_beta   89.99977170
_cell_angle_gamma   120.00002546
_symmetry_Int_Tables_number   1
_chemical_formula_structural   Ti5VCuPt21
_chemical_formula_sum   'Ti5 V1 Cu1 Pt21'
_cell_volume   428.00086992
_cell_formula_units_Z   1
loop_
 _symmetry_equiv_pos_site_id
 _symmetry_equiv_pos_as_xyz
  1  'x, y, z'
loop_
 _atom_site_type_symbol
 _atom_site_label
 _atom_site_symmetry_multiplicity
 _atom_site_fract_x
 _atom_site_fract_y
 _atom_site_fract_z
 _atom_site_occupancy
  Ti  Ti0  1  0.333339  0.666671  0.136428  1
  Ti  Ti1  1  0.000011  0.000010  0.280569  1
  Ti  Ti2  1  0.666675  0.333341  0.429680  1
  Ti  Ti3  1  0.000000  0.000004  0.998002  1
  Ti  Ti4  1  0.333335  0.666667  0.576648  1
  V  V5  1  0.999999  0.000001  0.725288  1
  Cu  Cu6  1  0.666613  0.333297  0.856686  1
  Pt  Pt7  1  0.833403  0.666799  0.570987  1
  Pt  Pt8  1  0.333193  0.166591  0.570989  1
  Pt  Pt9  1  0.166044  0.332105  0.856011  1
  Pt  Pt10  1  0.166883  0.333765  0.429127  1
  Pt  Pt11  1  0.166875  0.833127  0.429125  1
  Pt  Pt12  1  0.499467  0.998938  0.712073  1
  Pt  Pt13  1  0.666259  0.833134  0.429126  1
  Pt  Pt14  1  0.166034  0.833924  0.856012  1
  Pt  Pt15  1  0.667876  0.833925  0.856011  1
  Pt  Pt16  1  0.833147  0.166869  0.143391  1
  Pt  Pt17  1  0.833405  0.166591  0.570990  1
  Pt  Pt18  1  0.499469  0.500527  0.712071  1
  Pt  Pt19  1  0.333731  0.166869  0.143392  1
  Pt  Pt20  1  0.833147  0.666287  0.143392  1
  Pt  Pt21  1  0.499871  0.500151  0.286962  1
  Pt  Pt22  1  0.499873  0.999729  0.286961  1
  Pt  Pt23  1  0.499006  0.998013  0.000349  1
  Pt  Pt24  1  0.000295  0.500153  0.286960  1
  Pt  Pt25  1  0.001054  0.500527  0.712072  1
  Pt  Pt26  1  0.499010  0.500993  0.000349  1
  Pt  Pt27  1  0.001984  0.500992  0.000349  1
