# generated using pymatgen
data_Er4Al18ZnCo5
_symmetry_space_group_name_H-M   'P 1'
_cell_length_a   7.42758519
_cell_length_b   7.42758579
_cell_length_c   9.29375227
_cell_angle_alpha   89.86644726
_cell_angle_beta   89.86643435
_cell_angle_gamma   119.25284929
_symmetry_Int_Tables_number   1
_chemical_formula_structural   Er4Al18ZnCo5
_chemical_formula_sum   'Er4 Al18 Zn1 Co5'
_cell_volume   447.33527622
_cell_formula_units_Z   1
loop_
 _symmetry_equiv_pos_site_id
 _symmetry_equiv_pos_as_xyz
  1  'x, y, z'
loop_
 _atom_site_type_symbol
 _atom_site_label
 _atom_site_symmetry_multiplicity
 _atom_site_fract_x
 _atom_site_fract_y
 _atom_site_fract_z
 _atom_site_occupancy
  Er  Er0  1  0.994325  0.677351  0.249968  1
  Er  Er1  1  0.005675  0.322649  0.750032  1
  Er  Er2  1  0.677351  0.994325  0.249968  1
  Er  Er3  1  0.322649  0.005675  0.750032  1
  Al  Al4  1  0.134687  0.134687  0.262366  1
  Al  Al5  1  0.865313  0.865313  0.737634  1
  Al  Al6  1  0.331671  0.331671  0.543192  1
  Al  Al7  1  0.656787  0.656787  0.051378  1
  Al  Al8  1  0.343213  0.343213  0.948622  1
  Al  Al9  1  0.668329  0.668329  0.456808  1
  Al  Al10  1  0.339420  0.558240  0.252160  1
  Al  Al11  1  0.660580  0.441760  0.747840  1
  Al  Al12  1  0.558240  0.339420  0.252160  1
  Al  Al13  1  0.441760  0.660580  0.747840  1
  Al  Al14  1  0.999600  0.347884  0.077055  1
  Al  Al15  1  0.004438  0.663751  0.569501  1
  Al  Al16  1  0.336249  0.995562  0.430499  1
  Al  Al17  1  0.652116  0.000400  0.922945  1
  Al  Al18  1  0.000400  0.652116  0.922945  1
  Al  Al19  1  0.995562  0.336249  0.430499  1
  Al  Al20  1  0.663751  0.004438  0.569501  1
  Al  Al21  1  0.347884  0.999600  0.077055  1
  Zn  Zn22  1  0.000000  0.000000  0.000000  1
  Co  Co23  1  0.000000  0.000000  0.500000  1
  Co  Co24  1  0.671078  0.328922  0.000000  1
  Co  Co25  1  0.329024  0.670976  0.500000  1
  Co  Co26  1  0.328922  0.671078  0.000000  1
  Co  Co27  1  0.670976  0.329024  0.500000  1
