# generated using pymatgen
data_Zr6NiP5Ru6
_symmetry_space_group_name_H-M   'P 1'
_cell_length_a   7.52604757
_cell_length_b   7.55399278
_cell_length_c   7.52604710
_cell_angle_alpha   128.72437074
_cell_angle_beta   119.33416821
_cell_angle_gamma   83.26000354
_symmetry_Int_Tables_number   1
_chemical_formula_structural   Zr6NiP5Ru6
_chemical_formula_sum   'Zr6 Ni1 P5 Ru6'
_cell_volume   279.53120066
_cell_formula_units_Z   1
loop_
 _symmetry_equiv_pos_site_id
 _symmetry_equiv_pos_as_xyz
  1  'x, y, z'
loop_
 _atom_site_type_symbol
 _atom_site_label
 _atom_site_symmetry_multiplicity
 _atom_site_fract_x
 _atom_site_fract_y
 _atom_site_fract_z
 _atom_site_occupancy
  Zr  Zr0  1  0.446249  0.650994  0.704745  1
  Zr  Zr1  1  0.530851  0.250371  0.219520  1
  Zr  Zr2  1  0.748237  0.834177  0.585941  1
  Zr  Zr3  1  0.249357  0.845292  0.095934  1
  Zr  Zr4  1  0.060012  0.256520  0.696508  1
  Zr  Zr5  1  0.963388  0.679367  0.215978  1
  Ni  Ni6  1  0.258897  0.244169  0.485272  1
  P  P7  1  0.743338  0.262899  0.019560  1
  P  P8  1  0.332946  0.586431  0.252960  1
  P  P9  1  0.668939  0.920419  0.255832  1
  P  P10  1  0.164587  0.920419  0.751479  1
  P  P11  1  0.833472  0.586431  0.753485  1
  Ru  Ru12  1  0.504356  0.497899  0.003181  1
  Ru  Ru13  1  0.994717  0.497899  0.493543  1
  Ru  Ru14  1  0.092215  0.253932  0.100523  1
  Ru  Ru15  1  0.865283  0.009225  0.119478  1
  Ru  Ru16  1  0.389748  0.009225  0.643942  1
  Ru  Ru17  1  0.653409  0.253932  0.661717  1
