# generated using pymatgen
data_Nd2Sm3Fe6Co13
_symmetry_space_group_name_H-M   'P 1'
_cell_length_a   5.10997289
_cell_length_b   5.10997352
_cell_length_c   16.13960436
_cell_angle_alpha   80.89144724
_cell_angle_beta   80.89145839
_cell_angle_gamma   60.00000649
_symmetry_Int_Tables_number   1
_chemical_formula_structural   Nd2Sm3Fe6Co13
_chemical_formula_sum   'Nd2 Sm3 Fe6 Co13'
_cell_volume   358.82361213
_cell_formula_units_Z   1
loop_
 _symmetry_equiv_pos_site_id
 _symmetry_equiv_pos_as_xyz
  1  'x, y, z'
loop_
 _atom_site_type_symbol
 _atom_site_label
 _atom_site_symmetry_multiplicity
 _atom_site_fract_x
 _atom_site_fract_y
 _atom_site_fract_z
 _atom_site_occupancy
  Nd  Nd0  1  0.999700  0.999700  0.000899  1
  Nd  Nd1  1  0.079134  0.079134  0.762596  1
  Sm  Sm2  1  0.921035  0.921035  0.236897  1
  Sm  Sm3  1  0.153045  0.153045  0.540866  1
  Sm  Sm4  1  0.847217  0.847217  0.458347  1
  Fe  Fe5  1  0.250906  0.250906  0.247280  1
  Fe  Fe6  1  0.749142  0.749142  0.752574  1
  Fe  Fe7  1  0.333078  0.333078  0.000767  1
  Fe  Fe8  1  0.666687  0.666687  0.999939  1
  Fe  Fe9  1  0.415550  0.415550  0.753351  1
  Fe  Fe10  1  0.584496  0.584496  0.246511  1
  Co  Co11  1  0.500052  0.500052  0.499844  1
  Co  Co12  1  0.126231  0.621993  0.629783  1
  Co  Co13  1  0.621993  0.621993  0.629783  1
  Co  Co14  1  0.621993  0.126231  0.629783  1
  Co  Co15  1  0.873821  0.378339  0.369503  1
  Co  Co16  1  0.378339  0.378339  0.369503  1
  Co  Co17  1  0.378339  0.873821  0.369503  1
  Co  Co18  1  0.041363  0.540798  0.877040  1
  Co  Co19  1  0.540798  0.540798  0.877040  1
  Co  Co20  1  0.540798  0.041363  0.877040  1
  Co  Co21  1  0.958334  0.458975  0.123716  1
  Co  Co22  1  0.458975  0.458975  0.123716  1
  Co  Co23  1  0.458975  0.958334  0.123716  1
