# generated using pymatgen
data_La3Tb5(CdIr)2
_symmetry_space_group_name_H-M   'P 1'
_cell_length_a   9.83420717
_cell_length_b   9.83420774
_cell_length_c   9.83420800
_cell_angle_alpha   59.99999912
_cell_angle_beta   59.99999722
_cell_angle_gamma   60.00000005
_symmetry_Int_Tables_number   1
_chemical_formula_structural   La3Tb5(CdIr)2
_chemical_formula_sum   'La6 Tb10 Cd4 Ir4'
_cell_volume   672.51675885
_cell_formula_units_Z   2
loop_
 _symmetry_equiv_pos_site_id
 _symmetry_equiv_pos_as_xyz
  1  'x, y, z'
loop_
 _atom_site_type_symbol
 _atom_site_label
 _atom_site_symmetry_multiplicity
 _atom_site_fract_x
 _atom_site_fract_y
 _atom_site_fract_z
 _atom_site_occupancy
  La  La0  1  0.193193  0.806807  0.806807  1
  La  La1  1  0.806807  0.193193  0.193193  1
  La  La2  1  0.806807  0.193193  0.806807  1
  La  La3  1  0.193193  0.806807  0.193193  1
  La  La4  1  0.806807  0.806807  0.193193  1
  La  La5  1  0.193193  0.193193  0.806807  1
  Tb  Tb6  1  0.597763  0.597763  0.597763  1
  Tb  Tb7  1  0.597763  0.597763  0.206711  1
  Tb  Tb8  1  0.597763  0.206711  0.597763  1
  Tb  Tb9  1  0.206711  0.597763  0.597763  1
  Tb  Tb10  1  0.062164  0.437836  0.437836  1
  Tb  Tb11  1  0.437836  0.062164  0.062164  1
  Tb  Tb12  1  0.437836  0.062164  0.437836  1
  Tb  Tb13  1  0.062164  0.437836  0.062164  1
  Tb  Tb14  1  0.437836  0.437836  0.062164  1
  Tb  Tb15  1  0.062164  0.062164  0.437836  1
  Cd  Cd16  1  0.828989  0.828989  0.828989  1
  Cd  Cd17  1  0.828989  0.828989  0.513033  1
  Cd  Cd18  1  0.828989  0.513033  0.828989  1
  Cd  Cd19  1  0.513033  0.828989  0.828989  1
  Ir  Ir20  1  0.391373  0.391373  0.391373  1
  Ir  Ir21  1  0.391373  0.391373  0.825882  1
  Ir  Ir22  1  0.391373  0.825882  0.391373  1
  Ir  Ir23  1  0.825882  0.391373  0.391373  1
