# generated using pymatgen
data_PrDy(Al5Cu6)2
_symmetry_space_group_name_H-M   'P 1'
_cell_length_a   10.34029943
_cell_length_b   8.17881068
_cell_length_c   7.85909393
_cell_angle_alpha   80.26555001
_cell_angle_beta   51.22179112
_cell_angle_gamma   48.51264033
_symmetry_Int_Tables_number   1
_chemical_formula_structural   PrDy(Al5Cu6)2
_chemical_formula_sum   'Pr1 Dy1 Al10 Cu12'
_cell_volume   352.08380955
_cell_formula_units_Z   1
loop_
 _symmetry_equiv_pos_site_id
 _symmetry_equiv_pos_as_xyz
  1  'x, y, z'
loop_
 _atom_site_type_symbol
 _atom_site_label
 _atom_site_symmetry_multiplicity
 _atom_site_fract_x
 _atom_site_fract_y
 _atom_site_fract_z
 _atom_site_occupancy
  Pr  Pr0  1  0.000000  0.000000  0.000000  1
  Dy  Dy1  1  0.250000  0.250000  0.250000  1
  Al  Al2  1  0.500000  0.500000  0.500000  1
  Al  Al3  1  0.750000  0.750000  0.750000  1
  Al  Al4  1  0.754221  0.071289  0.834172  1
  Al  Al5  1  0.834172  0.340319  0.754221  1
  Al  Al6  1  0.071289  0.754221  0.340319  1
  Al  Al7  1  0.340319  0.834172  0.071289  1
  Al  Al8  1  0.492078  0.180539  0.417310  1
  Al  Al9  1  0.417310  0.910072  0.492078  1
  Al  Al10  1  0.180539  0.492078  0.910072  1
  Al  Al11  1  0.910072  0.417310  0.180539  1
  Cu  Cu12  1  0.626852  0.123288  0.622853  1
  Cu  Cu13  1  0.622853  0.627007  0.626852  1
  Cu  Cu14  1  0.123288  0.626852  0.627007  1
  Cu  Cu15  1  0.627007  0.622853  0.123288  1
  Cu  Cu16  1  0.487611  0.437200  0.184742  1
  Cu  Cu17  1  0.184742  0.890447  0.487611  1
  Cu  Cu18  1  0.437200  0.487611  0.890447  1
  Cu  Cu19  1  0.890447  0.184742  0.437200  1
  Cu  Cu20  1  0.757755  0.816013  0.067235  1
  Cu  Cu21  1  0.067235  0.358997  0.757755  1
  Cu  Cu22  1  0.816013  0.757755  0.358997  1
  Cu  Cu23  1  0.358997  0.067235  0.816013  1
