# generated using pymatgen
data_Tb3DyAl18ZnIr5
_symmetry_space_group_name_H-M   'P 1'
_cell_length_a   7.59101654
_cell_length_b   7.59086073
_cell_length_c   9.45487117
_cell_angle_alpha   90.03877016
_cell_angle_beta   90.01790575
_cell_angle_gamma   119.55032232
_symmetry_Int_Tables_number   1
_chemical_formula_structural   Tb3DyAl18ZnIr5
_chemical_formula_sum   'Tb3 Dy1 Al18 Zn1 Ir5'
_cell_volume   473.94408292
_cell_formula_units_Z   1
loop_
 _symmetry_equiv_pos_site_id
 _symmetry_equiv_pos_as_xyz
  1  'x, y, z'
loop_
 _atom_site_type_symbol
 _atom_site_label
 _atom_site_symmetry_multiplicity
 _atom_site_fract_x
 _atom_site_fract_y
 _atom_site_fract_z
 _atom_site_occupancy
  Tb  Tb0  1  0.005056  0.325698  0.750452  1
  Tb  Tb1  1  0.674385  0.994916  0.249543  1
  Tb  Tb2  1  0.325641  0.005063  0.750457  1
  Dy  Dy3  1  0.994956  0.674256  0.249747  1
  Al  Al4  1  0.134885  0.134721  0.256164  1
  Al  Al5  1  0.865018  0.864994  0.743815  1
  Al  Al6  1  0.001951  0.344388  0.078889  1
  Al  Al7  1  0.998043  0.655878  0.921428  1
  Al  Al8  1  0.000646  0.664763  0.571580  1
  Al  Al9  1  0.334975  0.999119  0.428061  1
  Al  Al10  1  0.999343  0.335447  0.428084  1
  Al  Al11  1  0.664778  0.000641  0.571788  1
  Al  Al12  1  0.655838  0.998034  0.921260  1
  Al  Al13  1  0.343880  0.001732  0.078858  1
  Al  Al14  1  0.333070  0.333057  0.551074  1
  Al  Al15  1  0.667152  0.666948  0.448763  1
  Al  Al16  1  0.658084  0.657868  0.059228  1
  Al  Al17  1  0.342158  0.342150  0.940932  1
  Al  Al18  1  0.338410  0.549911  0.251432  1
  Al  Al19  1  0.661461  0.450177  0.748564  1
  Al  Al20  1  0.550114  0.338754  0.251434  1
  Al  Al21  1  0.450185  0.661459  0.748566  1
  Zn  Zn22  1  0.000016  0.999964  0.000022  1
  Ir  Ir23  1  0.671791  0.328489  0.000114  1
  Ir  Ir24  1  0.328192  0.671623  0.000117  1
  Ir  Ir25  1  0.328414  0.671476  0.499883  1
  Ir  Ir26  1  0.671584  0.328648  0.499875  1
  Ir  Ir27  1  0.999974  0.999825  0.499867  1
