# generated using pymatgen
data_La3Be2Pt7
_symmetry_space_group_name_H-M   'P 1'
_cell_length_a   8.74436566
_cell_length_b   8.74436671
_cell_length_c   8.74436620
_cell_angle_alpha   37.05259971
_cell_angle_beta   37.05260234
_cell_angle_gamma   37.05259420
_symmetry_Int_Tables_number   1
_chemical_formula_structural   La3Be2Pt7
_chemical_formula_sum   'La3 Be2 Pt7'
_cell_volume   217.53278923
_cell_formula_units_Z   1
loop_
 _symmetry_equiv_pos_site_id
 _symmetry_equiv_pos_as_xyz
  1  'x, y, z'
loop_
 _atom_site_type_symbol
 _atom_site_label
 _atom_site_symmetry_multiplicity
 _atom_site_fract_x
 _atom_site_fract_y
 _atom_site_fract_z
 _atom_site_occupancy
  La  La0  1  0.858170  0.858170  0.858170  1
  La  La1  1  0.141830  0.141830  0.141830  1
  La  La2  1  0.000000  0.000000  0.000000  1
  Be  Be3  1  0.667558  0.667558  0.667558  1
  Be  Be4  1  0.332442  0.332442  0.332442  1
  Pt  Pt5  1  0.428906  0.928117  0.428906  1
  Pt  Pt6  1  0.428906  0.428906  0.928117  1
  Pt  Pt7  1  0.928117  0.428906  0.428906  1
  Pt  Pt8  1  0.571094  0.071883  0.571094  1
  Pt  Pt9  1  0.571094  0.571094  0.071883  1
  Pt  Pt10  1  0.071883  0.571094  0.571094  1
  Pt  Pt11  1  0.500000  0.500000  0.500000  1
