# generated using pymatgen
data_Dy7YIn3Os
_symmetry_space_group_name_H-M   'P 1'
_cell_length_a   10.38717100
_cell_length_b   10.38717215
_cell_length_c   7.12472100
_cell_angle_alpha   90.00000000
_cell_angle_beta   90.00000000
_cell_angle_gamma   119.99999952
_symmetry_Int_Tables_number   1
_chemical_formula_structural   Dy7YIn3Os
_chemical_formula_sum   'Dy14 Y2 In6 Os2'
_cell_volume   665.72230287
_cell_formula_units_Z   2
loop_
 _symmetry_equiv_pos_site_id
 _symmetry_equiv_pos_as_xyz
  1  'x, y, z'
loop_
 _atom_site_type_symbol
 _atom_site_label
 _atom_site_symmetry_multiplicity
 _atom_site_fract_x
 _atom_site_fract_y
 _atom_site_fract_z
 _atom_site_occupancy
  Dy  Dy0  1  0.466110  0.533890  0.480262  1
  Dy  Dy1  1  0.067780  0.533890  0.480262  1
  Dy  Dy2  1  0.466110  0.932220  0.480262  1
  Dy  Dy3  1  0.533890  0.466110  0.980262  1
  Dy  Dy4  1  0.932220  0.466110  0.980262  1
  Dy  Dy5  1  0.533890  0.067780  0.980262  1
  Dy  Dy6  1  0.822774  0.177226  0.275397  1
  Dy  Dy7  1  0.354452  0.177226  0.275397  1
  Dy  Dy8  1  0.822774  0.645548  0.275397  1
  Dy  Dy9  1  0.177226  0.822774  0.775397  1
  Dy  Dy10  1  0.645548  0.822774  0.775397  1
  Dy  Dy11  1  0.177226  0.354452  0.775397  1
  Dy  Dy12  1  0.333333  0.666667  0.104129  1
  Dy  Dy13  1  0.666667  0.333333  0.604129  1
  Y  Y14  1  0.000000  0.000000  0.496436  1
  Y  Y15  1  0.000000  0.000000  0.996436  1
  In  In16  1  0.162602  0.837398  0.232639  1
  In  In17  1  0.674795  0.837398  0.232639  1
  In  In18  1  0.162602  0.325205  0.232639  1
  In  In19  1  0.837398  0.162602  0.732639  1
  In  In20  1  0.325205  0.162602  0.732639  1
  In  In21  1  0.837398  0.674795  0.732639  1
  Os  Os22  1  0.333333  0.666667  0.706819  1
  Os  Os23  1  0.666667  0.333333  0.206819  1
