# generated using pymatgen
data_Pr7Ni2Hg
_symmetry_space_group_name_H-M   'P 1'
_cell_length_a   3.78723000
_cell_length_b   12.30561500
_cell_length_c   12.30561500
_cell_angle_alpha   90.00000000
_cell_angle_beta   90.00000000
_cell_angle_gamma   90.00000000
_symmetry_Int_Tables_number   1
_chemical_formula_structural   Pr7Ni2Hg
_chemical_formula_sum   'Pr14 Ni4 Hg2'
_cell_volume   573.49327240
_cell_formula_units_Z   2
loop_
 _symmetry_equiv_pos_site_id
 _symmetry_equiv_pos_as_xyz
  1  'x, y, z'
loop_
 _atom_site_type_symbol
 _atom_site_label
 _atom_site_symmetry_multiplicity
 _atom_site_fract_x
 _atom_site_fract_y
 _atom_site_fract_z
 _atom_site_occupancy
  Pr  Pr0  1  0.500000  0.000000  0.500000  1
  Pr  Pr1  1  0.500000  0.500000  0.000000  1
  Pr  Pr2  1  0.000000  0.320271  0.820271  1
  Pr  Pr3  1  0.000000  0.679729  0.179729  1
  Pr  Pr4  1  0.000000  0.179729  0.320271  1
  Pr  Pr5  1  0.000000  0.820271  0.679729  1
  Pr  Pr6  1  0.500000  0.562003  0.711823  1
  Pr  Pr7  1  0.500000  0.437997  0.288177  1
  Pr  Pr8  1  0.500000  0.937997  0.211823  1
  Pr  Pr9  1  0.500000  0.062003  0.788177  1
  Pr  Pr10  1  0.500000  0.711823  0.437997  1
  Pr  Pr11  1  0.500000  0.288177  0.562003  1
  Pr  Pr12  1  0.500000  0.211823  0.062003  1
  Pr  Pr13  1  0.500000  0.788177  0.937997  1
  Ni  Ni14  1  0.000000  0.128081  0.628081  1
  Ni  Ni15  1  0.000000  0.871919  0.371919  1
  Ni  Ni16  1  0.000000  0.371919  0.128081  1
  Ni  Ni17  1  0.000000  0.628081  0.871919  1
  Hg  Hg18  1  0.000000  0.500000  0.500000  1
  Hg  Hg19  1  0.000000  0.000000  0.000000  1
