# generated using pymatgen
data_Ce5Y(CoSi)4
_symmetry_space_group_name_H-M   'P 1'
_cell_length_a   5.48924100
_cell_length_b   7.87452400
_cell_length_c   12.31717900
_cell_angle_alpha   90.00000000
_cell_angle_beta   90.00000000
_cell_angle_gamma   90.00000000
_symmetry_Int_Tables_number   1
_chemical_formula_structural   Ce5Y(CoSi)4
_chemical_formula_sum   'Ce10 Y2 Co8 Si8'
_cell_volume   532.41203298
_cell_formula_units_Z   2
loop_
 _symmetry_equiv_pos_site_id
 _symmetry_equiv_pos_as_xyz
  1  'x, y, z'
loop_
 _atom_site_type_symbol
 _atom_site_label
 _atom_site_symmetry_multiplicity
 _atom_site_fract_x
 _atom_site_fract_y
 _atom_site_fract_z
 _atom_site_occupancy
  Ce  Ce0  1  0.655867  0.245797  0.750000  1
  Ce  Ce1  1  0.655867  0.254203  0.250000  1
  Ce  Ce2  1  0.157248  0.398006  0.408291  1
  Ce  Ce3  1  0.157248  0.101994  0.591709  1
  Ce  Ce4  1  0.838606  0.902304  0.091617  1
  Ce  Ce5  1  0.838606  0.597696  0.908383  1
  Ce  Ce6  1  0.838606  0.597696  0.591617  1
  Ce  Ce7  1  0.838606  0.902304  0.408383  1
  Ce  Ce8  1  0.157248  0.101994  0.908291  1
  Ce  Ce9  1  0.157248  0.398006  0.091709  1
  Y  Y10  1  0.346682  0.747357  0.750000  1
  Y  Y11  1  0.346682  0.752643  0.250000  1
  Co  Co12  1  0.379248  0.043594  0.413324  1
  Co  Co13  1  0.379248  0.456406  0.586676  1
  Co  Co14  1  0.622346  0.540087  0.087597  1
  Co  Co15  1  0.622346  0.959913  0.912403  1
  Co  Co16  1  0.379248  0.043594  0.086676  1
  Co  Co17  1  0.379248  0.456406  0.913324  1
  Co  Co18  1  0.622346  0.540087  0.412403  1
  Co  Co19  1  0.622346  0.959913  0.587597  1
  Si  Si20  1  0.646583  0.250000  0.500000  1
  Si  Si21  1  0.352779  0.750000  0.000000  1
  Si  Si22  1  0.352779  0.750000  0.500000  1
  Si  Si23  1  0.646583  0.250000  0.000000  1
  Si  Si24  1  0.841028  0.891477  0.750000  1
  Si  Si25  1  0.841028  0.608523  0.250000  1
  Si  Si26  1  0.162166  0.400652  0.750000  1
  Si  Si27  1  0.162166  0.099348  0.250000  1
