# generated using pymatgen
data_IrOs2(RuO4)3
_symmetry_space_group_name_H-M   'P 1'
_cell_length_a   4.54491009
_cell_length_b   4.54491324
_cell_length_c   9.52108200
_cell_angle_alpha   90.00000000
_cell_angle_beta   90.00000000
_cell_angle_gamma   89.97008459
_symmetry_Int_Tables_number   1
_chemical_formula_structural   IrOs2(RuO4)3
_chemical_formula_sum   'Ir1 Os2 Ru3 O12'
_cell_volume   196.66955695
_cell_formula_units_Z   1
loop_
 _symmetry_equiv_pos_site_id
 _symmetry_equiv_pos_as_xyz
  1  'x, y, z'
loop_
 _atom_site_type_symbol
 _atom_site_label
 _atom_site_symmetry_multiplicity
 _atom_site_fract_x
 _atom_site_fract_y
 _atom_site_fract_z
 _atom_site_occupancy
  Ir  Ir0  1  0.500002  0.499999  0.166383  1
  Os  Os1  1  0.000000  0.000000  0.999817  1
  Os  Os2  1  0.500002  0.499999  0.500391  1
  Ru  Ru3  1  0.000000  0.000000  0.334666  1
  Ru  Ru4  1  0.000000  0.000000  0.666497  1
  Ru  Ru5  1  0.500002  0.499999  0.831936  1
  O  O6  1  0.696439  0.303559  0.999226  1
  O  O7  1  0.303560  0.696443  0.999226  1
  O  O8  1  0.189613  0.189656  0.165031  1
  O  O9  1  0.810389  0.810346  0.165031  1
  O  O10  1  0.691066  0.308892  0.335268  1
  O  O11  1  0.308934  0.691108  0.335268  1
  O  O12  1  0.801357  0.801356  0.500158  1
  O  O13  1  0.198644  0.198645  0.500158  1
  O  O14  1  0.691143  0.308900  0.664428  1
  O  O15  1  0.308857  0.691100  0.664428  1
  O  O16  1  0.190700  0.190657  0.836045  1
  O  O17  1  0.809299  0.809341  0.836045  1
