# generated using pymatgen
data_TaTc2B3RuW2
_symmetry_space_group_name_H-M   'P 1'
_cell_length_a   3.09741400
_cell_length_b   8.99071200
_cell_length_c   15.60101400
_cell_angle_alpha   90.00000000
_cell_angle_beta   90.00000000
_cell_angle_gamma   90.00000000
_symmetry_Int_Tables_number   1
_chemical_formula_structural   TaTc2B3RuW2
_chemical_formula_sum   'Ta4 Tc8 B12 Ru4 W8'
_cell_volume   434.45637044
_cell_formula_units_Z   4
loop_
 _symmetry_equiv_pos_site_id
 _symmetry_equiv_pos_as_xyz
  1  'x, y, z'
loop_
 _atom_site_type_symbol
 _atom_site_label
 _atom_site_symmetry_multiplicity
 _atom_site_fract_x
 _atom_site_fract_y
 _atom_site_fract_z
 _atom_site_occupancy
  Ta  Ta0  1  0.000000  0.683581  0.203354  1
  Ta  Ta1  1  0.000000  0.316419  0.796646  1
  Ta  Ta2  1  0.000000  0.183581  0.296646  1
  Ta  Ta3  1  0.000000  0.816419  0.703354  1
  Tc  Tc4  1  0.500000  0.714822  0.355826  1
  Tc  Tc5  1  0.500000  0.285178  0.644174  1
  Tc  Tc6  1  0.500000  0.214822  0.144174  1
  Tc  Tc7  1  0.500000  0.785178  0.855826  1
  Tc  Tc8  1  0.500000  0.515658  0.092110  1
  Tc  Tc9  1  0.500000  0.484342  0.907890  1
  Tc  Tc10  1  0.500000  0.015658  0.407890  1
  Tc  Tc11  1  0.500000  0.984342  0.592110  1
  B  B12  1  0.500000  0.607562  0.495278  1
  B  B13  1  0.500000  0.392438  0.504722  1
  B  B14  1  0.500000  0.107562  0.004722  1
  B  B15  1  0.500000  0.892438  0.995278  1
  B  B16  1  0.000000  0.610966  0.833360  1
  B  B17  1  0.000000  0.389034  0.166640  1
  B  B18  1  0.000000  0.110966  0.666640  1
  B  B19  1  0.000000  0.889034  0.333360  1
  B  B20  1  0.500000  0.717235  0.598534  1
  B  B21  1  0.500000  0.282765  0.401466  1
  B  B22  1  0.500000  0.217235  0.901466  1
  B  B23  1  0.500000  0.782765  0.098534  1
  Ru  Ru24  1  0.500000  0.564282  0.732253  1
  Ru  Ru25  1  0.500000  0.435718  0.267747  1
  Ru  Ru26  1  0.500000  0.064282  0.767747  1
  Ru  Ru27  1  0.500000  0.935718  0.232253  1
  W  W28  1  0.000000  0.796741  0.495377  1
  W  W29  1  0.000000  0.203259  0.504623  1
  W  W30  1  0.000000  0.296741  0.004623  1
  W  W31  1  0.000000  0.703259  0.995377  1
  W  W32  1  0.000000  0.518390  0.590628  1
  W  W33  1  0.000000  0.481610  0.409372  1
  W  W34  1  0.000000  0.018390  0.909372  1
  W  W35  1  0.000000  0.981610  0.090628  1
