# generated using pymatgen
data_Tb4MgCo2Ag
_symmetry_space_group_name_H-M   'P 1'
_cell_length_a   8.53132054
_cell_length_b   8.53132163
_cell_length_c   8.53132100
_cell_angle_alpha   128.34350997
_cell_angle_beta   128.34351572
_cell_angle_gamma   76.06920834
_symmetry_Int_Tables_number   1
_chemical_formula_structural   Tb4MgCo2Ag
_chemical_formula_sum   'Tb8 Mg2 Co4 Ag2'
_cell_volume   371.33075828
_cell_formula_units_Z   2
loop_
 _symmetry_equiv_pos_site_id
 _symmetry_equiv_pos_as_xyz
  1  'x, y, z'
loop_
 _atom_site_type_symbol
 _atom_site_label
 _atom_site_symmetry_multiplicity
 _atom_site_fract_x
 _atom_site_fract_y
 _atom_site_fract_z
 _atom_site_occupancy
  Tb  Tb0  1  0.796264  0.296264  0.836250  1
  Tb  Tb1  1  0.203736  0.703736  0.163750  1
  Tb  Tb2  1  0.460015  0.960015  0.163750  1
  Tb  Tb3  1  0.296264  0.460015  0.500000  1
  Tb  Tb4  1  0.039985  0.203736  0.500000  1
  Tb  Tb5  1  0.539985  0.039985  0.836250  1
  Tb  Tb6  1  0.703736  0.539985  0.500000  1
  Tb  Tb7  1  0.960015  0.796264  0.500000  1
  Mg  Mg8  1  0.000000  0.000000  0.000000  1
  Mg  Mg9  1  0.500000  0.500000  0.000000  1
  Co  Co10  1  0.128727  0.628727  0.757454  1
  Co  Co11  1  0.871273  0.371273  0.242546  1
  Co  Co12  1  0.628727  0.871273  0.500000  1
  Co  Co13  1  0.371273  0.128727  0.500000  1
  Ag  Ag14  1  0.250000  0.250000  0.000000  1
  Ag  Ag15  1  0.750000  0.750000  0.000000  1
