# generated using pymatgen
data_HfMg2ZnRh4
_symmetry_space_group_name_H-M   'P 1'
_cell_length_a   6.27485500
_cell_length_b   6.27639900
_cell_length_c   6.23366200
_cell_angle_alpha   90.00000000
_cell_angle_beta   90.00011913
_cell_angle_gamma   90.00000000
_symmetry_Int_Tables_number   1
_chemical_formula_structural   HfMg2ZnRh4
_chemical_formula_sum   'Hf2 Mg4 Zn2 Rh8'
_cell_volume   245.50338778
_cell_formula_units_Z   2
loop_
 _symmetry_equiv_pos_site_id
 _symmetry_equiv_pos_as_xyz
  1  'x, y, z'
loop_
 _atom_site_type_symbol
 _atom_site_label
 _atom_site_symmetry_multiplicity
 _atom_site_fract_x
 _atom_site_fract_y
 _atom_site_fract_z
 _atom_site_occupancy
  Hf  Hf0  1  0.249938  0.750001  0.500072  1
  Hf  Hf1  1  0.750060  0.250001  0.500070  1
  Mg  Mg2  1  0.250094  0.250001  0.999933  1
  Mg  Mg3  1  0.749904  0.750001  0.999932  1
  Mg  Mg4  1  0.250022  0.250001  0.500091  1
  Mg  Mg5  1  0.749978  0.750001  0.500094  1
  Zn  Zn6  1  0.750048  0.250001  0.000121  1
  Zn  Zn7  1  0.249953  0.750001  0.000121  1
  Rh  Rh8  1  0.500002  0.999998  0.243292  1
  Rh  Rh9  1  0.500002  0.500002  0.243292  1
  Rh  Rh10  1  0.999999  0.999999  0.243208  1
  Rh  Rh11  1  0.999999  0.500001  0.243208  1
  Rh  Rh12  1  0.000002  0.000002  0.756658  1
  Rh  Rh13  1  0.000002  0.499998  0.756658  1
  Rh  Rh14  1  0.499999  0.000002  0.756623  1
  Rh  Rh15  1  0.499999  0.499998  0.756623  1
