# generated using pymatgen
data_TbTm4In4PtAu
_symmetry_space_group_name_H-M   'P 1'
_cell_length_a   3.63443500
_cell_length_b   8.14866445
_cell_length_c   18.26829700
_cell_angle_alpha   90.05273483
_cell_angle_beta   90.00000000
_cell_angle_gamma   90.00000000
_symmetry_Int_Tables_number   1
_chemical_formula_structural   TbTm4In4PtAu
_chemical_formula_sum   'Tb2 Tm8 In8 Pt2 Au2'
_cell_volume   541.02984194
_cell_formula_units_Z   2
loop_
 _symmetry_equiv_pos_site_id
 _symmetry_equiv_pos_as_xyz
  1  'x, y, z'
loop_
 _atom_site_type_symbol
 _atom_site_label
 _atom_site_symmetry_multiplicity
 _atom_site_fract_x
 _atom_site_fract_y
 _atom_site_fract_z
 _atom_site_occupancy
  Tb  Tb0  1  0.000000  0.000000  0.000000  1
  Tb  Tb1  1  0.000000  0.500000  0.500000  1
  Tm  Tm2  1  0.000000  0.119862  0.418483  1
  Tm  Tm3  1  0.000000  0.880138  0.581517  1
  Tm  Tm4  1  0.000000  0.384961  0.915609  1
  Tm  Tm5  1  0.000000  0.615039  0.084391  1
  Tm  Tm6  1  0.000000  0.252544  0.217540  1
  Tm  Tm7  1  0.000000  0.747456  0.782460  1
  Tm  Tm8  1  0.000000  0.268255  0.721443  1
  Tm  Tm9  1  0.000000  0.731745  0.278557  1
  In  In10  1  0.500000  0.422120  0.351885  1
  In  In11  1  0.500000  0.577880  0.648115  1
  In  In12  1  0.500000  0.078317  0.852148  1
  In  In13  1  0.500000  0.921683  0.147852  1
  In  In14  1  0.500000  0.293753  0.065882  1
  In  In15  1  0.500000  0.706247  0.934118  1
  In  In16  1  0.500000  0.207282  0.566902  1
  In  In17  1  0.500000  0.792718  0.433098  1
  Pt  Pt18  1  0.500000  0.473086  0.803789  1
  Pt  Pt19  1  0.500000  0.526914  0.196211  1
  Au  Au20  1  0.500000  0.027923  0.302352  1
  Au  Au21  1  0.500000  0.972077  0.697648  1
