# generated using pymatgen
data_Dy5Tm(Sc2Pb3)2
_symmetry_space_group_name_H-M   'P 1'
_cell_length_a   6.36183000
_cell_length_b   8.88702788
_cell_length_c   8.89605601
_cell_angle_alpha   120.03112360
_cell_angle_beta   89.99740209
_cell_angle_gamma   90.00269043
_symmetry_Int_Tables_number   1
_chemical_formula_structural   Dy5Tm(Sc2Pb3)2
_chemical_formula_sum   'Dy5 Tm1 Sc4 Pb6'
_cell_volume   435.44213643
_cell_formula_units_Z   1
loop_
 _symmetry_equiv_pos_site_id
 _symmetry_equiv_pos_as_xyz
  1  'x, y, z'
loop_
 _atom_site_type_symbol
 _atom_site_label
 _atom_site_symmetry_multiplicity
 _atom_site_fract_x
 _atom_site_fract_y
 _atom_site_fract_z
 _atom_site_occupancy
  Dy  Dy0  1  0.750002  0.238267  0.999796  1
  Dy  Dy1  1  0.749995  0.761664  0.761484  1
  Dy  Dy2  1  0.749993  0.999972  0.238787  1
  Dy  Dy3  1  0.249997  0.761563  0.999808  1
  Dy  Dy4  1  0.249990  0.238495  0.238281  1
  Tm  Tm5  1  0.249991  0.000027  0.761485  1
  Sc  Sc6  1  0.499934  0.333330  0.666733  1
  Sc  Sc7  1  0.499944  0.666657  0.333360  1
  Sc  Sc8  1  0.000079  0.666688  0.333364  1
  Sc  Sc9  1  0.000078  0.333358  0.666740  1
  Pb  Pb10  1  0.750000  0.601361  0.999991  1
  Pb  Pb11  1  0.750012  0.398586  0.398587  1
  Pb  Pb12  1  0.750009  0.000000  0.601370  1
  Pb  Pb13  1  0.249985  0.397916  0.999505  1
  Pb  Pb14  1  0.249997  0.602116  0.601621  1
  Pb  Pb15  1  0.249995  0.000000  0.399088  1
