# generated using pymatgen
data_TbPr3Nd4(CdPt)2
_symmetry_space_group_name_H-M   'P 1'
_cell_length_a   10.01369130
_cell_length_b   10.01369150
_cell_length_c   9.97901100
_cell_angle_alpha   60.11449604
_cell_angle_beta   60.11449538
_cell_angle_gamma   59.77100661
_symmetry_Int_Tables_number   1
_chemical_formula_structural   TbPr3Nd4(CdPt)2
_chemical_formula_sum   'Tb2 Pr6 Nd8 Cd4 Pt4'
_cell_volume   707.53922521
_cell_formula_units_Z   2
loop_
 _symmetry_equiv_pos_site_id
 _symmetry_equiv_pos_as_xyz
  1  'x, y, z'
loop_
 _atom_site_type_symbol
 _atom_site_label
 _atom_site_symmetry_multiplicity
 _atom_site_fract_x
 _atom_site_fract_y
 _atom_site_fract_z
 _atom_site_occupancy
  Tb  Tb0  1  0.191546  0.191546  0.808454  1
  Tb  Tb1  1  0.808454  0.808454  0.191546  1
  Pr  Pr2  1  0.936890  0.563110  0.563110  1
  Pr  Pr3  1  0.563110  0.936890  0.936890  1
  Pr  Pr4  1  0.563110  0.936890  0.563110  1
  Pr  Pr5  1  0.936890  0.563110  0.936890  1
  Pr  Pr6  1  0.563676  0.563676  0.936324  1
  Pr  Pr7  1  0.936324  0.936324  0.563676  1
  Nd  Nd8  1  0.350880  0.350880  0.350342  1
  Nd  Nd9  1  0.350880  0.350880  0.947898  1
  Nd  Nd10  1  0.350342  0.947898  0.350880  1
  Nd  Nd11  1  0.947898  0.350342  0.350880  1
  Nd  Nd12  1  0.810538  0.189462  0.189462  1
  Nd  Nd13  1  0.189462  0.810538  0.810538  1
  Nd  Nd14  1  0.189462  0.810538  0.189462  1
  Nd  Nd15  1  0.810538  0.189462  0.810538  1
  Cd  Cd16  1  0.580382  0.580382  0.579982  1
  Cd  Cd17  1  0.580382  0.580382  0.259255  1
  Cd  Cd18  1  0.579982  0.259255  0.580382  1
  Cd  Cd19  1  0.259255  0.579982  0.580382  1
  Pt  Pt20  1  0.145001  0.145001  0.136533  1
  Pt  Pt21  1  0.145001  0.145001  0.573464  1
  Pt  Pt22  1  0.136533  0.573464  0.145001  1
  Pt  Pt23  1  0.573464  0.136533  0.145001  1
