# generated using pymatgen
data_ErZr5(Sc2Sb3)2
_symmetry_space_group_name_H-M   'P 1'
_cell_length_a   8.50047551
_cell_length_b   8.60601456
_cell_length_c   5.87437100
_cell_angle_alpha   90.00000000
_cell_angle_beta   90.00000000
_cell_angle_gamma   119.71032165
_symmetry_Int_Tables_number   1
_chemical_formula_structural   ErZr5(Sc2Sb3)2
_chemical_formula_sum   'Er1 Zr5 Sc4 Sb6'
_cell_volume   373.24810843
_cell_formula_units_Z   1
loop_
 _symmetry_equiv_pos_site_id
 _symmetry_equiv_pos_as_xyz
  1  'x, y, z'
loop_
 _atom_site_type_symbol
 _atom_site_label
 _atom_site_symmetry_multiplicity
 _atom_site_fract_x
 _atom_site_fract_y
 _atom_site_fract_z
 _atom_site_occupancy
  Er  Er0  1  0.756000  0.998298  0.250000  1
  Zr  Zr1  1  0.999119  0.739579  0.250000  1
  Zr  Zr2  1  0.667073  0.333512  0.000198  1
  Zr  Zr3  1  0.333744  0.669606  0.000218  1
  Zr  Zr4  1  0.333744  0.669606  0.499782  1
  Zr  Zr5  1  0.667073  0.333512  0.499802  1
  Sc  Sc6  1  0.742928  0.743295  0.750000  1
  Sc  Sc7  1  0.249597  0.000132  0.750000  1
  Sc  Sc8  1  0.999744  0.259182  0.750000  1
  Sc  Sc9  1  0.255742  0.254779  0.250000  1
  Sb  Sb10  1  0.382318  0.382952  0.750000  1
  Sb  Sb11  1  0.615456  0.000432  0.750000  1
  Sb  Sb12  1  0.999718  0.616556  0.750000  1
  Sb  Sb13  1  0.610595  0.607986  0.250000  1
  Sb  Sb14  1  0.382777  0.001618  0.250000  1
  Sb  Sb15  1  0.004375  0.388959  0.250000  1
