# generated using pymatgen
data_ErTiReB6
_symmetry_space_group_name_H-M   'P 1'
_cell_length_a   3.52454400
_cell_length_b   8.85775600
_cell_length_c   11.22958600
_cell_angle_alpha   90.00000000
_cell_angle_beta   90.00000000
_cell_angle_gamma   90.00000000
_symmetry_Int_Tables_number   1
_chemical_formula_structural   ErTiReB6
_chemical_formula_sum   'Er4 Ti4 Re4 B24'
_cell_volume   350.58263018
_cell_formula_units_Z   4
loop_
 _symmetry_equiv_pos_site_id
 _symmetry_equiv_pos_as_xyz
  1  'x, y, z'
loop_
 _atom_site_type_symbol
 _atom_site_label
 _atom_site_symmetry_multiplicity
 _atom_site_fract_x
 _atom_site_fract_y
 _atom_site_fract_z
 _atom_site_occupancy
  Er  Er0  1  0.000000  0.319710  0.413662  1
  Er  Er1  1  0.000000  0.680290  0.586338  1
  Er  Er2  1  0.000000  0.819710  0.086338  1
  Er  Er3  1  0.000000  0.180290  0.913662  1
  Ti  Ti4  1  0.000000  0.945425  0.374285  1
  Ti  Ti5  1  0.000000  0.054575  0.625715  1
  Ti  Ti6  1  0.000000  0.445425  0.125715  1
  Ti  Ti7  1  0.000000  0.554575  0.874285  1
  Re  Re8  1  0.000000  0.642399  0.316573  1
  Re  Re9  1  0.000000  0.357601  0.683427  1
  Re  Re10  1  0.000000  0.142399  0.183427  1
  Re  Re11  1  0.000000  0.857601  0.816573  1
  B  B12  1  0.500000  0.554187  0.433398  1
  B  B13  1  0.500000  0.445813  0.566602  1
  B  B14  1  0.500000  0.054187  0.066602  1
  B  B15  1  0.500000  0.945813  0.933398  1
  B  B16  1  0.500000  0.756541  0.418506  1
  B  B17  1  0.500000  0.243459  0.581494  1
  B  B18  1  0.500000  0.256541  0.081494  1
  B  B19  1  0.500000  0.743459  0.918506  1
  B  B20  1  0.500000  0.796952  0.264385  1
  B  B21  1  0.500000  0.203048  0.735615  1
  B  B22  1  0.500000  0.296952  0.235615  1
  B  B23  1  0.500000  0.703048  0.764385  1
  B  B24  1  0.500000  0.628105  0.181035  1
  B  B25  1  0.500000  0.371895  0.818965  1
  B  B26  1  0.500000  0.128105  0.318965  1
  B  B27  1  0.500000  0.871895  0.681035  1
  B  B28  1  0.500000  0.980634  0.214221  1
  B  B29  1  0.500000  0.019366  0.785779  1
  B  B30  1  0.500000  0.480634  0.285779  1
  B  B31  1  0.500000  0.519366  0.714221  1
  B  B32  1  0.500000  0.596584  0.025860  1
  B  B33  1  0.500000  0.403416  0.974140  1
  B  B34  1  0.500000  0.096584  0.474140  1
  B  B35  1  0.500000  0.903416  0.525860  1
