# generated using pymatgen
data_MnZn8Pd3O16
_symmetry_space_group_name_H-M   'P 1'
_cell_length_a   6.09575300
_cell_length_b   6.09793011
_cell_length_c   8.55654700
_cell_angle_alpha   89.56331011
_cell_angle_beta   90.00000000
_cell_angle_gamma   90.00000000
_symmetry_Int_Tables_number   1
_chemical_formula_structural   MnZn8Pd3O16
_chemical_formula_sum   'Mn1 Zn8 Pd3 O16'
_cell_volume   318.05024161
_cell_formula_units_Z   1
loop_
 _symmetry_equiv_pos_site_id
 _symmetry_equiv_pos_as_xyz
  1  'x, y, z'
loop_
 _atom_site_type_symbol
 _atom_site_label
 _atom_site_symmetry_multiplicity
 _atom_site_fract_x
 _atom_site_fract_y
 _atom_site_fract_z
 _atom_site_occupancy
  Mn  Mn0  1  0.756410  0.500000  0.750000  1
  Zn  Zn1  1  0.999288  0.239020  0.997877  1
  Zn  Zn2  1  0.999288  0.760980  0.502123  1
  Zn  Zn3  1  0.253131  0.248788  0.627326  1
  Zn  Zn4  1  0.253131  0.751212  0.872674  1
  Zn  Zn5  1  0.235083  0.000000  0.250000  1
  Zn  Zn6  1  0.763966  0.000000  0.750000  1
  Zn  Zn7  1  0.748016  0.252423  0.376788  1
  Zn  Zn8  1  0.748016  0.747577  0.123212  1
  Pd  Pd9  1  0.247563  0.500000  0.250000  1
  Pd  Pd10  1  0.501133  0.747549  0.502370  1
  Pd  Pd11  1  0.501133  0.252451  0.997630  1
  O  O12  1  0.526596  0.732913  0.739656  1
  O  O13  1  0.526596  0.267087  0.760344  1
  O  O14  1  0.739763  0.978623  0.506784  1
  O  O15  1  0.739763  0.021377  0.993216  1
  O  O16  1  0.742947  0.512764  0.521753  1
  O  O17  1  0.742947  0.487236  0.978247  1
  O  O18  1  0.974846  0.728664  0.750313  1
  O  O19  1  0.974846  0.271336  0.749687  1
  O  O20  1  0.016587  0.738939  0.255333  1
  O  O21  1  0.016587  0.261061  0.244667  1
  O  O22  1  0.254868  0.518618  0.487687  1
  O  O23  1  0.254868  0.481382  0.012313  1
  O  O24  1  0.261228  0.978790  0.497846  1
  O  O25  1  0.261228  0.021210  0.002154  1
  O  O26  1  0.480086  0.744234  0.263600  1
  O  O27  1  0.480086  0.255766  0.236400  1
