# generated using pymatgen
data_La16Mg3CdOs3Pt
_symmetry_space_group_name_H-M   'P 1'
_cell_length_a   10.12701966
_cell_length_b   10.21493282
_cell_length_c   10.21493300
_cell_angle_alpha   60.00000267
_cell_angle_beta   59.71241797
_cell_angle_gamma   59.71241943
_symmetry_Int_Tables_number   1
_chemical_formula_structural   La16Mg3CdOs3Pt
_chemical_formula_sum   'La16 Mg3 Cd1 Os3 Pt1'
_cell_volume   743.93702582
_cell_formula_units_Z   1
loop_
 _symmetry_equiv_pos_site_id
 _symmetry_equiv_pos_as_xyz
  1  'x, y, z'
loop_
 _atom_site_type_symbol
 _atom_site_label
 _atom_site_symmetry_multiplicity
 _atom_site_fract_x
 _atom_site_fract_y
 _atom_site_fract_z
 _atom_site_occupancy
  La  La0  1  0.591654  0.598628  0.598628  1
  La  La1  1  0.591654  0.598628  0.211091  1
  La  La2  1  0.591654  0.211091  0.598628  1
  La  La3  1  0.219443  0.593520  0.593520  1
  La  La4  1  0.068079  0.438612  0.438612  1
  La  La5  1  0.437583  0.062568  0.062568  1
  La  La6  1  0.437583  0.062568  0.437280  1
  La  La7  1  0.068079  0.438612  0.054698  1
  La  La8  1  0.437583  0.437280  0.062568  1
  La  La9  1  0.068079  0.054698  0.438612  1
  La  La10  1  0.191402  0.809378  0.809378  1
  La  La11  1  0.805169  0.190331  0.190331  1
  La  La12  1  0.805169  0.190331  0.814168  1
  La  La13  1  0.191402  0.809378  0.189842  1
  La  La14  1  0.805169  0.814168  0.190331  1
  La  La15  1  0.191402  0.189842  0.809378  1
  Mg  Mg16  1  0.827229  0.828907  0.828907  1
  Mg  Mg17  1  0.827229  0.828907  0.514958  1
  Mg  Mg18  1  0.827229  0.514958  0.828907  1
  Cd  Cd19  1  0.510645  0.829785  0.829785  1
  Os  Os20  1  0.392418  0.387625  0.387625  1
  Os  Os21  1  0.392418  0.387625  0.832331  1
  Os  Os22  1  0.392418  0.832331  0.387625  1
  Pt  Pt23  1  0.829314  0.390229  0.390229  1
