# generated using pymatgen
data_Y6CrB14Ru
_symmetry_space_group_name_H-M   'P 1'
_cell_length_a   8.07982106
_cell_length_b   8.07982072
_cell_length_c   9.35548200
_cell_angle_alpha   90.00000000
_cell_angle_beta   90.00000000
_cell_angle_gamma   155.06952631
_symmetry_Int_Tables_number   1
_chemical_formula_structural   Y6CrB14Ru
_chemical_formula_sum   'Y6 Cr1 B14 Ru1'
_cell_volume   257.44587962
_cell_formula_units_Z   1
loop_
 _symmetry_equiv_pos_site_id
 _symmetry_equiv_pos_as_xyz
  1  'x, y, z'
loop_
 _atom_site_type_symbol
 _atom_site_label
 _atom_site_symmetry_multiplicity
 _atom_site_fract_x
 _atom_site_fract_y
 _atom_site_fract_z
 _atom_site_occupancy
  Y  Y0  1  0.756306  0.243694  0.250000  1
  Y  Y1  1  0.241984  0.758016  0.750000  1
  Y  Y2  1  0.894520  0.105480  0.561642  1
  Y  Y3  1  0.105494  0.894506  0.441064  1
  Y  Y4  1  0.105494  0.894506  0.058936  1
  Y  Y5  1  0.894520  0.105480  0.938358  1
  Cr  Cr6  1  0.052665  0.947335  0.750000  1
  B  B7  1  0.542225  0.457775  0.250000  1
  B  B8  1  0.458572  0.541428  0.750000  1
  B  B9  1  0.521083  0.478917  0.903459  1
  B  B10  1  0.479394  0.520606  0.095800  1
  B  B11  1  0.479394  0.520606  0.404200  1
  B  B12  1  0.521083  0.478917  0.596541  1
  B  B13  1  0.630940  0.369060  0.847976  1
  B  B14  1  0.368809  0.631191  0.150668  1
  B  B15  1  0.727673  0.272327  0.966461  1
  B  B16  1  0.273237  0.726763  0.034178  1
  B  B17  1  0.273237  0.726763  0.465822  1
  B  B18  1  0.727673  0.272327  0.533539  1
  B  B19  1  0.630940  0.369060  0.652024  1
  B  B20  1  0.368809  0.631191  0.349332  1
  Ru  Ru21  1  0.945946  0.054054  0.250000  1
