# generated using pymatgen
data_Tm2Co3P7Ru9
_symmetry_space_group_name_H-M   'P 1'
_cell_length_a   9.31098100
_cell_length_b   9.31098068
_cell_length_c   3.81488500
_cell_angle_alpha   90.00000000
_cell_angle_beta   90.00000000
_cell_angle_gamma   119.99999758
_symmetry_Int_Tables_number   1
_chemical_formula_structural   Tm2Co3P7Ru9
_chemical_formula_sum   'Tm2 Co3 P7 Ru9'
_cell_volume   286.41974838
_cell_formula_units_Z   1
loop_
 _symmetry_equiv_pos_site_id
 _symmetry_equiv_pos_as_xyz
  1  'x, y, z'
loop_
 _atom_site_type_symbol
 _atom_site_label
 _atom_site_symmetry_multiplicity
 _atom_site_fract_x
 _atom_site_fract_y
 _atom_site_fract_z
 _atom_site_occupancy
  Tm  Tm0  1  0.666667  0.333333  0.000000  1
  Tm  Tm1  1  0.000000  0.000000  0.500000  1
  Co  Co2  1  0.491006  0.936346  0.000000  1
  Co  Co3  1  0.063654  0.554660  0.000000  1
  Co  Co4  1  0.445340  0.508994  0.000000  1
  P  P5  1  0.333333  0.666667  0.000000  1
  P  P6  1  0.449315  0.068814  0.500000  1
  P  P7  1  0.931186  0.380501  0.500000  1
  P  P8  1  0.619499  0.550685  0.500000  1
  P  P9  1  0.744230  0.966921  0.000000  1
  P  P10  1  0.033079  0.777308  0.000000  1
  P  P11  1  0.222692  0.255770  0.000000  1
  Ru  Ru12  1  0.760715  0.729094  0.000000  1
  Ru  Ru13  1  0.270906  0.031620  0.000000  1
  Ru  Ru14  1  0.968380  0.239285  0.000000  1
  Ru  Ru15  1  0.715451  0.102863  0.500000  1
  Ru  Ru16  1  0.897137  0.612587  0.500000  1
  Ru  Ru17  1  0.387413  0.284549  0.500000  1
  Ru  Ru18  1  0.540089  0.752346  0.500000  1
  Ru  Ru19  1  0.247654  0.787744  0.500000  1
  Ru  Ru20  1  0.212256  0.459911  0.500000  1
