# generated using pymatgen
data_LuZrBIr5Rh
_symmetry_space_group_name_H-M   'P 1'
_cell_length_a   5.76476747
_cell_length_b   5.76476751
_cell_length_c   5.74625400
_cell_angle_alpha   60.10617858
_cell_angle_beta   60.10617835
_cell_angle_gamma   60.07939557
_symmetry_Int_Tables_number   1
_chemical_formula_structural   LuZrBIr5Rh
_chemical_formula_sum   'Lu1 Zr1 B1 Ir5 Rh1'
_cell_volume   135.32850742
_cell_formula_units_Z   1
loop_
 _symmetry_equiv_pos_site_id
 _symmetry_equiv_pos_as_xyz
  1  'x, y, z'
loop_
 _atom_site_type_symbol
 _atom_site_label
 _atom_site_symmetry_multiplicity
 _atom_site_fract_x
 _atom_site_fract_y
 _atom_site_fract_z
 _atom_site_occupancy
  Lu  Lu0  1  0.750143  0.750143  0.749857  1
  Zr  Zr1  1  0.249657  0.249657  0.250343  1
  B  B2  1  0.000205  0.000205  0.999795  1
  Ir  Ir3  1  0.257811  0.741728  0.258167  1
  Ir  Ir4  1  0.741728  0.257811  0.258167  1
  Ir  Ir5  1  0.258734  0.258734  0.741266  1
  Ir  Ir6  1  0.741728  0.257811  0.742295  1
  Ir  Ir7  1  0.257811  0.741728  0.742295  1
  Rh  Rh8  1  0.742184  0.742184  0.257816  1
