# generated using pymatgen
data_TmMgB6Ir
_symmetry_space_group_name_H-M   'P 1'
_cell_length_a   3.53540500
_cell_length_b   8.88483800
_cell_length_c   11.28549500
_cell_angle_alpha   90.00000000
_cell_angle_beta   90.00000000
_cell_angle_gamma   90.00000000
_symmetry_Int_Tables_number   1
_chemical_formula_structural   TmMgB6Ir
_chemical_formula_sum   'Tm4 Mg4 B24 Ir4'
_cell_volume   354.49433397
_cell_formula_units_Z   4
loop_
 _symmetry_equiv_pos_site_id
 _symmetry_equiv_pos_as_xyz
  1  'x, y, z'
loop_
 _atom_site_type_symbol
 _atom_site_label
 _atom_site_symmetry_multiplicity
 _atom_site_fract_x
 _atom_site_fract_y
 _atom_site_fract_z
 _atom_site_occupancy
  Tm  Tm0  1  0.500000  0.317899  0.414410  1
  Tm  Tm1  1  0.500000  0.682101  0.585590  1
  Tm  Tm2  1  0.500000  0.182101  0.914410  1
  Tm  Tm3  1  0.500000  0.817899  0.085590  1
  Mg  Mg4  1  0.500000  0.448060  0.118254  1
  Mg  Mg5  1  0.500000  0.551940  0.881746  1
  Mg  Mg6  1  0.500000  0.051940  0.618254  1
  Mg  Mg7  1  0.500000  0.948060  0.381746  1
  B  B8  1  0.000000  0.101153  0.472641  1
  B  B9  1  0.000000  0.898847  0.527359  1
  B  B10  1  0.000000  0.398847  0.972641  1
  B  B11  1  0.000000  0.601153  0.027359  1
  B  B12  1  0.000000  0.127941  0.319164  1
  B  B13  1  0.000000  0.872059  0.680836  1
  B  B14  1  0.000000  0.372059  0.819164  1
  B  B15  1  0.000000  0.627941  0.180836  1
  B  B16  1  0.000000  0.055370  0.066480  1
  B  B17  1  0.000000  0.944630  0.933520  1
  B  B18  1  0.000000  0.444630  0.566480  1
  B  B19  1  0.000000  0.555370  0.433520  1
  B  B20  1  0.000000  0.480827  0.285084  1
  B  B21  1  0.000000  0.519173  0.714916  1
  B  B22  1  0.000000  0.019173  0.785084  1
  B  B23  1  0.000000  0.980827  0.214916  1
  B  B24  1  0.000000  0.255135  0.079104  1
  B  B25  1  0.000000  0.744865  0.920896  1
  B  B26  1  0.000000  0.244865  0.579104  1
  B  B27  1  0.000000  0.755135  0.420896  1
  B  B28  1  0.000000  0.293903  0.235017  1
  B  B29  1  0.000000  0.706097  0.764983  1
  B  B30  1  0.000000  0.206097  0.735017  1
  B  B31  1  0.000000  0.793903  0.264983  1
  Ir  Ir32  1  0.500000  0.140231  0.181563  1
  Ir  Ir33  1  0.500000  0.859769  0.818437  1
  Ir  Ir34  1  0.500000  0.359769  0.681563  1
  Ir  Ir35  1  0.500000  0.640231  0.318437  1
