# generated using pymatgen
data_Yb3YAs3
_symmetry_space_group_name_H-M   'P 1'
_cell_length_a   7.64951186
_cell_length_b   7.70422688
_cell_length_c   7.64951184
_cell_angle_alpha   109.54403982
_cell_angle_beta   109.16548600
_cell_angle_gamma   109.54404298
_symmetry_Int_Tables_number   1
_chemical_formula_structural   Yb3YAs3
_chemical_formula_sum   'Yb6 Y2 As6'
_cell_volume   347.71624779
_cell_formula_units_Z   2
loop_
 _symmetry_equiv_pos_site_id
 _symmetry_equiv_pos_as_xyz
  1  'x, y, z'
loop_
 _atom_site_type_symbol
 _atom_site_label
 _atom_site_symmetry_multiplicity
 _atom_site_fract_x
 _atom_site_fract_y
 _atom_site_fract_z
 _atom_site_occupancy
  Yb  Yb0  1  0.364038  0.359324  0.365319  1
  Yb  Yb1  1  0.998608  0.134546  0.494093  1
  Yb  Yb2  1  0.865319  0.859324  0.864038  1
  Yb  Yb3  1  0.994093  0.634546  0.498608  1
  Yb  Yb4  1  0.636940  0.506204  0.004543  1
  Yb  Yb5  1  0.504543  0.006204  0.136940  1
  Y  Y6  1  0.136673  0.500042  0.000404  1
  Y  Y7  1  0.500404  0.000042  0.636673  1
  As  As8  1  0.876062  0.249485  0.115426  1
  As  As9  1  0.131715  0.870690  0.252589  1
  As  As10  1  0.371912  0.629710  0.751677  1
  As  As11  1  0.251677  0.129710  0.871912  1
  As  As12  1  0.752589  0.370690  0.631715  1
  As  As13  1  0.615426  0.749485  0.376062  1
