# generated using pymatgen
data_Ce3TiZn2Ir3
_symmetry_space_group_name_H-M   'P 1'
_cell_length_a   7.20595024
_cell_length_b   6.98653986
_cell_length_c   4.12673200
_cell_angle_alpha   90.00000000
_cell_angle_beta   90.00000000
_cell_angle_gamma   118.99777780
_symmetry_Int_Tables_number   1
_chemical_formula_structural   Ce3TiZn2Ir3
_chemical_formula_sum   'Ce3 Ti1 Zn2 Ir3'
_cell_volume   181.71394654
_cell_formula_units_Z   1
loop_
 _symmetry_equiv_pos_site_id
 _symmetry_equiv_pos_as_xyz
  1  'x, y, z'
loop_
 _atom_site_type_symbol
 _atom_site_label
 _atom_site_symmetry_multiplicity
 _atom_site_fract_x
 _atom_site_fract_y
 _atom_site_fract_z
 _atom_site_occupancy
  Ce  Ce0  1  0.428853  0.420548  0.000000  1
  Ce  Ce1  1  0.571147  0.991695  0.000000  1
  Ce  Ce2  1  0.000000  0.599354  0.000000  1
  Ti  Ti3  1  0.000000  0.230120  0.500000  1
  Zn  Zn4  1  0.759767  0.762192  0.500000  1
  Zn  Zn5  1  0.240233  0.002425  0.500000  1
  Ir  Ir6  1  0.000000  0.025847  0.000000  1
  Ir  Ir7  1  0.684533  0.326176  0.500000  1
  Ir  Ir8  1  0.315467  0.641643  0.500000  1
