# generated using pymatgen
data_YbHo2Lu3(Si3Ru)8
_symmetry_space_group_name_H-M   'P 1'
_cell_length_a   10.10186222
_cell_length_b   10.10184777
_cell_length_c   8.10698301
_cell_angle_alpha   89.95788891
_cell_angle_beta   90.04288236
_cell_angle_gamma   132.65784047
_symmetry_Int_Tables_number   1
_chemical_formula_structural   YbHo2Lu3(Si3Ru)8
_chemical_formula_sum   'Yb1 Ho2 Lu3 Si24 Ru8'
_cell_volume   608.40520431
_cell_formula_units_Z   1
loop_
 _symmetry_equiv_pos_site_id
 _symmetry_equiv_pos_as_xyz
  1  'x, y, z'
loop_
 _atom_site_type_symbol
 _atom_site_label
 _atom_site_symmetry_multiplicity
 _atom_site_fract_x
 _atom_site_fract_y
 _atom_site_fract_z
 _atom_site_occupancy
  Yb  Yb0  1  0.502077  0.002077  0.749999  1
  Ho  Ho1  1  0.497132  0.997141  0.250013  1
  Ho  Ho2  1  0.002719  0.502719  0.749989  1
  Lu  Lu3  1  0.500242  0.500421  0.500416  1
  Lu  Lu4  1  0.000413  0.000241  0.999579  1
  Lu  Lu5  1  0.998734  0.498737  0.250005  1
  Si  Si6  1  0.794868  0.205164  0.499330  1
  Si  Si7  1  0.294783  0.705432  0.999388  1
  Si  Si8  1  0.205454  0.794783  0.500612  1
  Si  Si9  1  0.705161  0.294885  0.000671  1
  Si  Si10  1  0.332062  0.333638  0.832853  1
  Si  Si11  1  0.667391  0.668760  0.166984  1
  Si  Si12  1  0.168742  0.167372  0.333004  1
  Si  Si13  1  0.833650  0.832082  0.667153  1
  Si  Si14  1  0.120668  0.886212  0.728905  1
  Si  Si15  1  0.110960  0.877516  0.272149  1
  Si  Si16  1  0.611551  0.378363  0.228688  1
  Si  Si17  1  0.623725  0.389787  0.771216  1
  Si  Si18  1  0.878397  0.111591  0.271323  1
  Si  Si19  1  0.889767  0.123717  0.728777  1
  Si  Si20  1  0.386255  0.620699  0.771084  1
  Si  Si21  1  0.377498  0.610930  0.227854  1
  Si  Si22  1  0.345348  0.112080  0.502810  1
  Si  Si23  1  0.887970  0.654890  0.494626  1
  Si  Si24  1  0.387606  0.154015  0.006119  1
  Si  Si25  1  0.844681  0.612180  0.994968  1
  Si  Si26  1  0.654031  0.887628  0.493905  1
  Si  Si27  1  0.112161  0.344668  0.505010  1
  Si  Si28  1  0.612094  0.845354  0.997173  1
  Si  Si29  1  0.154873  0.387942  0.005389  1
  Ru  Ru30  1  0.670632  0.331457  0.498825  1
  Ru  Ru31  1  0.167313  0.828802  0.002188  1
  Ru  Ru32  1  0.328814  0.667309  0.497809  1
  Ru  Ru33  1  0.831440  0.170631  0.001174  1
  Ru  Ru34  1  0.126997  0.126637  0.627642  1
  Ru  Ru35  1  0.873347  0.873799  0.372747  1
  Ru  Ru36  1  0.373806  0.373351  0.127274  1
  Ru  Ru37  1  0.626634  0.626992  0.872348  1
