# generated using pymatgen
data_Hf4MnSb2
_symmetry_space_group_name_H-M   'P 1'
_cell_length_a   8.10502966
_cell_length_b   8.10506418
_cell_length_c   8.10502977
_cell_angle_alpha   96.15754880
_cell_angle_beta   96.14003900
_cell_angle_gamma   141.79236131
_symmetry_Int_Tables_number   1
_chemical_formula_structural   Hf4MnSb2
_chemical_formula_sum   'Hf8 Mn2 Sb4'
_cell_volume   311.18157515
_cell_formula_units_Z   2
loop_
 _symmetry_equiv_pos_site_id
 _symmetry_equiv_pos_as_xyz
  1  'x, y, z'
loop_
 _atom_site_type_symbol
 _atom_site_label
 _atom_site_symmetry_multiplicity
 _atom_site_fract_x
 _atom_site_fract_y
 _atom_site_fract_z
 _atom_site_occupancy
  Hf  Hf0  1  0.697817  0.581848  0.279688  1
  Hf  Hf1  1  0.302183  0.418152  0.720312  1
  Hf  Hf2  1  0.581849  0.302246  0.884056  1
  Hf  Hf3  1  0.081809  0.197754  0.279602  1
  Hf  Hf4  1  0.802160  0.081848  0.884031  1
  Hf  Hf5  1  0.418151  0.697754  0.115944  1
  Hf  Hf6  1  0.918191  0.802246  0.720398  1
  Hf  Hf7  1  0.197840  0.918152  0.115969  1
  Mn  Mn8  1  0.250039  0.250000  0.000039  1
  Mn  Mn9  1  0.749961  0.750000  0.999961  1
  Sb  Sb10  1  0.142178  0.642148  0.784327  1
  Sb  Sb11  1  0.357823  0.142148  0.499970  1
  Sb  Sb12  1  0.857822  0.357852  0.215673  1
  Sb  Sb13  1  0.642177  0.857852  0.500030  1
