# generated using pymatgen
data_Cs5Rb3Ba4(ZrAs4)2
_symmetry_space_group_name_H-M   'P 1'
_cell_length_a   11.10462391
_cell_length_b   11.22131305
_cell_length_c   8.23053905
_cell_angle_alpha   87.84336729
_cell_angle_beta   88.03101357
_cell_angle_gamma   119.68184520
_symmetry_Int_Tables_number   1
_chemical_formula_structural   Cs5Rb3Ba4(ZrAs4)2
_chemical_formula_sum   'Cs5 Rb3 Ba4 Zr2 As8'
_cell_volume   888.73352695
_cell_formula_units_Z   1
loop_
 _symmetry_equiv_pos_site_id
 _symmetry_equiv_pos_as_xyz
  1  'x, y, z'
loop_
 _atom_site_type_symbol
 _atom_site_label
 _atom_site_symmetry_multiplicity
 _atom_site_fract_x
 _atom_site_fract_y
 _atom_site_fract_z
 _atom_site_occupancy
  Cs  Cs0  1  0.256828  0.121740  0.242124  1
  Cs  Cs1  1  0.856621  0.142167  0.190583  1
  Cs  Cs2  1  0.121789  0.258093  0.742893  1
  Cs  Cs3  1  0.724473  0.869003  0.656805  1
  Cs  Cs4  1  0.141295  0.856075  0.689132  1
  Rb  Rb5  1  0.473643  0.938684  0.386201  1
  Rb  Rb6  1  0.938852  0.474558  0.886519  1
  Rb  Rb7  1  0.865934  0.717089  0.165663  1
  Ba  Ba8  1  0.072613  0.535838  0.399100  1
  Ba  Ba9  1  0.477946  0.534174  0.377061  1
  Ba  Ba10  1  0.535746  0.075576  0.898135  1
  Ba  Ba11  1  0.534037  0.477164  0.876320  1
  Zr  Zr12  1  0.665197  0.337466  0.487821  1
  Zr  Zr13  1  0.336633  0.665254  0.990990  1
  As  As14  1  0.636895  0.328870  0.165816  1
  As  As15  1  0.328926  0.636741  0.669365  1
  As  As16  1  0.215634  0.416085  0.134685  1
  As  As17  1  0.598223  0.789880  0.075629  1
  As  As18  1  0.211428  0.796680  0.097973  1
  As  As19  1  0.793361  0.596050  0.568618  1
  As  As20  1  0.415015  0.215864  0.636196  1
  As  As21  1  0.798721  0.216762  0.597703  1
