# generated using pymatgen
data_Dy3Cd2CuPt2Pb
_symmetry_space_group_name_H-M   'P 1'
_cell_length_a   7.78689007
_cell_length_b   7.85448291
_cell_length_c   3.72961200
_cell_angle_alpha   90.00000000
_cell_angle_beta   90.00000000
_cell_angle_gamma   120.28755457
_symmetry_Int_Tables_number   1
_chemical_formula_structural   Dy3Cd2CuPt2Pb
_chemical_formula_sum   'Dy3 Cd2 Cu1 Pt2 Pb1'
_cell_volume   196.97459390
_cell_formula_units_Z   1
loop_
 _symmetry_equiv_pos_site_id
 _symmetry_equiv_pos_as_xyz
  1  'x, y, z'
loop_
 _atom_site_type_symbol
 _atom_site_label
 _atom_site_symmetry_multiplicity
 _atom_site_fract_x
 _atom_site_fract_y
 _atom_site_fract_z
 _atom_site_occupancy
  Dy  Dy0  1  0.000000  0.406057  0.500000  1
  Dy  Dy1  1  0.578890  0.582870  0.500000  1
  Dy  Dy2  1  0.421110  0.003981  0.500000  1
  Cd  Cd3  1  0.253304  0.254627  0.000000  1
  Cd  Cd4  1  0.746696  0.001323  0.000000  1
  Cu  Cu5  1  0.000000  0.007310  0.500000  1
  Pt  Pt6  1  0.337409  0.666203  0.000000  1
  Pt  Pt7  1  0.662591  0.328793  0.000000  1
  Pb  Pb8  1  0.000000  0.748836  0.000000  1
