# generated using pymatgen
data_CsGaAu4
_symmetry_space_group_name_H-M   'P 1'
_cell_length_a   5.84932300
_cell_length_b   7.27158200
_cell_length_c   14.01166600
_cell_angle_alpha   90.00000000
_cell_angle_beta   90.00000000
_cell_angle_gamma   90.00000000
_symmetry_Int_Tables_number   1
_chemical_formula_structural   CsGaAu4
_chemical_formula_sum   'Cs4 Ga4 Au16'
_cell_volume   595.96984543
_cell_formula_units_Z   4
loop_
 _symmetry_equiv_pos_site_id
 _symmetry_equiv_pos_as_xyz
  1  'x, y, z'
loop_
 _atom_site_type_symbol
 _atom_site_label
 _atom_site_symmetry_multiplicity
 _atom_site_fract_x
 _atom_site_fract_y
 _atom_site_fract_z
 _atom_site_occupancy
  Cs  Cs0  1  0.239066  0.102048  0.076892  1
  Cs  Cs1  1  0.260934  0.397952  0.576892  1
  Cs  Cs2  1  0.739066  0.897952  0.923108  1
  Cs  Cs3  1  0.760934  0.602048  0.423108  1
  Ga  Ga4  1  0.998725  0.896435  0.651632  1
  Ga  Ga5  1  0.501275  0.603565  0.151632  1
  Ga  Ga6  1  0.498725  0.103565  0.348368  1
  Ga  Ga7  1  0.001275  0.396435  0.848368  1
  Au  Au8  1  0.991964  0.110845  0.343841  1
  Au  Au9  1  0.508036  0.389155  0.843841  1
  Au  Au10  1  0.491964  0.889155  0.656159  1
  Au  Au11  1  0.008036  0.610845  0.156159  1
  Au  Au12  1  0.219040  0.100339  0.787786  1
  Au  Au13  1  0.280960  0.399661  0.287786  1
  Au  Au14  1  0.719040  0.899661  0.212214  1
  Au  Au15  1  0.780960  0.600339  0.712214  1
  Au  Au16  1  0.230837  0.702666  0.794986  1
  Au  Au17  1  0.269163  0.797334  0.294986  1
  Au  Au18  1  0.730837  0.297334  0.205014  1
  Au  Au19  1  0.769163  0.202666  0.705014  1
  Au  Au20  1  0.272762  0.573730  0.990539  1
  Au  Au21  1  0.227238  0.926270  0.490539  1
  Au  Au22  1  0.772762  0.426270  0.009461  1
  Au  Au23  1  0.727238  0.073730  0.509461  1
