# generated using pymatgen
data_TbDy7Tc3B24Ru
_symmetry_space_group_name_H-M   'P 1'
_cell_length_a   3.68644200
_cell_length_b   9.16458498
_cell_length_c   11.55315504
_cell_angle_alpha   89.92039889
_cell_angle_beta   90.00000000
_cell_angle_gamma   90.00000000
_symmetry_Int_Tables_number   1
_chemical_formula_structural   TbDy7Tc3B24Ru
_chemical_formula_sum   'Tb1 Dy7 Tc3 B24 Ru1'
_cell_volume   390.31962759
_cell_formula_units_Z   1
loop_
 _symmetry_equiv_pos_site_id
 _symmetry_equiv_pos_as_xyz
  1  'x, y, z'
loop_
 _atom_site_type_symbol
 _atom_site_label
 _atom_site_symmetry_multiplicity
 _atom_site_fract_x
 _atom_site_fract_y
 _atom_site_fract_z
 _atom_site_occupancy
  Tb  Tb0  1  0.000000  0.323722  0.413932  1
  Dy  Dy1  1  0.000000  0.674956  0.583956  1
  Dy  Dy2  1  0.000000  0.823239  0.087222  1
  Dy  Dy3  1  0.000000  0.177684  0.914686  1
  Dy  Dy4  1  0.000000  0.942343  0.370059  1
  Dy  Dy5  1  0.000000  0.057853  0.630915  1
  Dy  Dy6  1  0.000000  0.442894  0.130138  1
  Dy  Dy7  1  0.000000  0.558088  0.869030  1
  Tc  Tc8  1  0.000000  0.638391  0.320570  1
  Tc  Tc9  1  0.000000  0.361824  0.680000  1
  Tc  Tc10  1  0.000000  0.137747  0.178156  1
  B  B11  1  0.500000  0.553253  0.432705  1
  B  B12  1  0.500000  0.446782  0.567014  1
  B  B13  1  0.500000  0.053076  0.066939  1
  B  B14  1  0.500000  0.946128  0.932734  1
  B  B15  1  0.500000  0.748191  0.418507  1
  B  B16  1  0.500000  0.251123  0.581881  1
  B  B17  1  0.500000  0.248745  0.081347  1
  B  B18  1  0.500000  0.751940  0.918256  1
  B  B19  1  0.500000  0.791380  0.265560  1
  B  B20  1  0.500000  0.208844  0.735246  1
  B  B21  1  0.500000  0.291201  0.234292  1
  B  B22  1  0.500000  0.709688  0.765343  1
  B  B23  1  0.500000  0.631254  0.185629  1
  B  B24  1  0.500000  0.369011  0.814812  1
  B  B25  1  0.500000  0.130394  0.313790  1
  B  B26  1  0.500000  0.868750  0.685989  1
  B  B27  1  0.500000  0.981995  0.211659  1
  B  B28  1  0.500000  0.016522  0.788565  1
  B  B29  1  0.500000  0.482718  0.287853  1
  B  B30  1  0.500000  0.517524  0.711587  1
  B  B31  1  0.500000  0.602558  0.028188  1
  B  B32  1  0.500000  0.399087  0.971449  1
  B  B33  1  0.500000  0.101382  0.472082  1
  B  B34  1  0.500000  0.897894  0.528833  1
  Ru  Ru35  1  0.000000  0.861821  0.821078  1
