# generated using pymatgen
data_Mg2SnPd5
_symmetry_space_group_name_H-M   'P 1'
_cell_length_a   4.24359900
_cell_length_b   5.59932600
_cell_length_c   11.01578900
_cell_angle_alpha   90.00000000
_cell_angle_beta   90.00000000
_cell_angle_gamma   90.00000000
_symmetry_Int_Tables_number   1
_chemical_formula_structural   Mg2SnPd5
_chemical_formula_sum   'Mg4 Sn2 Pd10'
_cell_volume   261.74940343
_cell_formula_units_Z   2
loop_
 _symmetry_equiv_pos_site_id
 _symmetry_equiv_pos_as_xyz
  1  'x, y, z'
loop_
 _atom_site_type_symbol
 _atom_site_label
 _atom_site_symmetry_multiplicity
 _atom_site_fract_x
 _atom_site_fract_y
 _atom_site_fract_z
 _atom_site_occupancy
  Mg  Mg0  1  0.500000  0.172267  0.140685  1
  Mg  Mg1  1  0.500000  0.827733  0.859315  1
  Mg  Mg2  1  0.500000  0.327733  0.640685  1
  Mg  Mg3  1  0.500000  0.672267  0.359315  1
  Sn  Sn4  1  0.000000  0.000000  0.500000  1
  Sn  Sn5  1  0.000000  0.500000  0.000000  1
  Pd  Pd6  1  0.500000  0.193838  0.386954  1
  Pd  Pd7  1  0.500000  0.806162  0.613046  1
  Pd  Pd8  1  0.500000  0.306162  0.886954  1
  Pd  Pd9  1  0.500000  0.693838  0.113046  1
  Pd  Pd10  1  0.000000  0.422868  0.244826  1
  Pd  Pd11  1  0.000000  0.577132  0.755174  1
  Pd  Pd12  1  0.000000  0.077132  0.744826  1
  Pd  Pd13  1  0.000000  0.922868  0.255174  1
  Pd  Pd14  1  0.000000  0.000000  0.000000  1
  Pd  Pd15  1  0.000000  0.500000  0.500000  1
