# generated using pymatgen
data_Hf18Ta6Re2SiP
_symmetry_space_group_name_H-M   'P 1'
_cell_length_a   8.70451000
_cell_length_b   8.70451018
_cell_length_c   8.81227100
_cell_angle_alpha   90.00000000
_cell_angle_beta   90.00000000
_cell_angle_gamma   119.99999930
_symmetry_Int_Tables_number   1
_chemical_formula_structural   Hf18Ta6Re2SiP
_chemical_formula_sum   'Hf18 Ta6 Re2 Si1 P1'
_cell_volume   578.23868788
_cell_formula_units_Z   1
loop_
 _symmetry_equiv_pos_site_id
 _symmetry_equiv_pos_as_xyz
  1  'x, y, z'
loop_
 _atom_site_type_symbol
 _atom_site_label
 _atom_site_symmetry_multiplicity
 _atom_site_fract_x
 _atom_site_fract_y
 _atom_site_fract_z
 _atom_site_occupancy
  Hf  Hf0  1  0.197737  0.802263  0.452280  1
  Hf  Hf1  1  0.197737  0.395474  0.452280  1
  Hf  Hf2  1  0.604526  0.802263  0.452280  1
  Hf  Hf3  1  0.801453  0.198547  0.549476  1
  Hf  Hf4  1  0.801453  0.602906  0.549476  1
  Hf  Hf5  1  0.397094  0.198547  0.549476  1
  Hf  Hf6  1  0.801453  0.198547  0.950524  1
  Hf  Hf7  1  0.801453  0.602906  0.950524  1
  Hf  Hf8  1  0.397094  0.198547  0.950524  1
  Hf  Hf9  1  0.197737  0.802263  0.047720  1
  Hf  Hf10  1  0.197737  0.395474  0.047720  1
  Hf  Hf11  1  0.604526  0.802263  0.047720  1
  Hf  Hf12  1  0.537572  0.462428  0.250000  1
  Hf  Hf13  1  0.537572  0.075143  0.250000  1
  Hf  Hf14  1  0.924857  0.462428  0.250000  1
  Hf  Hf15  1  0.462413  0.537587  0.750000  1
  Hf  Hf16  1  0.462413  0.924828  0.750000  1
  Hf  Hf17  1  0.075172  0.537587  0.750000  1
  Ta  Ta18  1  0.889001  0.110999  0.250000  1
  Ta  Ta19  1  0.889001  0.778001  0.250000  1
  Ta  Ta20  1  0.221999  0.110999  0.250000  1
  Ta  Ta21  1  0.110943  0.889057  0.750000  1
  Ta  Ta22  1  0.110943  0.221888  0.750000  1
  Ta  Ta23  1  0.778112  0.889057  0.750000  1
  Re  Re24  1  0.000000  0.000000  0.500017  1
  Re  Re25  1  0.000000  0.000000  0.999983  1
  Si  Si26  1  0.333333  0.666667  0.250000  1
  P  P27  1  0.666667  0.333333  0.750000  1
