# generated using pymatgen
data_Mn7Nb12Ga5N4
_symmetry_space_group_name_H-M   'P 1'
_cell_length_a   8.19283579
_cell_length_b   8.15828744
_cell_length_c   8.15828800
_cell_angle_alpha   59.99999773
_cell_angle_beta   60.13939382
_cell_angle_gamma   60.13939685
_symmetry_Int_Tables_number   1
_chemical_formula_structural   Mn7Nb12Ga5N4
_chemical_formula_sum   'Mn7 Nb12 Ga5 N4'
_cell_volume   386.39287997
_cell_formula_units_Z   1
loop_
 _symmetry_equiv_pos_site_id
 _symmetry_equiv_pos_as_xyz
  1  'x, y, z'
loop_
 _atom_site_type_symbol
 _atom_site_label
 _atom_site_symmetry_multiplicity
 _atom_site_fract_x
 _atom_site_fract_y
 _atom_site_fract_z
 _atom_site_occupancy
  Mn  Mn0  1  0.104481  0.631840  0.631840  1
  Mn  Mn1  1  0.641498  0.110241  0.624130  1
  Mn  Mn2  1  0.641498  0.624130  0.110241  1
  Mn  Mn3  1  0.641498  0.624130  0.624130  1
  Mn  Mn4  1  0.829265  0.524194  0.823270  1
  Mn  Mn5  1  0.829265  0.823270  0.524194  1
  Mn  Mn6  1  0.829265  0.823270  0.823270  1
  Nb  Nb7  1  0.806524  0.807561  0.192958  1
  Nb  Nb8  1  0.187361  0.201663  0.805489  1
  Nb  Nb9  1  0.806524  0.192958  0.807561  1
  Nb  Nb10  1  0.187361  0.805489  0.201663  1
  Nb  Nb11  1  0.187361  0.805489  0.805489  1
  Nb  Nb12  1  0.806524  0.192958  0.192958  1
  Nb  Nb13  1  0.443350  0.443284  0.056683  1
  Nb  Nb14  1  0.058890  0.055109  0.443001  1
  Nb  Nb15  1  0.443350  0.056683  0.443284  1
  Nb  Nb16  1  0.058890  0.443001  0.055109  1
  Nb  Nb17  1  0.058890  0.443001  0.443001  1
  Nb  Nb18  1  0.443350  0.056683  0.056683  1
  Ga  Ga19  1  0.754914  0.415029  0.415029  1
  Ga  Ga20  1  0.416816  0.750877  0.416155  1
  Ga  Ga21  1  0.416816  0.416155  0.750877  1
  Ga  Ga22  1  0.416816  0.416155  0.416155  1
  Ga  Ga23  1  0.493212  0.835596  0.835596  1
  N  N24  1  0.626736  0.124422  0.124422  1
  N  N25  1  0.123183  0.627015  0.124901  1
  N  N26  1  0.123183  0.124901  0.627015  1
  N  N27  1  0.123183  0.124901  0.124901  1
