# generated using pymatgen
data_Er6Al24CuRu7
_symmetry_space_group_name_H-M   'P 1'
_cell_length_a   8.79638740
_cell_length_b   8.79638721
_cell_length_c   9.51123530
_cell_angle_alpha   89.69093128
_cell_angle_beta   90.30907187
_cell_angle_gamma   119.69951576
_symmetry_Int_Tables_number   1
_chemical_formula_structural   Er6Al24CuRu7
_chemical_formula_sum   'Er6 Al24 Cu1 Ru7'
_cell_volume   639.25603528
_cell_formula_units_Z   1
loop_
 _symmetry_equiv_pos_site_id
 _symmetry_equiv_pos_as_xyz
  1  'x, y, z'
loop_
 _atom_site_type_symbol
 _atom_site_label
 _atom_site_symmetry_multiplicity
 _atom_site_fract_x
 _atom_site_fract_y
 _atom_site_fract_z
 _atom_site_occupancy
  Er  Er0  1  0.192560  0.387747  0.248898  1
  Er  Er1  1  0.807440  0.612253  0.751102  1
  Er  Er2  1  0.612253  0.807440  0.248898  1
  Er  Er3  1  0.387747  0.192560  0.751102  1
  Er  Er4  1  0.195292  0.804708  0.251095  1
  Er  Er5  1  0.804708  0.195292  0.748905  1
  Al  Al6  1  0.332180  0.667820  0.021527  1
  Al  Al7  1  0.667820  0.332180  0.978473  1
  Al  Al8  1  0.666516  0.333484  0.516592  1
  Al  Al9  1  0.333484  0.666516  0.483408  1
  Al  Al10  1  0.163359  0.324230  0.578429  1
  Al  Al11  1  0.836641  0.675770  0.421571  1
  Al  Al12  1  0.675770  0.836641  0.578429  1
  Al  Al13  1  0.843476  0.676554  0.079580  1
  Al  Al14  1  0.324230  0.163359  0.421571  1
  Al  Al15  1  0.156524  0.323446  0.920420  1
  Al  Al16  1  0.162571  0.837429  0.578211  1
  Al  Al17  1  0.323446  0.156524  0.079580  1
  Al  Al18  1  0.837429  0.162571  0.421789  1
  Al  Al19  1  0.676554  0.843476  0.920420  1
  Al  Al20  1  0.836921  0.163079  0.077323  1
  Al  Al21  1  0.163079  0.836921  0.922677  1
  Al  Al22  1  0.560504  0.121468  0.248358  1
  Al  Al23  1  0.439496  0.878532  0.751642  1
  Al  Al24  1  0.878532  0.439496  0.248358  1
  Al  Al25  1  0.121468  0.560504  0.751642  1
  Al  Al26  1  0.560760  0.439240  0.249696  1
  Al  Al27  1  0.439240  0.560760  0.750304  1
  Al  Al28  1  0.999303  0.000697  0.250140  1
  Al  Al29  1  0.000697  0.999303  0.749860  1
  Cu  Cu30  1  0.500000  0.500000  0.000000  1
  Ru  Ru31  1  0.500000  0.000000  0.000000  1
  Ru  Ru32  1  0.000000  0.500000  0.000000  1
  Ru  Ru33  1  0.500000  0.000000  0.500000  1
  Ru  Ru34  1  0.000000  0.500000  0.500000  1
  Ru  Ru35  1  0.500000  0.500000  0.500000  1
  Ru  Ru36  1  0.000000  0.000000  0.000000  1
  Ru  Ru37  1  0.000000  0.000000  0.500000  1
