# generated using pymatgen
data_Ho4Tm16SiBi11
_symmetry_space_group_name_H-M   'P 1'
_cell_length_a   8.12041669
_cell_length_b   9.38352300
_cell_length_c   11.89054031
_cell_angle_alpha   90.00000000
_cell_angle_beta   90.20185917
_cell_angle_gamma   90.00000000
_symmetry_Int_Tables_number   1
_chemical_formula_structural   Ho4Tm16SiBi11
_chemical_formula_sum   'Ho4 Tm16 Si1 Bi11'
_cell_volume   906.03115659
_cell_formula_units_Z   1
loop_
 _symmetry_equiv_pos_site_id
 _symmetry_equiv_pos_as_xyz
  1  'x, y, z'
loop_
 _atom_site_type_symbol
 _atom_site_label
 _atom_site_symmetry_multiplicity
 _atom_site_fract_x
 _atom_site_fract_y
 _atom_site_fract_z
 _atom_site_occupancy
  Ho  Ho0  1  0.314834  0.250000  0.218631  1
  Ho  Ho1  1  0.812915  0.250000  0.281841  1
  Ho  Ho2  1  0.668909  0.750000  0.791776  1
  Ho  Ho3  1  0.191281  0.750000  0.723265  1
  Tm  Tm4  1  0.355345  0.750000  0.204589  1
  Tm  Tm5  1  0.851827  0.750000  0.282714  1
  Tm  Tm6  1  0.648766  0.250000  0.782995  1
  Tm  Tm7  1  0.148037  0.250000  0.718651  1
  Tm  Tm8  1  0.681610  0.573658  0.054660  1
  Tm  Tm9  1  0.192423  0.933545  0.439160  1
  Tm  Tm10  1  0.311131  0.048656  0.940592  1
  Tm  Tm11  1  0.807615  0.434629  0.559892  1
  Tm  Tm12  1  0.311131  0.451344  0.940592  1
  Tm  Tm13  1  0.807615  0.065371  0.559892  1
  Tm  Tm14  1  0.681610  0.926342  0.054660  1
  Tm  Tm15  1  0.192423  0.566455  0.439160  1
  Tm  Tm16  1  0.476932  0.250000  0.488711  1
  Tm  Tm17  1  0.980521  0.250000  0.009897  1
  Tm  Tm18  1  0.524730  0.750000  0.511538  1
  Tm  Tm19  1  0.037864  0.750000  0.988934  1
  Si  Si20  1  0.408494  0.750000  0.964009  1
  Bi  Bi21  1  0.906831  0.750000  0.543922  1
  Bi  Bi22  1  0.595408  0.250000  0.041218  1
  Bi  Bi23  1  0.095552  0.250000  0.458940  1
  Bi  Bi24  1  0.565023  0.994375  0.325426  1
  Bi  Bi25  1  0.064535  0.504003  0.174183  1
  Bi  Bi26  1  0.434681  0.494768  0.674227  1
  Bi  Bi27  1  0.933861  0.002471  0.826045  1
  Bi  Bi28  1  0.434681  0.005232  0.674227  1
  Bi  Bi29  1  0.933861  0.497529  0.826045  1
  Bi  Bi30  1  0.565023  0.505625  0.325426  1
  Bi  Bi31  1  0.064535  0.995997  0.174183  1
