# generated using pymatgen
data_Li8ErTm7Sn7Bi
_symmetry_space_group_name_H-M   'P 1'
_cell_length_a   9.36854714
_cell_length_b   9.36854800
_cell_length_c   7.13972506
_cell_angle_alpha   90.08652190
_cell_angle_beta   89.91347919
_cell_angle_gamma   119.98096350
_symmetry_Int_Tables_number   1
_chemical_formula_structural   Li8ErTm7Sn7Bi
_chemical_formula_sum   'Li8 Er1 Tm7 Sn7 Bi1'
_cell_volume   542.79928651
_cell_formula_units_Z   1
loop_
 _symmetry_equiv_pos_site_id
 _symmetry_equiv_pos_as_xyz
  1  'x, y, z'
loop_
 _atom_site_type_symbol
 _atom_site_label
 _atom_site_symmetry_multiplicity
 _atom_site_fract_x
 _atom_site_fract_y
 _atom_site_fract_z
 _atom_site_occupancy
  Li  Li0  1  0.829695  0.664692  0.711641  1
  Li  Li1  1  0.833245  0.166755  0.713117  1
  Li  Li2  1  0.335120  0.664880  0.822056  1
  Li  Li3  1  0.666503  0.333497  0.321164  1
  Li  Li4  1  0.666052  0.832825  0.212933  1
  Li  Li5  1  0.167175  0.333948  0.212933  1
  Li  Li6  1  0.166791  0.833209  0.214806  1
  Li  Li7  1  0.335308  0.170305  0.711641  1
  Er  Er8  1  0.997484  0.002516  0.003670  1
  Tm  Tm9  1  0.997970  0.002030  0.498073  1
  Tm  Tm10  1  0.511379  0.488621  0.006623  1
  Tm  Tm11  1  0.019568  0.506295  0.503401  1
  Tm  Tm12  1  0.493705  0.980432  0.503401  1
  Tm  Tm13  1  0.516037  0.024557  0.009444  1
  Tm  Tm14  1  0.975443  0.483963  0.009444  1
  Tm  Tm15  1  0.488632  0.511368  0.506075  1
  Sn  Sn16  1  0.666956  0.333044  0.740710  1
  Sn  Sn17  1  0.332798  0.667202  0.240957  1
  Sn  Sn18  1  0.833219  0.166781  0.269562  1
  Sn  Sn19  1  0.166293  0.333457  0.769554  1
  Sn  Sn20  1  0.333232  0.165928  0.269634  1
  Sn  Sn21  1  0.834072  0.666768  0.269634  1
  Sn  Sn22  1  0.666543  0.833707  0.769554  1
  Bi  Bi23  1  0.166779  0.833221  0.767974  1
