# generated using pymatgen
data_La12Al3Ge5Ir8
_symmetry_space_group_name_H-M   'P 1'
_cell_length_a   5.83762400
_cell_length_b   8.29622532
_cell_length_c   13.68533957
_cell_angle_alpha   89.96740401
_cell_angle_beta   90.00000000
_cell_angle_gamma   90.00000000
_symmetry_Int_Tables_number   1
_chemical_formula_structural   La12Al3Ge5Ir8
_chemical_formula_sum   'La12 Al3 Ge5 Ir8'
_cell_volume   662.78422833
_cell_formula_units_Z   1
loop_
 _symmetry_equiv_pos_site_id
 _symmetry_equiv_pos_as_xyz
  1  'x, y, z'
loop_
 _atom_site_type_symbol
 _atom_site_label
 _atom_site_symmetry_multiplicity
 _atom_site_fract_x
 _atom_site_fract_y
 _atom_site_fract_z
 _atom_site_occupancy
  La  La0  1  0.150044  0.895570  0.599306  1
  La  La1  1  0.850720  0.106789  0.098057  1
  La  La2  1  0.150044  0.604430  0.400694  1
  La  La3  1  0.850720  0.393211  0.901943  1
  La  La4  1  0.849978  0.104329  0.400676  1
  La  La5  1  0.151284  0.896707  0.900417  1
  La  La6  1  0.849978  0.395671  0.599324  1
  La  La7  1  0.151284  0.603293  0.099583  1
  La  La8  1  0.365162  0.251064  0.750813  1
  La  La9  1  0.636051  0.748442  0.248498  1
  La  La10  1  0.365162  0.248936  0.249187  1
  La  La11  1  0.636051  0.751558  0.751502  1
  Al  Al12  1  0.381185  0.250000  0.500000  1
  Al  Al13  1  0.617931  0.750000  0.000000  1
  Al  Al14  1  0.618683  0.750000  0.500000  1
  Ge  Ge15  1  0.855866  0.103448  0.749928  1
  Ge  Ge16  1  0.143962  0.896522  0.249455  1
  Ge  Ge17  1  0.855866  0.396552  0.250072  1
  Ge  Ge18  1  0.143962  0.603478  0.750545  1
  Ge  Ge19  1  0.368474  0.250000  0.000000  1
  Ir  Ir20  1  0.628059  0.030980  0.591390  1
  Ir  Ir21  1  0.373292  0.966209  0.091762  1
  Ir  Ir22  1  0.628059  0.469020  0.408610  1
  Ir  Ir23  1  0.373292  0.533791  0.908238  1
  Ir  Ir24  1  0.370890  0.969740  0.408921  1
  Ir  Ir25  1  0.631554  0.030309  0.910281  1
  Ir  Ir26  1  0.370890  0.530260  0.591079  1
  Ir  Ir27  1  0.631554  0.469691  0.089719  1
