# generated using pymatgen
data_Tb2Al9CuOs2
_symmetry_space_group_name_H-M   'P 1'
_cell_length_a   7.57733523
_cell_length_b   7.57733391
_cell_length_c   9.51796500
_cell_angle_alpha   90.00000000
_cell_angle_beta   90.00000000
_cell_angle_gamma   119.73145821
_symmetry_Int_Tables_number   1
_chemical_formula_structural   Tb2Al9CuOs2
_chemical_formula_sum   'Tb4 Al18 Cu2 Os4'
_cell_volume   474.54403262
_cell_formula_units_Z   2
loop_
 _symmetry_equiv_pos_site_id
 _symmetry_equiv_pos_as_xyz
  1  'x, y, z'
loop_
 _atom_site_type_symbol
 _atom_site_label
 _atom_site_symmetry_multiplicity
 _atom_site_fract_x
 _atom_site_fract_y
 _atom_site_fract_z
 _atom_site_occupancy
  Tb  Tb0  1  0.995908  0.668562  0.250000  1
  Tb  Tb1  1  0.004092  0.331438  0.750000  1
  Tb  Tb2  1  0.668562  0.995908  0.250000  1
  Tb  Tb3  1  0.331438  0.004092  0.750000  1
  Al  Al4  1  0.127424  0.127424  0.250000  1
  Al  Al5  1  0.872576  0.872576  0.750000  1
  Al  Al6  1  0.001722  0.338421  0.073376  1
  Al  Al7  1  0.998278  0.661579  0.926624  1
  Al  Al8  1  0.998278  0.661579  0.573376  1
  Al  Al9  1  0.338421  0.001722  0.426624  1
  Al  Al10  1  0.001722  0.338421  0.426624  1
  Al  Al11  1  0.661579  0.998278  0.573376  1
  Al  Al12  1  0.661579  0.998278  0.926624  1
  Al  Al13  1  0.338421  0.001722  0.073376  1
  Al  Al14  1  0.338149  0.338149  0.548940  1
  Al  Al15  1  0.661851  0.661851  0.451060  1
  Al  Al16  1  0.661851  0.661851  0.048940  1
  Al  Al17  1  0.338149  0.338149  0.951060  1
  Al  Al18  1  0.335801  0.548038  0.250000  1
  Al  Al19  1  0.664199  0.451962  0.750000  1
  Al  Al20  1  0.548038  0.335801  0.250000  1
  Al  Al21  1  0.451962  0.664199  0.750000  1
  Cu  Cu22  1  0.000000  0.000000  0.000000  1
  Cu  Cu23  1  0.000000  0.000000  0.500000  1
  Os  Os24  1  0.672012  0.327988  0.000000  1
  Os  Os25  1  0.327988  0.672012  0.000000  1
  Os  Os26  1  0.327988  0.672012  0.500000  1
  Os  Os27  1  0.672012  0.327988  0.500000  1
