# generated using pymatgen
data_Tb3HoAl18(Ni2Rh)2
_symmetry_space_group_name_H-M   'P 1'
_cell_length_a   7.46974982
_cell_length_b   7.46726974
_cell_length_c   9.35597600
_cell_angle_alpha   90.00000000
_cell_angle_beta   90.00000000
_cell_angle_gamma   119.07583257
_symmetry_Int_Tables_number   1
_chemical_formula_structural   Tb3HoAl18(Ni2Rh)2
_chemical_formula_sum   'Tb3 Ho1 Al18 Ni4 Rh2'
_cell_volume   456.09691947
_cell_formula_units_Z   1
loop_
 _symmetry_equiv_pos_site_id
 _symmetry_equiv_pos_as_xyz
  1  'x, y, z'
loop_
 _atom_site_type_symbol
 _atom_site_label
 _atom_site_symmetry_multiplicity
 _atom_site_fract_x
 _atom_site_fract_y
 _atom_site_fract_z
 _atom_site_occupancy
  Tb  Tb0  1  0.006017  0.327810  0.750000  1
  Tb  Tb1  1  0.672562  0.994334  0.250000  1
  Tb  Tb2  1  0.327465  0.005566  0.750000  1
  Ho  Ho3  1  0.994169  0.672823  0.250000  1
  Al  Al4  1  0.133809  0.133669  0.250000  1
  Al  Al5  1  0.866206  0.866005  0.750000  1
  Al  Al6  1  0.998305  0.338499  0.073960  1
  Al  Al7  1  0.001472  0.662061  0.927163  1
  Al  Al8  1  0.001472  0.662061  0.572837  1
  Al  Al9  1  0.337501  0.997742  0.426054  1
  Al  Al10  1  0.998305  0.338499  0.426040  1
  Al  Al11  1  0.662115  0.001655  0.573298  1
  Al  Al12  1  0.662115  0.001655  0.926702  1
  Al  Al13  1  0.337501  0.997742  0.073946  1
  Al  Al14  1  0.335282  0.335166  0.547935  1
  Al  Al15  1  0.665134  0.664812  0.450662  1
  Al  Al16  1  0.665134  0.664812  0.049338  1
  Al  Al17  1  0.335282  0.335166  0.952065  1
  Al  Al18  1  0.340809  0.555935  0.250000  1
  Al  Al19  1  0.658722  0.444357  0.750000  1
  Al  Al20  1  0.556093  0.341824  0.250000  1
  Al  Al21  1  0.444697  0.658418  0.750000  1
  Ni  Ni22  1  0.671283  0.329296  0.000671  1
  Ni  Ni23  1  0.328737  0.670627  0.999899  1
  Ni  Ni24  1  0.328737  0.670627  0.500101  1
  Ni  Ni25  1  0.671283  0.329296  0.499329  1
  Rh  Rh26  1  0.999896  0.999772  0.000390  1
  Rh  Rh27  1  0.999896  0.999772  0.499610  1
