# generated using pymatgen
data_La8Zn3Sn5Rh8
_symmetry_space_group_name_H-M   'P 1'
_cell_length_a   7.59782861
_cell_length_b   4.28958200
_cell_length_c   16.57953862
_cell_angle_alpha   90.00000000
_cell_angle_beta   89.54664577
_cell_angle_gamma   90.00000000
_symmetry_Int_Tables_number   1
_chemical_formula_structural   La8Zn3Sn5Rh8
_chemical_formula_sum   'La8 Zn3 Sn5 Rh8'
_cell_volume   540.33526449
_cell_formula_units_Z   1
loop_
 _symmetry_equiv_pos_site_id
 _symmetry_equiv_pos_as_xyz
  1  'x, y, z'
loop_
 _atom_site_type_symbol
 _atom_site_label
 _atom_site_symmetry_multiplicity
 _atom_site_fract_x
 _atom_site_fract_y
 _atom_site_fract_z
 _atom_site_occupancy
  La  La0  1  0.048177  0.250001  0.285203  1
  La  La1  1  0.451387  0.750000  0.788058  1
  La  La2  1  0.547230  0.250001  0.212615  1
  La  La3  1  0.949060  0.750000  0.718667  1
  La  La4  1  0.178141  0.250001  0.059157  1
  La  La5  1  0.334016  0.750000  0.559889  1
  La  La6  1  0.670849  0.250001  0.437324  1
  La  La7  1  0.822300  0.750000  0.941793  1
  Zn  Zn8  1  0.496535  0.750000  0.058462  1
  Zn  Zn9  1  0.503460  0.250001  0.942383  1
  Zn  Zn10  1  0.996876  0.750000  0.435139  1
  Sn  Sn11  1  0.127366  0.250001  0.851619  1
  Sn  Sn12  1  0.378903  0.750000  0.347246  1
  Sn  Sn13  1  0.616072  0.250001  0.652173  1
  Sn  Sn14  1  0.875488  0.750000  0.149366  1
  Sn  Sn15  1  0.004520  0.250001  0.558589  1
  Rh  Rh16  1  0.235782  0.250001  0.428029  1
  Rh  Rh17  1  0.268596  0.750000  0.933629  1
  Rh  Rh18  1  0.732715  0.250001  0.067664  1
  Rh  Rh19  1  0.765150  0.750000  0.570863  1
  Rh  Rh20  1  0.244717  0.250001  0.685585  1
  Rh  Rh21  1  0.244300  0.750000  0.183964  1
  Rh  Rh22  1  0.755857  0.250001  0.817134  1
  Rh  Rh23  1  0.752505  0.750000  0.315447  1
