# generated using pymatgen
data_Ho12Co4HgOs
_symmetry_space_group_name_H-M   'P 1'
_cell_length_a   8.23986211
_cell_length_b   8.23996390
_cell_length_c   8.23986315
_cell_angle_alpha   111.57694989
_cell_angle_beta   110.11291750
_cell_angle_gamma   106.76038819
_symmetry_Int_Tables_number   1
_chemical_formula_structural   Ho12Co4HgOs
_chemical_formula_sum   'Ho12 Co4 Hg1 Os1'
_cell_volume   429.87892042
_cell_formula_units_Z   1
loop_
 _symmetry_equiv_pos_site_id
 _symmetry_equiv_pos_as_xyz
  1  'x, y, z'
loop_
 _atom_site_type_symbol
 _atom_site_label
 _atom_site_symmetry_multiplicity
 _atom_site_fract_x
 _atom_site_fract_y
 _atom_site_fract_z
 _atom_site_occupancy
  Ho  Ho0  1  0.960540  0.270014  0.690526  1
  Ho  Ho1  1  0.039460  0.729986  0.309474  1
  Ho  Ho2  1  0.675902  0.863389  0.187487  1
  Ho  Ho3  1  0.324099  0.511585  0.187485  1
  Ho  Ho4  1  0.324098  0.136611  0.812513  1
  Ho  Ho5  1  0.675901  0.488415  0.812515  1
  Ho  Ho6  1  0.579487  0.270014  0.309475  1
  Ho  Ho7  1  0.420513  0.729986  0.690525  1
  Ho  Ho8  1  0.176516  0.772968  0.949487  1
  Ho  Ho9  1  0.823482  0.772968  0.596452  1
  Ho  Ho10  1  0.176518  0.227032  0.403548  1
  Ho  Ho11  1  0.823484  0.227032  0.050513  1
  Co  Co12  1  0.113293  0.113295  0.000002  1
  Co  Co13  1  0.886707  0.886705  0.999998  1
  Co  Co14  1  0.657176  0.500000  0.157176  1
  Co  Co15  1  0.342824  0.500000  0.842824  1
  Hg  Hg16  1  0.500000  0.000000  0.500000  1
  Os  Os17  1  0.000000  0.500000  0.500000  1
