# generated using pymatgen
data_Tb4MgBiRu2
_symmetry_space_group_name_H-M   'P 1'
_cell_length_a   9.23739110
_cell_length_b   9.23739186
_cell_length_c   9.23739115
_cell_angle_alpha   133.12607348
_cell_angle_beta   133.12608235
_cell_angle_gamma   68.45622003
_symmetry_Int_Tables_number   1
_chemical_formula_structural   Tb4MgBiRu2
_chemical_formula_sum   'Tb8 Mg2 Bi2 Ru4'
_cell_volume   412.39098580
_cell_formula_units_Z   2
loop_
 _symmetry_equiv_pos_site_id
 _symmetry_equiv_pos_as_xyz
  1  'x, y, z'
loop_
 _atom_site_type_symbol
 _atom_site_label
 _atom_site_symmetry_multiplicity
 _atom_site_fract_x
 _atom_site_fract_y
 _atom_site_fract_z
 _atom_site_occupancy
  Tb  Tb0  1  0.795330  0.295330  0.843565  1
  Tb  Tb1  1  0.204670  0.704670  0.156435  1
  Tb  Tb2  1  0.451765  0.951765  0.156435  1
  Tb  Tb3  1  0.295330  0.451765  0.500000  1
  Tb  Tb4  1  0.048235  0.204670  0.500000  1
  Tb  Tb5  1  0.548235  0.048235  0.843565  1
  Tb  Tb6  1  0.704670  0.548235  0.500000  1
  Tb  Tb7  1  0.951765  0.795330  0.500000  1
  Mg  Mg8  1  0.000000  0.000000  0.000000  1
  Mg  Mg9  1  0.500000  0.500000  0.000000  1
  Bi  Bi10  1  0.250000  0.250000  0.000000  1
  Bi  Bi11  1  0.750000  0.750000  0.000000  1
  Ru  Ru12  1  0.132972  0.632972  0.765945  1
  Ru  Ru13  1  0.867028  0.367028  0.234055  1
  Ru  Ru14  1  0.632972  0.867028  0.500000  1
  Ru  Ru15  1  0.367028  0.132972  0.500000  1
