# generated using pymatgen
data_Sc8Ru3PtRh4
_symmetry_space_group_name_H-M   'P 1'
_cell_length_a   6.48770701
_cell_length_b   6.48609700
_cell_length_c   6.40136301
_cell_angle_alpha   90.00000000
_cell_angle_beta   90.00638433
_cell_angle_gamma   90.00000000
_symmetry_Int_Tables_number   1
_chemical_formula_structural   Sc8Ru3PtRh4
_chemical_formula_sum   'Sc8 Ru3 Pt1 Rh4'
_cell_volume   269.36869429
_cell_formula_units_Z   1
loop_
 _symmetry_equiv_pos_site_id
 _symmetry_equiv_pos_as_xyz
  1  'x, y, z'
loop_
 _atom_site_type_symbol
 _atom_site_label
 _atom_site_symmetry_multiplicity
 _atom_site_fract_x
 _atom_site_fract_y
 _atom_site_fract_z
 _atom_site_occupancy
  Sc  Sc0  1  0.498634  0.998116  0.250272  1
  Sc  Sc1  1  0.498634  0.501884  0.250272  1
  Sc  Sc2  1  0.002293  0.501897  0.250234  1
  Sc  Sc3  1  0.002293  0.998104  0.250234  1
  Sc  Sc4  1  0.001369  0.998121  0.749716  1
  Sc  Sc5  1  0.001369  0.501879  0.749716  1
  Sc  Sc6  1  0.497723  0.501891  0.749774  1
  Sc  Sc7  1  0.497723  0.998110  0.749774  1
  Ru  Ru8  1  0.249990  0.750001  0.499890  1
  Ru  Ru9  1  0.750000  0.250001  0.500116  1
  Ru  Ru10  1  0.250009  0.750001  0.999899  1
  Pt  Pt11  1  0.750034  0.250001  0.000131  1
  Rh  Rh12  1  0.249984  0.250001  0.999981  1
  Rh  Rh13  1  0.749970  0.750001  0.999973  1
  Rh  Rh14  1  0.750002  0.750001  0.500001  1
  Rh  Rh15  1  0.249975  0.250001  0.500018  1
