# generated using pymatgen
data_LaTbLu2(NiAs2)2
_symmetry_space_group_name_H-M   'P 1'
_cell_length_a   4.17395200
_cell_length_b   4.17395296
_cell_length_c   13.78062600
_cell_angle_alpha   90.00000000
_cell_angle_beta   90.00000000
_cell_angle_gamma   120.00000822
_symmetry_Int_Tables_number   1
_chemical_formula_structural   LaTbLu2(NiAs2)2
_chemical_formula_sum   'La1 Tb1 Lu2 Ni2 As4'
_cell_volume   207.91917487
_cell_formula_units_Z   1
loop_
 _symmetry_equiv_pos_site_id
 _symmetry_equiv_pos_as_xyz
  1  'x, y, z'
loop_
 _atom_site_type_symbol
 _atom_site_label
 _atom_site_symmetry_multiplicity
 _atom_site_fract_x
 _atom_site_fract_y
 _atom_site_fract_z
 _atom_site_occupancy
  La  La0  1  0.666667  0.333333  0.353275  1
  Tb  Tb1  1  0.333333  0.666667  0.850398  1
  Lu  Lu2  1  0.666667  0.333333  0.622323  1
  Lu  Lu3  1  0.333333  0.666667  0.109306  1
  Ni  Ni4  1  0.000000  0.000000  0.006525  1
  Ni  Ni5  1  0.000000  0.000000  0.527170  1
  As  As6  1  0.666667  0.333333  0.974598  1
  As  As7  1  0.333333  0.666667  0.488289  1
  As  As8  1  0.000000  0.000000  0.724602  1
  As  As9  1  0.000000  0.000000  0.212175  1
