# generated using pymatgen
data_Sc2GaPd5
_symmetry_space_group_name_H-M   'P 1'
_cell_length_a   4.12417900
_cell_length_b   5.68841200
_cell_length_c   11.05744100
_cell_angle_alpha   90.00000000
_cell_angle_beta   90.00000000
_cell_angle_gamma   90.00000000
_symmetry_Int_Tables_number   1
_chemical_formula_structural   Sc2GaPd5
_chemical_formula_sum   'Sc4 Ga2 Pd10'
_cell_volume   259.40789000
_cell_formula_units_Z   2
loop_
 _symmetry_equiv_pos_site_id
 _symmetry_equiv_pos_as_xyz
  1  'x, y, z'
loop_
 _atom_site_type_symbol
 _atom_site_label
 _atom_site_symmetry_multiplicity
 _atom_site_fract_x
 _atom_site_fract_y
 _atom_site_fract_z
 _atom_site_occupancy
  Sc  Sc0  1  0.000000  0.817158  0.640076  1
  Sc  Sc1  1  0.000000  0.317158  0.859924  1
  Sc  Sc2  1  0.000000  0.182842  0.359924  1
  Sc  Sc3  1  0.000000  0.682842  0.140076  1
  Ga  Ga4  1  0.500000  0.500000  0.500000  1
  Ga  Ga5  1  0.500000  0.000000  0.000000  1
  Pd  Pd6  1  0.000000  0.814395  0.892979  1
  Pd  Pd7  1  0.000000  0.685605  0.392979  1
  Pd  Pd8  1  0.000000  0.314395  0.607021  1
  Pd  Pd9  1  0.500000  0.930996  0.246530  1
  Pd  Pd10  1  0.500000  0.430996  0.253470  1
  Pd  Pd11  1  0.500000  0.569004  0.746530  1
  Pd  Pd12  1  0.500000  0.069004  0.753470  1
  Pd  Pd13  1  0.500000  0.500000  0.000000  1
  Pd  Pd14  1  0.500000  0.000000  0.500000  1
  Pd  Pd15  1  0.000000  0.185605  0.107021  1
