# generated using pymatgen
data_LaAl4Cu2Ge
_symmetry_space_group_name_H-M   'P 1'
_cell_length_a   6.02631000
_cell_length_b   6.02631000
_cell_length_c   7.99479200
_cell_angle_alpha   90.00000000
_cell_angle_beta   90.00000000
_cell_angle_gamma   90.00000000
_symmetry_Int_Tables_number   1
_chemical_formula_structural   LaAl4Cu2Ge
_chemical_formula_sum   'La2 Al8 Cu4 Ge2'
_cell_volume   290.34216185
_cell_formula_units_Z   2
loop_
 _symmetry_equiv_pos_site_id
 _symmetry_equiv_pos_as_xyz
  1  'x, y, z'
loop_
 _atom_site_type_symbol
 _atom_site_label
 _atom_site_symmetry_multiplicity
 _atom_site_fract_x
 _atom_site_fract_y
 _atom_site_fract_z
 _atom_site_occupancy
  La  La0  1  0.750000  0.250000  0.500000  1
  La  La1  1  0.250000  0.750000  0.500000  1
  Al  Al2  1  0.492242  0.492242  0.170703  1
  Al  Al3  1  0.007758  0.492242  0.170703  1
  Al  Al4  1  0.492242  0.007758  0.170703  1
  Al  Al5  1  0.007758  0.007758  0.170703  1
  Al  Al6  1  0.992242  0.992242  0.829298  1
  Al  Al7  1  0.507757  0.992242  0.829298  1
  Al  Al8  1  0.992242  0.507757  0.829298  1
  Al  Al9  1  0.507757  0.507757  0.829298  1
  Cu  Cu10  1  0.750000  0.250000  0.000000  1
  Cu  Cu11  1  0.250000  0.750000  0.000000  1
  Cu  Cu12  1  0.250000  0.250000  0.342828  1
  Cu  Cu13  1  0.750000  0.750000  0.657171  1
  Ge  Ge14  1  0.750000  0.750000  0.357647  1
  Ge  Ge15  1  0.250000  0.250000  0.642352  1
