# generated using pymatgen
data_ZnBiRh4(PbO7)2
_symmetry_space_group_name_H-M   'P 1'
_cell_length_a   7.26969428
_cell_length_b   7.12849554
_cell_length_c   7.32365200
_cell_angle_alpha   59.45244256
_cell_angle_beta   60.24341795
_cell_angle_gamma   59.34257058
_symmetry_Int_Tables_number   1
_chemical_formula_structural   ZnBiRh4(PbO7)2
_chemical_formula_sum   'Zn1 Bi1 Rh4 Pb2 O14'
_cell_volume   266.37160459
_cell_formula_units_Z   1
loop_
 _symmetry_equiv_pos_site_id
 _symmetry_equiv_pos_as_xyz
  1  'x, y, z'
loop_
 _atom_site_type_symbol
 _atom_site_label
 _atom_site_symmetry_multiplicity
 _atom_site_fract_x
 _atom_site_fract_y
 _atom_site_fract_z
 _atom_site_occupancy
  Zn  Zn0  1  0.125000  0.625000  0.125000  1
  Bi  Bi1  1  0.125000  0.125000  0.625000  1
  Rh  Rh2  1  0.625000  0.625000  0.625000  1
  Rh  Rh3  1  0.625000  0.625000  0.125000  1
  Rh  Rh4  1  0.125000  0.625000  0.625000  1
  Rh  Rh5  1  0.625000  0.125000  0.625000  1
  Pb  Pb6  1  0.125000  0.125000  0.125000  1
  Pb  Pb7  1  0.625000  0.125000  0.125000  1
  O  O8  1  0.233258  0.290407  0.243079  1
  O  O9  1  0.295763  0.708896  0.296103  1
  O  O10  1  0.958587  0.962617  0.540512  1
  O  O11  1  0.538284  0.962617  0.540512  1
  O  O12  1  0.699239  0.708896  0.296103  1
  O  O13  1  0.954760  0.541630  0.548850  1
  O  O14  1  0.711716  0.287383  0.709488  1
  O  O15  1  0.291413  0.287383  0.709488  1
  O  O16  1  0.710564  0.286740  0.292133  1
  O  O17  1  0.295240  0.708370  0.701150  1
  O  O18  1  0.954237  0.541104  0.953897  1
  O  O19  1  0.550761  0.541104  0.953897  1
  O  O20  1  0.016742  0.959593  0.006921  1
  O  O21  1  0.539436  0.963260  0.957867  1
