# generated using pymatgen
data_Y8Si16Tc11Ni
_symmetry_space_group_name_H-M   'P 1'
_cell_length_a   6.76241234
_cell_length_b   6.78372483
_cell_length_c   12.74250800
_cell_angle_alpha   89.35135371
_cell_angle_beta   90.06494313
_cell_angle_gamma   90.07106556
_symmetry_Int_Tables_number   1
_chemical_formula_structural   Y8Si16Tc11Ni
_chemical_formula_sum   'Y8 Si16 Tc11 Ni1'
_cell_volume   584.51592648
_cell_formula_units_Z   1
loop_
 _symmetry_equiv_pos_site_id
 _symmetry_equiv_pos_as_xyz
  1  'x, y, z'
loop_
 _atom_site_type_symbol
 _atom_site_label
 _atom_site_symmetry_multiplicity
 _atom_site_fract_x
 _atom_site_fract_y
 _atom_site_fract_z
 _atom_site_occupancy
  Y  Y0  1  0.008192  0.660849  0.031035  1
  Y  Y1  1  0.992287  0.339357  0.532099  1
  Y  Y2  1  0.663363  0.003984  0.970317  1
  Y  Y3  1  0.162288  0.492617  0.779508  1
  Y  Y4  1  0.832710  0.511134  0.280962  1
  Y  Y5  1  0.491961  0.166470  0.216649  1
  Y  Y6  1  0.508234  0.834986  0.717584  1
  Y  Y7  1  0.332469  0.997806  0.469172  1
  Si  Si8  1  0.015418  0.730471  0.439186  1
  Si  Si9  1  0.990128  0.262739  0.937461  1
  Si  Si10  1  0.727699  0.017047  0.559675  1
  Si  Si11  1  0.216818  0.479884  0.190498  1
  Si  Si12  1  0.765242  0.510187  0.690811  1
  Si  Si13  1  0.487047  0.232070  0.811367  1
  Si  Si14  1  0.519695  0.783823  0.315391  1
  Si  Si15  1  0.267472  0.979441  0.061333  1
  Si  Si16  1  0.804220  0.889308  0.184997  1
  Si  Si17  1  0.303104  0.616299  0.563545  1
  Si  Si18  1  0.690212  0.395094  0.057637  1
  Si  Si19  1  0.614112  0.306682  0.435511  1
  Si  Si20  1  0.402564  0.683042  0.939317  1
  Si  Si21  1  0.112879  0.197065  0.314250  1
  Si  Si22  1  0.195177  0.109679  0.686560  1
  Si  Si23  1  0.885210  0.803867  0.815634  1
  Tc  Tc24  1  0.320514  0.486370  0.379233  1
  Tc  Tc25  1  0.812323  0.024340  0.369332  1
  Tc  Tc26  1  0.981289  0.191558  0.130212  1
  Tc  Tc27  1  0.015031  0.812565  0.632139  1
  Tc  Tc28  1  0.478357  0.317658  0.618951  1
  Tc  Tc29  1  0.194732  0.962696  0.869775  1
  Tc  Tc30  1  0.662134  0.666628  0.499300  1
  Tc  Tc31  1  0.839087  0.160427  0.752589  1
  Tc  Tc32  1  0.158503  0.838821  0.251815  1
  Tc  Tc33  1  0.341707  0.331825  0.991932  1
  Tc  Tc34  1  0.506506  0.681331  0.127691  1
  Ni  Ni35  1  0.701318  0.521884  0.876530  1
