# generated using pymatgen
data_Pr2Ag2Ru3PtO14
_symmetry_space_group_name_H-M   'P 1'
_cell_length_a   7.33663274
_cell_length_b   7.48582814
_cell_length_c   7.29090080
_cell_angle_alpha   59.11157682
_cell_angle_beta   59.05450769
_cell_angle_gamma   59.32499628
_symmetry_Int_Tables_number   1
_chemical_formula_structural   Pr2Ag2Ru3PtO14
_chemical_formula_sum   'Pr2 Ag2 Ru3 Pt1 O14'
_cell_volume   277.74134710
_cell_formula_units_Z   1
loop_
 _symmetry_equiv_pos_site_id
 _symmetry_equiv_pos_as_xyz
  1  'x, y, z'
loop_
 _atom_site_type_symbol
 _atom_site_label
 _atom_site_symmetry_multiplicity
 _atom_site_fract_x
 _atom_site_fract_y
 _atom_site_fract_z
 _atom_site_occupancy
  Pr  Pr0  1  0.625000  0.125000  0.625000  1
  Pr  Pr1  1  0.625000  0.625000  0.625000  1
  Ag  Ag2  1  0.625000  0.625000  0.125000  1
  Ag  Ag3  1  0.125000  0.625000  0.625000  1
  Ru  Ru4  1  0.125000  0.625000  0.125000  1
  Ru  Ru5  1  0.625000  0.125000  0.125000  1
  Ru  Ru6  1  0.125000  0.125000  0.125000  1
  Pt  Pt7  1  0.125000  0.125000  0.625000  1
  O  O8  1  0.765108  0.734300  0.766292  1
  O  O9  1  0.484892  0.515700  0.483708  1
  O  O10  1  0.064741  0.430470  0.074319  1
  O  O11  1  0.785319  0.213652  0.787378  1
  O  O12  1  0.043867  0.047297  0.452861  1
  O  O13  1  0.443583  0.054710  0.061883  1
  O  O14  1  0.043867  0.455976  0.452861  1
  O  O15  1  0.443583  0.439826  0.061883  1
  O  O16  1  0.464681  0.036348  0.462622  1
  O  O17  1  0.206133  0.794024  0.797139  1
  O  O18  1  0.806417  0.195290  0.188117  1
  O  O19  1  0.185259  0.819530  0.175681  1
  O  O20  1  0.806417  0.810174  0.188117  1
  O  O21  1  0.206133  0.202703  0.797139  1
