# generated using pymatgen
data_Tb6Nb4Ga12Os7
_symmetry_space_group_name_H-M   'P 1'
_cell_length_a   9.05951377
_cell_length_b   9.05951400
_cell_length_c   9.05951300
_cell_angle_alpha   59.99999999
_cell_angle_beta   59.99999915
_cell_angle_gamma   59.99999606
_symmetry_Int_Tables_number   1
_chemical_formula_structural   Tb6Nb4Ga12Os7
_chemical_formula_sum   'Tb6 Nb4 Ga12 Os7'
_cell_volume   525.77463260
_cell_formula_units_Z   1
loop_
 _symmetry_equiv_pos_site_id
 _symmetry_equiv_pos_as_xyz
  1  'x, y, z'
loop_
 _atom_site_type_symbol
 _atom_site_label
 _atom_site_symmetry_multiplicity
 _atom_site_fract_x
 _atom_site_fract_y
 _atom_site_fract_z
 _atom_site_occupancy
  Tb  Tb0  1  0.709275  0.709275  0.290725  1
  Tb  Tb1  1  0.290725  0.709275  0.290725  1
  Tb  Tb2  1  0.709275  0.290725  0.290725  1
  Tb  Tb3  1  0.290725  0.290725  0.709275  1
  Tb  Tb4  1  0.709275  0.290725  0.709275  1
  Tb  Tb5  1  0.290725  0.709275  0.709275  1
  Nb  Nb6  1  0.878197  0.878197  0.365410  1
  Nb  Nb7  1  0.878197  0.365410  0.878197  1
  Nb  Nb8  1  0.365410  0.878197  0.878197  1
  Nb  Nb9  1  0.878197  0.878197  0.878197  1
  Ga  Ga10  1  0.119516  0.119516  0.641452  1
  Ga  Ga11  1  0.119516  0.641452  0.119516  1
  Ga  Ga12  1  0.641452  0.119516  0.119516  1
  Ga  Ga13  1  0.119516  0.119516  0.119516  1
  Ga  Ga14  1  0.663244  0.663244  0.010267  1
  Ga  Ga15  1  0.663244  0.010267  0.663244  1
  Ga  Ga16  1  0.010267  0.663244  0.663244  1
  Ga  Ga17  1  0.663244  0.663244  0.663244  1
  Ga  Ga18  1  0.334985  0.334985  0.995046  1
  Ga  Ga19  1  0.334985  0.995046  0.334985  1
  Ga  Ga20  1  0.995046  0.334985  0.334985  1
  Ga  Ga21  1  0.334985  0.334985  0.334985  1
  Os  Os22  1  0.000000  0.000000  0.000000  1
  Os  Os23  1  0.996137  0.996137  0.503863  1
  Os  Os24  1  0.503863  0.996137  0.503863  1
  Os  Os25  1  0.996137  0.503863  0.503863  1
  Os  Os26  1  0.503863  0.503863  0.996137  1
  Os  Os27  1  0.996137  0.503863  0.996137  1
  Os  Os28  1  0.503863  0.996137  0.996137  1
