# generated using pymatgen
data_Pr3Al12Ir3Os
_symmetry_space_group_name_H-M   'P 1'
_cell_length_a   8.93381800
_cell_length_b   8.93381770
_cell_length_c   9.64819900
_cell_angle_alpha   90.00000000
_cell_angle_beta   90.00000000
_cell_angle_gamma   120.00000109
_symmetry_Int_Tables_number   1
_chemical_formula_structural   Pr3Al12Ir3Os
_chemical_formula_sum   'Pr6 Al24 Ir6 Os2'
_cell_volume   666.88518039
_cell_formula_units_Z   2
loop_
 _symmetry_equiv_pos_site_id
 _symmetry_equiv_pos_as_xyz
  1  'x, y, z'
loop_
 _atom_site_type_symbol
 _atom_site_label
 _atom_site_symmetry_multiplicity
 _atom_site_fract_x
 _atom_site_fract_y
 _atom_site_fract_z
 _atom_site_occupancy
  Pr  Pr0  1  0.190779  0.381558  0.250000  1
  Pr  Pr1  1  0.809221  0.618442  0.750000  1
  Pr  Pr2  1  0.618442  0.809221  0.250000  1
  Pr  Pr3  1  0.381558  0.190779  0.750000  1
  Pr  Pr4  1  0.190779  0.809221  0.250000  1
  Pr  Pr5  1  0.809221  0.190779  0.750000  1
  Al  Al6  1  0.333333  0.666667  0.011202  1
  Al  Al7  1  0.666667  0.333333  0.988798  1
  Al  Al8  1  0.666667  0.333333  0.511202  1
  Al  Al9  1  0.333333  0.666667  0.488798  1
  Al  Al10  1  0.163140  0.326279  0.574975  1
  Al  Al11  1  0.836860  0.673721  0.425025  1
  Al  Al12  1  0.673721  0.836860  0.574975  1
  Al  Al13  1  0.836860  0.673721  0.074975  1
  Al  Al14  1  0.326279  0.163140  0.425025  1
  Al  Al15  1  0.163140  0.326279  0.925025  1
  Al  Al16  1  0.163140  0.836860  0.574975  1
  Al  Al17  1  0.326279  0.163140  0.074975  1
  Al  Al18  1  0.836860  0.163140  0.425025  1
  Al  Al19  1  0.673721  0.836860  0.925025  1
  Al  Al20  1  0.836860  0.163140  0.074975  1
  Al  Al21  1  0.163140  0.836860  0.925025  1
  Al  Al22  1  0.563242  0.126484  0.250000  1
  Al  Al23  1  0.436758  0.873516  0.750000  1
  Al  Al24  1  0.873516  0.436758  0.250000  1
  Al  Al25  1  0.126484  0.563242  0.750000  1
  Al  Al26  1  0.563242  0.436758  0.250000  1
  Al  Al27  1  0.436758  0.563242  0.750000  1
  Al  Al28  1  0.000000  0.000000  0.250000  1
  Al  Al29  1  0.000000  0.000000  0.750000  1
  Ir  Ir30  1  0.500000  0.000000  0.000000  1
  Ir  Ir31  1  0.000000  0.500000  0.000000  1
  Ir  Ir32  1  0.500000  0.000000  0.500000  1
  Ir  Ir33  1  0.500000  0.500000  0.000000  1
  Ir  Ir34  1  0.000000  0.500000  0.500000  1
  Ir  Ir35  1  0.500000  0.500000  0.500000  1
  Os  Os36  1  0.000000  0.000000  0.000000  1
  Os  Os37  1  0.000000  0.000000  0.500000  1
