# generated using pymatgen
data_DyEr9Ga3CoBi2
_symmetry_space_group_name_H-M   'P 1'
_cell_length_a   8.55714117
_cell_length_b   8.71133138
_cell_length_c   7.96817516
_cell_angle_alpha   61.51888372
_cell_angle_beta   63.50873365
_cell_angle_gamma   54.94993543
_symmetry_Int_Tables_number   1
_chemical_formula_structural   DyEr9Ga3CoBi2
_chemical_formula_sum   'Dy1 Er9 Ga3 Co1 Bi2'
_cell_volume   414.99315910
_cell_formula_units_Z   1
loop_
 _symmetry_equiv_pos_site_id
 _symmetry_equiv_pos_as_xyz
  1  'x, y, z'
loop_
 _atom_site_type_symbol
 _atom_site_label
 _atom_site_symmetry_multiplicity
 _atom_site_fract_x
 _atom_site_fract_y
 _atom_site_fract_z
 _atom_site_occupancy
  Dy  Dy0  1  0.798057  0.484136  0.515864  1
  Er  Er1  1  0.452694  0.808138  0.191862  1
  Er  Er2  1  0.296055  0.981468  0.722612  1
  Er  Er3  1  0.000135  0.277388  0.018532  1
  Er  Er4  1  0.192577  0.546968  0.453032  1
  Er  Er5  1  0.516060  0.202862  0.797138  1
  Er  Er6  1  0.722560  0.000282  0.295919  1
  Er  Er7  1  0.018760  0.704081  0.999718  1
  Er  Er8  1  0.500457  0.499259  0.999779  1
  Er  Er9  1  0.999495  0.000221  0.500741  1
  Ga  Ga10  1  0.867067  0.132611  0.867389  1
  Ga  Ga11  1  0.641588  0.357738  0.359690  1
  Ga  Ga12  1  0.359016  0.640310  0.642262  1
  Co  Co13  1  0.122244  0.877599  0.122401  1
  Bi  Bi14  1  0.756406  0.743682  0.756741  1
  Bi  Bi15  1  0.256829  0.243259  0.256318  1
