# generated using pymatgen
data_Ca20Cd3Ag7Hg2
_symmetry_space_group_name_H-M   'P 1'
_cell_length_a   8.21335934
_cell_length_b   8.21380028
_cell_length_c   14.70993116
_cell_angle_alpha   90.00736769
_cell_angle_beta   89.98478876
_cell_angle_gamma   89.62378431
_symmetry_Int_Tables_number   1
_chemical_formula_structural   Ca20Cd3Ag7Hg2
_chemical_formula_sum   'Ca20 Cd3 Ag7 Hg2'
_cell_volume   992.35307933
_cell_formula_units_Z   1
loop_
 _symmetry_equiv_pos_site_id
 _symmetry_equiv_pos_as_xyz
  1  'x, y, z'
loop_
 _atom_site_type_symbol
 _atom_site_label
 _atom_site_symmetry_multiplicity
 _atom_site_fract_x
 _atom_site_fract_y
 _atom_site_fract_z
 _atom_site_occupancy
  Ca  Ca0  1  0.669713  0.163504  0.105680  1
  Ca  Ca1  1  0.167262  0.665833  0.607802  1
  Ca  Ca2  1  0.329849  0.836011  0.106177  1
  Ca  Ca3  1  0.834595  0.336056  0.606526  1
  Ca  Ca4  1  0.836792  0.669470  0.106106  1
  Ca  Ca5  1  0.331988  0.167938  0.606601  1
  Ca  Ca6  1  0.163422  0.330684  0.106133  1
  Ca  Ca7  1  0.666402  0.830541  0.606670  1
  Ca  Ca8  1  0.838483  0.332339  0.895501  1
  Ca  Ca9  1  0.333498  0.832022  0.391774  1
  Ca  Ca10  1  0.163292  0.669450  0.894239  1
  Ca  Ca11  1  0.666005  0.167416  0.392276  1
  Ca  Ca12  1  0.670140  0.834330  0.895493  1
  Ca  Ca13  1  0.167290  0.334292  0.391834  1
  Ca  Ca14  1  0.328357  0.163922  0.895377  1
  Ca  Ca15  1  0.832864  0.665943  0.391845  1
  Ca  Ca16  1  0.498812  0.502145  0.753878  1
  Ca  Ca17  1  0.999665  0.999812  0.250440  1
  Ca  Ca18  1  0.002033  0.998887  0.749507  1
  Ca  Ca19  1  0.499846  0.499712  0.246162  1
  Cd  Cd20  1  0.499791  0.500439  0.499582  1
  Cd  Cd21  1  0.499893  0.500447  0.000397  1
  Cd  Cd22  1  0.000516  0.999784  0.499609  1
  Ag  Ag23  1  0.126110  0.625471  0.248716  1
  Ag  Ag24  1  0.874019  0.374656  0.248764  1
  Ag  Ag25  1  0.371215  0.870585  0.751314  1
  Ag  Ag26  1  0.873860  0.624969  0.751232  1
  Ag  Ag27  1  0.374205  0.125964  0.248714  1
  Ag  Ag28  1  0.125527  0.374471  0.751243  1
  Ag  Ag29  1  0.625395  0.873648  0.248732  1
  Hg  Hg30  1  0.628546  0.129505  0.751224  1
  Hg  Hg31  1  0.000617  0.999753  0.000450  1
