# generated using pymatgen
data_La2Nd2CoHg
_symmetry_space_group_name_H-M   'P 1'
_cell_length_a   9.84169352
_cell_length_b   9.84400044
_cell_length_c   9.95433736
_cell_angle_alpha   59.82959713
_cell_angle_beta   59.82587048
_cell_angle_gamma   60.64811364
_symmetry_Int_Tables_number   1
_chemical_formula_structural   La2Nd2CoHg
_chemical_formula_sum   'La8 Nd8 Co4 Hg4'
_cell_volume   683.39837175
_cell_formula_units_Z   4
loop_
 _symmetry_equiv_pos_site_id
 _symmetry_equiv_pos_as_xyz
  1  'x, y, z'
loop_
 _atom_site_type_symbol
 _atom_site_label
 _atom_site_symmetry_multiplicity
 _atom_site_fract_x
 _atom_site_fract_y
 _atom_site_fract_z
 _atom_site_occupancy
  La  La0  1  0.594437  0.594332  0.597276  1
  La  La1  1  0.596502  0.596442  0.207467  1
  La  La2  1  0.600894  0.209742  0.594282  1
  La  La3  1  0.209548  0.600866  0.594359  1
  La  La4  1  0.061760  0.437125  0.438795  1
  La  La5  1  0.437896  0.060016  0.061543  1
  La  La6  1  0.437197  0.061793  0.438810  1
  La  La7  1  0.059968  0.437860  0.061665  1
  Nd  Nd8  1  0.442447  0.442450  0.057062  1
  Nd  Nd9  1  0.054582  0.054439  0.443569  1
  Nd  Nd10  1  0.186373  0.813820  0.815872  1
  Nd  Nd11  1  0.812695  0.185612  0.186383  1
  Nd  Nd12  1  0.813831  0.186324  0.816046  1
  Nd  Nd13  1  0.185713  0.812621  0.186487  1
  Nd  Nd14  1  0.810040  0.810140  0.192610  1
  Nd  Nd15  1  0.189929  0.189951  0.811283  1
  Co  Co16  1  0.387344  0.387379  0.395396  1
  Co  Co17  1  0.386744  0.386808  0.830969  1
  Co  Co18  1  0.399899  0.831382  0.385762  1
  Co  Co19  1  0.831328  0.399923  0.385761  1
  Hg  Hg20  1  0.834333  0.834352  0.832378  1
  Hg  Hg21  1  0.834193  0.834195  0.499135  1
  Hg  Hg22  1  0.833230  0.499143  0.833542  1
  Hg  Hg23  1  0.499118  0.833287  0.833548  1
