# generated using pymatgen
data_Er3LuReB12Ru
_symmetry_space_group_name_H-M   'P 1'
_cell_length_a   3.63401800
_cell_length_b   9.09058912
_cell_length_c   11.47006613
_cell_angle_alpha   90.21693147
_cell_angle_beta   90.00000000
_cell_angle_gamma   90.00000000
_symmetry_Int_Tables_number   1
_chemical_formula_structural   Er3LuReB12Ru
_chemical_formula_sum   'Er6 Lu2 Re2 B24 Ru2'
_cell_volume   378.91509920
_cell_formula_units_Z   2
loop_
 _symmetry_equiv_pos_site_id
 _symmetry_equiv_pos_as_xyz
  1  'x, y, z'
loop_
 _atom_site_type_symbol
 _atom_site_label
 _atom_site_symmetry_multiplicity
 _atom_site_fract_x
 _atom_site_fract_y
 _atom_site_fract_z
 _atom_site_occupancy
  Er  Er0  1  0.000000  0.320776  0.412395  1
  Er  Er1  1  0.000000  0.679224  0.587605  1
  Er  Er2  1  0.000000  0.824193  0.084538  1
  Er  Er3  1  0.000000  0.175807  0.915462  1
  Er  Er4  1  0.000000  0.943237  0.370596  1
  Er  Er5  1  0.000000  0.056763  0.629404  1
  Lu  Lu6  1  0.000000  0.443375  0.128895  1
  Lu  Lu7  1  0.000000  0.556625  0.871105  1
  Re  Re8  1  0.000000  0.139490  0.179526  1
  Re  Re9  1  0.000000  0.860510  0.820474  1
  B  B10  1  0.500000  0.554009  0.433302  1
  B  B11  1  0.500000  0.445991  0.566698  1
  B  B12  1  0.500000  0.053438  0.066495  1
  B  B13  1  0.500000  0.946562  0.933505  1
  B  B14  1  0.500000  0.749145  0.419220  1
  B  B15  1  0.500000  0.250855  0.580780  1
  B  B16  1  0.500000  0.250639  0.080545  1
  B  B17  1  0.500000  0.749361  0.919455  1
  B  B18  1  0.500000  0.791113  0.265410  1
  B  B19  1  0.500000  0.208887  0.734590  1
  B  B20  1  0.500000  0.293402  0.234860  1
  B  B21  1  0.500000  0.706598  0.765140  1
  B  B22  1  0.500000  0.630439  0.185152  1
  B  B23  1  0.500000  0.369561  0.814848  1
  B  B24  1  0.500000  0.131664  0.315213  1
  B  B25  1  0.500000  0.868336  0.684787  1
  B  B26  1  0.500000  0.982350  0.212297  1
  B  B27  1  0.500000  0.017650  0.787703  1
  B  B28  1  0.500000  0.482798  0.287674  1
  B  B29  1  0.500000  0.517202  0.712326  1
  B  B30  1  0.500000  0.601487  0.028296  1
  B  B31  1  0.500000  0.398513  0.971704  1
  B  B32  1  0.500000  0.103206  0.471660  1
  B  B33  1  0.500000  0.896794  0.528340  1
  Ru  Ru34  1  0.000000  0.637815  0.321063  1
  Ru  Ru35  1  0.000000  0.362185  0.678937  1
