# generated using pymatgen
data_Ho4ZnPt2Au
_symmetry_space_group_name_H-M   'P 1'
_cell_length_a   4.56698200
_cell_length_b   5.58469664
_cell_length_c   7.14136427
_cell_angle_alpha   91.66977514
_cell_angle_beta   90.00000000
_cell_angle_gamma   90.00000000
_symmetry_Int_Tables_number   1
_chemical_formula_structural   Ho4ZnPt2Au
_chemical_formula_sum   'Ho4 Zn1 Pt2 Au1'
_cell_volume   182.06464583
_cell_formula_units_Z   1
loop_
 _symmetry_equiv_pos_site_id
 _symmetry_equiv_pos_as_xyz
  1  'x, y, z'
loop_
 _atom_site_type_symbol
 _atom_site_label
 _atom_site_symmetry_multiplicity
 _atom_site_fract_x
 _atom_site_fract_y
 _atom_site_fract_z
 _atom_site_occupancy
  Ho  Ho0  1  0.250000  0.362434  0.698089  1
  Ho  Ho1  1  0.250000  0.147638  0.170445  1
  Ho  Ho2  1  0.750000  0.637300  0.303476  1
  Ho  Ho3  1  0.750000  0.847565  0.829077  1
  Zn  Zn4  1  0.750000  0.144540  0.467626  1
  Pt  Pt5  1  0.250000  0.659318  0.043945  1
  Pt  Pt6  1  0.750000  0.338722  0.952875  1
  Au  Au7  1  0.250000  0.862483  0.534469  1
