# generated using pymatgen
data_Zr4UReTc6
_symmetry_space_group_name_H-M   'P 1'
_cell_length_a   5.21959670
_cell_length_b   5.21959648
_cell_length_c   8.87043600
_cell_angle_alpha   90.00000000
_cell_angle_beta   90.00000000
_cell_angle_gamma   117.02617398
_symmetry_Int_Tables_number   1
_chemical_formula_structural   Zr4UReTc6
_chemical_formula_sum   'Zr4 U1 Re1 Tc6'
_cell_volume   215.27747142
_cell_formula_units_Z   1
loop_
 _symmetry_equiv_pos_site_id
 _symmetry_equiv_pos_as_xyz
  1  'x, y, z'
loop_
 _atom_site_type_symbol
 _atom_site_label
 _atom_site_symmetry_multiplicity
 _atom_site_fract_x
 _atom_site_fract_y
 _atom_site_fract_z
 _atom_site_occupancy
  Zr  Zr0  1  0.328415  0.671585  0.448474  1
  Zr  Zr1  1  0.663695  0.336305  0.570824  1
  Zr  Zr2  1  0.663695  0.336305  0.929176  1
  Zr  Zr3  1  0.328415  0.671585  0.051526  1
  U  U4  1  0.847909  0.152091  0.250000  1
  Re  Re5  1  0.161669  0.838331  0.750000  1
  Tc  Tc6  1  0.992988  0.007012  0.500507  1
  Tc  Tc7  1  0.992988  0.007012  0.999493  1
  Tc  Tc8  1  0.837379  0.633417  0.250000  1
  Tc  Tc9  1  0.366583  0.162621  0.250000  1
  Tc  Tc10  1  0.167280  0.351011  0.750000  1
  Tc  Tc11  1  0.648989  0.832720  0.750000  1
