# generated using pymatgen
data_Pr16Cd4PdRu3
_symmetry_space_group_name_H-M   'P 1'
_cell_length_a   9.99989356
_cell_length_b   10.04690893
_cell_length_c   10.04690800
_cell_angle_alpha   60.00000306
_cell_angle_beta   59.84435358
_cell_angle_gamma   59.84435487
_symmetry_Int_Tables_number   1
_chemical_formula_structural   Pr16Cd4PdRu3
_chemical_formula_sum   'Pr16 Cd4 Pd1 Ru3'
_cell_volume   712.06485267
_cell_formula_units_Z   1
loop_
 _symmetry_equiv_pos_site_id
 _symmetry_equiv_pos_as_xyz
  1  'x, y, z'
loop_
 _atom_site_type_symbol
 _atom_site_label
 _atom_site_symmetry_multiplicity
 _atom_site_fract_x
 _atom_site_fract_y
 _atom_site_fract_z
 _atom_site_occupancy
  Pr  Pr0  1  0.343266  0.351247  0.351247  1
  Pr  Pr1  1  0.343266  0.351247  0.954242  1
  Pr  Pr2  1  0.343266  0.954242  0.351247  1
  Pr  Pr3  1  0.960879  0.346374  0.346374  1
  Pr  Pr4  1  0.816558  0.190829  0.190829  1
  Pr  Pr5  1  0.189880  0.810830  0.810830  1
  Pr  Pr6  1  0.189880  0.810830  0.188460  1
  Pr  Pr7  1  0.816558  0.190829  0.801785  1
  Pr  Pr8  1  0.189880  0.188460  0.810830  1
  Pr  Pr9  1  0.816558  0.801785  0.190829  1
  Pr  Pr10  1  0.936730  0.562547  0.562547  1
  Pr  Pr11  1  0.558254  0.938221  0.938221  1
  Pr  Pr12  1  0.558254  0.938221  0.565303  1
  Pr  Pr13  1  0.936730  0.562547  0.938177  1
  Pr  Pr14  1  0.558254  0.565303  0.938221  1
  Pr  Pr15  1  0.936730  0.938177  0.562547  1
  Cd  Cd16  1  0.579637  0.579682  0.579682  1
  Cd  Cd17  1  0.579637  0.579682  0.260998  1
  Cd  Cd18  1  0.579637  0.260998  0.579682  1
  Cd  Cd19  1  0.261081  0.579639  0.579639  1
  Pd  Pd20  1  0.576104  0.141299  0.141299  1
  Ru  Ru21  1  0.142987  0.137977  0.137977  1
  Ru  Ru22  1  0.142987  0.137977  0.581059  1
  Ru  Ru23  1  0.142987  0.581059  0.137977  1
