# generated using pymatgen
data_Sc4Si6Ir2Rh5
_symmetry_space_group_name_H-M   'P 1'
_cell_length_a   6.97072869
_cell_length_b   6.97072772
_cell_length_c   6.97072811
_cell_angle_alpha   109.49132712
_cell_angle_beta   109.46115923
_cell_angle_gamma   109.46117554
_symmetry_Int_Tables_number   1
_chemical_formula_structural   Sc4Si6Ir2Rh5
_chemical_formula_sum   'Sc4 Si6 Ir2 Rh5'
_cell_volume   260.74291820
_cell_formula_units_Z   1
loop_
 _symmetry_equiv_pos_site_id
 _symmetry_equiv_pos_as_xyz
  1  'x, y, z'
loop_
 _atom_site_type_symbol
 _atom_site_label
 _atom_site_symmetry_multiplicity
 _atom_site_fract_x
 _atom_site_fract_y
 _atom_site_fract_z
 _atom_site_occupancy
  Sc  Sc0  1  0.999820  0.999910  0.499910  1
  Sc  Sc1  1  0.000180  0.500090  0.000090  1
  Sc  Sc2  1  0.500000  0.999910  0.000090  1
  Sc  Sc3  1  0.500000  0.500090  0.499910  1
  Si  Si4  1  0.681344  0.681483  0.000139  1
  Si  Si5  1  0.318656  0.999861  0.318517  1
  Si  Si6  1  0.000000  0.319069  0.319069  1
  Si  Si7  1  0.318656  0.318795  0.000139  1
  Si  Si8  1  0.681344  0.999861  0.681205  1
  Si  Si9  1  0.000000  0.680931  0.680931  1
  Ir  Ir10  1  0.500000  0.750000  0.250000  1
  Ir  Ir11  1  0.000000  0.000000  0.000000  1
  Rh  Rh12  1  0.750660  0.250997  0.500336  1
  Rh  Rh13  1  0.750660  0.499664  0.250324  1
  Rh  Rh14  1  0.500000  0.250000  0.750000  1
  Rh  Rh15  1  0.249340  0.499664  0.749003  1
  Rh  Rh16  1  0.249340  0.749676  0.500336  1
