# generated using pymatgen
data_YbErSi4Tc3
_symmetry_space_group_name_H-M   'P 1'
_cell_length_a   6.79659800
_cell_length_b   6.63810202
_cell_length_c   6.78384788
_cell_angle_alpha   70.57107217
_cell_angle_beta   90.00000000
_cell_angle_gamma   90.00000000
_symmetry_Int_Tables_number   1
_chemical_formula_structural   YbErSi4Tc3
_chemical_formula_sum   'Yb2 Er2 Si8 Tc6'
_cell_volume   288.63470728
_cell_formula_units_Z   2
loop_
 _symmetry_equiv_pos_site_id
 _symmetry_equiv_pos_as_xyz
  1  'x, y, z'
loop_
 _atom_site_type_symbol
 _atom_site_label
 _atom_site_symmetry_multiplicity
 _atom_site_fract_x
 _atom_site_fract_y
 _atom_site_fract_z
 _atom_site_occupancy
  Yb  Yb0  1  0.666187  0.444299  0.185828  1
  Yb  Yb1  1  0.166187  0.055701  0.814172  1
  Er  Er2  1  0.331913  0.558382  0.807811  1
  Er  Er3  1  0.831913  0.941618  0.192189  1
  Si  Si4  1  0.452667  0.120262  0.103307  1
  Si  Si5  1  0.952667  0.379738  0.896693  1
  Si  Si6  1  0.546586  0.879752  0.897094  1
  Si  Si7  1  0.046586  0.620248  0.102906  1
  Si  Si8  1  0.860956  0.135231  0.509156  1
  Si  Si9  1  0.360956  0.364769  0.490844  1
  Si  Si10  1  0.139722  0.868801  0.490760  1
  Si  Si11  1  0.639722  0.631199  0.509240  1
  Tc  Tc12  1  0.501986  0.998130  0.498882  1
  Tc  Tc13  1  0.001986  0.501870  0.501118  1
  Tc  Tc14  1  0.157624  0.244160  0.237200  1
  Tc  Tc15  1  0.657624  0.255840  0.762800  1
  Tc  Tc16  1  0.842358  0.757642  0.762056  1
  Tc  Tc17  1  0.342358  0.742358  0.237944  1
