# generated using pymatgen
data_DyHo2Si2Ag3Sn
_symmetry_space_group_name_H-M   'P 1'
_cell_length_a   7.17808101
_cell_length_b   7.17557840
_cell_length_c   4.29188200
_cell_angle_alpha   90.00000000
_cell_angle_beta   90.00000000
_cell_angle_gamma   119.98848024
_symmetry_Int_Tables_number   1
_chemical_formula_structural   DyHo2Si2Ag3Sn
_chemical_formula_sum   'Dy1 Ho2 Si2 Ag3 Sn1'
_cell_volume   191.46706285
_cell_formula_units_Z   1
loop_
 _symmetry_equiv_pos_site_id
 _symmetry_equiv_pos_as_xyz
  1  'x, y, z'
loop_
 _atom_site_type_symbol
 _atom_site_label
 _atom_site_symmetry_multiplicity
 _atom_site_fract_x
 _atom_site_fract_y
 _atom_site_fract_z
 _atom_site_occupancy
  Dy  Dy0  1  0.000000  0.567395  0.500000  1
  Ho  Ho1  1  0.432474  0.432375  0.500000  1
  Ho  Ho2  1  0.567526  0.999901  0.500000  1
  Si  Si3  1  0.666698  0.333389  0.000000  1
  Si  Si4  1  0.333302  0.666692  0.000000  1
  Ag  Ag5  1  0.735042  0.734989  0.000000  1
  Ag  Ag6  1  0.264958  0.999947  0.000000  1
  Ag  Ag7  1  0.000000  0.264966  0.000000  1
  Sn  Sn8  1  0.000000  0.000344  0.500000  1
