# generated using pymatgen
data_Ti3Nb2ZnGa3
_symmetry_space_group_name_H-M   'P 1'
_cell_length_a   7.91441600
_cell_length_b   7.91441660
_cell_length_c   5.41171100
_cell_angle_alpha   90.00000000
_cell_angle_beta   90.00000000
_cell_angle_gamma   119.99999751
_symmetry_Int_Tables_number   1
_chemical_formula_structural   Ti3Nb2ZnGa3
_chemical_formula_sum   'Ti6 Nb4 Zn2 Ga6'
_cell_volume   293.56415062
_cell_formula_units_Z   2
loop_
 _symmetry_equiv_pos_site_id
 _symmetry_equiv_pos_as_xyz
  1  'x, y, z'
loop_
 _atom_site_type_symbol
 _atom_site_label
 _atom_site_symmetry_multiplicity
 _atom_site_fract_x
 _atom_site_fract_y
 _atom_site_fract_z
 _atom_site_occupancy
  Ti  Ti0  1  0.300266  0.000000  0.250000  1
  Ti  Ti1  1  0.300266  0.300266  0.750000  1
  Ti  Ti2  1  0.000000  0.699734  0.750000  1
  Ti  Ti3  1  0.000000  0.300266  0.250000  1
  Ti  Ti4  1  0.699734  0.699734  0.250000  1
  Ti  Ti5  1  0.699734  0.000000  0.750000  1
  Nb  Nb6  1  0.333333  0.666667  0.000000  1
  Nb  Nb7  1  0.666667  0.333333  0.500000  1
  Nb  Nb8  1  0.666667  0.333333  0.000000  1
  Nb  Nb9  1  0.333333  0.666667  0.500000  1
  Zn  Zn10  1  0.000000  0.000000  0.000000  1
  Zn  Zn11  1  0.000000  0.000000  0.500000  1
  Ga  Ga12  1  0.636721  0.000000  0.250000  1
  Ga  Ga13  1  0.636721  0.636721  0.750000  1
  Ga  Ga14  1  0.000000  0.363279  0.750000  1
  Ga  Ga15  1  0.000000  0.636721  0.250000  1
  Ga  Ga16  1  0.363279  0.363279  0.250000  1
  Ga  Ga17  1  0.363279  0.000000  0.750000  1
