# generated using pymatgen
data_Eu2HoLu3Ta2O14
_symmetry_space_group_name_H-M   'P 1'
_cell_length_a   6.41212051
_cell_length_b   6.40713291
_cell_length_c   7.49634418
_cell_angle_alpha   90.02012027
_cell_angle_beta   89.98088508
_cell_angle_gamma   108.87081347
_symmetry_Int_Tables_number   1
_chemical_formula_structural   Eu2HoLu3Ta2O14
_chemical_formula_sum   'Eu2 Ho1 Lu3 Ta2 O14'
_cell_volume   291.42103188
_cell_formula_units_Z   1
loop_
 _symmetry_equiv_pos_site_id
 _symmetry_equiv_pos_as_xyz
  1  'x, y, z'
loop_
 _atom_site_type_symbol
 _atom_site_label
 _atom_site_symmetry_multiplicity
 _atom_site_fract_x
 _atom_site_fract_y
 _atom_site_fract_z
 _atom_site_occupancy
  Eu  Eu0  1  0.501873  0.502310  0.500836  1
  Eu  Eu1  1  0.501759  0.502028  0.999215  1
  Ho  Ho2  1  0.466457  0.999846  0.250049  1
  Lu  Lu3  1  0.998655  0.467419  0.750020  1
  Lu  Lu4  1  0.001857  0.532351  0.249965  1
  Lu  Lu5  1  0.533177  0.001235  0.750014  1
  Ta  Ta6  1  0.000274  0.000110  0.501021  1
  Ta  Ta7  1  0.000256  0.000117  0.998949  1
  O  O8  1  0.645068  0.356080  0.750282  1
  O  O9  1  0.355763  0.639670  0.249697  1
  O  O10  1  0.931672  0.073260  0.750005  1
  O  O11  1  0.067024  0.929682  0.249981  1
  O  O12  1  0.935456  0.677538  0.535888  1
  O  O13  1  0.064064  0.320992  0.037062  1
  O  O14  1  0.321727  0.068525  0.962304  1
  O  O15  1  0.675531  0.927885  0.470107  1
  O  O16  1  0.361267  0.637396  0.749909  1
  O  O17  1  0.641067  0.368394  0.250106  1
  O  O18  1  0.935528  0.677577  0.964090  1
  O  O19  1  0.064124  0.321007  0.462888  1
  O  O20  1  0.321793  0.068568  0.537667  1
  O  O21  1  0.675608  0.928010  0.029943  1
