# generated using pymatgen
data_Nd3Gd3(RuI3)2
_symmetry_space_group_name_H-M   'P 1'
_cell_length_a   4.37728000
_cell_length_b   9.23352618
_cell_length_c   12.75029500
_cell_angle_alpha   85.43581831
_cell_angle_beta   90.00000000
_cell_angle_gamma   90.00000000
_symmetry_Int_Tables_number   1
_chemical_formula_structural   Nd3Gd3(RuI3)2
_chemical_formula_sum   'Nd3 Gd3 Ru2 I6'
_cell_volume   513.70374423
_cell_formula_units_Z   1
loop_
 _symmetry_equiv_pos_site_id
 _symmetry_equiv_pos_as_xyz
  1  'x, y, z'
loop_
 _atom_site_type_symbol
 _atom_site_label
 _atom_site_symmetry_multiplicity
 _atom_site_fract_x
 _atom_site_fract_y
 _atom_site_fract_z
 _atom_site_occupancy
  Nd  Nd0  1  0.250000  0.903646  0.314384  1
  Nd  Nd1  1  0.250000  0.271911  0.896865  1
  Nd  Nd2  1  0.750000  0.728613  0.101038  1
  Gd  Gd3  1  0.750000  0.120454  0.118344  1
  Gd  Gd4  1  0.250000  0.880978  0.882029  1
  Gd  Gd5  1  0.750000  0.095471  0.690456  1
  Ru  Ru6  1  0.750000  0.060201  0.905972  1
  Ru  Ru7  1  0.250000  0.940119  0.094849  1
  I  I8  1  0.250000  0.416887  0.130634  1
  I  I9  1  0.750000  0.583454  0.866493  1
  I  I10  1  0.250000  0.336966  0.639212  1
  I  I11  1  0.750000  0.652614  0.358812  1
  I  I12  1  0.750000  0.141218  0.383955  1
  I  I13  1  0.250000  0.867469  0.616959  1
