# generated using pymatgen
data_Lu8CoB24RuW2
_symmetry_space_group_name_H-M   'P 1'
_cell_length_a   3.54385700
_cell_length_b   9.10267483
_cell_length_c   11.47170485
_cell_angle_alpha   90.10035441
_cell_angle_beta   90.00000000
_cell_angle_gamma   90.00000000
_symmetry_Int_Tables_number   1
_chemical_formula_structural   Lu8CoB24RuW2
_chemical_formula_sum   'Lu8 Co1 B24 Ru1 W2'
_cell_volume   370.06031705
_cell_formula_units_Z   1
loop_
 _symmetry_equiv_pos_site_id
 _symmetry_equiv_pos_as_xyz
  1  'x, y, z'
loop_
 _atom_site_type_symbol
 _atom_site_label
 _atom_site_symmetry_multiplicity
 _atom_site_fract_x
 _atom_site_fract_y
 _atom_site_fract_z
 _atom_site_occupancy
  Lu  Lu0  1  0.000000  0.819479  0.086783  1
  Lu  Lu1  1  0.000000  0.177885  0.915301  1
  Lu  Lu2  1  0.000000  0.321835  0.415270  1
  Lu  Lu3  1  0.000000  0.679842  0.586888  1
  Lu  Lu4  1  0.000000  0.440883  0.126972  1
  Lu  Lu5  1  0.000000  0.552094  0.868880  1
  Lu  Lu6  1  0.000000  0.947236  0.372048  1
  Lu  Lu7  1  0.000000  0.061866  0.628428  1
  Co  Co8  1  0.000000  0.361124  0.679351  1
  B  B9  1  0.500000  0.053705  0.067737  1
  B  B10  1  0.500000  0.949303  0.937033  1
  B  B11  1  0.500000  0.549934  0.437999  1
  B  B12  1  0.500000  0.444487  0.568246  1
  B  B13  1  0.500000  0.248078  0.079883  1
  B  B14  1  0.500000  0.745299  0.921768  1
  B  B15  1  0.500000  0.754071  0.423578  1
  B  B16  1  0.500000  0.253342  0.581782  1
  B  B17  1  0.500000  0.291232  0.234324  1
  B  B18  1  0.500000  0.702519  0.760791  1
  B  B19  1  0.500000  0.796573  0.262765  1
  B  B20  1  0.500000  0.210643  0.734732  1
  B  B21  1  0.500000  0.132714  0.315623  1
  B  B22  1  0.500000  0.870057  0.680989  1
  B  B23  1  0.500000  0.630466  0.181322  1
  B  B24  1  0.500000  0.367373  0.814776  1
  B  B25  1  0.500000  0.475498  0.287428  1
  B  B26  1  0.500000  0.513315  0.710972  1
  B  B27  1  0.500000  0.983372  0.212708  1
  B  B28  1  0.500000  0.024567  0.787715  1
  B  B29  1  0.500000  0.107120  0.472009  1
  B  B30  1  0.500000  0.901833  0.528326  1
  B  B31  1  0.500000  0.599217  0.026761  1
  B  B32  1  0.500000  0.394255  0.969815  1
  Ru  Ru33  1  0.000000  0.139110  0.179790  1
  W  W34  1  0.000000  0.861238  0.819932  1
  W  W35  1  0.000000  0.638435  0.321275  1
