# generated using pymatgen
data_Ac4MgZn3Ir4
_symmetry_space_group_name_H-M   'P 1'
_cell_length_a   4.25780200
_cell_length_b   7.46805580
_cell_length_c   8.72069124
_cell_angle_alpha   90.55554275
_cell_angle_beta   90.00000000
_cell_angle_gamma   90.00000000
_symmetry_Int_Tables_number   1
_chemical_formula_structural   Ac4MgZn3Ir4
_chemical_formula_sum   'Ac4 Mg1 Zn3 Ir4'
_cell_volume   277.28317050
_cell_formula_units_Z   1
loop_
 _symmetry_equiv_pos_site_id
 _symmetry_equiv_pos_as_xyz
  1  'x, y, z'
loop_
 _atom_site_type_symbol
 _atom_site_label
 _atom_site_symmetry_multiplicity
 _atom_site_fract_x
 _atom_site_fract_y
 _atom_site_fract_z
 _atom_site_occupancy
  Ac  Ac0  1  0.250000  0.037167  0.310817  1
  Ac  Ac1  1  0.250000  0.533267  0.184823  1
  Ac  Ac2  1  0.750000  0.970760  0.691137  1
  Ac  Ac3  1  0.750000  0.459867  0.819105  1
  Mg  Mg4  1  0.250000  0.633078  0.559139  1
  Zn  Zn5  1  0.250000  0.133345  0.943437  1
  Zn  Zn6  1  0.750000  0.369236  0.444159  1
  Zn  Zn7  1  0.750000  0.860901  0.057668  1
  Ir  Ir8  1  0.250000  0.266942  0.616229  1
  Ir  Ir9  1  0.250000  0.770711  0.882504  1
  Ir  Ir10  1  0.750000  0.734532  0.377444  1
  Ir  Ir11  1  0.750000  0.230191  0.113539  1
