# generated using pymatgen
data_NdEu2Tm5(B6Os)4
_symmetry_space_group_name_H-M   'P 1'
_cell_length_a   3.65835600
_cell_length_b   9.17220616
_cell_length_c   11.59570063
_cell_angle_alpha   89.96838650
_cell_angle_beta   90.00000000
_cell_angle_gamma   90.00000000
_symmetry_Int_Tables_number   1
_chemical_formula_structural   NdEu2Tm5(B6Os)4
_chemical_formula_sum   'Nd1 Eu2 Tm5 B24 Os4'
_cell_volume   389.09594147
_cell_formula_units_Z   1
loop_
 _symmetry_equiv_pos_site_id
 _symmetry_equiv_pos_as_xyz
  1  'x, y, z'
loop_
 _atom_site_type_symbol
 _atom_site_label
 _atom_site_symmetry_multiplicity
 _atom_site_fract_x
 _atom_site_fract_y
 _atom_site_fract_z
 _atom_site_occupancy
  Nd  Nd0  1  0.000000  0.823335  0.085189  1
  Eu  Eu1  1  0.000000  0.324278  0.414988  1
  Eu  Eu2  1  0.000000  0.675177  0.585754  1
  Tm  Tm3  1  0.000000  0.177730  0.914397  1
  Tm  Tm4  1  0.000000  0.945196  0.370985  1
  Tm  Tm5  1  0.000000  0.055243  0.628817  1
  Tm  Tm6  1  0.000000  0.444279  0.128047  1
  Tm  Tm7  1  0.000000  0.554745  0.871415  1
  B  B8  1  0.500000  0.556098  0.430648  1
  B  B9  1  0.500000  0.442709  0.570689  1
  B  B10  1  0.500000  0.057613  0.066557  1
  B  B11  1  0.500000  0.946717  0.930712  1
  B  B12  1  0.500000  0.750710  0.417156  1
  B  B13  1  0.500000  0.248940  0.584167  1
  B  B14  1  0.500000  0.250620  0.080302  1
  B  B15  1  0.500000  0.750288  0.916417  1
  B  B16  1  0.500000  0.792706  0.265778  1
  B  B17  1  0.500000  0.205614  0.736711  1
  B  B18  1  0.500000  0.292558  0.232799  1
  B  B19  1  0.500000  0.707919  0.766235  1
  B  B20  1  0.500000  0.631424  0.184930  1
  B  B21  1  0.500000  0.365931  0.817157  1
  B  B22  1  0.500000  0.132677  0.314216  1
  B  B23  1  0.500000  0.868514  0.685401  1
  B  B24  1  0.500000  0.987223  0.212885  1
  B  B25  1  0.500000  0.016299  0.787182  1
  B  B26  1  0.500000  0.485621  0.285883  1
  B  B27  1  0.500000  0.512723  0.714984  1
  B  B28  1  0.500000  0.601475  0.027169  1
  B  B29  1  0.500000  0.394738  0.971640  1
  B  B30  1  0.500000  0.100439  0.473139  1
  B  B31  1  0.500000  0.899826  0.526972  1
  Os  Os32  1  0.000000  0.641530  0.318165  1
  Os  Os33  1  0.000000  0.356496  0.683966  1
  Os  Os34  1  0.000000  0.140460  0.178351  1
  Os  Os35  1  0.000000  0.862148  0.820200  1
