# generated using pymatgen
data_YbPrAl20Ru3Rh
_symmetry_space_group_name_H-M   'P 1'
_cell_length_a   6.88383410
_cell_length_b   6.88434353
_cell_length_c   9.19279038
_cell_angle_alpha   90.07665128
_cell_angle_beta   90.21327439
_cell_angle_gamma   96.80541449
_symmetry_Int_Tables_number   1
_chemical_formula_structural   YbPrAl20Ru3Rh
_chemical_formula_sum   'Yb1 Pr1 Al20 Ru3 Rh1'
_cell_volume   432.57941382
_cell_formula_units_Z   1
loop_
 _symmetry_equiv_pos_site_id
 _symmetry_equiv_pos_as_xyz
  1  'x, y, z'
loop_
 _atom_site_type_symbol
 _atom_site_label
 _atom_site_symmetry_multiplicity
 _atom_site_fract_x
 _atom_site_fract_y
 _atom_site_fract_z
 _atom_site_occupancy
  Yb  Yb0  1  0.122951  0.874397  0.250166  1
  Pr  Pr1  1  0.877422  0.124307  0.750466  1
  Al  Al2  1  0.587514  0.858680  0.250892  1
  Al  Al3  1  0.780273  0.521225  0.249551  1
  Al  Al4  1  0.158957  0.839299  0.898885  1
  Al  Al5  1  0.410631  0.139912  0.749050  1
  Al  Al6  1  0.622699  0.380390  0.948667  1
  Al  Al7  1  0.839297  0.159541  0.399087  1
  Al  Al8  1  0.775456  0.772022  0.002416  1
  Al  Al9  1  0.861160  0.590069  0.749509  1
  Al  Al10  1  0.840853  0.161102  0.102531  1
  Al  Al11  1  0.221915  0.482863  0.750402  1
  Al  Al12  1  0.159832  0.840983  0.599335  1
  Al  Al13  1  0.775001  0.772943  0.498244  1
  Al  Al14  1  0.478420  0.221125  0.252544  1
  Al  Al15  1  0.622222  0.378260  0.549830  1
  Al  Al16  1  0.226477  0.225455  0.499227  1
  Al  Al17  1  0.376379  0.623176  0.450226  1
  Al  Al18  1  0.140214  0.412343  0.250435  1
  Al  Al19  1  0.517522  0.776834  0.747161  1
  Al  Al20  1  0.376118  0.620768  0.051100  1
  Al  Al21  1  0.226541  0.226691  0.000594  1
  Ru  Ru22  1  0.500635  0.999639  0.499409  1
  Ru  Ru23  1  0.000373  0.499432  0.000504  1
  Ru  Ru24  1  0.000150  0.499098  0.499323  1
  Rh  Rh25  1  0.500988  0.999446  0.000447  1
