# generated using pymatgen
data_LiBe6Si6Ru11
_symmetry_space_group_name_H-M   'P 1'
_cell_length_a   4.04519400
_cell_length_b   5.76724300
_cell_length_c   12.10477800
_cell_angle_alpha   90.00000000
_cell_angle_beta   90.00185782
_cell_angle_gamma   90.00000000
_symmetry_Int_Tables_number   1
_chemical_formula_structural   LiBe6Si6Ru11
_chemical_formula_sum   'Li1 Be6 Si6 Ru11'
_cell_volume   282.39983187
_cell_formula_units_Z   1
loop_
 _symmetry_equiv_pos_site_id
 _symmetry_equiv_pos_as_xyz
  1  'x, y, z'
loop_
 _atom_site_type_symbol
 _atom_site_label
 _atom_site_symmetry_multiplicity
 _atom_site_fract_x
 _atom_site_fract_y
 _atom_site_fract_z
 _atom_site_occupancy
  Li  Li0  1  0.500000  0.249736  0.000000  1
  Be  Be1  1  0.000000  0.525148  0.000000  1
  Be  Be2  1  0.499897  0.986495  0.171938  1
  Be  Be3  1  0.999895  0.497292  0.331725  1
  Be  Be4  1  0.500000  0.010002  0.500000  1
  Be  Be5  1  0.000106  0.497292  0.668275  1
  Be  Be6  1  0.500103  0.986495  0.828062  1
  Si  Si7  1  0.000000  0.977751  0.000000  1
  Si  Si8  1  0.499912  0.509842  0.171875  1
  Si  Si9  1  0.999923  0.005619  0.330696  1
  Si  Si10  1  0.500000  0.489428  0.500000  1
  Si  Si11  1  0.000078  0.005619  0.669304  1
  Si  Si12  1  0.500088  0.509842  0.828126  1
  Ru  Ru13  1  0.500000  0.744554  0.000000  1
  Ru  Ru14  1  0.999890  0.252330  0.153339  1
  Ru  Ru15  1  0.999932  0.751412  0.167992  1
  Ru  Ru16  1  0.499932  0.248420  0.329542  1
  Ru  Ru17  1  0.499942  0.750449  0.338322  1
  Ru  Ru18  1  0.000000  0.249531  0.500000  1
  Ru  Ru19  1  0.000000  0.750139  0.500000  1
  Ru  Ru20  1  0.500069  0.248420  0.670458  1
  Ru  Ru21  1  0.500059  0.750449  0.661678  1
  Ru  Ru22  1  0.000110  0.252330  0.846661  1
  Ru  Ru23  1  0.000068  0.751412  0.832008  1
