# generated using pymatgen
data_Ca12La8Si15Pt
_symmetry_space_group_name_H-M   'P 1'
_cell_length_a   7.67681218
_cell_length_b   7.98627200
_cell_length_c   15.20369700
_cell_angle_alpha   89.91912428
_cell_angle_beta   89.37469674
_cell_angle_gamma   90.16885106
_symmetry_Int_Tables_number   1
_chemical_formula_structural   Ca12La8Si15Pt
_chemical_formula_sum   'Ca12 La8 Si15 Pt1'
_cell_volume   932.06460457
_cell_formula_units_Z   1
loop_
 _symmetry_equiv_pos_site_id
 _symmetry_equiv_pos_as_xyz
  1  'x, y, z'
loop_
 _atom_site_type_symbol
 _atom_site_label
 _atom_site_symmetry_multiplicity
 _atom_site_fract_x
 _atom_site_fract_y
 _atom_site_fract_z
 _atom_site_occupancy
  Ca  Ca0  1  0.152709  0.500931  0.749969  1
  Ca  Ca1  1  0.846411  0.499247  0.250775  1
  Ca  Ca2  1  0.348876  0.000483  0.250080  1
  Ca  Ca3  1  0.651640  0.998877  0.749171  1
  Ca  Ca4  1  0.330683  0.188603  0.623164  1
  Ca  Ca5  1  0.671772  0.816950  0.377034  1
  Ca  Ca6  1  0.173735  0.677639  0.377533  1
  Ca  Ca7  1  0.676209  0.817838  0.122259  1
  Ca  Ca8  1  0.824412  0.319023  0.621741  1
  Ca  Ca9  1  0.323898  0.182026  0.877755  1
  Ca  Ca10  1  0.824428  0.318545  0.878116  1
  Ca  Ca11  1  0.176093  0.681841  0.122199  1
  La  La12  1  0.026152  0.185840  0.098393  1
  La  La13  1  0.973775  0.816152  0.901959  1
  La  La14  1  0.473174  0.686429  0.901722  1
  La  La15  1  0.979244  0.807274  0.595591  1
  La  La16  1  0.526649  0.314710  0.098031  1
  La  La17  1  0.021243  0.188456  0.401562  1
  La  La18  1  0.519052  0.318025  0.403900  1
  La  La19  1  0.482534  0.675715  0.599417  1
  Si  Si20  1  0.035463  0.091496  0.746994  1
  Si  Si21  1  0.965301  0.911038  0.251180  1
  Si  Si22  1  0.464012  0.589837  0.247280  1
  Si  Si23  1  0.537659  0.410625  0.754547  1
  Si  Si24  1  0.259701  0.876735  0.749831  1
  Si  Si25  1  0.739316  0.124908  0.249071  1
  Si  Si26  1  0.239419  0.374679  0.249389  1
  Si  Si27  1  0.762411  0.625665  0.751580  1
  Si  Si28  1  0.841976  0.525225  0.462940  1
  Si  Si29  1  0.355189  0.972396  0.465733  1
  Si  Si30  1  0.859450  0.526785  0.038134  1
  Si  Si31  1  0.643830  0.026292  0.536709  1
  Si  Si32  1  0.140868  0.474547  0.961956  1
  Si  Si33  1  0.641659  0.024888  0.962085  1
  Si  Si34  1  0.358782  0.974988  0.037841  1
  Pt  Pt35  1  0.152278  0.475294  0.534356  1
