# generated using pymatgen
data_Nd3Dy(Y4Bi3)4
_symmetry_space_group_name_H-M   'P 1'
_cell_length_a   8.32844447
_cell_length_b   9.55418900
_cell_length_c   12.18199200
_cell_angle_alpha   90.00000000
_cell_angle_beta   90.01934524
_cell_angle_gamma   90.00000000
_symmetry_Int_Tables_number   1
_chemical_formula_structural   Nd3Dy(Y4Bi3)4
_chemical_formula_sum   'Nd3 Dy1 Y16 Bi12'
_cell_volume   969.33971816
_cell_formula_units_Z   1
loop_
 _symmetry_equiv_pos_site_id
 _symmetry_equiv_pos_as_xyz
  1  'x, y, z'
loop_
 _atom_site_type_symbol
 _atom_site_label
 _atom_site_symmetry_multiplicity
 _atom_site_fract_x
 _atom_site_fract_y
 _atom_site_fract_z
 _atom_site_occupancy
  Nd  Nd0  1  0.317743  0.250000  0.219392  1
  Nd  Nd1  1  0.816545  0.250000  0.280063  1
  Nd  Nd2  1  0.683204  0.750000  0.780762  1
  Dy  Dy3  1  0.184773  0.750000  0.717804  1
  Y  Y4  1  0.351612  0.750000  0.216061  1
  Y  Y5  1  0.852593  0.750000  0.284486  1
  Y  Y6  1  0.647011  0.250000  0.782567  1
  Y  Y7  1  0.147602  0.250000  0.716303  1
  Y  Y8  1  0.691005  0.563143  0.060734  1
  Y  Y9  1  0.192099  0.937441  0.439924  1
  Y  Y10  1  0.309155  0.062749  0.938619  1
  Y  Y11  1  0.807267  0.437559  0.560833  1
  Y  Y12  1  0.309155  0.437251  0.938619  1
  Y  Y13  1  0.807267  0.062441  0.560833  1
  Y  Y14  1  0.691005  0.936857  0.060734  1
  Y  Y15  1  0.192099  0.562559  0.439924  1
  Y  Y16  1  0.474372  0.250000  0.488320  1
  Y  Y17  1  0.976349  0.250000  0.011482  1
  Y  Y18  1  0.524442  0.750000  0.513947  1
  Y  Y19  1  0.024535  0.750000  0.987216  1
  Bi  Bi20  1  0.404672  0.750000  0.961185  1
  Bi  Bi21  1  0.910205  0.750000  0.540329  1
  Bi  Bi22  1  0.594287  0.250000  0.036682  1
  Bi  Bi23  1  0.092160  0.250000  0.462825  1
  Bi  Bi24  1  0.566162  0.991524  0.328928  1
  Bi  Bi25  1  0.065839  0.508176  0.171844  1
  Bi  Bi26  1  0.430329  0.493820  0.672888  1
  Bi  Bi27  1  0.937092  0.006075  0.826517  1
  Bi  Bi28  1  0.430329  0.006180  0.672888  1
  Bi  Bi29  1  0.937092  0.493925  0.826517  1
  Bi  Bi30  1  0.566162  0.508476  0.328928  1
  Bi  Bi31  1  0.065839  0.991824  0.171844  1
