# generated using pymatgen
data_Lu12AlTcNi4
_symmetry_space_group_name_H-M   'P 1'
_cell_length_a   8.08527899
_cell_length_b   8.08527901
_cell_length_c   8.08527845
_cell_angle_alpha   112.08310126
_cell_angle_beta   109.95950421
_cell_angle_gamma   106.42099880
_symmetry_Int_Tables_number   1
_chemical_formula_structural   Lu12AlTcNi4
_chemical_formula_sum   'Lu12 Al1 Tc1 Ni4'
_cell_volume   405.87031173
_cell_formula_units_Z   1
loop_
 _symmetry_equiv_pos_site_id
 _symmetry_equiv_pos_as_xyz
  1  'x, y, z'
loop_
 _atom_site_type_symbol
 _atom_site_label
 _atom_site_symmetry_multiplicity
 _atom_site_fract_x
 _atom_site_fract_y
 _atom_site_fract_z
 _atom_site_occupancy
  Lu  Lu0  1  0.419473  0.229478  0.189994  1
  Lu  Lu1  1  0.580527  0.770522  0.810006  1
  Lu  Lu2  1  0.039484  0.229478  0.810006  1
  Lu  Lu3  1  0.960516  0.770522  0.189994  1
  Lu  Lu4  1  0.180867  0.278548  0.459415  1
  Lu  Lu5  1  0.819133  0.721452  0.540585  1
  Lu  Lu6  1  0.180867  0.721452  0.902319  1
  Lu  Lu7  1  0.819133  0.278548  0.097681  1
  Lu  Lu8  1  0.323227  0.627193  0.303965  1
  Lu  Lu9  1  0.676773  0.372807  0.696035  1
  Lu  Lu10  1  0.323227  0.019262  0.696035  1
  Lu  Lu11  1  0.676773  0.980738  0.303965  1
  Al  Al12  1  0.500000  0.500000  0.000000  1
  Tc  Tc13  1  0.000000  0.000000  0.000000  1
  Ni  Ni14  1  0.350676  0.000000  0.350676  1
  Ni  Ni15  1  0.649324  0.000000  0.649324  1
  Ni  Ni16  1  0.120366  0.620366  0.500000  1
  Ni  Ni17  1  0.879634  0.379634  0.500000  1
