# generated using pymatgen
data_SrHo3Al18Pd5Ru
_symmetry_space_group_name_H-M   'P 1'
_cell_length_a   7.65015442
_cell_length_b   7.65270509
_cell_length_c   9.53113600
_cell_angle_alpha   90.01774418
_cell_angle_beta   90.09898868
_cell_angle_gamma   119.57911104
_symmetry_Int_Tables_number   1
_chemical_formula_structural   SrHo3Al18Pd5Ru
_chemical_formula_sum   'Sr1 Ho3 Al18 Pd5 Ru1'
_cell_volume   485.27260180
_cell_formula_units_Z   1
loop_
 _symmetry_equiv_pos_site_id
 _symmetry_equiv_pos_as_xyz
  1  'x, y, z'
loop_
 _atom_site_type_symbol
 _atom_site_label
 _atom_site_symmetry_multiplicity
 _atom_site_fract_x
 _atom_site_fract_y
 _atom_site_fract_z
 _atom_site_occupancy
  Sr  Sr0  1  0.994894  0.671788  0.249804  1
  Ho  Ho1  1  0.004853  0.330567  0.750421  1
  Ho  Ho2  1  0.670916  0.995576  0.249347  1
  Ho  Ho3  1  0.328171  0.002337  0.751076  1
  Al  Al4  1  0.131562  0.138527  0.248935  1
  Al  Al5  1  0.869480  0.872379  0.751088  1
  Al  Al6  1  0.994458  0.332322  0.070574  1
  Al  Al7  1  0.994499  0.658180  0.921431  1
  Al  Al8  1  0.998312  0.665444  0.582389  1
  Al  Al9  1  0.337321  0.005121  0.426204  1
  Al  Al10  1  0.001655  0.332735  0.427445  1
  Al  Al11  1  0.664774  0.000273  0.579171  1
  Al  Al12  1  0.665765  0.005089  0.923199  1
  Al  Al13  1  0.342926  0.006756  0.070775  1
  Al  Al14  1  0.332728  0.333091  0.563207  1
  Al  Al15  1  0.662329  0.665652  0.449414  1
  Al  Al16  1  0.665740  0.661022  0.044226  1
  Al  Al17  1  0.335962  0.330349  0.943769  1
  Al  Al18  1  0.347203  0.548658  0.249025  1
  Al  Al19  1  0.658906  0.448777  0.754077  1
  Al  Al20  1  0.544750  0.333921  0.244168  1
  Al  Al21  1  0.454748  0.662404  0.751112  1
  Pd  Pd22  1  0.328309  0.671238  0.997697  1
  Pd  Pd23  1  0.327538  0.672116  0.502366  1
  Pd  Pd24  1  0.670686  0.327404  0.502143  1
  Pd  Pd25  1  0.001284  0.001356  0.997883  1
  Pd  Pd26  1  0.000385  0.001615  0.502193  1
  Ru  Ru27  1  0.669846  0.325302  0.996859  1
