# generated using pymatgen
data_Ac3IrBr3
_symmetry_space_group_name_H-M   'P 1'
_cell_length_a   11.03806582
_cell_length_b   11.03806647
_cell_length_c   11.03806600
_cell_angle_alpha   109.47122344
_cell_angle_beta   109.47122463
_cell_angle_gamma   109.47122063
_symmetry_Int_Tables_number   1
_chemical_formula_structural   Ac3IrBr3
_chemical_formula_sum   'Ac12 Ir4 Br12'
_cell_volume   1035.27813973
_cell_formula_units_Z   4
loop_
 _symmetry_equiv_pos_site_id
 _symmetry_equiv_pos_as_xyz
  1  'x, y, z'
loop_
 _atom_site_type_symbol
 _atom_site_label
 _atom_site_symmetry_multiplicity
 _atom_site_fract_x
 _atom_site_fract_y
 _atom_site_fract_z
 _atom_site_occupancy
  Ac  Ac0  1  0.265794  0.750000  0.234206  1
  Ac  Ac1  1  0.484206  0.750000  0.015794  1
  Ac  Ac2  1  0.234206  0.468411  0.484206  1
  Ac  Ac3  1  0.015794  0.031589  0.265794  1
  Ac  Ac4  1  0.234206  0.265794  0.750000  1
  Ac  Ac5  1  0.015794  0.484206  0.750000  1
  Ac  Ac6  1  0.484206  0.234206  0.468411  1
  Ac  Ac7  1  0.265794  0.015794  0.031589  1
  Ac  Ac8  1  0.750000  0.234206  0.265794  1
  Ac  Ac9  1  0.750000  0.015794  0.484206  1
  Ac  Ac10  1  0.468411  0.484206  0.234206  1
  Ac  Ac11  1  0.031589  0.265794  0.015794  1
  Ir  Ir12  1  0.500000  0.000000  0.250000  1
  Ir  Ir13  1  0.250000  0.500000  0.000000  1
  Ir  Ir14  1  0.000000  0.250000  0.500000  1
  Ir  Ir15  1  0.250000  0.250000  0.250000  1
  Br  Br16  1  0.250000  0.993676  0.506324  1
  Br  Br17  1  0.512648  0.506324  0.756324  1
  Br  Br18  1  0.250000  0.756324  0.743676  1
  Br  Br19  1  0.987352  0.743676  0.993676  1
  Br  Br20  1  0.993676  0.506324  0.250000  1
  Br  Br21  1  0.743676  0.993676  0.987352  1
  Br  Br22  1  0.756324  0.743676  0.250000  1
  Br  Br23  1  0.506324  0.756324  0.512648  1
  Br  Br24  1  0.506324  0.250000  0.993676  1
  Br  Br25  1  0.756324  0.512648  0.506324  1
  Br  Br26  1  0.743676  0.250000  0.756324  1
  Br  Br27  1  0.993676  0.987352  0.743676  1
