# generated using pymatgen
data_Lu3BeCo9SiB4
_symmetry_space_group_name_H-M   'P 1'
_cell_length_a   5.01831201
_cell_length_b   5.01587606
_cell_length_c   9.35562500
_cell_angle_alpha   89.99928725
_cell_angle_beta   90.00145669
_cell_angle_gamma   120.00984754
_symmetry_Int_Tables_number   1
_chemical_formula_structural   Lu3BeCo9SiB4
_chemical_formula_sum   'Lu3 Be1 Co9 Si1 B4'
_cell_volume   203.92233240
_cell_formula_units_Z   1
loop_
 _symmetry_equiv_pos_site_id
 _symmetry_equiv_pos_as_xyz
  1  'x, y, z'
loop_
 _atom_site_type_symbol
 _atom_site_label
 _atom_site_symmetry_multiplicity
 _atom_site_fract_x
 _atom_site_fract_y
 _atom_site_fract_z
 _atom_site_occupancy
  Lu  Lu0  1  0.999984  0.999939  0.999985  1
  Lu  Lu1  1  0.999997  0.999993  0.337765  1
  Lu  Lu2  1  0.999993  0.999984  0.662287  1
  Be  Be3  1  0.666531  0.333249  0.000005  1
  Co  Co4  1  0.499491  0.999013  0.499996  1
  Co  Co5  1  0.499484  0.500509  0.500023  1
  Co  Co6  1  0.000994  0.500516  0.499999  1
  Co  Co7  1  0.500920  0.001821  0.193104  1
  Co  Co8  1  0.500877  0.499112  0.193142  1
  Co  Co9  1  0.998167  0.499070  0.193146  1
  Co  Co10  1  0.500939  0.001847  0.806883  1
  Co  Co11  1  0.500896  0.499096  0.806826  1
  Co  Co12  1  0.998179  0.499074  0.806824  1
  Si  Si13  1  0.333507  0.666820  0.000013  1
  B  B14  1  0.333279  0.666718  0.342755  1
  B  B15  1  0.666675  0.333255  0.344229  1
  B  B16  1  0.666663  0.333210  0.655769  1
  B  B17  1  0.333319  0.666773  0.657249  1
