# generated using pymatgen
data_Be6Co12Si5P
_symmetry_space_group_name_H-M   'P 1'
_cell_length_a   3.79326012
_cell_length_b   5.38285000
_cell_length_c   11.38122537
_cell_angle_alpha   90.00000000
_cell_angle_beta   90.02929105
_cell_angle_gamma   90.00000000
_symmetry_Int_Tables_number   1
_chemical_formula_structural   Be6Co12Si5P
_chemical_formula_sum   'Be6 Co12 Si5 P1'
_cell_volume   232.38809189
_cell_formula_units_Z   1
loop_
 _symmetry_equiv_pos_site_id
 _symmetry_equiv_pos_as_xyz
  1  'x, y, z'
loop_
 _atom_site_type_symbol
 _atom_site_label
 _atom_site_symmetry_multiplicity
 _atom_site_fract_x
 _atom_site_fract_y
 _atom_site_fract_z
 _atom_site_occupancy
  Be  Be0  1  0.000000  0.000000  0.000000  1
  Be  Be1  1  0.499715  0.500001  0.171269  1
  Be  Be2  1  0.999729  0.000000  0.331810  1
  Be  Be3  1  0.499999  0.500001  0.500000  1
  Be  Be4  1  0.000271  0.000000  0.668190  1
  Be  Be5  1  0.500285  0.500001  0.828731  1
  Co  Co6  1  0.499999  0.258123  0.000000  1
  Co  Co7  1  0.499999  0.741877  0.000000  1
  Co  Co8  1  0.999756  0.253541  0.163000  1
  Co  Co9  1  0.999756  0.746458  0.163000  1
  Co  Co10  1  0.499766  0.249134  0.332941  1
  Co  Co11  1  0.499766  0.750866  0.332941  1
  Co  Co12  1  0.000000  0.250242  0.500000  1
  Co  Co13  1  0.000000  0.749757  0.500000  1
  Co  Co14  1  0.500234  0.249134  0.667059  1
  Co  Co15  1  0.500234  0.750866  0.667059  1
  Co  Co16  1  0.000244  0.253541  0.837000  1
  Co  Co17  1  0.000244  0.746458  0.837000  1
  Si  Si18  1  0.499759  0.000000  0.165405  1
  Si  Si19  1  0.999772  0.500001  0.332428  1
  Si  Si20  1  0.499999  0.000000  0.500000  1
  Si  Si21  1  0.000228  0.500001  0.667572  1
  Si  Si22  1  0.500241  0.000000  0.834595  1
  P  P23  1  0.000000  0.500001  0.000000  1
