# generated using pymatgen
data_Rb2VF5
_symmetry_space_group_name_H-M   'P 1'
_cell_length_a   5.95714400
_cell_length_b   7.75962800
_cell_length_c   12.25866700
_cell_angle_alpha   90.00000000
_cell_angle_beta   90.00000000
_cell_angle_gamma   90.00000000
_symmetry_Int_Tables_number   1
_chemical_formula_structural   Rb2VF5
_chemical_formula_sum   'Rb8 V4 F20'
_cell_volume   566.65959593
_cell_formula_units_Z   4
loop_
 _symmetry_equiv_pos_site_id
 _symmetry_equiv_pos_as_xyz
  1  'x, y, z'
loop_
 _atom_site_type_symbol
 _atom_site_label
 _atom_site_symmetry_multiplicity
 _atom_site_fract_x
 _atom_site_fract_y
 _atom_site_fract_z
 _atom_site_occupancy
  Rb  Rb0  1  0.250000  0.486530  0.274171  1
  Rb  Rb1  1  0.750000  0.513470  0.725829  1
  Rb  Rb2  1  0.250000  0.986530  0.225829  1
  Rb  Rb3  1  0.750000  0.013470  0.774171  1
  Rb  Rb4  1  0.250000  0.152978  0.583605  1
  Rb  Rb5  1  0.750000  0.847022  0.416395  1
  Rb  Rb6  1  0.250000  0.652978  0.916395  1
  Rb  Rb7  1  0.750000  0.347022  0.083605  1
  V  V8  1  0.250000  0.661072  0.561445  1
  V  V9  1  0.750000  0.338928  0.438555  1
  V  V10  1  0.250000  0.161072  0.938555  1
  V  V11  1  0.750000  0.838928  0.061445  1
  F  F12  1  0.512940  0.188427  0.384318  1
  F  F13  1  0.012940  0.811573  0.615682  1
  F  F14  1  0.987060  0.688427  0.115682  1
  F  F15  1  0.487060  0.311573  0.884318  1
  F  F16  1  0.487060  0.811573  0.615682  1
  F  F17  1  0.987060  0.188427  0.384318  1
  F  F18  1  0.012940  0.311573  0.884318  1
  F  F19  1  0.512940  0.688427  0.115682  1
  F  F20  1  0.250000  0.775147  0.417698  1
  F  F21  1  0.750000  0.224853  0.582302  1
  F  F22  1  0.250000  0.275147  0.082302  1
  F  F23  1  0.750000  0.724853  0.917698  1
  F  F24  1  0.500000  0.500000  0.500000  1
  F  F25  1  0.000000  0.500000  0.500000  1
  F  F26  1  0.000000  0.000000  0.000000  1
  F  F27  1  0.500000  0.000000  0.000000  1
  F  F28  1  0.750000  0.982831  0.189738  1
  F  F29  1  0.250000  0.017169  0.810262  1
  F  F30  1  0.750000  0.482831  0.310262  1
  F  F31  1  0.250000  0.517169  0.689738  1
