# generated using pymatgen
data_Ag2AsPtF12
_symmetry_space_group_name_H-M   'P 1'
_cell_length_a   5.43589153
_cell_length_b   5.76403442
_cell_length_c   7.97332345
_cell_angle_alpha   96.53093644
_cell_angle_beta   89.77371384
_cell_angle_gamma   90.41395275
_symmetry_Int_Tables_number   1
_chemical_formula_structural   Ag2AsPtF12
_chemical_formula_sum   'Ag2 As1 Pt1 F12'
_cell_volume   248.19655138
_cell_formula_units_Z   1
loop_
 _symmetry_equiv_pos_site_id
 _symmetry_equiv_pos_as_xyz
  1  'x, y, z'
loop_
 _atom_site_type_symbol
 _atom_site_label
 _atom_site_symmetry_multiplicity
 _atom_site_fract_x
 _atom_site_fract_y
 _atom_site_fract_z
 _atom_site_occupancy
  Ag  Ag0  1  0.000000  0.000000  0.000000  1
  Ag  Ag1  1  0.500000  0.500000  0.500000  1
  As  As2  1  0.500000  0.500000  0.000000  1
  Pt  Pt3  1  0.000000  0.000000  0.500000  1
  F  F4  1  0.862203  0.994235  0.727385  1
  F  F5  1  0.148687  0.307103  0.569055  1
  F  F6  1  0.238696  0.635291  0.920083  1
  F  F7  1  0.343916  0.487826  0.194966  1
  F  F8  1  0.378401  0.220280  0.924791  1
  F  F9  1  0.297556  0.847406  0.571605  1
  F  F10  1  0.702444  0.152594  0.428395  1
  F  F11  1  0.621599  0.779720  0.075209  1
  F  F12  1  0.656084  0.512174  0.805034  1
  F  F13  1  0.761304  0.364709  0.079917  1
  F  F14  1  0.851313  0.692897  0.430945  1
  F  F15  1  0.137797  0.005765  0.272615  1
