# generated using pymatgen
data_Ti8VRe3Ir4
_symmetry_space_group_name_H-M   'P 1'
_cell_length_a   6.22974700
_cell_length_b   4.40176500
_cell_length_c   8.78849100
_cell_angle_alpha   90.00000000
_cell_angle_beta   90.00072377
_cell_angle_gamma   90.00000000
_symmetry_Int_Tables_number   1
_chemical_formula_structural   Ti8VRe3Ir4
_chemical_formula_sum   'Ti8 V1 Re3 Ir4'
_cell_volume   240.99696582
_cell_formula_units_Z   1
loop_
 _symmetry_equiv_pos_site_id
 _symmetry_equiv_pos_as_xyz
  1  'x, y, z'
loop_
 _atom_site_type_symbol
 _atom_site_label
 _atom_site_symmetry_multiplicity
 _atom_site_fract_x
 _atom_site_fract_y
 _atom_site_fract_z
 _atom_site_occupancy
  Ti  Ti0  1  0.000507  0.750001  0.125009  1
  Ti  Ti1  1  0.499521  0.750001  0.125000  1
  Ti  Ti2  1  0.000640  0.249999  0.375806  1
  Ti  Ti3  1  0.499409  0.249999  0.375812  1
  Ti  Ti4  1  0.500163  0.750001  0.624999  1
  Ti  Ti5  1  0.999784  0.750001  0.625004  1
  Ti  Ti6  1  0.499360  0.249999  0.874189  1
  Ti  Ti7  1  0.000601  0.249999  0.874188  1
  V  V8  1  0.750042  0.249999  0.124994  1
  Re  Re9  1  0.250007  0.750001  0.375473  1
  Re  Re10  1  0.749994  0.249999  0.625004  1
  Re  Re11  1  0.249974  0.750001  0.874526  1
  Ir  Ir12  1  0.250019  0.249999  0.124994  1
  Ir  Ir13  1  0.750021  0.750001  0.372208  1
  Ir  Ir14  1  0.249984  0.249999  0.624994  1
  Ir  Ir15  1  0.749976  0.750001  0.877798  1
