# generated using pymatgen
data_SrNd3IrRh3O14
_symmetry_space_group_name_H-M   'P 1'
_cell_length_a   7.42097667
_cell_length_b   7.39523034
_cell_length_c   7.43417500
_cell_angle_alpha   59.82563807
_cell_angle_beta   59.94114522
_cell_angle_gamma   59.80932649
_symmetry_Int_Tables_number   1
_chemical_formula_structural   SrNd3IrRh3O14
_chemical_formula_sum   'Sr1 Nd3 Ir1 Rh3 O14'
_cell_volume   287.56394168
_cell_formula_units_Z   1
loop_
 _symmetry_equiv_pos_site_id
 _symmetry_equiv_pos_as_xyz
  1  'x, y, z'
loop_
 _atom_site_type_symbol
 _atom_site_label
 _atom_site_symmetry_multiplicity
 _atom_site_fract_x
 _atom_site_fract_y
 _atom_site_fract_z
 _atom_site_occupancy
  Sr  Sr0  1  0.125000  0.625000  0.125000  1
  Nd  Nd1  1  0.625000  0.125000  0.125000  1
  Nd  Nd2  1  0.125000  0.125000  0.625000  1
  Nd  Nd3  1  0.125000  0.125000  0.125000  1
  Ir  Ir4  1  0.125000  0.625000  0.625000  1
  Rh  Rh5  1  0.625000  0.125000  0.625000  1
  Rh  Rh6  1  0.625000  0.625000  0.125000  1
  Rh  Rh7  1  0.625000  0.625000  0.625000  1
  O  O8  1  0.696425  0.708460  0.297557  1
  O  O9  1  0.294937  0.298242  0.703410  1
  O  O10  1  0.707523  0.292716  0.704880  1
  O  O11  1  0.296039  0.706504  0.303826  1
  O  O12  1  0.296039  0.706504  0.693630  1
  O  O13  1  0.707523  0.292716  0.294881  1
  O  O14  1  0.553575  0.541540  0.952443  1
  O  O15  1  0.955063  0.951758  0.546590  1
  O  O16  1  0.542477  0.957284  0.545120  1
  O  O17  1  0.953961  0.543496  0.946174  1
  O  O18  1  0.953961  0.543496  0.556370  1
  O  O19  1  0.542477  0.957284  0.955119  1
  O  O20  1  0.252404  0.238578  0.254509  1
  O  O21  1  0.997596  0.011422  0.995491  1
