# generated using pymatgen
data_Pr5Nd7Ir3AuI12
_symmetry_space_group_name_H-M   'P 1'
_cell_length_a   10.98506383
_cell_length_b   10.98814510
_cell_length_c   10.99014069
_cell_angle_alpha   109.88147071
_cell_angle_beta   109.84799782
_cell_angle_gamma   109.73731540
_symmetry_Int_Tables_number   1
_chemical_formula_structural   Pr5Nd7Ir3AuI12
_chemical_formula_sum   'Pr5 Nd7 Ir3 Au1 I12'
_cell_volume   1007.70205611
_cell_formula_units_Z   1
loop_
 _symmetry_equiv_pos_site_id
 _symmetry_equiv_pos_as_xyz
  1  'x, y, z'
loop_
 _atom_site_type_symbol
 _atom_site_label
 _atom_site_symmetry_multiplicity
 _atom_site_fract_x
 _atom_site_fract_y
 _atom_site_fract_z
 _atom_site_occupancy
  Pr  Pr0  1  0.480213  0.750805  0.021230  1
  Pr  Pr1  1  0.487664  0.223461  0.459590  1
  Pr  Pr2  1  0.020065  0.479161  0.749596  1
  Pr  Pr3  1  0.276162  0.012517  0.040283  1
  Pr  Pr4  1  0.227694  0.271848  0.749763  1
  Nd  Nd5  1  0.458471  0.487316  0.223044  1
  Nd  Nd6  1  0.751068  0.227625  0.273119  1
  Nd  Nd7  1  0.749652  0.020845  0.478577  1
  Nd  Nd8  1  0.222743  0.458306  0.486647  1
  Nd  Nd9  1  0.272392  0.749137  0.227264  1
  Nd  Nd10  1  0.041695  0.277301  0.013345  1
  Nd  Nd11  1  0.012523  0.041635  0.277258  1
  Ir  Ir12  1  0.501947  0.998740  0.250752  1
  Ir  Ir13  1  0.997967  0.249221  0.499745  1
  Ir  Ir14  1  0.250029  0.501308  0.000295  1
  Au  Au15  1  0.249144  0.250874  0.249992  1
  I  I16  1  0.249936  0.759436  0.739032  1
  I  I17  1  0.514543  0.506693  0.755775  1
  I  I18  1  0.985367  0.743879  0.994683  1
  I  I19  1  0.740584  0.249271  0.760297  1
  I  I20  1  0.992686  0.985426  0.743590  1
  I  I21  1  0.249083  0.992685  0.505310  1
  I  I22  1  0.756146  0.514694  0.505336  1
  I  I23  1  0.507297  0.250887  0.994696  1
  I  I24  1  0.760148  0.740506  0.250786  1
  I  I25  1  0.744801  0.994686  0.986202  1
  I  I26  1  0.994061  0.505947  0.250036  1
  I  I27  1  0.505919  0.755792  0.513757  1
