# generated using pymatgen
data_Hf4Ta6ReOs
_symmetry_space_group_name_H-M   'P 1'
_cell_length_a   5.60757000
_cell_length_b   5.60756907
_cell_length_c   8.55082000
_cell_angle_alpha   90.00000000
_cell_angle_beta   90.00000000
_cell_angle_gamma   120.00000548
_symmetry_Int_Tables_number   1
_chemical_formula_structural   Hf4Ta6ReOs
_chemical_formula_sum   'Hf4 Ta6 Re1 Os1'
_cell_volume   232.85614716
_cell_formula_units_Z   1
loop_
 _symmetry_equiv_pos_site_id
 _symmetry_equiv_pos_as_xyz
  1  'x, y, z'
loop_
 _atom_site_type_symbol
 _atom_site_label
 _atom_site_symmetry_multiplicity
 _atom_site_fract_x
 _atom_site_fract_y
 _atom_site_fract_z
 _atom_site_occupancy
  Hf  Hf0  1  0.333333  0.666667  0.438651  1
  Hf  Hf1  1  0.666667  0.333333  0.561349  1
  Hf  Hf2  1  0.666667  0.333333  0.938532  1
  Hf  Hf3  1  0.333333  0.666667  0.061468  1
  Ta  Ta4  1  0.831255  0.168745  0.249952  1
  Ta  Ta5  1  0.831255  0.662511  0.249952  1
  Ta  Ta6  1  0.337489  0.168745  0.249952  1
  Ta  Ta7  1  0.168745  0.831255  0.750048  1
  Ta  Ta8  1  0.168745  0.337489  0.750048  1
  Ta  Ta9  1  0.662511  0.831255  0.750048  1
  Re  Re10  1  0.000000  0.000000  0.500000  1
  Os  Os11  1  0.000000  0.000000  0.000000  1
