# generated using pymatgen
data_Er4NiB14
_symmetry_space_group_name_H-M   'P 1'
_cell_length_a   7.19091800
_cell_length_b   7.19091800
_cell_length_c   7.43888800
_cell_angle_alpha   90.00000000
_cell_angle_beta   90.00000000
_cell_angle_gamma   90.00000000
_symmetry_Int_Tables_number   1
_chemical_formula_structural   Er4NiB14
_chemical_formula_sum   'Er8 Ni2 B28'
_cell_volume   384.65970378
_cell_formula_units_Z   2
loop_
 _symmetry_equiv_pos_site_id
 _symmetry_equiv_pos_as_xyz
  1  'x, y, z'
loop_
 _atom_site_type_symbol
 _atom_site_label
 _atom_site_symmetry_multiplicity
 _atom_site_fract_x
 _atom_site_fract_y
 _atom_site_fract_z
 _atom_site_occupancy
  Er  Er0  1  0.193819  0.332034  0.000000  1
  Er  Er1  1  0.667966  0.193819  0.000000  1
  Er  Er2  1  0.332034  0.806181  0.000000  1
  Er  Er3  1  0.693819  0.167966  0.500000  1
  Er  Er4  1  0.306181  0.832034  0.500000  1
  Er  Er5  1  0.806181  0.667966  0.000000  1
  Er  Er6  1  0.832034  0.693819  0.500000  1
  Er  Er7  1  0.167966  0.306181  0.500000  1
  Ni  Ni8  1  0.000000  0.000000  0.000000  1
  Ni  Ni9  1  0.500000  0.500000  0.500000  1
  B  B10  1  0.175124  0.039365  0.232116  1
  B  B11  1  0.960635  0.175124  0.232116  1
  B  B12  1  0.039365  0.824876  0.232116  1
  B  B13  1  0.675124  0.460635  0.267884  1
  B  B14  1  0.324876  0.539365  0.267884  1
  B  B15  1  0.824876  0.960635  0.232116  1
  B  B16  1  0.539365  0.675124  0.267884  1
  B  B17  1  0.460635  0.324876  0.267884  1
  B  B18  1  0.824876  0.960635  0.767884  1
  B  B19  1  0.039365  0.824876  0.767884  1
  B  B20  1  0.960635  0.175124  0.767884  1
  B  B21  1  0.324876  0.539365  0.732116  1
  B  B22  1  0.675124  0.460635  0.732116  1
  B  B23  1  0.175124  0.039365  0.767884  1
  B  B24  1  0.460635  0.324876  0.732116  1
  B  B25  1  0.539365  0.675124  0.732116  1
  B  B26  1  0.088890  0.588890  0.250000  1
  B  B27  1  0.411110  0.088890  0.250000  1
  B  B28  1  0.588890  0.911110  0.250000  1
  B  B29  1  0.911110  0.411110  0.250000  1
  B  B30  1  0.911110  0.411110  0.750000  1
  B  B31  1  0.588890  0.911110  0.750000  1
  B  B32  1  0.411110  0.088890  0.750000  1
  B  B33  1  0.088890  0.588890  0.750000  1
  B  B34  1  0.000000  0.000000  0.388738  1
  B  B35  1  0.500000  0.500000  0.111262  1
  B  B36  1  0.000000  0.000000  0.611262  1
  B  B37  1  0.500000  0.500000  0.888738  1
