# generated using pymatgen
data_Tb5HoAl18
_symmetry_space_group_name_H-M   'P 1'
_cell_length_a   14.42280830
_cell_length_b   14.42280814
_cell_length_c   14.42280900
_cell_angle_alpha   24.93724122
_cell_angle_beta   24.93724261
_cell_angle_gamma   24.93723887
_symmetry_Int_Tables_number   1
_chemical_formula_structural   Tb5HoAl18
_chemical_formula_sum   'Tb5 Ho1 Al18'
_cell_volume   469.17085181
_cell_formula_units_Z   1
loop_
 _symmetry_equiv_pos_site_id
 _symmetry_equiv_pos_as_xyz
  1  'x, y, z'
loop_
 _atom_site_type_symbol
 _atom_site_label
 _atom_site_symmetry_multiplicity
 _atom_site_fract_x
 _atom_site_fract_y
 _atom_site_fract_z
 _atom_site_occupancy
  Tb  Tb0  1  0.999938  0.999938  0.999938  1
  Tb  Tb1  1  0.500030  0.500030  0.500030  1
  Tb  Tb2  1  0.108511  0.108511  0.108511  1
  Tb  Tb3  1  0.891565  0.891565  0.891565  1
  Tb  Tb4  1  0.391330  0.391330  0.391330  1
  Ho  Ho5  1  0.608541  0.608541  0.608541  1
  Al  Al6  1  0.926927  0.369207  0.369207  1
  Al  Al7  1  0.427542  0.868514  0.868514  1
  Al  Al8  1  0.369207  0.369207  0.926927  1
  Al  Al9  1  0.868514  0.868514  0.427542  1
  Al  Al10  1  0.369207  0.926927  0.369207  1
  Al  Al11  1  0.868514  0.427542  0.868514  1
  Al  Al12  1  0.572075  0.131581  0.131581  1
  Al  Al13  1  0.072388  0.631446  0.631446  1
  Al  Al14  1  0.131581  0.131581  0.572075  1
  Al  Al15  1  0.631446  0.631446  0.072388  1
  Al  Al16  1  0.131581  0.572075  0.131581  1
  Al  Al17  1  0.631446  0.072388  0.631446  1
  Al  Al18  1  0.500795  0.500795  0.997757  1
  Al  Al19  1  0.000306  0.000306  0.499699  1
  Al  Al20  1  0.500795  0.997757  0.500795  1
  Al  Al21  1  0.000306  0.499699  0.000306  1
  Al  Al22  1  0.997757  0.500795  0.500795  1
  Al  Al23  1  0.499699  0.000306  0.000306  1
