# generated using pymatgen
data_U4Si10OsPt5
_symmetry_space_group_name_H-M   'P 1'
_cell_length_a   8.16621560
_cell_length_b   8.16584216
_cell_length_c   6.02019594
_cell_angle_alpha   68.38147059
_cell_angle_beta   68.38328253
_cell_angle_gamma   88.81034083
_symmetry_Int_Tables_number   1
_chemical_formula_structural   U4Si10OsPt5
_chemical_formula_sum   'U4 Si10 Os1 Pt5'
_cell_volume   343.88019144
_cell_formula_units_Z   1
loop_
 _symmetry_equiv_pos_site_id
 _symmetry_equiv_pos_as_xyz
  1  'x, y, z'
loop_
 _atom_site_type_symbol
 _atom_site_label
 _atom_site_symmetry_multiplicity
 _atom_site_fract_x
 _atom_site_fract_y
 _atom_site_fract_z
 _atom_site_occupancy
  U  U0  1  0.864749  0.600673  0.766150  1
  U  U1  1  0.399287  0.135397  0.733788  1
  U  U2  1  0.135120  0.399797  0.230324  1
  U  U3  1  0.600287  0.864838  0.269645  1
  Si  Si4  1  0.041882  0.262431  0.851416  1
  Si  Si5  1  0.737593  0.958069  0.648597  1
  Si  Si6  1  0.957909  0.737712  0.156957  1
  Si  Si7  1  0.262254  0.042116  0.343057  1
  Si  Si8  1  0.227592  0.772380  0.750013  1
  Si  Si9  1  0.777528  0.222508  0.249979  1
  Si  Si10  1  0.500292  0.499700  0.750049  1
  Si  Si11  1  0.500145  0.499845  0.249970  1
  Si  Si12  1  0.772328  0.227701  0.749995  1
  Si  Si13  1  0.222726  0.777251  0.250013  1
  Os  Os14  1  0.999990  0.999989  0.250016  1
  Pt  Pt15  1  0.252050  0.526783  0.608390  1
  Pt  Pt16  1  0.473150  0.747944  0.891648  1
  Pt  Pt17  1  0.748218  0.473072  0.387216  1
  Pt  Pt18  1  0.526926  0.251788  0.112769  1
  Pt  Pt19  1  0.999975  0.000005  0.750007  1
