# generated using pymatgen
data_Dy5Tm3P12(IrRh7)2
_symmetry_space_group_name_H-M   'P 1'
_cell_length_a   12.96764900
_cell_length_b   12.96980098
_cell_length_c   3.96703800
_cell_angle_alpha   90.00000000
_cell_angle_beta   90.00000000
_cell_angle_gamma   119.99451403
_symmetry_Int_Tables_number   1
_chemical_formula_structural   Dy5Tm3P12(IrRh7)2
_chemical_formula_sum   'Dy5 Tm3 P12 Ir2 Rh14'
_cell_volume   577.85058380
_cell_formula_units_Z   1
loop_
 _symmetry_equiv_pos_site_id
 _symmetry_equiv_pos_as_xyz
  1  'x, y, z'
loop_
 _atom_site_type_symbol
 _atom_site_label
 _atom_site_symmetry_multiplicity
 _atom_site_fract_x
 _atom_site_fract_y
 _atom_site_fract_z
 _atom_site_occupancy
  Dy  Dy0  1  0.333427  0.666820  0.500000  1
  Dy  Dy1  1  0.666608  0.333180  0.500000  1
  Dy  Dy2  1  0.999747  0.812174  0.000000  1
  Dy  Dy3  1  0.187574  0.187826  0.000000  1
  Dy  Dy4  1  0.812905  0.000000  0.000000  1
  Tm  Tm5  1  0.000074  0.443743  0.500000  1
  Tm  Tm6  1  0.556331  0.556257  0.500000  1
  Tm  Tm7  1  0.444719  0.000000  0.500000  1
  P  P8  1  0.000111  0.650332  0.500000  1
  P  P9  1  0.349779  0.349668  0.500000  1
  P  P10  1  0.650898  0.000000  0.500000  1
  P  P11  1  0.516574  0.689449  0.000000  1
  P  P12  1  0.310389  0.827814  0.000000  1
  P  P13  1  0.173149  0.483500  0.000000  1
  P  P14  1  0.482575  0.172186  0.000000  1
  P  P15  1  0.689649  0.516500  0.000000  1
  P  P16  1  0.827125  0.310551  0.000000  1
  P  P17  1  0.999853  0.177115  0.500000  1
  P  P18  1  0.822738  0.822885  0.500000  1
  P  P19  1  0.176065  0.000000  0.500000  1
  Ir  Ir20  1  0.273479  0.000000  0.000000  1
  Ir  Ir21  1  0.999518  0.000000  0.500000  1
  Rh  Rh22  1  0.513515  0.869602  0.000000  1
  Rh  Rh23  1  0.130665  0.644041  0.000000  1
  Rh  Rh24  1  0.355948  0.485621  0.000000  1
  Rh  Rh25  1  0.486623  0.355959  0.000000  1
  Rh  Rh26  1  0.870326  0.514379  0.000000  1
  Rh  Rh27  1  0.643912  0.130398  0.000000  1
  Rh  Rh28  1  0.999971  0.274627  0.000000  1
  Rh  Rh29  1  0.725344  0.725373  0.000000  1
  Rh  Rh30  1  0.627969  0.806319  0.500000  1
  Rh  Rh31  1  0.193686  0.821230  0.500000  1
  Rh  Rh32  1  0.178394  0.372141  0.500000  1
  Rh  Rh33  1  0.372457  0.178770  0.500000  1
  Rh  Rh34  1  0.806253  0.627859  0.500000  1
  Rh  Rh35  1  0.821650  0.193681  0.500000  1
