# generated using pymatgen
data_Er2Tm2MoRu7
_symmetry_space_group_name_H-M   'P 1'
_cell_length_a   5.44002512
_cell_length_b   5.18290001
_cell_length_c   8.97054512
_cell_angle_alpha   89.98488108
_cell_angle_beta   89.99808267
_cell_angle_gamma   121.85076583
_symmetry_Int_Tables_number   1
_chemical_formula_structural   Er2Tm2MoRu7
_chemical_formula_sum   'Er2 Tm2 Mo1 Ru7'
_cell_volume   214.84132418
_cell_formula_units_Z   1
loop_
 _symmetry_equiv_pos_site_id
 _symmetry_equiv_pos_as_xyz
  1  'x, y, z'
loop_
 _atom_site_type_symbol
 _atom_site_label
 _atom_site_symmetry_multiplicity
 _atom_site_fract_x
 _atom_site_fract_y
 _atom_site_fract_z
 _atom_site_occupancy
  Er  Er0  1  0.672316  0.345097  0.563319  1
  Er  Er1  1  0.334856  0.669975  0.431927  1
  Tm  Tm2  1  0.334638  0.669591  0.067941  1
  Tm  Tm3  1  0.672452  0.345511  0.936864  1
  Mo  Mo4  1  0.162258  0.324984  0.750537  1
  Ru  Ru5  1  0.008687  0.017686  0.498230  1
  Ru  Ru6  1  0.008752  0.017891  0.001772  1
  Ru  Ru7  1  0.170667  0.820484  0.750689  1
  Ru  Ru8  1  0.651145  0.820771  0.750681  1
  Ru  Ru9  1  0.820909  0.641896  0.249348  1
  Ru  Ru10  1  0.831253  0.162676  0.249331  1
  Ru  Ru11  1  0.332068  0.163438  0.249360  1
