# generated using pymatgen
data_Ho19MgIr11Ru
_symmetry_space_group_name_H-M   'P 1'
_cell_length_a   10.79676603
_cell_length_b   10.80113303
_cell_length_c   6.31499700
_cell_angle_alpha   90.00000000
_cell_angle_beta   90.00000000
_cell_angle_gamma   89.99156397
_symmetry_Int_Tables_number   1
_chemical_formula_structural   Ho19MgIr11Ru
_chemical_formula_sum   'Ho19 Mg1 Ir11 Ru1'
_cell_volume   736.43793062
_cell_formula_units_Z   1
loop_
 _symmetry_equiv_pos_site_id
 _symmetry_equiv_pos_as_xyz
  1  'x, y, z'
loop_
 _atom_site_type_symbol
 _atom_site_label
 _atom_site_symmetry_multiplicity
 _atom_site_fract_x
 _atom_site_fract_y
 _atom_site_fract_z
 _atom_site_occupancy
  Ho  Ho0  1  0.285415  0.084544  0.377712  1
  Ho  Ho1  1  0.291779  0.912486  0.880003  1
  Ho  Ho2  1  0.708221  0.087514  0.880003  1
  Ho  Ho3  1  0.714585  0.915456  0.377712  1
  Ho  Ho4  1  0.588208  0.793122  0.880185  1
  Ho  Ho5  1  0.587055  0.206798  0.376571  1
  Ho  Ho6  1  0.412945  0.793202  0.376571  1
  Ho  Ho7  1  0.411792  0.206878  0.880185  1
  Ho  Ho8  1  0.208255  0.411973  0.622501  1
  Ho  Ho9  1  0.208439  0.588940  0.120844  1
  Ho  Ho10  1  0.791561  0.411060  0.120844  1
  Ho  Ho11  1  0.791745  0.588027  0.622501  1
  Ho  Ho12  1  0.911874  0.709802  0.120625  1
  Ho  Ho13  1  0.915089  0.283975  0.621072  1
  Ho  Ho14  1  0.084911  0.716025  0.621072  1
  Ho  Ho15  1  0.088126  0.290198  0.120625  1
  Ho  Ho16  1  0.000000  0.000000  0.999918  1
  Ho  Ho17  1  0.500000  0.500000  0.999671  1
  Ho  Ho18  1  0.500000  0.500000  0.499848  1
  Mg  Mg19  1  0.000000  0.000000  0.499787  1
  Ir  Ir20  1  0.846593  0.154268  0.248245  1
  Ir  Ir21  1  0.846313  0.846321  0.751596  1
  Ir  Ir22  1  0.153687  0.153679  0.751596  1
  Ir  Ir23  1  0.153407  0.845732  0.248245  1
  Ir  Ir24  1  0.654363  0.346480  0.748303  1
  Ir  Ir25  1  0.654187  0.654027  0.251602  1
  Ir  Ir26  1  0.345813  0.345973  0.251602  1
  Ir  Ir27  1  0.345637  0.653520  0.748303  1
  Ir  Ir28  1  0.500000  0.000000  0.621072  1
  Ir  Ir29  1  0.000000  0.500000  0.876339  1
  Ir  Ir30  1  0.000000  0.500000  0.379982  1
  Ru  Ru31  1  0.500000  0.000000  0.124870  1
