# generated using pymatgen
data_Nd19YSi15Ru
_symmetry_space_group_name_H-M   'P 1'
_cell_length_a   7.78690516
_cell_length_b   7.92621533
_cell_length_c   15.12534864
_cell_angle_alpha   89.75842035
_cell_angle_beta   89.58163637
_cell_angle_gamma   89.85105178
_symmetry_Int_Tables_number   1
_chemical_formula_structural   Nd19YSi15Ru
_chemical_formula_sum   'Nd19 Y1 Si15 Ru1'
_cell_volume   933.51064484
_cell_formula_units_Z   1
loop_
 _symmetry_equiv_pos_site_id
 _symmetry_equiv_pos_as_xyz
  1  'x, y, z'
loop_
 _atom_site_type_symbol
 _atom_site_label
 _atom_site_symmetry_multiplicity
 _atom_site_fract_x
 _atom_site_fract_y
 _atom_site_fract_z
 _atom_site_occupancy
  Nd  Nd0  1  0.811624  0.334522  0.613696  1
  Nd  Nd1  1  0.457024  0.685949  0.898031  1
  Nd  Nd2  1  0.957785  0.815564  0.898161  1
  Nd  Nd3  1  0.185771  0.681707  0.120491  1
  Nd  Nd4  1  0.691218  0.818438  0.120876  1
  Nd  Nd5  1  0.307194  0.178569  0.878021  1
  Nd  Nd6  1  0.185778  0.678725  0.380332  1
  Nd  Nd7  1  0.044168  0.189001  0.103383  1
  Nd  Nd8  1  0.312327  0.180036  0.622271  1
  Nd  Nd9  1  0.858851  0.491707  0.261038  1
  Nd  Nd10  1  0.365505  0.007039  0.254906  1
  Nd  Nd11  1  0.537101  0.316850  0.398819  1
  Nd  Nd12  1  0.809798  0.317410  0.878260  1
  Nd  Nd13  1  0.963278  0.811966  0.598496  1
  Nd  Nd14  1  0.461765  0.685033  0.601671  1
  Nd  Nd15  1  0.038670  0.189679  0.401489  1
  Nd  Nd16  1  0.696214  0.809476  0.385030  1
  Nd  Nd17  1  0.639761  0.994530  0.747491  1
  Nd  Nd18  1  0.545336  0.311391  0.103124  1
  Y  Y19  1  0.137189  0.510066  0.747739  1
  Si  Si20  1  0.479044  0.602886  0.245575  1
  Si  Si21  1  0.252826  0.378412  0.247449  1
  Si  Si22  1  0.512975  0.402945  0.751358  1
  Si  Si23  1  0.630995  0.025329  0.958443  1
  Si  Si24  1  0.016786  0.103481  0.748521  1
  Si  Si25  1  0.751413  0.620940  0.750401  1
  Si  Si26  1  0.750900  0.119624  0.247900  1
  Si  Si27  1  0.365128  0.969780  0.461743  1
  Si  Si28  1  0.982664  0.902825  0.248464  1
  Si  Si29  1  0.364576  0.974279  0.041177  1
  Si  Si30  1  0.634187  0.024195  0.542194  1
  Si  Si31  1  0.132773  0.476539  0.955769  1
  Si  Si32  1  0.144261  0.476381  0.543001  1
  Si  Si33  1  0.866105  0.525766  0.038745  1
  Si  Si34  1  0.245574  0.872356  0.750559  1
  Ru  Ru35  1  0.863442  0.516602  0.455378  1
