# generated using pymatgen
data_HfScCo10(AsP2)2
_symmetry_space_group_name_H-M   'P 1'
_cell_length_a   3.62529400
_cell_length_b   10.31767300
_cell_length_c   11.73726100
_cell_angle_alpha   90.00000000
_cell_angle_beta   90.00000000
_cell_angle_gamma   90.00000000
_symmetry_Int_Tables_number   1
_chemical_formula_structural   HfScCo10(AsP2)2
_chemical_formula_sum   'Hf2 Sc2 Co20 As4 P8'
_cell_volume   439.02752957
_cell_formula_units_Z   2
loop_
 _symmetry_equiv_pos_site_id
 _symmetry_equiv_pos_as_xyz
  1  'x, y, z'
loop_
 _atom_site_type_symbol
 _atom_site_label
 _atom_site_symmetry_multiplicity
 _atom_site_fract_x
 _atom_site_fract_y
 _atom_site_fract_z
 _atom_site_occupancy
  Hf  Hf0  1  0.250000  0.584077  0.701178  1
  Hf  Hf1  1  0.250000  0.915923  0.201178  1
  Sc  Sc2  1  0.750000  0.429076  0.302674  1
  Sc  Sc3  1  0.750000  0.070924  0.802674  1
  Co  Co4  1  0.250000  0.720600  0.994628  1
  Co  Co5  1  0.250000  0.779400  0.494628  1
  Co  Co6  1  0.750000  0.275559  0.010012  1
  Co  Co7  1  0.750000  0.224441  0.510012  1
  Co  Co8  1  0.250000  0.419328  0.489715  1
  Co  Co9  1  0.250000  0.080672  0.989715  1
  Co  Co10  1  0.750000  0.595714  0.516868  1
  Co  Co11  1  0.750000  0.904286  0.016868  1
  Co  Co12  1  0.250000  0.208982  0.174472  1
  Co  Co13  1  0.250000  0.291019  0.674472  1
  Co  Co14  1  0.750000  0.776998  0.823175  1
  Co  Co15  1  0.750000  0.723002  0.323175  1
  Co  Co16  1  0.250000  0.876816  0.700768  1
  Co  Co17  1  0.250000  0.623184  0.200768  1
  Co  Co18  1  0.750000  0.104411  0.295333  1
  Co  Co19  1  0.750000  0.395589  0.795333  1
  Co  Co20  1  0.250000  0.477615  0.925124  1
  Co  Co21  1  0.250000  0.022385  0.425124  1
  Co  Co22  1  0.750000  0.541872  0.065467  1
  Co  Co23  1  0.750000  0.958128  0.565467  1
  As  As24  1  0.250000  0.415000  0.114796  1
  As  As25  1  0.250000  0.085000  0.614796  1
  As  As26  1  0.250000  0.264142  0.870489  1
  As  As27  1  0.250000  0.235858  0.370489  1
  P  P28  1  0.750000  0.584300  0.883672  1
  P  P29  1  0.750000  0.915700  0.383672  1
  P  P30  1  0.750000  0.734308  0.133118  1
  P  P31  1  0.750000  0.765692  0.633118  1
  P  P32  1  0.250000  0.602651  0.389503  1
  P  P33  1  0.250000  0.897349  0.889503  1
  P  P34  1  0.750000  0.405949  0.609006  1
  P  P35  1  0.750000  0.094051  0.109006  1
