# generated using pymatgen
data_Dy8Ho10Sc2Si13Ir3
_symmetry_space_group_name_H-M   'P 1'
_cell_length_a   7.21084345
_cell_length_b   7.79329422
_cell_length_c   14.48762800
_cell_angle_alpha   90.00000000
_cell_angle_beta   90.00000000
_cell_angle_gamma   90.11336853
_symmetry_Int_Tables_number   1
_chemical_formula_structural   Dy8Ho10Sc2Si13Ir3
_chemical_formula_sum   'Dy8 Ho10 Sc2 Si13 Ir3'
_cell_volume   814.14840363
_cell_formula_units_Z   1
loop_
 _symmetry_equiv_pos_site_id
 _symmetry_equiv_pos_as_xyz
  1  'x, y, z'
loop_
 _atom_site_type_symbol
 _atom_site_label
 _atom_site_symmetry_multiplicity
 _atom_site_fract_x
 _atom_site_fract_y
 _atom_site_fract_z
 _atom_site_occupancy
  Dy  Dy0  1  0.007434  0.179827  0.093539  1
  Dy  Dy1  1  0.990122  0.822601  0.904679  1
  Dy  Dy2  1  0.488033  0.684472  0.904493  1
  Dy  Dy3  1  0.990122  0.822601  0.595321  1
  Dy  Dy4  1  0.509157  0.321320  0.094794  1
  Dy  Dy5  1  0.007434  0.179827  0.406461  1
  Dy  Dy6  1  0.509157  0.321320  0.405206  1
  Dy  Dy7  1  0.488033  0.684472  0.595507  1
  Ho  Ho8  1  0.830343  0.491158  0.250000  1
  Ho  Ho9  1  0.328257  0.011427  0.250000  1
  Ho  Ho10  1  0.317549  0.175068  0.629426  1
  Ho  Ho11  1  0.681466  0.827390  0.373319  1
  Ho  Ho12  1  0.182140  0.673234  0.372820  1
  Ho  Ho13  1  0.681466  0.827390  0.126681  1
  Ho  Ho14  1  0.831296  0.317016  0.628935  1
  Ho  Ho15  1  0.317549  0.175068  0.870574  1
  Ho  Ho16  1  0.831296  0.317016  0.871065  1
  Ho  Ho17  1  0.182140  0.673234  0.127180  1
  Sc  Sc18  1  0.159021  0.519883  0.750000  1
  Sc  Sc19  1  0.673415  0.981919  0.750000  1
  Si  Si20  1  0.524815  0.410195  0.750000  1
  Si  Si21  1  0.284798  0.857698  0.750000  1
  Si  Si22  1  0.723756  0.135858  0.250000  1
  Si  Si23  1  0.220734  0.366539  0.250000  1
  Si  Si24  1  0.777381  0.630066  0.750000  1
  Si  Si25  1  0.156655  0.473007  0.541752  1
  Si  Si26  1  0.845069  0.529989  0.465636  1
  Si  Si27  1  0.344000  0.971873  0.464501  1
  Si  Si28  1  0.845069  0.529989  0.034364  1
  Si  Si29  1  0.651185  0.030252  0.541635  1
  Si  Si30  1  0.156655  0.473007  0.958248  1
  Si  Si31  1  0.651185  0.030252  0.958365  1
  Si  Si32  1  0.344000  0.971873  0.035499  1
  Ir  Ir33  1  0.019928  0.083722  0.750000  1
  Ir  Ir34  1  0.973325  0.906152  0.250000  1
  Ir  Ir35  1  0.476016  0.593279  0.250000  1
