# generated using pymatgen
data_Pr6Fe2Co15P12Ru
_symmetry_space_group_name_H-M   'P 1'
_cell_length_a   3.76932400
_cell_length_b   10.67529500
_cell_length_c   12.41141400
_cell_angle_alpha   90.00000000
_cell_angle_beta   90.00000000
_cell_angle_gamma   90.00000000
_symmetry_Int_Tables_number   1
_chemical_formula_structural   Pr6Fe2Co15P12Ru
_chemical_formula_sum   'Pr6 Fe2 Co15 P12 Ru1'
_cell_volume   499.41848997
_cell_formula_units_Z   1
loop_
 _symmetry_equiv_pos_site_id
 _symmetry_equiv_pos_as_xyz
  1  'x, y, z'
loop_
 _atom_site_type_symbol
 _atom_site_label
 _atom_site_symmetry_multiplicity
 _atom_site_fract_x
 _atom_site_fract_y
 _atom_site_fract_z
 _atom_site_occupancy
  Pr  Pr0  1  0.000000  0.500000  0.523636  1
  Pr  Pr1  1  0.500000  0.000000  0.479518  1
  Pr  Pr2  1  0.500000  0.817409  0.205957  1
  Pr  Pr3  1  0.500000  0.182591  0.205957  1
  Pr  Pr4  1  0.000000  0.681857  0.794493  1
  Pr  Pr5  1  0.000000  0.318143  0.794493  1
  Fe  Fe6  1  0.000000  0.000000  0.843554  1
  Fe  Fe7  1  0.000000  0.500000  0.989231  1
  Co  Co8  1  0.500000  0.500000  0.704470  1
  Co  Co9  1  0.000000  0.000000  0.294794  1
  Co  Co10  1  0.500000  0.000000  0.011964  1
  Co  Co11  1  0.500000  0.330503  0.993050  1
  Co  Co12  1  0.500000  0.669497  0.993050  1
  Co  Co13  1  0.000000  0.165150  0.004034  1
  Co  Co14  1  0.000000  0.834850  0.004034  1
  Co  Co15  1  0.500000  0.297632  0.429623  1
  Co  Co16  1  0.500000  0.702368  0.429623  1
  Co  Co17  1  0.000000  0.203050  0.570121  1
  Co  Co18  1  0.000000  0.796950  0.570121  1
  Co  Co19  1  0.500000  0.882352  0.711871  1
  Co  Co20  1  0.500000  0.117648  0.711871  1
  Co  Co21  1  0.000000  0.618193  0.289665  1
  Co  Co22  1  0.000000  0.381807  0.289665  1
  P  P23  1  0.500000  0.500000  0.888175  1
  P  P24  1  0.000000  0.000000  0.112434  1
  P  P25  1  0.500000  0.500000  0.343589  1
  P  P26  1  0.000000  0.000000  0.662697  1
  P  P27  1  0.500000  0.305447  0.614144  1
  P  P28  1  0.500000  0.694553  0.614144  1
  P  P29  1  0.000000  0.193573  0.386162  1
  P  P30  1  0.000000  0.806427  0.386162  1
  P  P31  1  0.500000  0.850957  0.894523  1
  P  P32  1  0.500000  0.149043  0.894523  1
  P  P33  1  0.000000  0.653176  0.101559  1
  P  P34  1  0.000000  0.346824  0.101559  1
  Ru  Ru35  1  0.500000  0.500000  0.155533  1
