# generated using pymatgen
data_Cs2CdSiSe4
_symmetry_space_group_name_H-M   'P 1'
_cell_length_a   14.60419778
_cell_length_b   13.08433349
_cell_length_c   7.98749933
_cell_angle_alpha   84.03623258
_cell_angle_beta   63.00936964
_cell_angle_gamma   32.95441383
_symmetry_Int_Tables_number   1
_chemical_formula_structural   Cs2CdSiSe4
_chemical_formula_sum   'Cs4 Cd2 Si2 Se8'
_cell_volume   607.20980623
_cell_formula_units_Z   2
loop_
 _symmetry_equiv_pos_site_id
 _symmetry_equiv_pos_as_xyz
  1  'x, y, z'
loop_
 _atom_site_type_symbol
 _atom_site_label
 _atom_site_symmetry_multiplicity
 _atom_site_fract_x
 _atom_site_fract_y
 _atom_site_fract_z
 _atom_site_occupancy
  Cs  Cs0  1  0.680343  0.680343  0.319657  1
  Cs  Cs1  1  0.319657  0.319657  0.680343  1
  Cs  Cs2  1  0.930343  0.930343  0.569657  1
  Cs  Cs3  1  0.569657  0.569657  0.930343  1
  Cd  Cd4  1  0.000000  0.000000  0.000000  1
  Cd  Cd5  1  0.250000  0.250000  0.250000  1
  Si  Si6  1  0.750000  0.750000  0.750000  1
  Si  Si7  1  0.500000  0.500000  0.500000  1
  Se  Se8  1  0.399445  0.996470  0.917955  1
  Se  Se9  1  0.686130  0.917955  0.996470  1
  Se  Se10  1  0.917955  0.686130  0.399445  1
  Se  Se11  1  0.996470  0.399445  0.686130  1
  Se  Se12  1  0.253530  0.850555  0.563870  1
  Se  Se13  1  0.563870  0.332045  0.253530  1
  Se  Se14  1  0.332045  0.563870  0.850555  1
  Se  Se15  1  0.850555  0.253530  0.332045  1
