# generated using pymatgen
data_DyY5Al16(SiOs)8
_symmetry_space_group_name_H-M   'P 1'
_cell_length_a   8.70792504
_cell_length_b   8.70792412
_cell_length_c   9.44925300
_cell_angle_alpha   90.00000000
_cell_angle_beta   90.00000000
_cell_angle_gamma   120.12102338
_symmetry_Int_Tables_number   1
_chemical_formula_structural   DyY5Al16(SiOs)8
_chemical_formula_sum   'Dy1 Y5 Al16 Si8 Os8'
_cell_volume   619.76422913
_cell_formula_units_Z   1
loop_
 _symmetry_equiv_pos_site_id
 _symmetry_equiv_pos_as_xyz
  1  'x, y, z'
loop_
 _atom_site_type_symbol
 _atom_site_label
 _atom_site_symmetry_multiplicity
 _atom_site_fract_x
 _atom_site_fract_y
 _atom_site_fract_z
 _atom_site_occupancy
  Dy  Dy0  1  0.805622  0.194378  0.750000  1
  Y  Y1  1  0.191922  0.387122  0.250000  1
  Y  Y2  1  0.808079  0.612843  0.750000  1
  Y  Y3  1  0.612878  0.808078  0.250000  1
  Y  Y4  1  0.387157  0.191921  0.750000  1
  Y  Y5  1  0.194386  0.805614  0.250000  1
  Al  Al6  1  0.165485  0.329286  0.578162  1
  Al  Al7  1  0.834436  0.670684  0.421902  1
  Al  Al8  1  0.670714  0.834515  0.578162  1
  Al  Al9  1  0.834436  0.670684  0.078098  1
  Al  Al10  1  0.329316  0.165564  0.421902  1
  Al  Al11  1  0.165485  0.329286  0.921838  1
  Al  Al12  1  0.164554  0.835446  0.578013  1
  Al  Al13  1  0.329316  0.165564  0.078098  1
  Al  Al14  1  0.835439  0.164561  0.422071  1
  Al  Al15  1  0.670714  0.834515  0.921838  1
  Al  Al16  1  0.835439  0.164561  0.077929  1
  Al  Al17  1  0.164554  0.835446  0.921987  1
  Al  Al18  1  0.564965  0.435035  0.250000  1
  Al  Al19  1  0.435030  0.564970  0.750000  1
  Al  Al20  1  0.000054  0.999946  0.250000  1
  Al  Al21  1  0.999830  0.000170  0.750000  1
  Si  Si22  1  0.334957  0.665043  0.039615  1
  Si  Si23  1  0.665088  0.334912  0.960279  1
  Si  Si24  1  0.665088  0.334912  0.539721  1
  Si  Si25  1  0.334957  0.665043  0.460385  1
  Si  Si26  1  0.564302  0.124559  0.250000  1
  Si  Si27  1  0.435798  0.875505  0.750000  1
  Si  Si28  1  0.875441  0.435698  0.250000  1
  Si  Si29  1  0.124495  0.564202  0.750000  1
  Os  Os30  1  0.500094  0.000080  0.999929  1
  Os  Os31  1  0.999920  0.499906  0.999929  1
  Os  Os32  1  0.500094  0.000080  0.500071  1
  Os  Os33  1  0.500005  0.499995  0.000010  1
  Os  Os34  1  0.999920  0.499906  0.500071  1
  Os  Os35  1  0.500005  0.499995  0.499990  1
  Os  Os36  1  0.000009  0.999991  0.000017  1
  Os  Os37  1  0.000009  0.999991  0.499983  1
