# generated using pymatgen
data_Lu3AuO6
_symmetry_space_group_name_H-M   'P 1'
_cell_length_a   3.48022593
_cell_length_b   5.47772038
_cell_length_c   6.99411695
_cell_angle_alpha   89.30432103
_cell_angle_beta   102.36821423
_cell_angle_gamma   91.10392500
_symmetry_Int_Tables_number   1
_chemical_formula_structural   Lu3AuO6
_chemical_formula_sum   'Lu3 Au1 O6'
_cell_volume   130.21071079
_cell_formula_units_Z   1
loop_
 _symmetry_equiv_pos_site_id
 _symmetry_equiv_pos_as_xyz
  1  'x, y, z'
loop_
 _atom_site_type_symbol
 _atom_site_label
 _atom_site_symmetry_multiplicity
 _atom_site_fract_x
 _atom_site_fract_y
 _atom_site_fract_z
 _atom_site_occupancy
  Lu  Lu0  1  0.612381  0.530134  0.761156  1
  Lu  Lu1  1  0.387619  0.469866  0.238844  1
  Lu  Lu2  1  0.000000  0.000000  0.500000  1
  Au  Au3  1  0.000000  0.000000  0.000000  1
  O  O4  1  0.832881  0.675189  0.105449  1
  O  O5  1  0.167119  0.324811  0.894551  1
  O  O6  1  0.523953  0.256100  0.532957  1
  O  O7  1  0.476047  0.743900  0.467043  1
  O  O8  1  0.124750  0.798604  0.780900  1
  O  O9  1  0.875250  0.201396  0.219100  1
