# generated using pymatgen
data_Nd3Ag5Rh
_symmetry_space_group_name_H-M   'P 1'
_cell_length_a   7.79656500
_cell_length_b   7.79656494
_cell_length_c   3.97235300
_cell_angle_alpha   90.00000000
_cell_angle_beta   90.00000000
_cell_angle_gamma   120.00000448
_symmetry_Int_Tables_number   1
_chemical_formula_structural   Nd3Ag5Rh
_chemical_formula_sum   'Nd3 Ag5 Rh1'
_cell_volume   209.11493522
_cell_formula_units_Z   1
loop_
 _symmetry_equiv_pos_site_id
 _symmetry_equiv_pos_as_xyz
  1  'x, y, z'
loop_
 _atom_site_type_symbol
 _atom_site_label
 _atom_site_symmetry_multiplicity
 _atom_site_fract_x
 _atom_site_fract_y
 _atom_site_fract_z
 _atom_site_occupancy
  Nd  Nd0  1  0.606004  0.025454  0.500000  1
  Nd  Nd1  1  0.419450  0.393996  0.500000  1
  Nd  Nd2  1  0.974546  0.580550  0.500000  1
  Ag  Ag3  1  0.257075  0.997665  0.000000  1
  Ag  Ag4  1  0.740590  0.742925  0.000000  1
  Ag  Ag5  1  0.002335  0.259410  0.000000  1
  Ag  Ag6  1  0.000000  0.000000  0.500000  1
  Ag  Ag7  1  0.333333  0.666667  0.000000  1
  Rh  Rh8  1  0.666667  0.333333  0.000000  1
