# generated using pymatgen
data_Pr12CoBI17
_symmetry_space_group_name_H-M   'P 1'
_cell_length_a   9.98436876
_cell_length_b   11.95658566
_cell_length_c   11.88308354
_cell_angle_alpha   93.56992344
_cell_angle_beta   104.65496674
_cell_angle_gamma   114.95673407
_symmetry_Int_Tables_number   1
_chemical_formula_structural   Pr12CoBI17
_chemical_formula_sum   'Pr12 Co1 B1 I17'
_cell_volume   1220.97130943
_cell_formula_units_Z   1
loop_
 _symmetry_equiv_pos_site_id
 _symmetry_equiv_pos_as_xyz
  1  'x, y, z'
loop_
 _atom_site_type_symbol
 _atom_site_label
 _atom_site_symmetry_multiplicity
 _atom_site_fract_x
 _atom_site_fract_y
 _atom_site_fract_z
 _atom_site_occupancy
  Pr  Pr0  1  0.052766  0.506496  0.322792  1
  Pr  Pr1  1  0.991052  0.810662  0.580274  1
  Pr  Pr2  1  0.646451  0.240404  0.278016  1
  Pr  Pr3  1  0.009127  0.190913  0.413895  1
  Pr  Pr4  1  0.220967  0.667780  0.992529  1
  Pr  Pr5  1  0.266832  0.988814  0.897027  1
  Pr  Pr6  1  0.355843  0.759867  0.715963  1
  Pr  Pr7  1  0.941461  0.486825  0.675173  1
  Pr  Pr8  1  0.736539  0.019333  0.105281  1
  Pr  Pr9  1  0.145792  0.287536  0.150719  1
  Pr  Pr10  1  0.782620  0.330846  0.013797  1
  Pr  Pr11  1  0.848824  0.711426  0.850934  1
  Co  Co12  1  0.104431  0.738022  0.785824  1
  B  B13  1  0.897028  0.261816  0.216381  1
  I  I14  1  0.777273  0.525765  0.412865  1
  I  I15  1  0.634509  0.415557  0.756416  1
  I  I16  1  0.840200  0.894817  0.321445  1
  I  I17  1  0.325300  0.212304  0.369833  1
  I  I18  1  0.158398  0.107289  0.676041  1
  I  I19  1  0.593188  0.057421  0.838914  1
  I  I20  1  0.751279  0.178990  0.535167  1
  I  I21  1  0.548803  0.704284  0.955283  1
  I  I22  1  0.361714  0.581578  0.247260  1
  I  I23  1  0.220843  0.469009  0.580994  1
  I  I24  1  0.056019  0.362018  0.895113  1
  I  I25  1  0.455423  0.300392  0.045683  1
  I  I26  1  0.999342  0.000975  0.002834  1
  I  I27  1  0.249343  0.820727  0.458515  1
  I  I28  1  0.413352  0.947051  0.166218  1
  I  I29  1  0.673261  0.787460  0.628725  1
  I  I30  1  0.942017  0.633625  0.110090  1
