# generated using pymatgen
data_Cs2Fe(PO3)4
_symmetry_space_group_name_H-M   'P 1'
_cell_length_a   8.87869998
_cell_length_b   8.87869992
_cell_length_c   8.11196322
_cell_angle_alpha   82.02181116
_cell_angle_beta   82.02181172
_cell_angle_gamma   97.73642208
_symmetry_Int_Tables_number   1
_chemical_formula_structural   Cs2Fe(PO3)4
_chemical_formula_sum   'Cs4 Fe2 P8 O24'
_cell_volume   619.38962540
_cell_formula_units_Z   2
loop_
 _symmetry_equiv_pos_site_id
 _symmetry_equiv_pos_as_xyz
  1  'x, y, z'
loop_
 _atom_site_type_symbol
 _atom_site_label
 _atom_site_symmetry_multiplicity
 _atom_site_fract_x
 _atom_site_fract_y
 _atom_site_fract_z
 _atom_site_occupancy
  Cs  Cs0  1  0.481029  0.234905  0.088612  1
  Cs  Cs1  1  0.234905  0.481029  0.588612  1
  Cs  Cs2  1  0.539620  0.776944  0.920783  1
  Cs  Cs3  1  0.776944  0.539620  0.420783  1
  Fe  Fe4  1  0.860691  0.149869  0.751873  1
  Fe  Fe5  1  0.149869  0.860691  0.251873  1
  P  P6  1  0.191402  0.013803  0.831798  1
  P  P7  1  0.013803  0.191402  0.331798  1
  P  P8  1  0.500312  0.145956  0.593110  1
  P  P9  1  0.145956  0.500312  0.093110  1
  P  P10  1  0.501828  0.875083  0.406281  1
  P  P11  1  0.875083  0.501828  0.906281  1
  P  P12  1  0.815486  0.974471  0.174874  1
  P  P13  1  0.974471  0.815486  0.674874  1
  O  O14  1  0.491960  0.306510  0.514724  1
  O  O15  1  0.306510  0.491960  0.014724  1
  O  O16  1  0.611273  0.119005  0.714826  1
  O  O17  1  0.119005  0.611273  0.214826  1
  O  O18  1  0.330330  0.056362  0.674620  1
  O  O19  1  0.056362  0.330330  0.174620  1
  O  O20  1  0.531153  0.052033  0.435959  1
  O  O21  1  0.052033  0.531153  0.935959  1
  O  O22  1  0.380918  0.861070  0.292397  1
  O  O23  1  0.861070  0.380918  0.792397  1
  O  O24  1  0.485555  0.760814  0.563061  1
  O  O25  1  0.760814  0.485555  0.063061  1
  O  O26  1  0.666686  0.866922  0.293163  1
  O  O27  1  0.866922  0.666686  0.793163  1
  O  O28  1  0.764744  0.043793  0.015619  1
  O  O29  1  0.043793  0.764744  0.515619  1
  O  O30  1  0.937791  0.872868  0.166243  1
  O  O31  1  0.872868  0.937791  0.666243  1
  O  O32  1  0.854659  0.107874  0.284970  1
  O  O33  1  0.107874  0.854659  0.784970  1
  O  O34  1  0.257237  0.969153  0.989451  1
  O  O35  1  0.969153  0.257237  0.489451  1
  O  O36  1  0.090573  0.136321  0.822037  1
  O  O37  1  0.136321  0.090573  0.322037  1
