# generated using pymatgen
data_La5Nd7(RhBr3)4
_symmetry_space_group_name_H-M   'P 1'
_cell_length_a   10.57910124
_cell_length_b   10.58752132
_cell_length_c   10.55088610
_cell_angle_alpha   108.92685631
_cell_angle_beta   109.05523928
_cell_angle_gamma   110.39211025
_symmetry_Int_Tables_number   1
_chemical_formula_structural   La5Nd7(RhBr3)4
_chemical_formula_sum   'La5 Nd7 Rh4 Br12'
_cell_volume   910.03022885
_cell_formula_units_Z   1
loop_
 _symmetry_equiv_pos_site_id
 _symmetry_equiv_pos_as_xyz
  1  'x, y, z'
loop_
 _atom_site_type_symbol
 _atom_site_label
 _atom_site_symmetry_multiplicity
 _atom_site_fract_x
 _atom_site_fract_y
 _atom_site_fract_z
 _atom_site_occupancy
  La  La0  1  0.467722  0.484011  0.233260  1
  La  La1  1  0.739601  0.227328  0.261844  1
  La  La2  1  0.761258  0.022560  0.488261  1
  La  La3  1  0.227554  0.463983  0.484822  1
  La  La4  1  0.270695  0.755732  0.235457  1
  Nd  Nd5  1  0.028169  0.263007  0.014252  1
  Nd  Nd6  1  0.020058  0.031102  0.262217  1
  Nd  Nd7  1  0.485232  0.748962  0.011974  1
  Nd  Nd8  1  0.483674  0.236345  0.472255  1
  Nd  Nd9  1  0.021013  0.489100  0.759006  1
  Nd  Nd10  1  0.265486  0.019046  0.034921  1
  Nd  Nd11  1  0.233721  0.269281  0.753690  1
  Rh  Rh12  1  0.251122  0.252297  0.251248  1
  Rh  Rh13  1  0.502133  0.000987  0.251014  1
  Rh  Rh14  1  0.998164  0.248999  0.498308  1
  Rh  Rh15  1  0.251476  0.501712  0.002437  1
  Br  Br16  1  0.250244  0.755433  0.748509  1
  Br  Br17  1  0.508644  0.499895  0.754666  1
  Br  Br18  1  0.990616  0.746077  0.991254  1
  Br  Br19  1  0.746928  0.254261  0.755671  1
  Br  Br20  1  0.998721  0.992464  0.749127  1
  Br  Br21  1  0.248922  0.998300  0.505081  1
  Br  Br22  1  0.754962  0.506730  0.510223  1
  Br  Br23  1  0.496530  0.243744  0.987436  1
  Br  Br24  1  0.755881  0.747548  0.242843  1
  Br  Br25  1  0.746376  0.990504  0.989531  1
  Br  Br26  1  0.990160  0.496344  0.242752  1
  Br  Br27  1  0.504936  0.754249  0.507941  1
