# generated using pymatgen
data_YSe35
_symmetry_space_group_name_H-M   'P 1'
_cell_length_a   3.63637100
_cell_length_b   18.67485854
_cell_length_c   15.86675741
_cell_angle_alpha   84.39527883
_cell_angle_beta   90.00000000
_cell_angle_gamma   90.00000000
_symmetry_Int_Tables_number   1
_chemical_formula_structural   YSe35
_chemical_formula_sum   'Y1 Se35'
_cell_volume   1072.33999002
_cell_formula_units_Z   1
loop_
 _symmetry_equiv_pos_site_id
 _symmetry_equiv_pos_as_xyz
  1  'x, y, z'
loop_
 _atom_site_type_symbol
 _atom_site_label
 _atom_site_symmetry_multiplicity
 _atom_site_fract_x
 _atom_site_fract_y
 _atom_site_fract_z
 _atom_site_occupancy
  Y  Y0  1  0.500000  0.340147  0.106437  1
  Se  Se1  1  0.000000  0.820003  0.981022  1
  Se  Se2  1  0.000000  0.232186  0.044047  1
  Se  Se3  1  0.500000  0.299446  0.538335  1
  Se  Se4  1  0.500000  0.686566  0.461402  1
  Se  Se5  1  0.000000  0.875576  0.740795  1
  Se  Se6  1  0.000000  0.145701  0.280170  1
  Se  Se7  1  0.500000  0.372851  0.755763  1
  Se  Se8  1  0.500000  0.616820  0.247936  1
  Se  Se9  1  0.000000  0.403345  0.976246  1
  Se  Se10  1  0.000000  0.528035  0.999715  1
  Se  Se11  1  0.500000  0.845903  0.592173  1
  Se  Se12  1  0.500000  0.066767  0.471023  1
  Se  Se13  1  0.000000  0.473797  0.593285  1
  Se  Se14  1  0.000000  0.479930  0.454402  1
  Se  Se15  1  0.500000  0.021867  0.949715  1
  Se  Se16  1  0.500000  0.978533  0.083708  1
  Se  Se17  1  0.000000  0.179488  0.769563  1
  Se  Se18  1  0.000000  0.834647  0.220952  1
  Se  Se19  1  0.500000  0.683197  0.702799  1
  Se  Se20  1  0.500000  0.333485  0.293419  1
  Se  Se21  1  0.000000  0.090377  0.572943  1
  Se  Se22  1  0.000000  0.942356  0.416588  1
  Se  Se23  1  0.500000  0.584196  0.902288  1
  Se  Se24  1  0.000000  0.603049  0.763886  1
  Se  Se25  1  0.000000  0.419750  0.211461  1
  Se  Se26  1  0.500000  0.097936  0.711124  1
  Se  Se27  1  0.500000  0.909870  0.318844  1
  Se  Se28  1  0.000000  0.758345  0.543033  1
  Se  Se29  1  0.000000  0.244788  0.366132  1
  Se  Se30  1  0.500000  0.262846  0.842626  1
  Se  Se31  1  0.500000  0.834115  0.098365  1
  Se  Se32  1  0.000000  0.330700  0.637603  1
  Se  Se33  1  0.000000  0.653253  0.341129  1
  Se  Se34  1  0.500000  0.866146  0.848496  1
  Se  Se35  1  0.500000  0.183985  0.162576  1
