# generated using pymatgen
data_DyHo3(FeOs)4
_symmetry_space_group_name_H-M   'P 1'
_cell_length_a   5.27137929
_cell_length_b   5.27025733
_cell_length_c   9.06181884
_cell_angle_alpha   73.09447200
_cell_angle_beta   90.88742642
_cell_angle_gamma   119.99295330
_symmetry_Int_Tables_number   1
_chemical_formula_structural   DyHo3(FeOs)4
_chemical_formula_sum   'Dy1 Ho3 Fe4 Os4'
_cell_volume   206.03767153
_cell_formula_units_Z   1
loop_
 _symmetry_equiv_pos_site_id
 _symmetry_equiv_pos_as_xyz
  1  'x, y, z'
loop_
 _atom_site_type_symbol
 _atom_site_label
 _atom_site_symmetry_multiplicity
 _atom_site_fract_x
 _atom_site_fract_y
 _atom_site_fract_z
 _atom_site_occupancy
  Dy  Dy0  1  0.877445  0.751433  0.374578  1
  Ho  Ho1  1  0.377681  0.751669  0.874344  1
  Ho  Ho2  1  0.997484  0.998541  0.000403  1
  Ho  Ho3  1  0.497318  0.998322  0.500674  1
  Fe  Fe4  1  0.187533  0.374919  0.437696  1
  Fe  Fe5  1  0.687547  0.375080  0.937388  1
  Fe  Fe6  1  0.937669  0.375409  0.186851  1
  Fe  Fe7  1  0.437275  0.374577  0.688121  1
  Os  Os8  1  0.437413  0.375340  0.187092  1
  Os  Os9  1  0.937610  0.374732  0.687881  1
  Os  Os10  1  0.437413  0.874982  0.187092  1
  Os  Os11  1  0.937610  0.874997  0.687881  1
