# generated using pymatgen
data_YEr6Sn23Ru6
_symmetry_space_group_name_H-M   'P 1'
_cell_length_a   9.83568600
_cell_length_b   9.83568655
_cell_length_c   10.07473100
_cell_angle_alpha   90.00000000
_cell_angle_beta   90.00000000
_cell_angle_gamma   120.00000487
_symmetry_Int_Tables_number   1
_chemical_formula_structural   YEr6Sn23Ru6
_chemical_formula_sum   'Y1 Er6 Sn23 Ru6'
_cell_volume   844.06016633
_cell_formula_units_Z   1
loop_
 _symmetry_equiv_pos_site_id
 _symmetry_equiv_pos_as_xyz
  1  'x, y, z'
loop_
 _atom_site_type_symbol
 _atom_site_label
 _atom_site_symmetry_multiplicity
 _atom_site_fract_x
 _atom_site_fract_y
 _atom_site_fract_z
 _atom_site_occupancy
  Y  Y0  1  0.000000  0.000000  0.000000  1
  Er  Er1  1  0.485099  0.514901  0.302907  1
  Er  Er2  1  0.514901  0.485099  0.697093  1
  Er  Er3  1  0.485099  0.970199  0.302907  1
  Er  Er4  1  0.514901  0.029801  0.697093  1
  Er  Er5  1  0.029801  0.514901  0.302907  1
  Er  Er6  1  0.970199  0.485099  0.697093  1
  Sn  Sn7  1  0.118805  0.881195  0.274300  1
  Sn  Sn8  1  0.881195  0.118805  0.725700  1
  Sn  Sn9  1  0.118805  0.237610  0.274300  1
  Sn  Sn10  1  0.881195  0.762390  0.725700  1
  Sn  Sn11  1  0.762390  0.881195  0.274300  1
  Sn  Sn12  1  0.237610  0.118805  0.725700  1
  Sn  Sn13  1  0.779629  0.220371  0.462905  1
  Sn  Sn14  1  0.220371  0.779629  0.537095  1
  Sn  Sn15  1  0.779629  0.559257  0.462905  1
  Sn  Sn16  1  0.220371  0.440743  0.537095  1
  Sn  Sn17  1  0.440743  0.220371  0.462905  1
  Sn  Sn18  1  0.559257  0.779629  0.537095  1
  Sn  Sn19  1  0.349361  0.000000  0.000000  1
  Sn  Sn20  1  0.650639  0.000000  0.000000  1
  Sn  Sn21  1  0.000000  0.349361  0.000000  1
  Sn  Sn22  1  0.000000  0.650639  0.000000  1
  Sn  Sn23  1  0.650639  0.650639  0.000000  1
  Sn  Sn24  1  0.349361  0.349361  0.000000  1
  Sn  Sn25  1  0.333333  0.666667  0.129130  1
  Sn  Sn26  1  0.666667  0.333333  0.870870  1
  Sn  Sn27  1  0.333333  0.666667  0.822105  1
  Sn  Sn28  1  0.666667  0.333333  0.177895  1
  Sn  Sn29  1  0.000000  0.000000  0.500000  1
  Ru  Ru30  1  0.829586  0.170414  0.202871  1
  Ru  Ru31  1  0.170414  0.829586  0.797129  1
  Ru  Ru32  1  0.829586  0.659172  0.202871  1
  Ru  Ru33  1  0.170414  0.340828  0.797129  1
  Ru  Ru34  1  0.340828  0.170414  0.202871  1
  Ru  Ru35  1  0.659172  0.829586  0.797129  1
