# generated using pymatgen
data_Pr2Re2Br
_symmetry_space_group_name_H-M   'P 1'
_cell_length_a   4.20229900
_cell_length_b   4.20229852
_cell_length_c   17.74317600
_cell_angle_alpha   90.00000000
_cell_angle_beta   90.00000000
_cell_angle_gamma   119.99998016
_symmetry_Int_Tables_number   1
_chemical_formula_structural   Pr2Re2Br
_chemical_formula_sum   'Pr4 Re4 Br2'
_cell_volume   271.35381336
_cell_formula_units_Z   2
loop_
 _symmetry_equiv_pos_site_id
 _symmetry_equiv_pos_as_xyz
  1  'x, y, z'
loop_
 _atom_site_type_symbol
 _atom_site_label
 _atom_site_symmetry_multiplicity
 _atom_site_fract_x
 _atom_site_fract_y
 _atom_site_fract_z
 _atom_site_occupancy
  Pr  Pr0  1  0.000000  0.000000  0.118781  1
  Pr  Pr1  1  0.000000  0.000000  0.381219  1
  Pr  Pr2  1  0.000000  0.000000  0.618781  1
  Pr  Pr3  1  0.000000  0.000000  0.881220  1
  Re  Re4  1  0.666666  0.333332  0.016236  1
  Re  Re5  1  0.333334  0.666667  0.983764  1
  Re  Re6  1  0.666666  0.333332  0.483764  1
  Re  Re7  1  0.333334  0.666667  0.516236  1
  Br  Br8  1  0.333334  0.666667  0.250000  1
  Br  Br9  1  0.666666  0.333332  0.750000  1
