# generated using pymatgen
data_YbY2Ga5Cu6
_symmetry_space_group_name_H-M   'P 1'
_cell_length_a   7.96329690
_cell_length_b   7.96329787
_cell_length_c   7.96329768
_cell_angle_alpha   148.60345800
_cell_angle_beta   113.53593421
_cell_angle_gamma   75.35043985
_symmetry_Int_Tables_number   1
_chemical_formula_structural   YbY2Ga5Cu6
_chemical_formula_sum   'Yb1 Y2 Ga5 Cu6'
_cell_volume   237.06644356
_cell_formula_units_Z   1
loop_
 _symmetry_equiv_pos_site_id
 _symmetry_equiv_pos_as_xyz
  1  'x, y, z'
loop_
 _atom_site_type_symbol
 _atom_site_label
 _atom_site_symmetry_multiplicity
 _atom_site_fract_x
 _atom_site_fract_y
 _atom_site_fract_z
 _atom_site_occupancy
  Yb  Yb0  1  0.000000  0.000000  0.000000  1
  Y  Y1  1  0.692758  0.692758  0.000000  1
  Y  Y2  1  0.307242  0.307242  0.000000  1
  Ga  Ga3  1  0.320107  0.670955  0.649151  1
  Ga  Ga4  1  0.500000  0.000000  0.500000  1
  Ga  Ga5  1  0.679893  0.329045  0.350849  1
  Ga  Ga6  1  0.978196  0.329045  0.649151  1
  Ga  Ga7  1  0.021804  0.670955  0.350849  1
  Cu  Cu8  1  0.300764  0.500000  0.800764  1
  Cu  Cu9  1  0.699236  0.500000  0.199236  1
  Cu  Cu10  1  0.398688  0.124299  0.274386  1
  Cu  Cu11  1  0.849913  0.124299  0.725614  1
  Cu  Cu12  1  0.150087  0.875701  0.274386  1
  Cu  Cu13  1  0.601312  0.875701  0.725614  1
