# generated using pymatgen
data_Rb4SbAsCl12
_symmetry_space_group_name_H-M   'P 1'
_cell_length_a   7.36905300
_cell_length_b   7.36905300
_cell_length_c   10.62462500
_cell_angle_alpha   90.00000000
_cell_angle_beta   90.00000000
_cell_angle_gamma   90.00000000
_symmetry_Int_Tables_number   1
_chemical_formula_structural   Rb4SbAsCl12
_chemical_formula_sum   'Rb4 Sb1 As1 Cl12'
_cell_volume   576.94839639
_cell_formula_units_Z   1
loop_
 _symmetry_equiv_pos_site_id
 _symmetry_equiv_pos_as_xyz
  1  'x, y, z'
loop_
 _atom_site_type_symbol
 _atom_site_label
 _atom_site_symmetry_multiplicity
 _atom_site_fract_x
 _atom_site_fract_y
 _atom_site_fract_z
 _atom_site_occupancy
  Rb  Rb0  1  0.500000  0.000000  0.788368  1
  Rb  Rb1  1  0.000000  0.500000  0.211632  1
  Rb  Rb2  1  0.500000  0.000000  0.211632  1
  Rb  Rb3  1  0.000000  0.500000  0.788368  1
  Sb  Sb4  1  0.500000  0.500000  0.500000  1
  As  As5  1  0.000000  0.000000  0.000000  1
  Cl  Cl6  1  0.000000  0.000000  0.763436  1
  Cl  Cl7  1  0.500000  0.500000  0.271003  1
  Cl  Cl8  1  0.731925  0.731925  0.500000  1
  Cl  Cl9  1  0.241885  0.241885  0.000000  1
  Cl  Cl10  1  0.731925  0.268075  0.500000  1
  Cl  Cl11  1  0.241885  0.758115  0.000000  1
  Cl  Cl12  1  0.000000  0.000000  0.236564  1
  Cl  Cl13  1  0.500000  0.500000  0.728997  1
  Cl  Cl14  1  0.268075  0.268075  0.500000  1
  Cl  Cl15  1  0.758115  0.758115  0.000000  1
  Cl  Cl16  1  0.268075  0.731925  0.500000  1
  Cl  Cl17  1  0.758115  0.241885  0.000000  1
