# generated using pymatgen
data_K10Zn4Sn4Se17
_symmetry_space_group_name_H-M   'P 1'
_cell_length_a   10.55650792
_cell_length_b   10.55650840
_cell_length_c   10.55650808
_cell_angle_alpha   90.48772912
_cell_angle_beta   90.48773358
_cell_angle_gamma   90.48772977
_symmetry_Int_Tables_number   1
_chemical_formula_structural   K10Zn4Sn4Se17
_chemical_formula_sum   'K10 Zn4 Sn4 Se17'
_cell_volume   1176.28723170
_cell_formula_units_Z   1
loop_
 _symmetry_equiv_pos_site_id
 _symmetry_equiv_pos_as_xyz
  1  'x, y, z'
loop_
 _atom_site_type_symbol
 _atom_site_label
 _atom_site_symmetry_multiplicity
 _atom_site_fract_x
 _atom_site_fract_y
 _atom_site_fract_z
 _atom_site_occupancy
  K  K0  1  0.999730  0.500609  0.999730  1
  K  K1  1  0.999730  0.999730  0.500609  1
  K  K2  1  0.500609  0.999730  0.999730  1
  K  K3  1  0.042878  0.502242  0.502242  1
  K  K4  1  0.502242  0.042878  0.502242  1
  K  K5  1  0.502242  0.502242  0.042878  1
  K  K6  1  0.332626  0.682765  0.332626  1
  K  K7  1  0.332626  0.332626  0.682765  1
  K  K8  1  0.682765  0.332626  0.332626  1
  K  K9  1  0.663958  0.663958  0.663958  1
  Zn  Zn10  1  0.865246  0.865246  0.865246  1
  Zn  Zn11  1  0.133664  0.866795  0.133664  1
  Zn  Zn12  1  0.866795  0.133664  0.133664  1
  Zn  Zn13  1  0.133664  0.133664  0.866795  1
  Sn  Sn14  1  0.223970  0.774754  0.774754  1
  Sn  Sn15  1  0.774754  0.223970  0.774754  1
  Sn  Sn16  1  0.774754  0.774754  0.223970  1
  Sn  Sn17  1  0.227075  0.227075  0.227075  1
  Se  Se18  1  0.000347  0.000347  0.000347  1
  Se  Se19  1  0.351620  0.634136  0.634136  1
  Se  Se20  1  0.634136  0.351620  0.634136  1
  Se  Se21  1  0.634136  0.634136  0.351620  1
  Se  Se22  1  0.365380  0.365380  0.365380  1
  Se  Se23  1  0.990102  0.724579  0.724579  1
  Se  Se24  1  0.724579  0.990102  0.724579  1
  Se  Se25  1  0.724579  0.724579  0.990102  1
  Se  Se26  1  0.008074  0.726087  0.274750  1
  Se  Se27  1  0.276385  0.994603  0.276385  1
  Se  Se28  1  0.274750  0.726087  0.008074  1
  Se  Se29  1  0.994603  0.276385  0.276385  1
  Se  Se30  1  0.726087  0.008074  0.274750  1
  Se  Se31  1  0.726087  0.274750  0.008074  1
  Se  Se32  1  0.008074  0.274750  0.726087  1
  Se  Se33  1  0.274750  0.008074  0.726087  1
  Se  Se34  1  0.276385  0.276385  0.994603  1
