# generated using pymatgen
data_CeNp(AlC)6
_symmetry_space_group_name_H-M   'P 1'
_cell_length_a   3.42167100
_cell_length_b   3.42167124
_cell_length_c   17.56446100
_cell_angle_alpha   90.00000000
_cell_angle_beta   90.00000000
_cell_angle_gamma   120.00000733
_symmetry_Int_Tables_number   1
_chemical_formula_structural   CeNp(AlC)6
_chemical_formula_sum   'Ce1 Np1 Al6 C6'
_cell_volume   178.09099300
_cell_formula_units_Z   1
loop_
 _symmetry_equiv_pos_site_id
 _symmetry_equiv_pos_as_xyz
  1  'x, y, z'
loop_
 _atom_site_type_symbol
 _atom_site_label
 _atom_site_symmetry_multiplicity
 _atom_site_fract_x
 _atom_site_fract_y
 _atom_site_fract_z
 _atom_site_occupancy
  Ce  Ce0  1  0.000000  0.000000  0.000000  1
  Np  Np1  1  0.000000  0.000000  0.500000  1
  Al  Al2  1  0.333333  0.666667  0.364884  1
  Al  Al3  1  0.666667  0.333333  0.635116  1
  Al  Al4  1  0.666667  0.333333  0.865116  1
  Al  Al5  1  0.333333  0.666667  0.134884  1
  Al  Al6  1  0.333333  0.666667  0.759297  1
  Al  Al7  1  0.666667  0.333333  0.240703  1
  C  C8  1  0.333333  0.666667  0.896636  1
  C  C9  1  0.666667  0.333333  0.103364  1
  C  C10  1  0.666667  0.333333  0.411087  1
  C  C11  1  0.333333  0.666667  0.588913  1
  C  C12  1  0.333333  0.666667  0.251906  1
  C  C13  1  0.666667  0.333333  0.748094  1
