# generated using pymatgen
data_Ho2Al9Pd2Rh
_symmetry_space_group_name_H-M   'P 1'
_cell_length_a   7.60425091
_cell_length_b   7.60425022
_cell_length_c   9.45591102
_cell_angle_alpha   90.02683938
_cell_angle_beta   90.02684327
_cell_angle_gamma   119.59334199
_symmetry_Int_Tables_number   1
_chemical_formula_structural   Ho2Al9Pd2Rh
_chemical_formula_sum   'Ho4 Al18 Pd4 Rh2'
_cell_volume   475.45754673
_cell_formula_units_Z   2
loop_
 _symmetry_equiv_pos_site_id
 _symmetry_equiv_pos_as_xyz
  1  'x, y, z'
loop_
 _atom_site_type_symbol
 _atom_site_label
 _atom_site_symmetry_multiplicity
 _atom_site_fract_x
 _atom_site_fract_y
 _atom_site_fract_z
 _atom_site_occupancy
  Ho  Ho0  1  0.995466  0.669675  0.249422  1
  Ho  Ho1  1  0.006664  0.331615  0.750576  1
  Ho  Ho2  1  0.668385  0.993336  0.249424  1
  Ho  Ho3  1  0.330325  0.004534  0.750578  1
  Al  Al4  1  0.127698  0.128731  0.246475  1
  Al  Al5  1  0.871269  0.872302  0.753525  1
  Al  Al6  1  0.994949  0.330430  0.074125  1
  Al  Al7  1  0.997296  0.665260  0.926215  1
  Al  Al8  1  0.998570  0.665316  0.578515  1
  Al  Al9  1  0.334684  0.001430  0.421485  1
  Al  Al10  1  0.000470  0.334297  0.422057  1
  Al  Al11  1  0.665703  0.999530  0.577943  1
  Al  Al12  1  0.669570  0.005051  0.925875  1
  Al  Al13  1  0.334740  0.002704  0.073785  1
  Al  Al14  1  0.334293  0.334161  0.559999  1
  Al  Al15  1  0.665839  0.665708  0.440001  1
  Al  Al16  1  0.670853  0.667761  0.053556  1
  Al  Al17  1  0.332240  0.329147  0.946444  1
  Al  Al18  1  0.338658  0.546436  0.248492  1
  Al  Al19  1  0.660300  0.450771  0.753989  1
  Al  Al20  1  0.549229  0.339700  0.246011  1
  Al  Al21  1  0.453564  0.661342  0.751508  1
  Pd  Pd22  1  0.327454  0.672546  0.000000  1
  Pd  Pd23  1  0.327457  0.672543  0.500000  1
  Pd  Pd24  1  0.672157  0.327843  0.500000  1
  Pd  Pd25  1  0.000044  0.999956  0.500000  1
  Rh  Rh26  1  0.671775  0.328225  0.000000  1
  Rh  Rh27  1  0.000347  0.999653  0.000000  1
