# generated using pymatgen
data_Y3Er(Al8Pt3)3
_symmetry_space_group_name_H-M   'P 1'
_cell_length_a   7.52587770
_cell_length_b   7.53262865
_cell_length_c   13.17483064
_cell_angle_alpha   84.61089438
_cell_angle_beta   100.87224550
_cell_angle_gamma   119.86252919
_symmetry_Int_Tables_number   1
_chemical_formula_structural   Y3Er(Al8Pt3)3
_chemical_formula_sum   'Y3 Er1 Al24 Pt9'
_cell_volume   636.08186553
_cell_formula_units_Z   1
loop_
 _symmetry_equiv_pos_site_id
 _symmetry_equiv_pos_as_xyz
  1  'x, y, z'
loop_
 _atom_site_type_symbol
 _atom_site_label
 _atom_site_symmetry_multiplicity
 _atom_site_fract_x
 _atom_site_fract_y
 _atom_site_fract_z
 _atom_site_occupancy
  Y  Y0  1  0.732490  0.998803  0.192028  1
  Y  Y1  1  0.267478  0.001256  0.807956  1
  Y  Y2  1  0.061985  0.668344  0.191947  1
  Er  Er3  1  0.937890  0.331544  0.807345  1
  Al  Al4  1  0.807066  0.869012  0.815403  1
  Al  Al5  1  0.192931  0.131482  0.184630  1
  Al  Al6  1  0.981613  0.665698  0.944175  1
  Al  Al7  1  0.018209  0.333840  0.055250  1
  Al  Al8  1  0.397863  0.663177  0.816518  1
  Al  Al9  1  0.601606  0.336300  0.183503  1
  Al  Al10  1  0.882207  0.664951  0.670617  1
  Al  Al11  1  0.117864  0.334778  0.329649  1
  Al  Al12  1  0.603165  0.458303  0.816041  1
  Al  Al13  1  0.397328  0.541668  0.183967  1
  Al  Al14  1  0.230094  0.340003  0.669421  1
  Al  Al15  1  0.769740  0.659992  0.330863  1
  Al  Al16  1  0.853093  0.333084  0.558735  1
  Al  Al17  1  0.185748  0.999099  0.558669  1
  Al  Al18  1  0.814277  0.000923  0.441412  1
  Al  Al19  1  0.352369  0.999463  0.055596  1
  Al  Al20  1  0.647992  0.000998  0.944118  1
  Al  Al21  1  0.556274  0.993693  0.670835  1
  Al  Al22  1  0.444081  0.006599  0.329435  1
  Al  Al23  1  0.520860  0.667408  0.561663  1
  Al  Al24  1  0.479171  0.332582  0.438414  1
  Al  Al25  1  0.683060  0.667596  0.046819  1
  Al  Al26  1  0.316419  0.332418  0.952871  1
  Al  Al27  1  0.146924  0.666904  0.441464  1
  Pt  Pt28  1  0.328628  0.671395  0.999963  1
  Pt  Pt29  1  0.546324  0.324842  0.637446  1
  Pt  Pt30  1  0.454109  0.675100  0.362854  1
  Pt  Pt31  1  0.887856  0.008414  0.638962  1
  Pt  Pt32  1  0.112329  0.992113  0.361383  1
  Pt  Pt33  1  0.671329  0.328539  0.999865  1
  Pt  Pt34  1  0.203966  0.666173  0.638991  1
  Pt  Pt35  1  0.795637  0.333400  0.361293  1
  Pt  Pt36  1  0.000025  0.000106  0.999898  1
