# generated using pymatgen
data_Tm3Zr(Si5Os3)2
_symmetry_space_group_name_H-M   'P 1'
_cell_length_a   8.04924515
_cell_length_b   8.06720533
_cell_length_c   5.76425502
_cell_angle_alpha   70.98013108
_cell_angle_beta   70.58664152
_cell_angle_gamma   94.09251065
_symmetry_Int_Tables_number   1
_chemical_formula_structural   Tm3Zr(Si5Os3)2
_chemical_formula_sum   'Tm3 Zr1 Si10 Os6'
_cell_volume   326.90040418
_cell_formula_units_Z   1
loop_
 _symmetry_equiv_pos_site_id
 _symmetry_equiv_pos_as_xyz
  1  'x, y, z'
loop_
 _atom_site_type_symbol
 _atom_site_label
 _atom_site_symmetry_multiplicity
 _atom_site_fract_x
 _atom_site_fract_y
 _atom_site_fract_z
 _atom_site_occupancy
  Tm  Tm0  1  0.872089  0.601966  0.749195  1
  Tm  Tm1  1  0.400696  0.132206  0.744464  1
  Tm  Tm2  1  0.132336  0.396895  0.246437  1
  Zr  Zr3  1  0.592746  0.868185  0.255168  1
  Si  Si4  1  0.068786  0.261177  0.835479  1
  Si  Si5  1  0.737462  0.931655  0.665859  1
  Si  Si6  1  0.923838  0.740942  0.166866  1
  Si  Si7  1  0.265464  0.066652  0.332114  1
  Si  Si8  1  0.208027  0.797061  0.742538  1
  Si  Si9  1  0.791898  0.201885  0.256737  1
  Si  Si10  1  0.516446  0.487410  0.748893  1
  Si  Si11  1  0.484354  0.514933  0.252277  1
  Si  Si12  1  0.774140  0.223590  0.748605  1
  Si  Si13  1  0.229217  0.775575  0.254143  1
  Os  Os14  1  0.256377  0.542072  0.635930  1
  Os  Os15  1  0.454775  0.745984  0.868325  1
  Os  Os16  1  0.745380  0.457569  0.365665  1
  Os  Os17  1  0.547761  0.257058  0.128174  1
  Os  Os18  1  0.001045  0.996087  0.752672  1
  Os  Os19  1  0.997166  0.001102  0.250460  1
