# generated using pymatgen
data_PrP4N7
_symmetry_space_group_name_H-M   'P 1'
_cell_length_a   5.52204112
_cell_length_b   7.54718566
_cell_length_c   7.59609895
_cell_angle_alpha   68.94910286
_cell_angle_beta   94.37882750
_cell_angle_gamma   102.66625139
_symmetry_Int_Tables_number   1
_chemical_formula_structural   PrP4N7
_chemical_formula_sum   'Pr2 P8 N14'
_cell_volume   288.25538683
_cell_formula_units_Z   2
loop_
 _symmetry_equiv_pos_site_id
 _symmetry_equiv_pos_as_xyz
  1  'x, y, z'
loop_
 _atom_site_type_symbol
 _atom_site_label
 _atom_site_symmetry_multiplicity
 _atom_site_fract_x
 _atom_site_fract_y
 _atom_site_fract_z
 _atom_site_occupancy
  Pr  Pr0  1  0.178633  0.786032  0.237863  1
  Pr  Pr1  1  0.821573  0.214009  0.762192  1
  P  P2  1  0.248737  0.260865  0.102195  1
  P  P3  1  0.702320  0.088370  0.239600  1
  P  P4  1  0.660744  0.427415  0.292768  1
  P  P5  1  0.215234  0.277063  0.511963  1
  P  P6  1  0.784792  0.722720  0.488102  1
  P  P7  1  0.339299  0.572615  0.707292  1
  P  P8  1  0.297671  0.911620  0.760198  1
  P  P9  1  0.751095  0.739246  0.897857  1
  N  N10  1  0.462234  0.140157  0.093521  1
  N  N11  1  0.790171  0.580560  0.098730  1
  N  N12  1  0.977443  0.104935  0.144533  1
  N  N13  1  0.337376  0.369645  0.271693  1
  N  N14  1  0.746432  0.224006  0.362999  1
  N  N15  1  0.598856  0.855641  0.344639  1
  N  N16  1  0.738480  0.506354  0.462937  1
  N  N17  1  0.261077  0.493244  0.537460  1
  N  N18  1  0.401457  0.144241  0.655120  1
  N  N19  1  0.254192  0.776281  0.636503  1
  N  N20  1  0.662604  0.630212  0.728509  1
  N  N21  1  0.022404  0.895108  0.855074  1
  N  N22  1  0.209838  0.419995  0.901586  1
  N  N23  1  0.537334  0.859665  0.906665  1
