# generated using pymatgen
data_TlPt(SO4)2
_symmetry_space_group_name_H-M   'P 1'
_cell_length_a   4.17667341
_cell_length_b   5.10527223
_cell_length_c   9.05654700
_cell_angle_alpha   78.91174595
_cell_angle_beta   89.87205172
_cell_angle_gamma   75.68799820
_symmetry_Int_Tables_number   1
_chemical_formula_structural   TlPt(SO4)2
_chemical_formula_sum   'Tl1 Pt1 S2 O8'
_cell_volume   183.41806813
_cell_formula_units_Z   1
loop_
 _symmetry_equiv_pos_site_id
 _symmetry_equiv_pos_as_xyz
  1  'x, y, z'
loop_
 _atom_site_type_symbol
 _atom_site_label
 _atom_site_symmetry_multiplicity
 _atom_site_fract_x
 _atom_site_fract_y
 _atom_site_fract_z
 _atom_site_occupancy
  Tl  Tl0  1  0.000000  0.499999  0.000000  1
  Pt  Pt1  1  0.000000  0.000000  0.500000  1
  S  S2  1  0.536009  0.889369  0.262811  1
  S  S3  1  0.463990  0.110632  0.737188  1
  O  O4  1  0.669964  0.052399  0.140451  1
  O  O5  1  0.432881  0.656811  0.228055  1
  O  O6  1  0.242495  0.098174  0.317381  1
  O  O7  1  0.790592  0.768525  0.398749  1
  O  O8  1  0.209408  0.231475  0.601252  1
  O  O9  1  0.757504  0.901827  0.682618  1
  O  O10  1  0.567118  0.343190  0.771945  1
  O  O11  1  0.330038  0.947602  0.859550  1
