# generated using pymatgen
data_Pr8Be4Si11Ni
_symmetry_space_group_name_H-M   'P 1'
_cell_length_a   8.00720901
_cell_length_b   8.00720930
_cell_length_c   8.68173700
_cell_angle_alpha   90.00285505
_cell_angle_beta   89.99714495
_cell_angle_gamma   119.98119939
_symmetry_Int_Tables_number   1
_chemical_formula_structural   Pr8Be4Si11Ni
_chemical_formula_sum   'Pr8 Be4 Si11 Ni1'
_cell_volume   482.14963965
_cell_formula_units_Z   1
loop_
 _symmetry_equiv_pos_site_id
 _symmetry_equiv_pos_as_xyz
  1  'x, y, z'
loop_
 _atom_site_type_symbol
 _atom_site_label
 _atom_site_symmetry_multiplicity
 _atom_site_fract_x
 _atom_site_fract_y
 _atom_site_fract_z
 _atom_site_occupancy
  Pr  Pr0  1  0.498732  0.501268  0.752145  1
  Pr  Pr1  1  0.498819  0.501181  0.247950  1
  Pr  Pr2  1  0.998286  0.498253  0.751630  1
  Pr  Pr3  1  0.998081  0.498147  0.248326  1
  Pr  Pr4  1  0.501747  0.001714  0.751630  1
  Pr  Pr5  1  0.501853  0.001919  0.248326  1
  Pr  Pr6  1  0.999973  0.000027  0.749760  1
  Pr  Pr7  1  0.999999  0.000001  0.250253  1
  Be  Be8  1  0.671204  0.328796  0.999042  1
  Be  Be9  1  0.337266  0.662734  0.000874  1
  Be  Be10  1  0.333902  0.666098  0.498847  1
  Be  Be11  1  0.666526  0.333474  0.501151  1
  Si  Si12  1  0.172208  0.827792  0.999997  1
  Si  Si13  1  0.345793  0.177262  0.999993  1
  Si  Si14  1  0.172195  0.827805  0.500072  1
  Si  Si15  1  0.664055  0.843029  0.000054  1
  Si  Si16  1  0.827938  0.172062  0.499822  1
  Si  Si17  1  0.822738  0.654207  0.999993  1
  Si  Si18  1  0.655586  0.827425  0.500141  1
  Si  Si19  1  0.156971  0.335945  0.000054  1
  Si  Si20  1  0.344767  0.173242  0.499884  1
  Si  Si21  1  0.172575  0.344414  0.500141  1
  Si  Si22  1  0.826758  0.655233  0.499884  1
  Ni  Ni23  1  0.832027  0.167973  0.000028  1
