# generated using pymatgen
data_Dy3TmSc2MnBi2
_symmetry_space_group_name_H-M   'P 1'
_cell_length_a   4.27082500
_cell_length_b   8.04838523
_cell_length_c   8.04294461
_cell_angle_alpha   120.02236949
_cell_angle_beta   90.00000000
_cell_angle_gamma   90.00000000
_symmetry_Int_Tables_number   1
_chemical_formula_structural   Dy3TmSc2MnBi2
_chemical_formula_sum   'Dy3 Tm1 Sc2 Mn1 Bi2'
_cell_volume   239.36921908
_cell_formula_units_Z   1
loop_
 _symmetry_equiv_pos_site_id
 _symmetry_equiv_pos_as_xyz
  1  'x, y, z'
loop_
 _atom_site_type_symbol
 _atom_site_label
 _atom_site_symmetry_multiplicity
 _atom_site_fract_x
 _atom_site_fract_y
 _atom_site_fract_z
 _atom_site_occupancy
  Dy  Dy0  1  0.000000  0.391140  0.393204  1
  Dy  Dy1  1  0.000000  0.997936  0.606796  1
  Dy  Dy2  1  0.000000  0.613147  0.000000  1
  Tm  Tm3  1  0.500000  0.226989  0.000000  1
  Sc  Sc4  1  0.500000  0.774438  0.776117  1
  Sc  Sc5  1  0.500000  0.998320  0.223883  1
  Mn  Mn6  1  0.000000  0.992737  0.000000  1
  Bi  Bi7  1  0.500000  0.671097  0.336899  1
  Bi  Bi8  1  0.500000  0.334197  0.663101  1
