# generated using pymatgen
data_Ca7Cd(PbN)2
_symmetry_space_group_name_H-M   'P 1'
_cell_length_a   12.55584952
_cell_length_b   12.55584918
_cell_length_c   4.88060100
_cell_angle_alpha   90.00000000
_cell_angle_beta   90.00000000
_cell_angle_gamma   157.05270509
_symmetry_Int_Tables_number   1
_chemical_formula_structural   Ca7Cd(PbN)2
_chemical_formula_sum   'Ca7 Cd1 Pb2 N2'
_cell_volume   299.98610959
_cell_formula_units_Z   1
loop_
 _symmetry_equiv_pos_site_id
 _symmetry_equiv_pos_as_xyz
  1  'x, y, z'
loop_
 _atom_site_type_symbol
 _atom_site_label
 _atom_site_symmetry_multiplicity
 _atom_site_fract_x
 _atom_site_fract_y
 _atom_site_fract_z
 _atom_site_occupancy
  Ca  Ca0  1  0.999165  0.000835  0.000000  1
  Ca  Ca1  1  0.804274  0.195727  0.000000  1
  Ca  Ca2  1  0.596600  0.403401  0.000000  1
  Ca  Ca3  1  0.400829  0.599172  0.000000  1
  Ca  Ca4  1  0.197422  0.802579  0.000000  1
  Ca  Ca5  1  0.900833  0.099168  0.499999  1
  Ca  Ca6  1  0.097666  0.902335  0.499999  1
  Cd  Cd7  1  0.705679  0.294322  0.499999  1
  Pb  Pb8  1  0.499901  0.500099  0.499999  1
  Pb  Pb9  1  0.295738  0.704263  0.499999  1
  N  N10  1  0.898566  0.101435  0.000000  1
  N  N11  1  0.103332  0.896669  0.000000  1
