# generated using pymatgen
data_AcNiH4
_symmetry_space_group_name_H-M   'P 1'
_cell_length_a   4.28040357
_cell_length_b   4.91518100
_cell_length_c   6.48358852
_cell_angle_alpha   90.00000000
_cell_angle_beta   108.23526353
_cell_angle_gamma   90.00000000
_symmetry_Int_Tables_number   1
_chemical_formula_structural   AcNiH4
_chemical_formula_sum   'Ac2 Ni2 H8'
_cell_volume   129.55749223
_cell_formula_units_Z   2
loop_
 _symmetry_equiv_pos_site_id
 _symmetry_equiv_pos_as_xyz
  1  'x, y, z'
loop_
 _atom_site_type_symbol
 _atom_site_label
 _atom_site_symmetry_multiplicity
 _atom_site_fract_x
 _atom_site_fract_y
 _atom_site_fract_z
 _atom_site_occupancy
  Ac  Ac0  1  0.134878  0.249999  0.263008  1
  Ac  Ac1  1  0.865122  0.749999  0.736993  1
  Ni  Ni2  1  0.639282  0.749999  0.183509  1
  Ni  Ni3  1  0.360718  0.249999  0.816491  1
  H  H4  1  0.499999  0.000000  0.000000  1
  H  H5  1  0.499999  0.500000  0.000000  1
  H  H6  1  0.016101  0.749999  0.160706  1
  H  H7  1  0.681107  0.511211  0.366126  1
  H  H8  1  0.681107  0.988790  0.366126  1
  H  H9  1  0.318893  0.011211  0.633875  1
  H  H10  1  0.318893  0.488789  0.633875  1
  H  H11  1  0.983899  0.249999  0.839295  1
