# generated using pymatgen
data_Y2ErCu2(AgSn2)2
_symmetry_space_group_name_H-M   'P 1'
_cell_length_a   4.51261195
_cell_length_b   7.23569818
_cell_length_c   8.66093465
_cell_angle_alpha   115.46045554
_cell_angle_beta   105.10064143
_cell_angle_gamma   89.99999383
_symmetry_Int_Tables_number   1
_chemical_formula_structural   Y2ErCu2(AgSn2)2
_chemical_formula_sum   'Y2 Er1 Cu2 Ag2 Sn4'
_cell_volume   244.47183864
_cell_formula_units_Z   1
loop_
 _symmetry_equiv_pos_site_id
 _symmetry_equiv_pos_as_xyz
  1  'x, y, z'
loop_
 _atom_site_type_symbol
 _atom_site_label
 _atom_site_symmetry_multiplicity
 _atom_site_fract_x
 _atom_site_fract_y
 _atom_site_fract_z
 _atom_site_occupancy
  Y  Y0  1  0.128406  0.652235  0.256813  1
  Y  Y1  1  0.999929  0.999979  0.999859  1
  Er  Er2  1  0.871300  0.346749  0.742601  1
  Cu  Cu3  1  0.340999  0.028228  0.681998  1
  Cu  Cu4  1  0.659156  0.972927  0.318312  1
  Ag  Ag5  1  0.317611  0.621523  0.635223  1
  Ag  Ag6  1  0.682666  0.378209  0.365333  1
  Sn  Sn7  1  0.217818  0.178084  0.435635  1
  Sn  Sn8  1  0.782613  0.822688  0.565225  1
  Sn  Sn9  1  0.505297  0.307033  0.010594  1
  Sn  Sn10  1  0.494204  0.692346  0.988409  1
