# generated using pymatgen
data_Nd8Y12Ga5Si11
_symmetry_space_group_name_H-M   'P 1'
_cell_length_a   7.82618038
_cell_length_b   7.81135499
_cell_length_c   14.68155950
_cell_angle_alpha   90.05725217
_cell_angle_beta   90.03490194
_cell_angle_gamma   90.00708475
_symmetry_Int_Tables_number   1
_chemical_formula_structural   Nd8Y12Ga5Si11
_chemical_formula_sum   'Nd8 Y12 Ga5 Si11'
_cell_volume   897.52823014
_cell_formula_units_Z   1
loop_
 _symmetry_equiv_pos_site_id
 _symmetry_equiv_pos_as_xyz
  1  'x, y, z'
loop_
 _atom_site_type_symbol
 _atom_site_label
 _atom_site_symmetry_multiplicity
 _atom_site_fract_x
 _atom_site_fract_y
 _atom_site_fract_z
 _atom_site_occupancy
  Nd  Nd0  1  0.636795  0.986397  0.456005  1
  Nd  Nd1  1  0.361131  0.011658  0.955753  1
  Nd  Nd2  1  0.990123  0.634447  0.546006  1
  Nd  Nd3  1  0.488473  0.861237  0.204650  1
  Nd  Nd4  1  0.509886  0.138517  0.706372  1
  Nd  Nd5  1  0.866279  0.489561  0.795736  1
  Nd  Nd6  1  0.135391  0.512520  0.294229  1
  Nd  Nd7  1  0.010491  0.366758  0.045354  1
  Y  Y8  1  0.485429  0.366413  0.123357  1
  Y  Y9  1  0.983585  0.138150  0.627593  1
  Y  Y10  1  0.866544  0.014136  0.873869  1
  Y  Y11  1  0.136365  0.982496  0.372168  1
  Y  Y12  1  0.514010  0.634306  0.624538  1
  Y  Y13  1  0.362565  0.484219  0.876783  1
  Y  Y14  1  0.636446  0.516594  0.376466  1
  Y  Y15  1  0.015398  0.861883  0.126522  1
  Y  Y16  1  0.315960  0.315522  0.501311  1
  Y  Y17  1  0.183687  0.813168  0.750555  1
  Y  Y18  1  0.815807  0.187980  0.250017  1
  Y  Y19  1  0.687929  0.683508  0.000555  1
  Ga  Ga20  1  0.285679  0.932366  0.562633  1
  Ga  Ga21  1  0.714522  0.067790  0.061819  1
  Ga  Ga22  1  0.932842  0.285310  0.437645  1
  Ga  Ga23  1  0.431386  0.215381  0.311731  1
  Ga  Ga24  1  0.567701  0.784813  0.812575  1
  Si  Si25  1  0.212619  0.430710  0.688988  1
  Si  Si26  1  0.786442  0.569790  0.188517  1
  Si  Si27  1  0.069613  0.713281  0.938524  1
  Si  Si28  1  0.801171  0.841575  0.693248  1
  Si  Si29  1  0.197803  0.158701  0.192349  1
  Si  Si30  1  0.839436  0.801395  0.303676  1
  Si  Si31  1  0.341681  0.697705  0.443338  1
  Si  Si32  1  0.658503  0.301699  0.942440  1
  Si  Si33  1  0.698098  0.340901  0.556122  1
  Si  Si34  1  0.300976  0.659761  0.053647  1
  Si  Si35  1  0.159233  0.199351  0.804907  1
