# generated using pymatgen
data_Lu2PaGa5Fe
_symmetry_space_group_name_H-M   'P 1'
_cell_length_a   6.78008600
_cell_length_b   6.78008778
_cell_length_c   4.19708000
_cell_angle_alpha   90.00000000
_cell_angle_beta   90.00000000
_cell_angle_gamma   121.73672817
_symmetry_Int_Tables_number   1
_chemical_formula_structural   Lu2PaGa5Fe
_chemical_formula_sum   'Lu2 Pa1 Ga5 Fe1'
_cell_volume   164.08876822
_cell_formula_units_Z   1
loop_
 _symmetry_equiv_pos_site_id
 _symmetry_equiv_pos_as_xyz
  1  'x, y, z'
loop_
 _atom_site_type_symbol
 _atom_site_label
 _atom_site_symmetry_multiplicity
 _atom_site_fract_x
 _atom_site_fract_y
 _atom_site_fract_z
 _atom_site_occupancy
  Lu  Lu0  1  0.601031  0.992279  0.000000  1
  Lu  Lu1  1  0.992279  0.601031  0.000000  1
  Pa  Pa2  1  0.388525  0.388525  0.000000  1
  Ga  Ga3  1  0.231532  0.987785  0.500000  1
  Ga  Ga4  1  0.987785  0.231532  0.500000  1
  Ga  Ga5  1  0.763871  0.763871  0.500000  1
  Ga  Ga6  1  0.325235  0.662494  0.500000  1
  Ga  Ga7  1  0.662494  0.325235  0.500000  1
  Fe  Fe8  1  0.047251  0.047251  0.000000  1
