# generated using pymatgen
data_Ce2Ni(P2Ru)2
_symmetry_space_group_name_H-M   'P 1'
_cell_length_a   4.03129000
_cell_length_b   4.03129000
_cell_length_c   9.27973600
_cell_angle_alpha   90.00000000
_cell_angle_beta   90.00000000
_cell_angle_gamma   90.00000000
_symmetry_Int_Tables_number   1
_chemical_formula_structural   Ce2Ni(P2Ru)2
_chemical_formula_sum   'Ce2 Ni1 P4 Ru2'
_cell_volume   150.80776497
_cell_formula_units_Z   1
loop_
 _symmetry_equiv_pos_site_id
 _symmetry_equiv_pos_as_xyz
  1  'x, y, z'
loop_
 _atom_site_type_symbol
 _atom_site_label
 _atom_site_symmetry_multiplicity
 _atom_site_fract_x
 _atom_site_fract_y
 _atom_site_fract_z
 _atom_site_occupancy
  Ce  Ce0  1  0.500000  0.000000  0.771682  1
  Ce  Ce1  1  0.000000  0.500000  0.228318  1
  Ni  Ni2  1  0.000000  0.000000  0.000000  1
  P  P3  1  0.000000  0.500000  0.878847  1
  P  P4  1  0.500000  0.000000  0.370248  1
  P  P5  1  0.500000  0.000000  0.121153  1
  P  P6  1  0.000000  0.500000  0.629752  1
  Ru  Ru7  1  0.000000  0.000000  0.500000  1
  Ru  Ru8  1  0.500000  0.500000  0.500000  1
