# generated using pymatgen
data_Tb2AlNi9
_symmetry_space_group_name_H-M   'P 1'
_cell_length_a   4.87872220
_cell_length_b   4.87872232
_cell_length_c   7.98761800
_cell_angle_alpha   90.00000000
_cell_angle_beta   90.00000000
_cell_angle_gamma   119.52423678
_symmetry_Int_Tables_number   1
_chemical_formula_structural   Tb2AlNi9
_chemical_formula_sum   'Tb2 Al1 Ni9'
_cell_volume   165.43304435
_cell_formula_units_Z   1
loop_
 _symmetry_equiv_pos_site_id
 _symmetry_equiv_pos_as_xyz
  1  'x, y, z'
loop_
 _atom_site_type_symbol
 _atom_site_label
 _atom_site_symmetry_multiplicity
 _atom_site_fract_x
 _atom_site_fract_y
 _atom_site_fract_z
 _atom_site_occupancy
  Tb  Tb0  1  0.000000  0.000000  0.765765  1
  Tb  Tb1  1  0.000000  0.000000  0.234235  1
  Al  Al2  1  0.500000  0.500000  0.500000  1
  Ni  Ni3  1  0.668619  0.331381  0.749961  1
  Ni  Ni4  1  0.668619  0.331381  0.250039  1
  Ni  Ni5  1  0.500000  0.500000  0.000000  1
  Ni  Ni6  1  0.331381  0.668619  0.749961  1
  Ni  Ni7  1  0.500000  0.000000  0.500000  1
  Ni  Ni8  1  0.000000  0.500000  0.000000  1
  Ni  Ni9  1  0.500000  0.000000  0.000000  1
  Ni  Ni10  1  0.331381  0.668619  0.250039  1
  Ni  Ni11  1  0.000000  0.500000  0.500000  1
