# generated using pymatgen
data_Tb12InGaSi4
_symmetry_space_group_name_H-M   'P 1'
_cell_length_a   8.53078488
_cell_length_b   8.53078554
_cell_length_c   8.53078438
_cell_angle_alpha   112.03821790
_cell_angle_beta   111.15867916
_cell_angle_gamma   105.29702509
_symmetry_Int_Tables_number   1
_chemical_formula_structural   Tb12InGaSi4
_chemical_formula_sum   'Tb12 In1 Ga1 Si4'
_cell_volume   475.99418699
_cell_formula_units_Z   1
loop_
 _symmetry_equiv_pos_site_id
 _symmetry_equiv_pos_as_xyz
  1  'x, y, z'
loop_
 _atom_site_type_symbol
 _atom_site_label
 _atom_site_symmetry_multiplicity
 _atom_site_fract_x
 _atom_site_fract_y
 _atom_site_fract_z
 _atom_site_occupancy
  Tb  Tb0  1  0.037312  0.736534  0.300777  1
  Tb  Tb1  1  0.962688  0.263466  0.699223  1
  Tb  Tb2  1  0.564242  0.263466  0.300777  1
  Tb  Tb3  1  0.435758  0.736534  0.699223  1
  Tb  Tb4  1  0.679773  0.881678  0.201905  1
  Tb  Tb5  1  0.320227  0.522133  0.201905  1
  Tb  Tb6  1  0.320227  0.118322  0.798095  1
  Tb  Tb7  1  0.679773  0.477867  0.798095  1
  Tb  Tb8  1  0.180703  0.229757  0.410459  1
  Tb  Tb9  1  0.819297  0.229757  0.049054  1
  Tb  Tb10  1  0.180703  0.770243  0.950946  1
  Tb  Tb11  1  0.819297  0.770243  0.589541  1
  In  In12  1  0.500000  0.000000  0.500000  1
  Ga  Ga13  1  0.000000  0.500000  0.500000  1
  Si  Si14  1  0.630404  0.500000  0.130404  1
  Si  Si15  1  0.369596  0.500000  0.869596  1
  Si  Si16  1  0.884661  0.884661  0.000000  1
  Si  Si17  1  0.115339  0.115339  0.000000  1
