# generated using pymatgen
data_Ce4Hf3ZrO14
_symmetry_space_group_name_H-M   'P 1'
_cell_length_a   7.61154719
_cell_length_b   7.61154788
_cell_length_c   7.60895522
_cell_angle_alpha   59.98873115
_cell_angle_beta   59.98872434
_cell_angle_gamma   60.00000316
_symmetry_Int_Tables_number   1
_chemical_formula_structural   Ce4Hf3ZrO14
_chemical_formula_sum   'Ce4 Hf3 Zr1 O14'
_cell_volume   311.66063623
_cell_formula_units_Z   1
loop_
 _symmetry_equiv_pos_site_id
 _symmetry_equiv_pos_as_xyz
  1  'x, y, z'
loop_
 _atom_site_type_symbol
 _atom_site_label
 _atom_site_symmetry_multiplicity
 _atom_site_fract_x
 _atom_site_fract_y
 _atom_site_fract_z
 _atom_site_occupancy
  Ce  Ce0  1  0.625000  0.125000  0.125000  1
  Ce  Ce1  1  0.125000  0.625000  0.125000  1
  Ce  Ce2  1  0.125000  0.125000  0.625000  1
  Ce  Ce3  1  0.125000  0.125000  0.125000  1
  Hf  Hf4  1  0.625000  0.125000  0.625000  1
  Hf  Hf5  1  0.625000  0.625000  0.625000  1
  Hf  Hf6  1  0.125000  0.625000  0.625000  1
  Zr  Zr7  1  0.625000  0.625000  0.125000  1
  O  O8  1  0.955905  0.541385  0.546804  1
  O  O9  1  0.294095  0.708615  0.703196  1
  O  O10  1  0.249722  0.249722  0.250835  1
  O  O11  1  0.541118  0.961068  0.956697  1
  O  O12  1  0.294095  0.294095  0.703196  1
  O  O13  1  0.288932  0.708882  0.293303  1
  O  O14  1  0.961068  0.541118  0.956697  1
  O  O15  1  0.708882  0.288932  0.293303  1
  O  O16  1  0.955905  0.955905  0.546804  1
  O  O17  1  0.000278  0.000278  0.999165  1
  O  O18  1  0.708615  0.294095  0.703196  1
  O  O19  1  0.541385  0.955905  0.546804  1
  O  O20  1  0.541118  0.541118  0.956697  1
  O  O21  1  0.708882  0.708882  0.293303  1
