# generated using pymatgen
data_Tb18DyHoPb16
_symmetry_space_group_name_H-M   'P 1'
_cell_length_a   8.23377500
_cell_length_b   8.31442236
_cell_length_c   15.72381300
_cell_angle_alpha   90.00000000
_cell_angle_beta   90.00000000
_cell_angle_gamma   90.03276044
_symmetry_Int_Tables_number   1
_chemical_formula_structural   Tb18DyHoPb16
_chemical_formula_sum   'Tb18 Dy1 Ho1 Pb16'
_cell_volume   1076.43764265
_cell_formula_units_Z   1
loop_
 _symmetry_equiv_pos_site_id
 _symmetry_equiv_pos_as_xyz
  1  'x, y, z'
loop_
 _atom_site_type_symbol
 _atom_site_label
 _atom_site_symmetry_multiplicity
 _atom_site_fract_x
 _atom_site_fract_y
 _atom_site_fract_z
 _atom_site_occupancy
  Tb  Tb0  1  0.377493  0.841297  0.879256  1
  Tb  Tb1  1  0.877142  0.658897  0.620824  1
  Tb  Tb2  1  0.622484  0.158668  0.379260  1
  Tb  Tb3  1  0.122910  0.341102  0.120783  1
  Tb  Tb4  1  0.622484  0.158668  0.120740  1
  Tb  Tb5  1  0.122910  0.341102  0.379217  1
  Tb  Tb6  1  0.377493  0.841297  0.620744  1
  Tb  Tb7  1  0.877142  0.658897  0.879176  1
  Tb  Tb8  1  0.536330  0.323437  0.899874  1
  Tb  Tb9  1  0.036114  0.176339  0.600052  1
  Tb  Tb10  1  0.463612  0.676639  0.399921  1
  Tb  Tb11  1  0.963897  0.823703  0.100024  1
  Tb  Tb12  1  0.463612  0.676639  0.100079  1
  Tb  Tb13  1  0.963897  0.823703  0.399976  1
  Tb  Tb14  1  0.536330  0.323437  0.600126  1
  Tb  Tb15  1  0.036114  0.176339  0.899948  1
  Tb  Tb16  1  0.208955  0.503927  0.750000  1
  Tb  Tb17  1  0.791008  0.496043  0.250000  1
  Dy  Dy18  1  0.290907  0.004118  0.250000  1
  Ho  Ho19  1  0.709110  0.995969  0.750000  1
  Pb  Pb20  1  0.280752  0.032740  0.042930  1
  Pb  Pb21  1  0.780761  0.467195  0.457376  1
  Pb  Pb22  1  0.719229  0.967205  0.543065  1
  Pb  Pb23  1  0.219228  0.532777  0.957242  1
  Pb  Pb24  1  0.719229  0.967205  0.956935  1
  Pb  Pb25  1  0.219228  0.532777  0.542758  1
  Pb  Pb26  1  0.280752  0.032740  0.457070  1
  Pb  Pb27  1  0.780761  0.467195  0.042624  1
  Pb  Pb28  1  0.573027  0.625960  0.750000  1
  Pb  Pb29  1  0.072393  0.874797  0.750000  1
  Pb  Pb30  1  0.426957  0.374041  0.250000  1
  Pb  Pb31  1  0.927665  0.125281  0.250000  1
  Pb  Pb32  1  0.347854  0.152815  0.750000  1
  Pb  Pb33  1  0.847377  0.345939  0.750000  1
  Pb  Pb34  1  0.652229  0.847096  0.250000  1
  Pb  Pb35  1  0.152616  0.654022  0.250000  1
