# generated using pymatgen
data_PrNd3Lu4(ReB6)4
_symmetry_space_group_name_H-M   'P 1'
_cell_length_a   3.69833200
_cell_length_b   9.19312500
_cell_length_c   11.66292700
_cell_angle_alpha   89.99706649
_cell_angle_beta   90.00000000
_cell_angle_gamma   90.00000000
_symmetry_Int_Tables_number   1
_chemical_formula_structural   PrNd3Lu4(ReB6)4
_chemical_formula_sum   'Pr1 Nd3 Lu4 Re4 B24'
_cell_volume   396.53051825
_cell_formula_units_Z   1
loop_
 _symmetry_equiv_pos_site_id
 _symmetry_equiv_pos_as_xyz
  1  'x, y, z'
loop_
 _atom_site_type_symbol
 _atom_site_label
 _atom_site_symmetry_multiplicity
 _atom_site_fract_x
 _atom_site_fract_y
 _atom_site_fract_z
 _atom_site_occupancy
  Pr  Pr0  1  0.000000  0.322369  0.414673  1
  Nd  Nd1  1  0.000000  0.677503  0.585468  1
  Nd  Nd2  1  0.000000  0.822487  0.085288  1
  Nd  Nd3  1  0.000000  0.177427  0.914610  1
  Lu  Lu4  1  0.000000  0.943382  0.369580  1
  Lu  Lu5  1  0.000000  0.056475  0.630477  1
  Lu  Lu6  1  0.000000  0.443511  0.130152  1
  Lu  Lu7  1  0.000000  0.556584  0.869828  1
  Re  Re8  1  0.000000  0.640686  0.318204  1
  Re  Re9  1  0.000000  0.359744  0.682111  1
  Re  Re10  1  0.000000  0.140116  0.181392  1
  Re  Re11  1  0.000000  0.859665  0.818274  1
  B  B12  1  0.500000  0.556234  0.429730  1
  B  B13  1  0.500000  0.444563  0.570746  1
  B  B14  1  0.500000  0.055457  0.069940  1
  B  B15  1  0.500000  0.944354  0.929860  1
  B  B16  1  0.500000  0.751735  0.415485  1
  B  B17  1  0.500000  0.248474  0.585193  1
  B  B18  1  0.500000  0.251449  0.084250  1
  B  B19  1  0.500000  0.748511  0.915472  1
  B  B20  1  0.500000  0.792895  0.265542  1
  B  B21  1  0.500000  0.207167  0.734665  1
  B  B22  1  0.500000  0.292532  0.233820  1
  B  B23  1  0.500000  0.707224  0.765716  1
  B  B24  1  0.500000  0.629335  0.185091  1
  B  B25  1  0.500000  0.370928  0.814937  1
  B  B26  1  0.500000  0.128690  0.314206  1
  B  B27  1  0.500000  0.870833  0.685340  1
  B  B28  1  0.500000  0.983325  0.213725  1
  B  B29  1  0.500000  0.016413  0.786131  1
  B  B30  1  0.500000  0.484041  0.285718  1
  B  B31  1  0.500000  0.516609  0.714216  1
  B  B32  1  0.500000  0.595315  0.025975  1
  B  B33  1  0.500000  0.404749  0.973958  1
  B  B34  1  0.500000  0.094461  0.474202  1
  B  B35  1  0.500000  0.904757  0.526024  1
