# generated using pymatgen
data_Lu(Tc2Ge)2
_symmetry_space_group_name_H-M   'P 1'
_cell_length_a   7.35015400
_cell_length_b   7.35015400
_cell_length_c   4.26291800
_cell_angle_alpha   90.00000000
_cell_angle_beta   90.00000000
_cell_angle_gamma   90.00000000
_symmetry_Int_Tables_number   1
_chemical_formula_structural   Lu(Tc2Ge)2
_chemical_formula_sum   'Lu2 Tc8 Ge4'
_cell_volume   230.30313815
_cell_formula_units_Z   2
loop_
 _symmetry_equiv_pos_site_id
 _symmetry_equiv_pos_as_xyz
  1  'x, y, z'
loop_
 _atom_site_type_symbol
 _atom_site_label
 _atom_site_symmetry_multiplicity
 _atom_site_fract_x
 _atom_site_fract_y
 _atom_site_fract_z
 _atom_site_occupancy
  Lu  Lu0  1  0.500000  0.500000  0.000000  1
  Lu  Lu1  1  0.000000  0.000000  0.500000  1
  Tc  Tc2  1  0.150698  0.600450  0.500000  1
  Tc  Tc3  1  0.849302  0.399550  0.500000  1
  Tc  Tc4  1  0.349302  0.100450  0.000000  1
  Tc  Tc5  1  0.650698  0.899550  0.000000  1
  Tc  Tc6  1  0.600450  0.150698  0.500000  1
  Tc  Tc7  1  0.399550  0.849302  0.500000  1
  Tc  Tc8  1  0.100450  0.349302  0.000000  1
  Tc  Tc9  1  0.899550  0.650698  0.000000  1
  Ge  Ge10  1  0.705656  0.705656  0.500000  1
  Ge  Ge11  1  0.294344  0.294344  0.500000  1
  Ge  Ge12  1  0.794344  0.205656  0.000000  1
  Ge  Ge13  1  0.205656  0.794344  0.000000  1
