# generated using pymatgen
data_Er5Lu11MgCo4Ag3
_symmetry_space_group_name_H-M   'P 1'
_cell_length_a   9.28774098
_cell_length_b   9.28489756
_cell_length_c   9.28489729
_cell_angle_alpha   59.98035861
_cell_angle_beta   59.94984408
_cell_angle_gamma   59.94983797
_symmetry_Int_Tables_number   1
_chemical_formula_structural   Er5Lu11MgCo4Ag3
_chemical_formula_sum   'Er5 Lu11 Mg1 Co4 Ag3'
_cell_volume   565.65968809
_cell_formula_units_Z   1
loop_
 _symmetry_equiv_pos_site_id
 _symmetry_equiv_pos_as_xyz
  1  'x, y, z'
loop_
 _atom_site_type_symbol
 _atom_site_label
 _atom_site_symmetry_multiplicity
 _atom_site_fract_x
 _atom_site_fract_y
 _atom_site_fract_z
 _atom_site_occupancy
  Er  Er0  1  0.811160  0.188289  0.188289  1
  Er  Er1  1  0.811740  0.187740  0.812276  1
  Er  Er2  1  0.185316  0.812030  0.190086  1
  Er  Er3  1  0.811740  0.812276  0.187740  1
  Er  Er4  1  0.185316  0.190086  0.812030  1
  Lu  Lu5  1  0.596058  0.595588  0.595588  1
  Lu  Lu6  1  0.596335  0.595369  0.213157  1
  Lu  Lu7  1  0.596335  0.213157  0.595369  1
  Lu  Lu8  1  0.205462  0.598429  0.598429  1
  Lu  Lu9  1  0.060964  0.438261  0.438261  1
  Lu  Lu10  1  0.435525  0.064095  0.064095  1
  Lu  Lu11  1  0.435304  0.063733  0.436760  1
  Lu  Lu12  1  0.061110  0.438657  0.062277  1
  Lu  Lu13  1  0.435304  0.436760  0.063733  1
  Lu  Lu14  1  0.061110  0.062277  0.438657  1
  Lu  Lu15  1  0.185396  0.811792  0.811792  1
  Mg  Mg16  1  0.532260  0.822518  0.822518  1
  Co  Co17  1  0.389957  0.391750  0.391750  1
  Co  Co18  1  0.389883  0.392021  0.826405  1
  Co  Co19  1  0.389883  0.826405  0.392021  1
  Co  Co20  1  0.826842  0.391075  0.391075  1
  Ag  Ag21  1  0.832635  0.831968  0.831968  1
  Ag  Ag22  1  0.832185  0.832061  0.503664  1
  Ag  Ag23  1  0.832185  0.503664  0.832061  1
