# generated using pymatgen
data_Nd2Ga9OsPt2
_symmetry_space_group_name_H-M   'P 1'
_cell_length_a   7.71878787
_cell_length_b   7.71878822
_cell_length_c   9.64172600
_cell_angle_alpha   90.00000000
_cell_angle_beta   90.00000000
_cell_angle_gamma   119.78303469
_symmetry_Int_Tables_number   1
_chemical_formula_structural   Nd2Ga9OsPt2
_chemical_formula_sum   'Nd4 Ga18 Os2 Pt4'
_cell_volume   498.57327438
_cell_formula_units_Z   2
loop_
 _symmetry_equiv_pos_site_id
 _symmetry_equiv_pos_as_xyz
  1  'x, y, z'
loop_
 _atom_site_type_symbol
 _atom_site_label
 _atom_site_symmetry_multiplicity
 _atom_site_fract_x
 _atom_site_fract_y
 _atom_site_fract_z
 _atom_site_occupancy
  Nd  Nd0  1  0.997495  0.666888  0.250000  1
  Nd  Nd1  1  0.002505  0.333112  0.750000  1
  Nd  Nd2  1  0.666888  0.997495  0.250000  1
  Nd  Nd3  1  0.333112  0.002505  0.750000  1
  Ga  Ga4  1  0.122277  0.122277  0.250000  1
  Ga  Ga5  1  0.877723  0.877723  0.750000  1
  Ga  Ga6  1  0.001235  0.329173  0.079173  1
  Ga  Ga7  1  0.998765  0.670827  0.920827  1
  Ga  Ga8  1  0.998765  0.670827  0.579173  1
  Ga  Ga9  1  0.329173  0.001235  0.420827  1
  Ga  Ga10  1  0.001235  0.329173  0.420827  1
  Ga  Ga11  1  0.670827  0.998765  0.579173  1
  Ga  Ga12  1  0.670827  0.998765  0.920827  1
  Ga  Ga13  1  0.329173  0.001235  0.079173  1
  Ga  Ga14  1  0.327134  0.327134  0.562461  1
  Ga  Ga15  1  0.672866  0.672866  0.437539  1
  Ga  Ga16  1  0.672866  0.672866  0.062461  1
  Ga  Ga17  1  0.327134  0.327134  0.937539  1
  Ga  Ga18  1  0.343407  0.542997  0.250000  1
  Ga  Ga19  1  0.656593  0.457003  0.750000  1
  Ga  Ga20  1  0.542997  0.343407  0.250000  1
  Ga  Ga21  1  0.457003  0.656593  0.750000  1
  Os  Os22  1  0.000000  0.000000  0.000000  1
  Os  Os23  1  0.000000  0.000000  0.500000  1
  Pt  Pt24  1  0.670970  0.329030  0.000000  1
  Pt  Pt25  1  0.329030  0.670970  0.000000  1
  Pt  Pt26  1  0.329030  0.670970  0.500000  1
  Pt  Pt27  1  0.670970  0.329030  0.500000  1
