# generated using pymatgen
data_Yb5Th3(B6Ru)4
_symmetry_space_group_name_H-M   'P 1'
_cell_length_a   3.75015300
_cell_length_b   9.14622119
_cell_length_c   11.54144028
_cell_angle_alpha   90.10966164
_cell_angle_beta   90.00000000
_cell_angle_gamma   90.00000000
_symmetry_Int_Tables_number   1
_chemical_formula_structural   Yb5Th3(B6Ru)4
_chemical_formula_sum   'Yb5 Th3 B24 Ru4'
_cell_volume   395.86754697
_cell_formula_units_Z   1
loop_
 _symmetry_equiv_pos_site_id
 _symmetry_equiv_pos_as_xyz
  1  'x, y, z'
loop_
 _atom_site_type_symbol
 _atom_site_label
 _atom_site_symmetry_multiplicity
 _atom_site_fract_x
 _atom_site_fract_y
 _atom_site_fract_z
 _atom_site_occupancy
  Yb  Yb0  1  0.000000  0.176883  0.912390  1
  Yb  Yb1  1  0.000000  0.945093  0.371979  1
  Yb  Yb2  1  0.000000  0.056966  0.630928  1
  Yb  Yb3  1  0.000000  0.441345  0.127720  1
  Yb  Yb4  1  0.000000  0.554883  0.871178  1
  Th  Th5  1  0.000000  0.319433  0.413962  1
  Th  Th6  1  0.000000  0.679383  0.588405  1
  Th  Th7  1  0.000000  0.823837  0.084124  1
  B  B8  1  0.500000  0.556973  0.429524  1
  B  B9  1  0.500000  0.443519  0.570460  1
  B  B10  1  0.500000  0.057532  0.067942  1
  B  B11  1  0.500000  0.945496  0.929676  1
  B  B12  1  0.500000  0.751789  0.417699  1
  B  B13  1  0.500000  0.248785  0.583901  1
  B  B14  1  0.500000  0.250458  0.080471  1
  B  B15  1  0.500000  0.750043  0.916945  1
  B  B16  1  0.500000  0.790237  0.267001  1
  B  B17  1  0.500000  0.208525  0.735042  1
  B  B18  1  0.500000  0.289686  0.231968  1
  B  B19  1  0.500000  0.709559  0.767681  1
  B  B20  1  0.500000  0.629526  0.184655  1
  B  B21  1  0.500000  0.368740  0.815737  1
  B  B22  1  0.500000  0.129857  0.314544  1
  B  B23  1  0.500000  0.870798  0.686415  1
  B  B24  1  0.500000  0.986663  0.212755  1
  B  B25  1  0.500000  0.016548  0.787169  1
  B  B26  1  0.500000  0.485780  0.285292  1
  B  B27  1  0.500000  0.513453  0.714529  1
  B  B28  1  0.500000  0.597807  0.027051  1
  B  B29  1  0.500000  0.400340  0.972421  1
  B  B30  1  0.500000  0.101079  0.472690  1
  B  B31  1  0.500000  0.898957  0.528354  1
  Ru  Ru32  1  0.000000  0.639210  0.319763  1
  Ru  Ru33  1  0.000000  0.361574  0.679768  1
  Ru  Ru34  1  0.000000  0.139920  0.179821  1
  Ru  Ru35  1  0.000000  0.859323  0.820041  1
