# generated using pymatgen
data_CaPr4Sm2CoI12
_symmetry_space_group_name_H-M   'P 1'
_cell_length_a   9.94303906
_cell_length_b   10.07627028
_cell_length_c   10.03169129
_cell_angle_alpha   106.86255146
_cell_angle_beta   107.05315350
_cell_angle_gamma   107.02502445
_symmetry_Int_Tables_number   1
_chemical_formula_structural   CaPr4Sm2CoI12
_chemical_formula_sum   'Ca1 Pr4 Sm2 Co1 I12'
_cell_volume   837.47436614
_cell_formula_units_Z   1
loop_
 _symmetry_equiv_pos_site_id
 _symmetry_equiv_pos_as_xyz
  1  'x, y, z'
loop_
 _atom_site_type_symbol
 _atom_site_label
 _atom_site_symmetry_multiplicity
 _atom_site_fract_x
 _atom_site_fract_y
 _atom_site_fract_z
 _atom_site_occupancy
  Ca  Ca0  1  0.500000  0.500000  0.500000  1
  Pr  Pr1  1  0.100137  0.304151  0.025260  1
  Pr  Pr2  1  0.289799  0.025169  0.094950  1
  Pr  Pr3  1  0.899863  0.695849  0.974740  1
  Pr  Pr4  1  0.710201  0.974831  0.905050  1
  Sm  Sm5  1  0.974068  0.901581  0.699097  1
  Sm  Sm6  1  0.025932  0.098419  0.300903  1
  Co  Co7  1  0.000000  0.000000  0.000000  1
  I  I8  1  0.534975  0.616003  0.840345  1
  I  I9  1  0.465025  0.383997  0.159655  1
  I  I10  1  0.315383  0.925994  0.771770  1
  I  I11  1  0.380583  0.157757  0.461407  1
  I  I12  1  0.928674  0.779554  0.322823  1
  I  I13  1  0.684617  0.074006  0.228230  1
  I  I14  1  0.071326  0.220446  0.677177  1
  I  I15  1  0.770336  0.318192  0.925417  1
  I  I16  1  0.229664  0.681808  0.074583  1
  I  I17  1  0.845276  0.542560  0.617007  1
  I  I18  1  0.154724  0.457440  0.382993  1
  I  I19  1  0.619417  0.842243  0.538593  1
