# generated using pymatgen
data_ErLu9(InBi)3
_symmetry_space_group_name_H-M   'P 1'
_cell_length_a   6.43969100
_cell_length_b   8.88374823
_cell_length_c   8.88734523
_cell_angle_alpha   119.98661796
_cell_angle_beta   89.99785375
_cell_angle_gamma   90.00431415
_symmetry_Int_Tables_number   1
_chemical_formula_structural   ErLu9(InBi)3
_chemical_formula_sum   'Er1 Lu9 In3 Bi3'
_cell_volume   440.37484122
_cell_formula_units_Z   1
loop_
 _symmetry_equiv_pos_site_id
 _symmetry_equiv_pos_as_xyz
  1  'x, y, z'
loop_
 _atom_site_type_symbol
 _atom_site_label
 _atom_site_symmetry_multiplicity
 _atom_site_fract_x
 _atom_site_fract_y
 _atom_site_fract_z
 _atom_site_occupancy
  Er  Er0  1  0.749778  0.234629  0.000000  1
  Lu  Lu1  1  0.491830  0.333366  0.666750  1
  Lu  Lu2  1  0.491830  0.666616  0.333250  1
  Lu  Lu3  1  0.008245  0.666709  0.333383  1
  Lu  Lu4  1  0.008245  0.333327  0.666617  1
  Lu  Lu5  1  0.749920  0.765414  0.765418  1
  Lu  Lu6  1  0.749920  0.999997  0.234582  1
  Lu  Lu7  1  0.249895  0.763235  0.000000  1
  Lu  Lu8  1  0.249875  0.236855  0.236915  1
  Lu  Lu9  1  0.249875  0.999941  0.763085  1
  In  In10  1  0.249981  0.392857  0.000000  1
  In  In11  1  0.250318  0.606920  0.606917  1
  In  In12  1  0.250318  0.000003  0.393083  1
  Bi  Bi13  1  0.750031  0.602591  0.000000  1
  Bi  Bi14  1  0.749971  0.397629  0.397714  1
  Bi  Bi15  1  0.749971  0.999915  0.602286  1
