# generated using pymatgen
data_Tb7Er3(In2Pd)4
_symmetry_space_group_name_H-M   'P 1'
_cell_length_a   3.64033400
_cell_length_b   8.16733504
_cell_length_c   18.26229812
_cell_angle_alpha   89.98784285
_cell_angle_beta   90.00000000
_cell_angle_gamma   90.00000000
_symmetry_Int_Tables_number   1
_chemical_formula_structural   Tb7Er3(In2Pd)4
_chemical_formula_sum   'Tb7 Er3 In8 Pd4'
_cell_volume   542.97148397
_cell_formula_units_Z   1
loop_
 _symmetry_equiv_pos_site_id
 _symmetry_equiv_pos_as_xyz
  1  'x, y, z'
loop_
 _atom_site_type_symbol
 _atom_site_label
 _atom_site_symmetry_multiplicity
 _atom_site_fract_x
 _atom_site_fract_y
 _atom_site_fract_z
 _atom_site_occupancy
  Tb  Tb0  1  0.000000  0.500245  0.500205  1
  Tb  Tb1  1  0.000000  0.999481  0.999583  1
  Tb  Tb2  1  0.000000  0.737599  0.281752  1
  Tb  Tb3  1  0.000000  0.262599  0.718177  1
  Tb  Tb4  1  0.000000  0.762625  0.781233  1
  Tb  Tb5  1  0.000000  0.237960  0.219196  1
  Tb  Tb6  1  0.000000  0.617630  0.082961  1
  Er  Er7  1  0.000000  0.382460  0.915898  1
  Er  Er8  1  0.000000  0.882794  0.583669  1
  Er  Er9  1  0.000000  0.117245  0.416545  1
  In  In10  1  0.500000  0.706348  0.932252  1
  In  In11  1  0.500000  0.291552  0.066742  1
  In  In12  1  0.500000  0.794357  0.433727  1
  In  In13  1  0.500000  0.205638  0.566274  1
  In  In14  1  0.500000  0.583898  0.650453  1
  In  In15  1  0.500000  0.416357  0.350222  1
  In  In16  1  0.500000  0.919594  0.150867  1
  In  In17  1  0.500000  0.083092  0.849150  1
  Pd  Pd18  1  0.500000  0.521134  0.195757  1
  Pd  Pd19  1  0.500000  0.477226  0.805200  1
  Pd  Pd20  1  0.500000  0.977732  0.694227  1
  Pd  Pd21  1  0.500000  0.022434  0.305908  1
