# generated using pymatgen
data_Hf16AlCo5W2
_symmetry_space_group_name_H-M   'P 1'
_cell_length_a   8.62759098
_cell_length_b   8.62438186
_cell_length_c   8.60892300
_cell_angle_alpha   60.32108963
_cell_angle_beta   60.33766722
_cell_angle_gamma   60.22016819
_symmetry_Int_Tables_number   1
_chemical_formula_structural   Hf16AlCo5W2
_chemical_formula_sum   'Hf16 Al1 Co5 W2'
_cell_volume   455.95313010
_cell_formula_units_Z   1
loop_
 _symmetry_equiv_pos_site_id
 _symmetry_equiv_pos_as_xyz
  1  'x, y, z'
loop_
 _atom_site_type_symbol
 _atom_site_label
 _atom_site_symmetry_multiplicity
 _atom_site_fract_x
 _atom_site_fract_y
 _atom_site_fract_z
 _atom_site_occupancy
  Hf  Hf0  1  0.052233  0.650403  0.645959  1
  Hf  Hf1  1  0.650479  0.052087  0.646004  1
  Hf  Hf2  1  0.650503  0.650533  0.052488  1
  Hf  Hf3  1  0.650296  0.650264  0.648110  1
  Hf  Hf4  1  0.795773  0.795924  0.204021  1
  Hf  Hf5  1  0.197381  0.197360  0.797693  1
  Hf  Hf6  1  0.807156  0.196554  0.801340  1
  Hf  Hf7  1  0.201903  0.803006  0.198604  1
  Hf  Hf8  1  0.196558  0.807175  0.801304  1
  Hf  Hf9  1  0.802915  0.201906  0.198647  1
  Hf  Hf10  1  0.435113  0.435218  0.085295  1
  Hf  Hf11  1  0.062309  0.062282  0.439342  1
  Hf  Hf12  1  0.434729  0.060282  0.438080  1
  Hf  Hf13  1  0.058253  0.434941  0.073389  1
  Hf  Hf14  1  0.060240  0.434771  0.438029  1
  Hf  Hf15  1  0.434881  0.058350  0.073376  1
  Al  Al16  1  0.421309  0.421271  0.729888  1
  Co  Co17  1  0.417924  0.417902  0.409381  1
  Co  Co18  1  0.422337  0.863587  0.855730  1
  Co  Co19  1  0.863654  0.422417  0.855680  1
  Co  Co20  1  0.859524  0.859390  0.422389  1
  Co  Co21  1  0.860211  0.860039  0.856367  1
  W  W22  1  0.747709  0.416599  0.414460  1
  W  W23  1  0.416611  0.747740  0.414421  1
