# generated using pymatgen
data_Tc3Sb14W3
_symmetry_space_group_name_H-M   'P 1'
_cell_length_a   8.30787083
_cell_length_b   8.30905848
_cell_length_c   8.30787127
_cell_angle_alpha   109.08658731
_cell_angle_beta   109.94063413
_cell_angle_gamma   109.38188293
_symmetry_Int_Tables_number   1
_chemical_formula_structural   Tc3Sb14W3
_chemical_formula_sum   'Tc3 Sb14 W3'
_cell_volume   441.48419211
_cell_formula_units_Z   1
loop_
 _symmetry_equiv_pos_site_id
 _symmetry_equiv_pos_as_xyz
  1  'x, y, z'
loop_
 _atom_site_type_symbol
 _atom_site_label
 _atom_site_symmetry_multiplicity
 _atom_site_fract_x
 _atom_site_fract_y
 _atom_site_fract_z
 _atom_site_occupancy
  Tc  Tc0  1  0.339845  0.339849  0.000005  1
  Tc  Tc1  1  0.999718  0.342318  0.342600  1
  Tc  Tc2  1  0.999718  0.657111  0.657393  1
  Sb  Sb3  1  0.750834  0.250882  0.500047  1
  Sb  Sb4  1  0.500510  0.252156  0.751647  1
  Sb  Sb5  1  0.500461  0.748799  0.248339  1
  Sb  Sb6  1  0.248796  0.500112  0.748664  1
  Sb  Sb7  1  0.751447  0.500112  0.251317  1
  Sb  Sb8  1  0.246357  0.746354  0.499997  1
  Sb  Sb9  1  0.325391  0.326286  0.324502  1
  Sb  Sb10  1  0.000761  0.001924  0.326195  1
  Sb  Sb11  1  0.325392  0.000865  0.999100  1
  Sb  Sb12  1  0.001784  0.326286  0.000895  1
  Sb  Sb13  1  0.675730  0.001924  0.001165  1
  Sb  Sb14  1  0.000748  0.674562  0.998815  1
  Sb  Sb15  1  0.001765  0.000865  0.675474  1
  Sb  Sb16  1  0.675747  0.674562  0.673814  1
  W  W17  1  0.657766  0.999227  0.658569  1
  W  W18  1  0.340657  0.999227  0.341461  1
  W  W19  1  0.656573  0.656576  0.000004  1
