# generated using pymatgen
data_Ca2B8Ru7
_symmetry_space_group_name_H-M   'P 1'
_cell_length_a   6.44442500
_cell_length_b   6.44442500
_cell_length_c   10.09454800
_cell_angle_alpha   90.00000000
_cell_angle_beta   90.00000000
_cell_angle_gamma   90.00000000
_symmetry_Int_Tables_number   1
_chemical_formula_structural   Ca2B8Ru7
_chemical_formula_sum   'Ca4 B16 Ru14'
_cell_volume   419.23277226
_cell_formula_units_Z   2
loop_
 _symmetry_equiv_pos_site_id
 _symmetry_equiv_pos_as_xyz
  1  'x, y, z'
loop_
 _atom_site_type_symbol
 _atom_site_label
 _atom_site_symmetry_multiplicity
 _atom_site_fract_x
 _atom_site_fract_y
 _atom_site_fract_z
 _atom_site_occupancy
  Ca  Ca0  1  0.733531  0.888579  0.000000  1
  Ca  Ca1  1  0.111421  0.733531  0.500000  1
  Ca  Ca2  1  0.888579  0.266469  0.500000  1
  Ca  Ca3  1  0.266469  0.111421  0.000000  1
  B  B4  1  0.500000  0.000000  0.588364  1
  B  B5  1  0.500000  0.000000  0.411636  1
  B  B6  1  0.898558  0.273764  0.167118  1
  B  B7  1  0.101442  0.726236  0.832882  1
  B  B8  1  0.500000  0.500000  0.340906  1
  B  B9  1  0.500000  0.500000  0.840906  1
  B  B10  1  0.273764  0.101442  0.667118  1
  B  B11  1  0.101442  0.726236  0.167118  1
  B  B12  1  0.273764  0.101442  0.332882  1
  B  B13  1  0.898558  0.273764  0.832882  1
  B  B14  1  0.500000  0.500000  0.659094  1
  B  B15  1  0.500000  0.500000  0.159094  1
  B  B16  1  0.000000  0.500000  0.911636  1
  B  B17  1  0.726236  0.898558  0.667118  1
  B  B18  1  0.726236  0.898558  0.332882  1
  B  B19  1  0.000000  0.500000  0.088364  1
  Ru  Ru20  1  0.204974  0.392873  0.755754  1
  Ru  Ru21  1  0.406101  0.288235  0.500000  1
  Ru  Ru22  1  0.392873  0.795026  0.255754  1
  Ru  Ru23  1  0.204974  0.392873  0.244246  1
  Ru  Ru24  1  0.593899  0.711765  0.500000  1
  Ru  Ru25  1  0.607127  0.204974  0.744246  1
  Ru  Ru26  1  0.288235  0.593899  0.000000  1
  Ru  Ru27  1  0.711765  0.406101  0.000000  1
  Ru  Ru28  1  0.795026  0.607127  0.244246  1
  Ru  Ru29  1  0.795026  0.607127  0.755754  1
  Ru  Ru30  1  0.392873  0.795026  0.744246  1
  Ru  Ru31  1  0.000000  0.000000  0.250000  1
  Ru  Ru32  1  0.607127  0.204974  0.255754  1
  Ru  Ru33  1  0.000000  0.000000  0.750000  1
