# generated using pymatgen
data_Zn11CoAu2
_symmetry_space_group_name_H-M   'P 1'
_cell_length_a   6.75879994
_cell_length_b   6.75880068
_cell_length_c   5.05198244
_cell_angle_alpha   80.12824642
_cell_angle_beta   80.12824547
_cell_angle_gamma   70.39911394
_symmetry_Int_Tables_number   1
_chemical_formula_structural   Zn11CoAu2
_chemical_formula_sum   'Zn11 Co1 Au2'
_cell_volume   212.56938798
_cell_formula_units_Z   1
loop_
 _symmetry_equiv_pos_site_id
 _symmetry_equiv_pos_as_xyz
  1  'x, y, z'
loop_
 _atom_site_type_symbol
 _atom_site_label
 _atom_site_symmetry_multiplicity
 _atom_site_fract_x
 _atom_site_fract_y
 _atom_site_fract_z
 _atom_site_occupancy
  Zn  Zn0  1  0.000000  0.000000  0.000000  1
  Zn  Zn1  1  0.782043  0.782043  0.380145  1
  Zn  Zn2  1  0.217957  0.217957  0.619855  1
  Zn  Zn3  1  0.218760  0.634872  0.315334  1
  Zn  Zn4  1  0.365128  0.781240  0.684666  1
  Zn  Zn5  1  0.781240  0.365128  0.684666  1
  Zn  Zn6  1  0.634872  0.218760  0.315334  1
  Zn  Zn7  1  0.001912  0.649767  0.799420  1
  Zn  Zn8  1  0.350233  0.998088  0.200580  1
  Zn  Zn9  1  0.998088  0.350233  0.200580  1
  Zn  Zn10  1  0.649767  0.001912  0.799420  1
  Co  Co11  1  0.000000  0.000000  0.500000  1
  Au  Au12  1  0.377894  0.377894  0.929844  1
  Au  Au13  1  0.622106  0.622106  0.070156  1
