# generated using pymatgen
data_HoEr3(Ge4Mo3)2
_symmetry_space_group_name_H-M   'P 1'
_cell_length_a   7.04119201
_cell_length_b   6.88447653
_cell_length_c   6.98025630
_cell_angle_alpha   70.55178333
_cell_angle_beta   90.00343296
_cell_angle_gamma   89.99807230
_symmetry_Int_Tables_number   1
_chemical_formula_structural   HoEr3(Ge4Mo3)2
_chemical_formula_sum   'Ho1 Er3 Ge8 Mo6'
_cell_volume   319.06107656
_cell_formula_units_Z   1
loop_
 _symmetry_equiv_pos_site_id
 _symmetry_equiv_pos_as_xyz
  1  'x, y, z'
loop_
 _atom_site_type_symbol
 _atom_site_label
 _atom_site_symmetry_multiplicity
 _atom_site_fract_x
 _atom_site_fract_y
 _atom_site_fract_z
 _atom_site_occupancy
  Ho  Ho0  1  0.328491  0.555990  0.809449  1
  Er  Er1  1  0.828457  0.944034  0.190593  1
  Er  Er2  1  0.671550  0.444030  0.190615  1
  Er  Er3  1  0.171528  0.055957  0.809411  1
  Ge  Ge4  1  0.545957  0.857209  0.908659  1
  Ge  Ge5  1  0.045872  0.642886  0.091407  1
  Ge  Ge6  1  0.454115  0.142797  0.091417  1
  Ge  Ge7  1  0.954017  0.357088  0.908647  1
  Ge  Ge8  1  0.136938  0.867443  0.495958  1
  Ge  Ge9  1  0.637035  0.632655  0.503917  1
  Ge  Ge10  1  0.863019  0.132640  0.503960  1
  Ge  Ge11  1  0.363018  0.367310  0.495963  1
  Mo  Mo12  1  0.500008  0.000047  0.499975  1
  Mo  Mo13  1  0.999976  0.499987  0.499979  1
  Mo  Mo14  1  0.842350  0.747286  0.752045  1
  Mo  Mo15  1  0.342364  0.752732  0.247971  1
  Mo  Mo16  1  0.157619  0.252678  0.248006  1
  Mo  Mo17  1  0.657687  0.247233  0.752030  1
