# generated using pymatgen
data_HoPa3Ga12Os
_symmetry_space_group_name_H-M   'P 1'
_cell_length_a   7.44070141
_cell_length_b   7.51236645
_cell_length_c   7.44070233
_cell_angle_alpha   109.66645626
_cell_angle_beta   109.27529999
_cell_angle_gamma   109.66644150
_symmetry_Int_Tables_number   1
_chemical_formula_structural   HoPa3Ga12Os
_chemical_formula_sum   'Ho1 Pa3 Ga12 Os1'
_cell_volume   319.39680286
_cell_formula_units_Z   1
loop_
 _symmetry_equiv_pos_site_id
 _symmetry_equiv_pos_as_xyz
  1  'x, y, z'
loop_
 _atom_site_type_symbol
 _atom_site_label
 _atom_site_symmetry_multiplicity
 _atom_site_fract_x
 _atom_site_fract_y
 _atom_site_fract_z
 _atom_site_occupancy
  Ho  Ho0  1  0.000000  0.500000  0.000000  1
  Pa  Pa1  1  0.000000  0.000000  0.500000  1
  Pa  Pa2  1  0.500000  0.000000  0.000000  1
  Pa  Pa3  1  0.500000  0.500000  0.500000  1
  Ga  Ga4  1  0.750423  0.250423  0.500848  1
  Ga  Ga5  1  0.750423  0.500000  0.249577  1
  Ga  Ga6  1  0.500848  0.250423  0.750423  1
  Ga  Ga7  1  0.249577  0.500000  0.750423  1
  Ga  Ga8  1  0.249577  0.749577  0.499152  1
  Ga  Ga9  1  0.499152  0.749577  0.249577  1
  Ga  Ga10  1  0.707416  0.704917  0.000000  1
  Ga  Ga11  1  0.292584  0.997500  0.292584  1
  Ga  Ga12  1  0.000000  0.295083  0.292584  1
  Ga  Ga13  1  0.292584  0.295083  0.000000  1
  Ga  Ga14  1  0.707416  0.002500  0.707416  1
  Ga  Ga15  1  0.000000  0.704917  0.707416  1
  Os  Os16  1  0.000000  0.000000  0.000000  1
