# generated using pymatgen
data_Np3PaCrGa12
_symmetry_space_group_name_H-M   'P 1'
_cell_length_a   7.49061562
_cell_length_b   7.44539473
_cell_length_c   7.49061557
_cell_angle_alpha   109.34897111
_cell_angle_beta   109.59318975
_cell_angle_gamma   109.34897107
_symmetry_Int_Tables_number   1
_chemical_formula_structural   Np3PaCrGa12
_chemical_formula_sum   'Np3 Pa1 Cr1 Ga12'
_cell_volume   322.07267692
_cell_formula_units_Z   1
loop_
 _symmetry_equiv_pos_site_id
 _symmetry_equiv_pos_as_xyz
  1  'x, y, z'
loop_
 _atom_site_type_symbol
 _atom_site_label
 _atom_site_symmetry_multiplicity
 _atom_site_fract_x
 _atom_site_fract_y
 _atom_site_fract_z
 _atom_site_occupancy
  Np  Np0  1  0.000000  0.000000  0.500000  1
  Np  Np1  1  0.500000  0.000000  0.000000  1
  Np  Np2  1  0.500000  0.500000  0.500000  1
  Pa  Pa3  1  0.000000  0.500000  0.000000  1
  Cr  Cr4  1  0.000000  0.000000  0.000000  1
  Ga  Ga5  1  0.711418  0.713072  0.000000  1
  Ga  Ga6  1  0.288582  0.001654  0.288582  1
  Ga  Ga7  1  0.000000  0.286928  0.288582  1
  Ga  Ga8  1  0.288582  0.286928  0.000000  1
  Ga  Ga9  1  0.711418  0.998346  0.711418  1
  Ga  Ga10  1  0.000000  0.713072  0.711418  1
  Ga  Ga11  1  0.749590  0.249590  0.499182  1
  Ga  Ga12  1  0.749590  0.500000  0.250410  1
  Ga  Ga13  1  0.499182  0.249590  0.749590  1
  Ga  Ga14  1  0.250410  0.500000  0.749590  1
  Ga  Ga15  1  0.250410  0.750410  0.500818  1
  Ga  Ga16  1  0.500818  0.750410  0.250410  1
