# generated using pymatgen
data_Hf4Fe(CoSi)6
_symmetry_space_group_name_H-M   'P 1'
_cell_length_a   6.66343357
_cell_length_b   6.66343392
_cell_length_c   6.66343302
_cell_angle_alpha   109.57068234
_cell_angle_beta   109.27248179
_cell_angle_gamma   109.57067529
_symmetry_Int_Tables_number   1
_chemical_formula_structural   Hf4Fe(CoSi)6
_chemical_formula_sum   'Hf4 Fe1 Co6 Si6'
_cell_volume   227.75526426
_cell_formula_units_Z   1
loop_
 _symmetry_equiv_pos_site_id
 _symmetry_equiv_pos_as_xyz
  1  'x, y, z'
loop_
 _atom_site_type_symbol
 _atom_site_label
 _atom_site_symmetry_multiplicity
 _atom_site_fract_x
 _atom_site_fract_y
 _atom_site_fract_z
 _atom_site_occupancy
  Hf  Hf0  1  0.501792  0.500000  0.498208  1
  Hf  Hf1  1  0.998208  0.500000  0.001792  1
  Hf  Hf2  1  0.998208  0.996416  0.498208  1
  Hf  Hf3  1  0.501792  0.003584  0.001792  1
  Fe  Fe4  1  0.750000  0.500000  0.250000  1
  Co  Co5  1  0.000000  0.000000  0.000000  1
  Co  Co6  1  0.498821  0.750557  0.249378  1
  Co  Co7  1  0.498821  0.249443  0.748264  1
  Co  Co8  1  0.750622  0.249443  0.501179  1
  Co  Co9  1  0.251736  0.750557  0.501179  1
  Co  Co10  1  0.250000  0.500000  0.750000  1
  Si  Si11  1  0.675572  0.675783  0.999789  1
  Si  Si12  1  0.675305  0.000000  0.675305  1
  Si  Si13  1  0.324006  0.324217  0.999789  1
  Si  Si14  1  0.000211  0.675783  0.675994  1
  Si  Si15  1  0.324695  0.000000  0.324695  1
  Si  Si16  1  0.000211  0.324217  0.324428  1
