# generated using pymatgen
data_Zr4CrCo(P2Pd)2
_symmetry_space_group_name_H-M   'P 1'
_cell_length_a   3.74786800
_cell_length_b   6.53396335
_cell_length_c   7.50833034
_cell_angle_alpha   91.18836397
_cell_angle_beta   90.00000000
_cell_angle_gamma   90.00000000
_symmetry_Int_Tables_number   1
_chemical_formula_structural   Zr4CrCo(P2Pd)2
_chemical_formula_sum   'Zr4 Cr1 Co1 P4 Pd2'
_cell_volume   183.82769114
_cell_formula_units_Z   1
loop_
 _symmetry_equiv_pos_site_id
 _symmetry_equiv_pos_as_xyz
  1  'x, y, z'
loop_
 _atom_site_type_symbol
 _atom_site_label
 _atom_site_symmetry_multiplicity
 _atom_site_fract_x
 _atom_site_fract_y
 _atom_site_fract_z
 _atom_site_occupancy
  Zr  Zr0  1  0.250000  0.528130  0.173218  1
  Zr  Zr1  1  0.750000  0.475074  0.830914  1
  Zr  Zr2  1  0.750000  0.969887  0.683693  1
  Zr  Zr3  1  0.250000  0.026271  0.313666  1
  Cr  Cr4  1  0.250000  0.137334  0.940550  1
  Co  Co5  1  0.750000  0.863120  0.056193  1
  P  P6  1  0.250000  0.779697  0.897026  1
  P  P7  1  0.750000  0.224322  0.107672  1
  P  P8  1  0.750000  0.747885  0.354439  1
  P  P9  1  0.250000  0.252438  0.641391  1
  Pd  Pd10  1  0.250000  0.646516  0.563864  1
  Pd  Pd11  1  0.750000  0.349326  0.437373  1
