# generated using pymatgen
data_Dy5P12Ir16Rh3
_symmetry_space_group_name_H-M   'P 1'
_cell_length_a   12.72352900
_cell_length_b   12.72352846
_cell_length_c   3.97116400
_cell_angle_alpha   90.00000000
_cell_angle_beta   90.00000000
_cell_angle_gamma   119.99999882
_symmetry_Int_Tables_number   1
_chemical_formula_structural   Dy5P12Ir16Rh3
_chemical_formula_sum   'Dy5 P12 Ir16 Rh3'
_cell_volume   556.75433743
_cell_formula_units_Z   1
loop_
 _symmetry_equiv_pos_site_id
 _symmetry_equiv_pos_as_xyz
  1  'x, y, z'
loop_
 _atom_site_type_symbol
 _atom_site_label
 _atom_site_symmetry_multiplicity
 _atom_site_fract_x
 _atom_site_fract_y
 _atom_site_fract_z
 _atom_site_occupancy
  Dy  Dy0  1  0.333333  0.666667  0.500000  1
  Dy  Dy1  1  0.666667  0.333333  0.500000  1
  Dy  Dy2  1  0.000000  0.814419  0.000000  1
  Dy  Dy3  1  0.185581  0.185581  0.000000  1
  Dy  Dy4  1  0.814419  0.000000  0.000000  1
  P  P5  1  0.000000  0.640712  0.500000  1
  P  P6  1  0.359288  0.359288  0.500000  1
  P  P7  1  0.640712  0.000000  0.500000  1
  P  P8  1  0.516536  0.687389  0.000000  1
  P  P9  1  0.312611  0.829147  0.000000  1
  P  P10  1  0.170853  0.483464  0.000000  1
  P  P11  1  0.483464  0.170853  0.000000  1
  P  P12  1  0.687389  0.516536  0.000000  1
  P  P13  1  0.829147  0.312611  0.000000  1
  P  P14  1  0.000000  0.179034  0.500000  1
  P  P15  1  0.820966  0.820966  0.500000  1
  P  P16  1  0.179034  0.000000  0.500000  1
  Ir  Ir17  1  0.507259  0.866829  0.000000  1
  Ir  Ir18  1  0.133171  0.640431  0.000000  1
  Ir  Ir19  1  0.359569  0.492741  0.000000  1
  Ir  Ir20  1  0.492741  0.359569  0.000000  1
  Ir  Ir21  1  0.866829  0.507259  0.000000  1
  Ir  Ir22  1  0.640431  0.133171  0.000000  1
  Ir  Ir23  1  0.000000  0.283651  0.000000  1
  Ir  Ir24  1  0.716349  0.716349  0.000000  1
  Ir  Ir25  1  0.283651  0.000000  0.000000  1
  Ir  Ir26  1  0.625505  0.805949  0.500000  1
  Ir  Ir27  1  0.194051  0.819556  0.500000  1
  Ir  Ir28  1  0.180444  0.374495  0.500000  1
  Ir  Ir29  1  0.374495  0.180444  0.500000  1
  Ir  Ir30  1  0.805949  0.625505  0.500000  1
  Ir  Ir31  1  0.819556  0.194051  0.500000  1
  Ir  Ir32  1  0.000000  0.000000  0.500000  1
  Rh  Rh33  1  0.000000  0.461510  0.500000  1
  Rh  Rh34  1  0.538490  0.538490  0.500000  1
  Rh  Rh35  1  0.461510  0.000000  0.500000  1
