# generated using pymatgen
data_NaLa2(ErSn2)2
_symmetry_space_group_name_H-M   'P 1'
_cell_length_a   7.99274100
_cell_length_b   8.40955100
_cell_length_c   15.71418200
_cell_angle_alpha   90.00000000
_cell_angle_beta   90.00000000
_cell_angle_gamma   90.00000000
_symmetry_Int_Tables_number   1
_chemical_formula_structural   NaLa2(ErSn2)2
_chemical_formula_sum   'Na4 La8 Er8 Sn16'
_cell_volume   1056.23444847
_cell_formula_units_Z   4
loop_
 _symmetry_equiv_pos_site_id
 _symmetry_equiv_pos_as_xyz
  1  'x, y, z'
loop_
 _atom_site_type_symbol
 _atom_site_label
 _atom_site_symmetry_multiplicity
 _atom_site_fract_x
 _atom_site_fract_y
 _atom_site_fract_z
 _atom_site_occupancy
  Na  Na0  1  0.166496  0.498624  0.750000  1
  Na  Na1  1  0.666496  0.001376  0.750000  1
  Na  Na2  1  0.833504  0.501376  0.250000  1
  Na  Na3  1  0.333504  0.998624  0.250000  1
  La  La4  1  0.495255  0.319401  0.904219  1
  La  La5  1  0.995255  0.180599  0.595781  1
  La  La6  1  0.504745  0.680599  0.404219  1
  La  La7  1  0.004745  0.819401  0.095781  1
  La  La8  1  0.504745  0.680599  0.095781  1
  La  La9  1  0.004745  0.819401  0.404219  1
  La  La10  1  0.495255  0.319401  0.595781  1
  La  La11  1  0.995255  0.180599  0.904219  1
  Er  Er12  1  0.336365  0.828314  0.875118  1
  Er  Er13  1  0.836365  0.671686  0.624882  1
  Er  Er14  1  0.663635  0.171686  0.375118  1
  Er  Er15  1  0.163635  0.328314  0.124882  1
  Er  Er16  1  0.663635  0.171686  0.124882  1
  Er  Er17  1  0.163635  0.328314  0.375118  1
  Er  Er18  1  0.336365  0.828314  0.624882  1
  Er  Er19  1  0.836365  0.671686  0.875118  1
  Sn  Sn20  1  0.325568  0.039801  0.037411  1
  Sn  Sn21  1  0.825568  0.460199  0.462589  1
  Sn  Sn22  1  0.674432  0.960199  0.537411  1
  Sn  Sn23  1  0.174432  0.539801  0.962589  1
  Sn  Sn24  1  0.674432  0.960199  0.962589  1
  Sn  Sn25  1  0.174432  0.539801  0.537411  1
  Sn  Sn26  1  0.325568  0.039801  0.462589  1
  Sn  Sn27  1  0.825568  0.460199  0.037411  1
  Sn  Sn28  1  0.535681  0.615297  0.750000  1
  Sn  Sn29  1  0.035681  0.884703  0.750000  1
  Sn  Sn30  1  0.464319  0.384703  0.250000  1
  Sn  Sn31  1  0.964319  0.115297  0.250000  1
  Sn  Sn32  1  0.294406  0.131901  0.750000  1
  Sn  Sn33  1  0.794406  0.368099  0.750000  1
  Sn  Sn34  1  0.705594  0.868099  0.250000  1
  Sn  Sn35  1  0.205594  0.631901  0.250000  1
