# generated using pymatgen
data_Si2S3I2
_symmetry_space_group_name_H-M   'P 1'
_cell_length_a   11.29064000
_cell_length_b   11.29063944
_cell_length_c   9.93089800
_cell_angle_alpha   90.00000000
_cell_angle_beta   90.00000000
_cell_angle_gamma   119.99999577
_symmetry_Int_Tables_number   1
_chemical_formula_structural   Si2S3I2
_chemical_formula_sum   'Si8 S12 I8'
_cell_volume   1096.36779644
_cell_formula_units_Z   4
loop_
 _symmetry_equiv_pos_site_id
 _symmetry_equiv_pos_as_xyz
  1  'x, y, z'
loop_
 _atom_site_type_symbol
 _atom_site_label
 _atom_site_symmetry_multiplicity
 _atom_site_fract_x
 _atom_site_fract_y
 _atom_site_fract_z
 _atom_site_occupancy
  Si  Si0  1  0.804602  0.281907  0.772329  1
  Si  Si1  1  0.477305  0.195398  0.772329  1
  Si  Si2  1  0.333333  0.666667  0.954582  1
  Si  Si3  1  0.195398  0.718093  0.227671  1
  Si  Si4  1  0.522695  0.804602  0.227671  1
  Si  Si5  1  0.281907  0.477305  0.227671  1
  Si  Si6  1  0.666667  0.333333  0.045418  1
  Si  Si7  1  0.718093  0.522695  0.772329  1
  S  S8  1  0.611112  0.129032  0.692018  1
  S  S9  1  0.183837  0.721680  0.012336  1
  S  S10  1  0.537843  0.816163  0.012336  1
  S  S11  1  0.278320  0.462157  0.012336  1
  S  S12  1  0.462157  0.183837  0.987664  1
  S  S13  1  0.721680  0.537843  0.987664  1
  S  S14  1  0.816163  0.278320  0.987664  1
  S  S15  1  0.129032  0.517920  0.307982  1
  S  S16  1  0.517920  0.388888  0.692018  1
  S  S17  1  0.870968  0.482080  0.692018  1
  S  S18  1  0.388888  0.870968  0.307982  1
  S  S19  1  0.482080  0.611112  0.307982  1
  I  I20  1  0.970491  0.219554  0.691085  1
  I  I21  1  0.780446  0.750937  0.691085  1
  I  I22  1  0.029509  0.780446  0.308915  1
  I  I23  1  0.750937  0.970491  0.308915  1
  I  I24  1  0.219554  0.249063  0.308915  1
  I  I25  1  0.666667  0.333333  0.290868  1
  I  I26  1  0.333333  0.666667  0.709132  1
  I  I27  1  0.249063  0.029509  0.691085  1
