# generated using pymatgen
data_Y20NiAg6Rh
_symmetry_space_group_name_H-M   'P 1'
_cell_length_a   9.57504300
_cell_length_b   9.57504320
_cell_length_c   9.66514000
_cell_angle_alpha   90.00000000
_cell_angle_beta   90.00000000
_cell_angle_gamma   119.99999585
_symmetry_Int_Tables_number   1
_chemical_formula_structural   Y20NiAg6Rh
_chemical_formula_sum   'Y20 Ni1 Ag6 Rh1'
_cell_volume   767.39731278
_cell_formula_units_Z   1
loop_
 _symmetry_equiv_pos_site_id
 _symmetry_equiv_pos_as_xyz
  1  'x, y, z'
loop_
 _atom_site_type_symbol
 _atom_site_label
 _atom_site_symmetry_multiplicity
 _atom_site_fract_x
 _atom_site_fract_y
 _atom_site_fract_z
 _atom_site_occupancy
  Y  Y0  1  0.000000  0.000000  0.500583  1
  Y  Y1  1  0.000000  0.000000  0.999417  1
  Y  Y2  1  0.543721  0.456279  0.250000  1
  Y  Y3  1  0.543721  0.087442  0.250000  1
  Y  Y4  1  0.912558  0.456279  0.250000  1
  Y  Y5  1  0.456742  0.543258  0.750000  1
  Y  Y6  1  0.456742  0.913482  0.750000  1
  Y  Y7  1  0.086518  0.543258  0.750000  1
  Y  Y8  1  0.207825  0.792175  0.442073  1
  Y  Y9  1  0.207825  0.415651  0.442073  1
  Y  Y10  1  0.584349  0.792175  0.442073  1
  Y  Y11  1  0.789888  0.210112  0.561077  1
  Y  Y12  1  0.789888  0.579775  0.561077  1
  Y  Y13  1  0.420225  0.210112  0.561077  1
  Y  Y14  1  0.789888  0.210112  0.938923  1
  Y  Y15  1  0.789888  0.579775  0.938923  1
  Y  Y16  1  0.420225  0.210112  0.938923  1
  Y  Y17  1  0.207825  0.792175  0.057927  1
  Y  Y18  1  0.207825  0.415651  0.057927  1
  Y  Y19  1  0.584349  0.792175  0.057927  1
  Ni  Ni20  1  0.666667  0.333333  0.750000  1
  Ag  Ag21  1  0.883242  0.116758  0.250000  1
  Ag  Ag22  1  0.883242  0.766483  0.250000  1
  Ag  Ag23  1  0.233517  0.116758  0.250000  1
  Ag  Ag24  1  0.116408  0.883592  0.750000  1
  Ag  Ag25  1  0.116408  0.232816  0.750000  1
  Ag  Ag26  1  0.767184  0.883592  0.750000  1
  Rh  Rh27  1  0.333333  0.666667  0.250000  1
