# generated using pymatgen
data_Lu4Sc2B4(IrRh)5
_symmetry_space_group_name_H-M   'P 1'
_cell_length_a   3.16330400
_cell_length_b   9.66990152
_cell_length_c   9.64215052
_cell_angle_alpha   90.03761369
_cell_angle_beta   90.00000000
_cell_angle_gamma   90.00000000
_symmetry_Int_Tables_number   1
_chemical_formula_structural   Lu4Sc2B4(IrRh)5
_chemical_formula_sum   'Lu4 Sc2 B4 Ir5 Rh5'
_cell_volume   294.94211821
_cell_formula_units_Z   1
loop_
 _symmetry_equiv_pos_site_id
 _symmetry_equiv_pos_as_xyz
  1  'x, y, z'
loop_
 _atom_site_type_symbol
 _atom_site_label
 _atom_site_symmetry_multiplicity
 _atom_site_fract_x
 _atom_site_fract_y
 _atom_site_fract_z
 _atom_site_occupancy
  Lu  Lu0  1  0.000000  0.175838  0.675918  1
  Lu  Lu1  1  0.000000  0.823725  0.324127  1
  Lu  Lu2  1  0.000000  0.323933  0.175818  1
  Lu  Lu3  1  0.000000  0.675581  0.823963  1
  Sc  Sc4  1  0.000000  0.999228  0.000297  1
  Sc  Sc5  1  0.000000  0.500036  0.499897  1
  B  B6  1  0.000000  0.619754  0.121498  1
  B  B7  1  0.000000  0.379248  0.879255  1
  B  B8  1  0.000000  0.878769  0.619958  1
  B  B9  1  0.000000  0.121618  0.379861  1
  Ir  Ir10  1  0.500000  0.430891  0.724342  1
  Ir  Ir11  1  0.500000  0.224728  0.930229  1
  Ir  Ir12  1  0.500000  0.570138  0.275030  1
  Ir  Ir13  1  0.500000  0.725507  0.570418  1
  Ir  Ir14  1  0.500000  0.274720  0.430083  1
  Rh  Rh15  1  0.500000  0.069708  0.224527  1
  Rh  Rh16  1  0.500000  0.930616  0.775180  1
  Rh  Rh17  1  0.500000  0.775201  0.069910  1
  Rh  Rh18  1  0.500000  0.999839  0.499508  1
  Rh  Rh19  1  0.500000  0.500923  0.000181  1
