# generated using pymatgen
data_Dy2NiAsSe
_symmetry_space_group_name_H-M   'P 1'
_cell_length_a   4.05897000
_cell_length_b   4.05896988
_cell_length_c   14.40760600
_cell_angle_alpha   90.00000000
_cell_angle_beta   90.00000000
_cell_angle_gamma   120.00000094
_symmetry_Int_Tables_number   1
_chemical_formula_structural   Dy2NiAsSe
_chemical_formula_sum   'Dy4 Ni2 As2 Se2'
_cell_volume   205.56734254
_cell_formula_units_Z   2
loop_
 _symmetry_equiv_pos_site_id
 _symmetry_equiv_pos_as_xyz
  1  'x, y, z'
loop_
 _atom_site_type_symbol
 _atom_site_label
 _atom_site_symmetry_multiplicity
 _atom_site_fract_x
 _atom_site_fract_y
 _atom_site_fract_z
 _atom_site_occupancy
  Dy  Dy0  1  0.333333  0.666667  0.379224  1
  Dy  Dy1  1  0.666667  0.333333  0.620776  1
  Dy  Dy2  1  0.666667  0.333333  0.879224  1
  Dy  Dy3  1  0.333333  0.666667  0.120776  1
  Ni  Ni4  1  0.000000  0.000000  0.250000  1
  Ni  Ni5  1  0.000000  0.000000  0.750000  1
  As  As6  1  0.333333  0.666667  0.750000  1
  As  As7  1  0.666667  0.333333  0.250000  1
  Se  Se8  1  0.000000  0.000000  0.500000  1
  Se  Se9  1  0.000000  0.000000  0.000000  1
