# generated using pymatgen
data_Eu3Cu(SiRh3)2
_symmetry_space_group_name_H-M   'P 1'
_cell_length_a   5.73860200
_cell_length_b   5.73860277
_cell_length_c   15.99719600
_cell_angle_alpha   90.00000000
_cell_angle_beta   90.00000000
_cell_angle_gamma   119.99999558
_symmetry_Int_Tables_number   1
_chemical_formula_structural   Eu3Cu(SiRh3)2
_chemical_formula_sum   'Eu6 Cu2 Si4 Rh12'
_cell_volume   456.23309503
_cell_formula_units_Z   2
loop_
 _symmetry_equiv_pos_site_id
 _symmetry_equiv_pos_as_xyz
  1  'x, y, z'
loop_
 _atom_site_type_symbol
 _atom_site_label
 _atom_site_symmetry_multiplicity
 _atom_site_fract_x
 _atom_site_fract_y
 _atom_site_fract_z
 _atom_site_occupancy
  Eu  Eu0  1  0.666667  0.333333  0.039248  1
  Eu  Eu1  1  0.666667  0.333333  0.250000  1
  Eu  Eu2  1  0.666667  0.333333  0.460752  1
  Eu  Eu3  1  0.333333  0.666667  0.539248  1
  Eu  Eu4  1  0.333333  0.666667  0.750000  1
  Eu  Eu5  1  0.333333  0.666667  0.960752  1
  Cu  Cu6  1  0.000000  0.000000  0.000000  1
  Cu  Cu7  1  0.000000  0.000000  0.500000  1
  Si  Si8  1  0.000000  0.000000  0.250000  1
  Si  Si9  1  0.333333  0.666667  0.250000  1
  Si  Si10  1  0.000000  0.000000  0.750000  1
  Si  Si11  1  0.666667  0.333333  0.750000  1
  Rh  Rh12  1  0.165568  0.331135  0.139721  1
  Rh  Rh13  1  0.165568  0.834432  0.139721  1
  Rh  Rh14  1  0.668865  0.834432  0.139721  1
  Rh  Rh15  1  0.165568  0.331135  0.360279  1
  Rh  Rh16  1  0.165568  0.834432  0.360279  1
  Rh  Rh17  1  0.668865  0.834432  0.360279  1
  Rh  Rh18  1  0.331135  0.165568  0.639721  1
  Rh  Rh19  1  0.834432  0.165568  0.639721  1
  Rh  Rh20  1  0.834432  0.668865  0.639721  1
  Rh  Rh21  1  0.331135  0.165568  0.860279  1
  Rh  Rh22  1  0.834432  0.165568  0.860279  1
  Rh  Rh23  1  0.834432  0.668865  0.860279  1
