# generated using pymatgen
data_Tb3Ce3Dy4(Al2Ru3)2
_symmetry_space_group_name_H-M   'P 1'
_cell_length_a   8.43883708
_cell_length_b   8.43883659
_cell_length_c   8.43883734
_cell_angle_alpha   110.11869174
_cell_angle_beta   110.11869742
_cell_angle_gamma   110.11868787
_symmetry_Int_Tables_number   1
_chemical_formula_structural   Tb3Ce3Dy4(Al2Ru3)2
_chemical_formula_sum   'Tb3 Ce3 Dy4 Al4 Ru6'
_cell_volume   451.19122432
_cell_formula_units_Z   1
loop_
 _symmetry_equiv_pos_site_id
 _symmetry_equiv_pos_as_xyz
  1  'x, y, z'
loop_
 _atom_site_type_symbol
 _atom_site_label
 _atom_site_symmetry_multiplicity
 _atom_site_fract_x
 _atom_site_fract_y
 _atom_site_fract_z
 _atom_site_occupancy
  Tb  Tb0  1  0.721686  0.506715  0.995009  1
  Tb  Tb1  1  0.995009  0.721686  0.506715  1
  Tb  Tb2  1  0.506715  0.995009  0.721686  1
  Ce  Ce3  1  0.253128  0.199910  0.944767  1
  Ce  Ce4  1  0.944767  0.253128  0.199910  1
  Ce  Ce5  1  0.199910  0.944767  0.253128  1
  Dy  Dy6  1  0.781176  0.781176  0.781176  1
  Dy  Dy7  1  0.313909  0.566695  0.751465  1
  Dy  Dy8  1  0.751465  0.313909  0.566695  1
  Dy  Dy9  1  0.566695  0.751465  0.313909  1
  Al  Al10  1  0.411771  0.411771  0.411771  1
  Al  Al11  1  0.094221  0.498284  0.001556  1
  Al  Al12  1  0.001556  0.094221  0.498284  1
  Al  Al13  1  0.498284  0.001556  0.094221  1
  Ru  Ru14  1  0.901758  0.120019  0.753697  1
  Ru  Ru15  1  0.753697  0.901758  0.120019  1
  Ru  Ru16  1  0.120019  0.753697  0.901758  1
  Ru  Ru17  1  0.223857  0.595098  0.365282  1
  Ru  Ru18  1  0.365282  0.223857  0.595098  1
  Ru  Ru19  1  0.595098  0.365282  0.223857  1
