# generated using pymatgen
data_Ba2Cd(PO4)2
_symmetry_space_group_name_H-M   'P 1'
_cell_length_a   6.80441725
_cell_length_b   6.80441745
_cell_length_c   6.93108455
_cell_angle_alpha   77.20224640
_cell_angle_beta   77.20224361
_cell_angle_gamma   47.04001393
_symmetry_Int_Tables_number   1
_chemical_formula_structural   Ba2Cd(PO4)2
_chemical_formula_sum   'Ba2 Cd1 P2 O8'
_cell_volume   227.89529311
_cell_formula_units_Z   1
loop_
 _symmetry_equiv_pos_site_id
 _symmetry_equiv_pos_as_xyz
  1  'x, y, z'
loop_
 _atom_site_type_symbol
 _atom_site_label
 _atom_site_symmetry_multiplicity
 _atom_site_fract_x
 _atom_site_fract_y
 _atom_site_fract_z
 _atom_site_occupancy
  Ba  Ba0  1  0.173891  0.173891  0.787120  1
  Ba  Ba1  1  0.826109  0.826109  0.212880  1
  Cd  Cd2  1  0.500000  0.500000  0.500000  1
  P  P3  1  0.142842  0.142842  0.292055  1
  P  P4  1  0.857158  0.857158  0.707945  1
  O  O5  1  0.094903  0.630173  0.570269  1
  O  O6  1  0.369827  0.905097  0.429731  1
  O  O7  1  0.905097  0.369827  0.429731  1
  O  O8  1  0.630173  0.094903  0.570269  1
  O  O9  1  0.257988  0.257988  0.142859  1
  O  O10  1  0.950346  0.950346  0.818548  1
  O  O11  1  0.049654  0.049654  0.181452  1
  O  O12  1  0.742012  0.742012  0.857141  1
