# generated using pymatgen
data_AcSm7(Si4Mo3)4
_symmetry_space_group_name_H-M   'P 1'
_cell_length_a   6.90543956
_cell_length_b   7.07314980
_cell_length_c   13.08522283
_cell_angle_alpha   90.23111558
_cell_angle_beta   90.05009293
_cell_angle_gamma   90.04298837
_symmetry_Int_Tables_number   1
_chemical_formula_structural   AcSm7(Si4Mo3)4
_chemical_formula_sum   'Ac1 Sm7 Si16 Mo12'
_cell_volume   639.11864152
_cell_formula_units_Z   1
loop_
 _symmetry_equiv_pos_site_id
 _symmetry_equiv_pos_as_xyz
  1  'x, y, z'
loop_
 _atom_site_type_symbol
 _atom_site_label
 _atom_site_symmetry_multiplicity
 _atom_site_fract_x
 _atom_site_fract_y
 _atom_site_fract_z
 _atom_site_occupancy
  Ac  Ac0  1  0.998825  0.161682  0.091297  1
  Sm  Sm1  1  0.496984  0.334497  0.095103  1
  Sm  Sm2  1  0.997770  0.165629  0.405561  1
  Sm  Sm3  1  0.503270  0.666012  0.594528  1
  Sm  Sm4  1  0.002648  0.836002  0.903821  1
  Sm  Sm5  1  0.504465  0.664864  0.903602  1
  Sm  Sm6  1  0.002162  0.834458  0.594516  1
  Sm  Sm7  1  0.496724  0.334924  0.407442  1
  Si  Si8  1  0.656156  0.045268  0.548566  1
  Si  Si9  1  0.157651  0.460965  0.947690  1
  Si  Si10  1  0.353426  0.948394  0.048489  1
  Si  Si11  1  0.844393  0.543645  0.451538  1
  Si  Si12  1  0.343192  0.955271  0.452493  1
  Si  Si13  1  0.841384  0.552169  0.048382  1
  Si  Si14  1  0.650928  0.046063  0.947330  1
  Si  Si15  1  0.156227  0.455283  0.548965  1
  Si  Si16  1  0.535311  0.359927  0.748901  1
  Si  Si17  1  0.036310  0.140901  0.749578  1
  Si  Si18  1  0.464218  0.638911  0.250984  1
  Si  Si19  1  0.962677  0.853964  0.253902  1
  Si  Si20  1  0.806673  0.621387  0.748840  1
  Si  Si21  1  0.306186  0.878612  0.749077  1
  Si  Si22  1  0.196613  0.383825  0.252836  1
  Si  Si23  1  0.687833  0.119628  0.252899  1
  Mo  Mo24  1  0.832089  0.334694  0.625844  1
  Mo  Mo25  1  0.331378  0.165391  0.872227  1
  Mo  Mo26  1  0.168018  0.665291  0.127670  1
  Mo  Mo27  1  0.666948  0.833774  0.375176  1
  Mo  Mo28  1  0.169773  0.664818  0.376254  1
  Mo  Mo29  1  0.668360  0.832743  0.128235  1
  Mo  Mo30  1  0.831109  0.337604  0.871502  1
  Mo  Mo31  1  0.330618  0.165087  0.626099  1
  Mo  Mo32  1  0.664924  0.004194  0.748421  1
  Mo  Mo33  1  0.165410  0.497662  0.749025  1
  Mo  Mo34  1  0.335248  0.993002  0.252032  1
  Mo  Mo35  1  0.834101  0.503459  0.251180  1
