# generated using pymatgen
data_Y20IrRuPt10
_symmetry_space_group_name_H-M   'P 1'
_cell_length_a   11.07165400
_cell_length_b   11.07165400
_cell_length_c   6.47323200
_cell_angle_alpha   90.00000000
_cell_angle_beta   90.00000000
_cell_angle_gamma   90.00000000
_symmetry_Int_Tables_number   1
_chemical_formula_structural   Y20IrRuPt10
_chemical_formula_sum   'Y20 Ir1 Ru1 Pt10'
_cell_volume   793.49863273
_cell_formula_units_Z   1
loop_
 _symmetry_equiv_pos_site_id
 _symmetry_equiv_pos_as_xyz
  1  'x, y, z'
loop_
 _atom_site_type_symbol
 _atom_site_label
 _atom_site_symmetry_multiplicity
 _atom_site_fract_x
 _atom_site_fract_y
 _atom_site_fract_z
 _atom_site_occupancy
  Y  Y0  1  0.295886  0.087230  0.375736  1
  Y  Y1  1  0.296278  0.912647  0.878004  1
  Y  Y2  1  0.703722  0.087353  0.878004  1
  Y  Y3  1  0.704114  0.912770  0.375736  1
  Y  Y4  1  0.587353  0.796278  0.878004  1
  Y  Y5  1  0.587230  0.204114  0.375736  1
  Y  Y6  1  0.412770  0.795886  0.375736  1
  Y  Y7  1  0.412647  0.203722  0.878004  1
  Y  Y8  1  0.207593  0.411181  0.622772  1
  Y  Y9  1  0.207425  0.588609  0.122538  1
  Y  Y10  1  0.792575  0.411391  0.122538  1
  Y  Y11  1  0.792407  0.588819  0.622772  1
  Y  Y12  1  0.911391  0.707425  0.122538  1
  Y  Y13  1  0.911181  0.292407  0.622772  1
  Y  Y14  1  0.088819  0.707593  0.622772  1
  Y  Y15  1  0.088609  0.292575  0.122538  1
  Y  Y16  1  0.000000  0.000000  0.498600  1
  Y  Y17  1  0.000000  0.000000  0.998735  1
  Y  Y18  1  0.500000  0.500000  0.998735  1
  Y  Y19  1  0.500000  0.500000  0.498600  1
  Ir  Ir20  1  0.500000  0.000000  0.624804  1
  Ru  Ru21  1  0.500000  0.000000  0.126673  1
  Pt  Pt22  1  0.846984  0.154590  0.249610  1
  Pt  Pt23  1  0.847179  0.845664  0.749549  1
  Pt  Pt24  1  0.152821  0.154336  0.749549  1
  Pt  Pt25  1  0.153016  0.845410  0.249610  1
  Pt  Pt26  1  0.654336  0.347179  0.749549  1
  Pt  Pt27  1  0.654590  0.653016  0.249610  1
  Pt  Pt28  1  0.345410  0.346984  0.249610  1
  Pt  Pt29  1  0.345664  0.652821  0.749549  1
  Pt  Pt30  1  0.000000  0.500000  0.880314  1
  Pt  Pt31  1  0.000000  0.500000  0.380700  1
