# generated using pymatgen
data_Al6Pt9Rh
_symmetry_space_group_name_H-M   'P 1'
_cell_length_a   4.02504400
_cell_length_b   5.44761464
_cell_length_c   10.78692935
_cell_angle_alpha   90.42856904
_cell_angle_beta   90.00000000
_cell_angle_gamma   90.00000000
_symmetry_Int_Tables_number   1
_chemical_formula_structural   Al6Pt9Rh
_chemical_formula_sum   'Al6 Pt9 Rh1'
_cell_volume   236.51718185
_cell_formula_units_Z   1
loop_
 _symmetry_equiv_pos_site_id
 _symmetry_equiv_pos_as_xyz
  1  'x, y, z'
loop_
 _atom_site_type_symbol
 _atom_site_label
 _atom_site_symmetry_multiplicity
 _atom_site_fract_x
 _atom_site_fract_y
 _atom_site_fract_z
 _atom_site_occupancy
  Al  Al0  1  0.500000  0.181749  0.635119  1
  Al  Al1  1  0.500000  0.820553  0.361584  1
  Al  Al2  1  0.500000  0.680962  0.859540  1
  Al  Al3  1  0.500000  0.319577  0.144812  1
  Al  Al4  1  0.000000  0.494915  0.497402  1
  Al  Al5  1  0.000000  0.001473  0.001032  1
  Pt  Pt6  1  0.500000  0.698408  0.606093  1
  Pt  Pt7  1  0.500000  0.797563  0.106650  1
  Pt  Pt8  1  0.500000  0.203516  0.892798  1
  Pt  Pt9  1  0.000000  0.427922  0.733502  1
  Pt  Pt10  1  0.000000  0.572552  0.266059  1
  Pt  Pt11  1  0.000000  0.928262  0.766504  1
  Pt  Pt12  1  0.000000  0.072170  0.235429  1
  Pt  Pt13  1  0.000000  0.499904  0.000280  1
  Pt  Pt14  1  0.000000  0.001504  0.500469  1
  Rh  Rh15  1  0.500000  0.298970  0.392726  1
