# generated using pymatgen
data_Er5Tm5(Ga2Bi)2
_symmetry_space_group_name_H-M   'P 1'
_cell_length_a   8.64000805
_cell_length_b   8.66999516
_cell_length_c   6.49337800
_cell_angle_alpha   90.00000000
_cell_angle_beta   90.00000000
_cell_angle_gamma   120.12354563
_symmetry_Int_Tables_number   1
_chemical_formula_structural   Er5Tm5(Ga2Bi)2
_chemical_formula_sum   'Er5 Tm5 Ga4 Bi2'
_cell_volume   420.71917534
_cell_formula_units_Z   1
loop_
 _symmetry_equiv_pos_site_id
 _symmetry_equiv_pos_as_xyz
  1  'x, y, z'
loop_
 _atom_site_type_symbol
 _atom_site_label
 _atom_site_symmetry_multiplicity
 _atom_site_fract_x
 _atom_site_fract_y
 _atom_site_fract_z
 _atom_site_occupancy
  Er  Er0  1  0.982356  0.233813  0.250000  1
  Er  Er1  1  0.767975  0.768544  0.250000  1
  Er  Er2  1  0.767908  0.999156  0.750000  1
  Er  Er3  1  0.233776  0.251133  0.750000  1
  Er  Er4  1  0.233635  0.982494  0.250000  1
  Tm  Tm5  1  0.982104  0.748547  0.750000  1
  Tm  Tm6  1  0.329590  0.664854  0.500016  1
  Tm  Tm7  1  0.692856  0.346572  0.999868  1
  Tm  Tm8  1  0.692856  0.346572  0.500132  1
  Tm  Tm9  1  0.329590  0.664854  0.999984  1
  Ga  Ga10  1  0.001935  0.601126  0.250000  1
  Ga  Ga11  1  0.001887  0.400878  0.750000  1
  Ga  Ga12  1  0.596591  0.601227  0.750000  1
  Ga  Ga13  1  0.596172  0.994962  0.250000  1
  Bi  Bi14  1  0.395180  0.006143  0.750000  1
  Bi  Bi15  1  0.395591  0.389126  0.250000  1
