# generated using pymatgen
data_Sm4ErTl2InBr
_symmetry_space_group_name_H-M   'P 1'
_cell_length_a   9.37404415
_cell_length_b   9.37404302
_cell_length_c   6.84989084
_cell_angle_alpha   90.01282019
_cell_angle_beta   90.01282147
_cell_angle_gamma   120.00296161
_symmetry_Int_Tables_number   1
_chemical_formula_structural   Sm4ErTl2InBr
_chemical_formula_sum   'Sm8 Er2 Tl4 In2 Br2'
_cell_volume   521.26097716
_cell_formula_units_Z   2
loop_
 _symmetry_equiv_pos_site_id
 _symmetry_equiv_pos_as_xyz
  1  'x, y, z'
loop_
 _atom_site_type_symbol
 _atom_site_label
 _atom_site_symmetry_multiplicity
 _atom_site_fract_x
 _atom_site_fract_y
 _atom_site_fract_z
 _atom_site_occupancy
  Sm  Sm0  1  0.734062  0.734062  0.251529  1
  Sm  Sm1  1  0.999405  0.733548  0.747634  1
  Sm  Sm2  1  0.733548  0.999405  0.747634  1
  Sm  Sm3  1  0.265938  0.265938  0.748471  1
  Sm  Sm4  1  0.000595  0.266452  0.252366  1
  Sm  Sm5  1  0.266452  0.000595  0.252366  1
  Sm  Sm6  1  0.334363  0.665637  0.000000  1
  Sm  Sm7  1  0.665637  0.334363  0.000000  1
  Er  Er8  1  0.334289  0.665711  0.500000  1
  Er  Er9  1  0.665711  0.334289  0.500000  1
  Tl  Tl10  1  0.393814  0.000011  0.746217  1
  Tl  Tl11  1  0.999989  0.606186  0.253783  1
  Tl  Tl12  1  0.606186  0.999989  0.253783  1
  Tl  Tl13  1  0.000011  0.393814  0.746217  1
  In  In14  1  0.393953  0.393953  0.255812  1
  In  In15  1  0.606047  0.606047  0.744188  1
  Br  Br16  1  0.000000  0.000000  0.500000  1
  Br  Br17  1  0.000000  0.000000  0.000000  1
