# generated using pymatgen
data_SmYSi2(Os2C)2
_symmetry_space_group_name_H-M   'P 1'
_cell_length_a   5.89528252
_cell_length_b   5.89528305
_cell_length_c   7.16668100
_cell_angle_alpha   90.00000000
_cell_angle_beta   90.00000000
_cell_angle_gamma   141.37855705
_symmetry_Int_Tables_number   1
_chemical_formula_structural   SmYSi2(Os2C)2
_chemical_formula_sum   'Sm1 Y1 Si2 Os4 C2'
_cell_volume   155.46465457
_cell_formula_units_Z   1
loop_
 _symmetry_equiv_pos_site_id
 _symmetry_equiv_pos_as_xyz
  1  'x, y, z'
loop_
 _atom_site_type_symbol
 _atom_site_label
 _atom_site_symmetry_multiplicity
 _atom_site_fract_x
 _atom_site_fract_y
 _atom_site_fract_z
 _atom_site_occupancy
  Sm  Sm0  1  0.548437  0.451563  0.250000  1
  Y  Y1  1  0.451850  0.548150  0.750000  1
  Si  Si2  1  0.270086  0.729914  0.250000  1
  Si  Si3  1  0.730555  0.269445  0.750000  1
  Os  Os4  1  0.834441  0.165559  0.057125  1
  Os  Os5  1  0.165495  0.834505  0.940721  1
  Os  Os6  1  0.165495  0.834505  0.559279  1
  Os  Os7  1  0.834441  0.165559  0.442875  1
  C  C8  1  0.999600  0.000400  0.996586  1
  C  C9  1  0.999600  0.000400  0.503414  1
