# generated using pymatgen
data_Ho4Al18CuOs2Pd2Ru
_symmetry_space_group_name_H-M   'P 1'
_cell_length_a   7.58902738
_cell_length_b   7.58902701
_cell_length_c   9.44926400
_cell_angle_alpha   89.96548978
_cell_angle_beta   89.96548978
_cell_angle_gamma   119.27930174
_symmetry_Int_Tables_number   1
_chemical_formula_structural   Ho4Al18CuOs2Pd2Ru
_chemical_formula_sum   'Ho4 Al18 Cu1 Os2 Pd2 Ru1'
_cell_volume   474.68868746
_cell_formula_units_Z   1
loop_
 _symmetry_equiv_pos_site_id
 _symmetry_equiv_pos_as_xyz
  1  'x, y, z'
loop_
 _atom_site_type_symbol
 _atom_site_label
 _atom_site_symmetry_multiplicity
 _atom_site_fract_x
 _atom_site_fract_y
 _atom_site_fract_z
 _atom_site_occupancy
  Ho  Ho0  1  0.993407  0.674134  0.248702  1
  Ho  Ho1  1  0.005455  0.325488  0.752281  1
  Ho  Ho2  1  0.674512  0.994545  0.247719  1
  Ho  Ho3  1  0.325866  0.006593  0.751298  1
  Al  Al4  1  0.129623  0.127775  0.249378  1
  Al  Al5  1  0.872225  0.870377  0.750622  1
  Al  Al6  1  0.005526  0.338913  0.075526  1
  Al  Al7  1  0.005283  0.669849  0.925183  1
  Al  Al8  1  0.000038  0.667402  0.576494  1
  Al  Al9  1  0.332598  0.999962  0.423506  1
  Al  Al10  1  0.001190  0.330769  0.422007  1
  Al  Al11  1  0.669231  0.998810  0.577993  1
  Al  Al12  1  0.661087  0.994474  0.924474  1
  Al  Al13  1  0.330151  0.994717  0.074817  1
  Al  Al14  1  0.329630  0.329031  0.553362  1
  Al  Al15  1  0.670969  0.670371  0.446638  1
  Al  Al16  1  0.665792  0.671765  0.048510  1
  Al  Al17  1  0.328236  0.334208  0.951490  1
  Al  Al18  1  0.343285  0.552003  0.245545  1
  Al  Al19  1  0.657359  0.449608  0.752700  1
  Al  Al20  1  0.550392  0.342641  0.247300  1
  Al  Al21  1  0.447997  0.656715  0.754455  1
  Cu  Cu22  1  0.672228  0.327772  0.000000  1
  Os  Os23  1  0.998601  0.001399  0.000000  1
  Os  Os24  1  0.000613  0.999387  0.500000  1
  Pd  Pd25  1  0.328493  0.671507  0.500000  1
  Pd  Pd26  1  0.672369  0.327631  0.500000  1
  Ru  Ru27  1  0.327846  0.672154  0.000000  1
