# generated using pymatgen
data_NdHo3(AlZn)4
_symmetry_space_group_name_H-M   'P 1'
_cell_length_a   4.51680800
_cell_length_b   7.25257626
_cell_length_c   7.78715100
_cell_angle_alpha   89.98461069
_cell_angle_beta   90.00000000
_cell_angle_gamma   90.00000000
_symmetry_Int_Tables_number   1
_chemical_formula_structural   NdHo3(AlZn)4
_chemical_formula_sum   'Nd1 Ho3 Al4 Zn4'
_cell_volume   255.09533384
_cell_formula_units_Z   1
loop_
 _symmetry_equiv_pos_site_id
 _symmetry_equiv_pos_as_xyz
  1  'x, y, z'
loop_
 _atom_site_type_symbol
 _atom_site_label
 _atom_site_symmetry_multiplicity
 _atom_site_fract_x
 _atom_site_fract_y
 _atom_site_fract_z
 _atom_site_occupancy
  Nd  Nd0  1  0.250000  0.996089  0.756750  1
  Ho  Ho1  1  0.250000  0.495817  0.744818  1
  Ho  Ho2  1  0.750000  0.993972  0.244614  1
  Ho  Ho3  1  0.750000  0.493854  0.253990  1
  Al  Al4  1  0.250000  0.221060  0.413556  1
  Al  Al5  1  0.250000  0.712401  0.086272  1
  Al  Al6  1  0.750000  0.720735  0.581363  1
  Al  Al7  1  0.750000  0.238865  0.918656  1
  Zn  Zn8  1  0.250000  0.785213  0.414691  1
  Zn  Zn9  1  0.250000  0.294810  0.084514  1
  Zn  Zn10  1  0.750000  0.287267  0.581999  1
  Zn  Zn11  1  0.750000  0.759916  0.918776  1
