# generated using pymatgen
data_Cs3CeBr6
_symmetry_space_group_name_H-M   'P 1'
_cell_length_a   10.10299400
_cell_length_b   10.10299400
_cell_length_c   8.40249000
_cell_angle_alpha   90.00000000
_cell_angle_beta   90.00000000
_cell_angle_gamma   90.00000000
_symmetry_Int_Tables_number   1
_chemical_formula_structural   Cs3CeBr6
_chemical_formula_sum   'Cs6 Ce2 Br12'
_cell_volume   857.64625274
_cell_formula_units_Z   2
loop_
 _symmetry_equiv_pos_site_id
 _symmetry_equiv_pos_as_xyz
  1  'x, y, z'
loop_
 _atom_site_type_symbol
 _atom_site_label
 _atom_site_symmetry_multiplicity
 _atom_site_fract_x
 _atom_site_fract_y
 _atom_site_fract_z
 _atom_site_occupancy
  Cs  Cs0  1  0.000000  0.000000  0.500000  1
  Cs  Cs1  1  0.000000  0.000000  0.000000  1
  Cs  Cs2  1  0.234018  0.586738  0.500000  1
  Cs  Cs3  1  0.765982  0.413262  0.500000  1
  Cs  Cs4  1  0.413262  0.234018  0.000000  1
  Cs  Cs5  1  0.586738  0.765982  0.000000  1
  Ce  Ce6  1  0.500000  0.000000  0.500000  1
  Ce  Ce7  1  0.000000  0.500000  0.000000  1
  Br  Br8  1  0.697520  0.060536  0.746400  1
  Br  Br9  1  0.302480  0.939464  0.746400  1
  Br  Br10  1  0.939464  0.697520  0.246400  1
  Br  Br11  1  0.060536  0.302480  0.246400  1
  Br  Br12  1  0.302480  0.939464  0.253600  1
  Br  Br13  1  0.697520  0.060536  0.253600  1
  Br  Br14  1  0.060536  0.302480  0.753600  1
  Br  Br15  1  0.939464  0.697520  0.753600  1
  Br  Br16  1  0.569951  0.720539  0.500000  1
  Br  Br17  1  0.430049  0.279461  0.500000  1
  Br  Br18  1  0.279461  0.569951  0.000000  1
  Br  Br19  1  0.720539  0.430049  0.000000  1
