# generated using pymatgen
data_Sr9YbSi5Bi
_symmetry_space_group_name_H-M   'P 1'
_cell_length_a   9.80872070
_cell_length_b   9.80911214
_cell_length_c   9.80812927
_cell_angle_alpha   131.12633573
_cell_angle_beta   131.12673253
_cell_angle_gamma   71.61374750
_symmetry_Int_Tables_number   1
_chemical_formula_structural   Sr9YbSi5Bi
_chemical_formula_sum   'Sr9 Yb1 Si5 Bi1'
_cell_volume   523.90427195
_cell_formula_units_Z   1
loop_
 _symmetry_equiv_pos_site_id
 _symmetry_equiv_pos_as_xyz
  1  'x, y, z'
loop_
 _atom_site_type_symbol
 _atom_site_label
 _atom_site_symmetry_multiplicity
 _atom_site_fract_x
 _atom_site_fract_y
 _atom_site_fract_z
 _atom_site_occupancy
  Sr  Sr0  1  0.548347  0.031107  0.855397  1
  Sr  Sr1  1  0.175741  0.692964  0.144652  1
  Sr  Sr2  1  0.031123  0.175807  0.482793  1
  Sr  Sr3  1  0.693024  0.548314  0.517210  1
  Sr  Sr4  1  0.473320  0.947193  0.144392  1
  Sr  Sr5  1  0.802779  0.328896  0.855552  1
  Sr  Sr6  1  0.947347  0.802670  0.473880  1
  Sr  Sr7  1  0.328804  0.473456  0.526128  1
  Sr  Sr8  1  0.010195  0.010196  0.000002  1
  Yb  Yb9  1  0.490174  0.490174  0.000007  1
  Si  Si10  1  0.751240  0.751215  0.999982  1
  Si  Si11  1  0.886689  0.392797  0.280480  1
  Si  Si12  1  0.112325  0.606284  0.719510  1
  Si  Si13  1  0.392863  0.112379  0.506056  1
  Si  Si14  1  0.606325  0.886807  0.493946  1
  Bi  Bi15  1  0.249703  0.249741  0.000015  1
