# generated using pymatgen
data_Y6Ni20As13
_symmetry_space_group_name_H-M   'P 1'
_cell_length_a   13.13090000
_cell_length_b   13.13090002
_cell_length_c   3.88865700
_cell_angle_alpha   90.00000000
_cell_angle_beta   90.00000000
_cell_angle_gamma   119.99999994
_symmetry_Int_Tables_number   1
_chemical_formula_structural   Y6Ni20As13
_chemical_formula_sum   'Y6 Ni20 As13'
_cell_volume   580.65645494
_cell_formula_units_Z   1
loop_
 _symmetry_equiv_pos_site_id
 _symmetry_equiv_pos_as_xyz
  1  'x, y, z'
loop_
 _atom_site_type_symbol
 _atom_site_label
 _atom_site_symmetry_multiplicity
 _atom_site_fract_x
 _atom_site_fract_y
 _atom_site_fract_z
 _atom_site_occupancy
  Y  Y0  1  0.187700  0.470519  0.000000  1
  Y  Y1  1  0.529481  0.717181  0.000000  1
  Y  Y2  1  0.282819  0.812300  0.000000  1
  Y  Y3  1  0.719784  0.189078  0.500000  1
  Y  Y4  1  0.810922  0.530705  0.500000  1
  Y  Y5  1  0.469295  0.280216  0.500000  1
  Ni  Ni6  1  0.090002  0.199244  0.000000  1
  Ni  Ni7  1  0.800756  0.890758  0.000000  1
  Ni  Ni8  1  0.109242  0.909998  0.000000  1
  Ni  Ni9  1  0.333333  0.666667  0.500000  1
  Ni  Ni10  1  0.920268  0.066420  0.500000  1
  Ni  Ni11  1  0.933580  0.853848  0.500000  1
  Ni  Ni12  1  0.146152  0.079732  0.500000  1
  Ni  Ni13  1  0.666667  0.333333  0.000000  1
  Ni  Ni14  1  0.415931  0.436690  0.000000  1
  Ni  Ni15  1  0.563310  0.979241  0.000000  1
  Ni  Ni16  1  0.020759  0.584069  0.000000  1
  Ni  Ni17  1  0.244433  0.314394  0.500000  1
  Ni  Ni18  1  0.685606  0.930039  0.500000  1
  Ni  Ni19  1  0.069961  0.755567  0.500000  1
  Ni  Ni20  1  0.436226  0.021252  0.500000  1
  Ni  Ni21  1  0.978748  0.414974  0.500000  1
  Ni  Ni22  1  0.585026  0.563774  0.500000  1
  Ni  Ni23  1  0.923413  0.245801  0.000000  1
  Ni  Ni24  1  0.754199  0.677611  0.000000  1
  Ni  Ni25  1  0.322389  0.076587  0.000000  1
  As  As26  1  0.384800  0.522555  0.500000  1
  As  As27  1  0.477445  0.862245  0.500000  1
  As  As28  1  0.137755  0.615200  0.500000  1
  As  As29  1  0.045459  0.278692  0.500000  1
  As  As30  1  0.721308  0.766767  0.500000  1
  As  As31  1  0.233233  0.954541  0.500000  1
  As  As32  1  0.525397  0.138201  0.000000  1
  As  As33  1  0.861799  0.387196  0.000000  1
  As  As34  1  0.612804  0.474603  0.000000  1
  As  As35  1  0.768334  0.050236  0.000000  1
  As  As36  1  0.949764  0.718098  0.000000  1
  As  As37  1  0.281902  0.231666  0.000000  1
  As  As38  1  0.000000  0.000000  0.000000  1
