# generated using pymatgen
data_Zr6Ti2Al15Pt3Rh4
_symmetry_space_group_name_H-M   'P 1'
_cell_length_a   8.85900643
_cell_length_b   8.83505415
_cell_length_c   8.85900509
_cell_angle_alpha   119.97996560
_cell_angle_beta   119.97322917
_cell_angle_gamma   90.11826425
_symmetry_Int_Tables_number   1
_chemical_formula_structural   Zr6Ti2Al15Pt3Rh4
_chemical_formula_sum   'Zr6 Ti2 Al15 Pt3 Rh4'
_cell_volume   490.14195833
_cell_formula_units_Z   1
loop_
 _symmetry_equiv_pos_site_id
 _symmetry_equiv_pos_as_xyz
  1  'x, y, z'
loop_
 _atom_site_type_symbol
 _atom_site_label
 _atom_site_symmetry_multiplicity
 _atom_site_fract_x
 _atom_site_fract_y
 _atom_site_fract_z
 _atom_site_occupancy
  Zr  Zr0  1  0.792298  0.291673  0.078302  1
  Zr  Zr1  1  0.213371  0.291673  0.499376  1
  Zr  Zr2  1  0.207327  0.707530  0.500202  1
  Zr  Zr3  1  0.211924  0.714270  0.920034  1
  Zr  Zr4  1  0.794236  0.714270  0.502346  1
  Zr  Zr5  1  0.785340  0.285464  0.500124  1
  Ti  Ti6  1  0.379807  0.122169  0.742362  1
  Ti  Ti7  1  0.377381  0.637028  0.259647  1
  Al  Al8  1  0.995646  0.494847  0.499201  1
  Al  Al9  1  0.162600  0.337091  0.174490  1
  Al  Al10  1  0.162567  0.991429  0.828861  1
  Al  Al11  1  0.158455  0.340211  0.823003  1
  Al  Al12  1  0.517207  0.340211  0.181757  1
  Al  Al13  1  0.838012  0.660247  0.822235  1
  Al  Al14  1  0.840691  0.016487  0.175797  1
  Al  Al15  1  0.839033  0.660247  0.172475  1
  Al  Al16  1  0.487772  0.660247  0.821213  1
  Al  Al17  1  0.377279  0.122992  0.262753  1
  Al  Al18  1  0.860240  0.122992  0.745714  1
  Al  Al19  1  0.618535  0.877733  0.259198  1
  Al  Al20  1  0.621321  0.361131  0.739810  1
  Al  Al21  1  0.621912  0.876320  0.737916  1
  Al  Al22  1  0.138403  0.876320  0.254408  1
  Pt  Pt23  1  0.000229  0.998929  0.498820  1
  Pt  Pt24  1  0.500110  0.998929  0.998701  1
  Pt  Pt25  1  0.499888  0.501122  0.001233  1
  Rh  Rh26  1  0.498745  0.500174  0.498870  1
  Rh  Rh27  1  0.001304  0.500174  0.001429  1
  Rh  Rh28  1  0.001003  0.000588  0.999585  1
  Rh  Rh29  1  0.497358  0.997499  0.500141  1
