# generated using pymatgen
data_Sc3In3RhAu
_symmetry_space_group_name_H-M   'P 1'
_cell_length_a   7.58653000
_cell_length_b   7.58652975
_cell_length_c   3.35473900
_cell_angle_alpha   90.00000000
_cell_angle_beta   90.00000000
_cell_angle_gamma   119.99999235
_symmetry_Int_Tables_number   1
_chemical_formula_structural   Sc3In3RhAu
_chemical_formula_sum   'Sc3 In3 Rh1 Au1'
_cell_volume   167.21519810
_cell_formula_units_Z   1
loop_
 _symmetry_equiv_pos_site_id
 _symmetry_equiv_pos_as_xyz
  1  'x, y, z'
loop_
 _atom_site_type_symbol
 _atom_site_label
 _atom_site_symmetry_multiplicity
 _atom_site_fract_x
 _atom_site_fract_y
 _atom_site_fract_z
 _atom_site_occupancy
  Sc  Sc0  1  0.592260  0.019381  0.500001  1
  Sc  Sc1  1  0.427121  0.407740  0.500001  1
  Sc  Sc2  1  0.980619  0.572880  0.500001  1
  In  In3  1  0.234974  0.001952  0.000000  1
  In  In4  1  0.998048  0.233021  0.000000  1
  In  In5  1  0.766979  0.765026  0.000000  1
  Rh  Rh6  1  0.666666  0.333333  0.000000  1
  Au  Au7  1  0.333333  0.666666  0.000000  1
