# generated using pymatgen
data_TbHoEr2(Ga3Ir)6
_symmetry_space_group_name_H-M   'P 1'
_cell_length_a   7.58674718
_cell_length_b   7.59050334
_cell_length_c   9.48537700
_cell_angle_alpha   90.00000000
_cell_angle_beta   90.00000000
_cell_angle_gamma   119.96564490
_symmetry_Int_Tables_number   1
_chemical_formula_structural   TbHoEr2(Ga3Ir)6
_chemical_formula_sum   'Tb1 Ho1 Er2 Ga18 Ir6'
_cell_volume   473.21843849
_cell_formula_units_Z   1
loop_
 _symmetry_equiv_pos_site_id
 _symmetry_equiv_pos_as_xyz
  1  'x, y, z'
loop_
 _atom_site_type_symbol
 _atom_site_label
 _atom_site_symmetry_multiplicity
 _atom_site_fract_x
 _atom_site_fract_y
 _atom_site_fract_z
 _atom_site_occupancy
  Tb  Tb0  1  0.002656  0.331746  0.250000  1
  Ho  Ho1  1  0.997128  0.668025  0.750000  1
  Er  Er2  1  0.668093  0.997185  0.750000  1
  Er  Er3  1  0.331709  0.002602  0.250000  1
  Ga  Ga4  1  0.127029  0.127079  0.750000  1
  Ga  Ga5  1  0.872970  0.872578  0.250000  1
  Ga  Ga6  1  0.998806  0.333868  0.581564  1
  Ga  Ga7  1  0.001285  0.666892  0.418995  1
  Ga  Ga8  1  0.001285  0.666892  0.081005  1
  Ga  Ga9  1  0.334326  0.998965  0.919014  1
  Ga  Ga10  1  0.998806  0.333868  0.918436  1
  Ga  Ga11  1  0.664984  0.000422  0.080810  1
  Ga  Ga12  1  0.664984  0.000422  0.419190  1
  Ga  Ga13  1  0.334326  0.998965  0.580986  1
  Ga  Ga14  1  0.332778  0.331961  0.064894  1
  Ga  Ga15  1  0.667772  0.668008  0.935071  1
  Ga  Ga16  1  0.667772  0.668008  0.564929  1
  Ga  Ga17  1  0.332778  0.331961  0.435106  1
  Ga  Ga18  1  0.339959  0.547058  0.750000  1
  Ga  Ga19  1  0.659887  0.452980  0.250000  1
  Ga  Ga20  1  0.546715  0.339516  0.750000  1
  Ga  Ga21  1  0.453717  0.660983  0.250000  1
  Ir  Ir22  1  0.671580  0.328569  0.500189  1
  Ir  Ir23  1  0.328633  0.671923  0.500195  1
  Ir  Ir24  1  0.328633  0.671923  0.999805  1
  Ir  Ir25  1  0.671580  0.328569  0.999811  1
  Ir  Ir26  1  0.999908  0.999514  0.500174  1
  Ir  Ir27  1  0.999908  0.999514  0.999826  1
