# generated using pymatgen
data_Dy2Ni12As6P
_symmetry_space_group_name_H-M   'P 1'
_cell_length_a   9.31424300
_cell_length_b   9.31424407
_cell_length_c   3.82599200
_cell_angle_alpha   90.00000000
_cell_angle_beta   90.00000000
_cell_angle_gamma   119.99999976
_symmetry_Int_Tables_number   1
_chemical_formula_structural   Dy2Ni12As6P
_chemical_formula_sum   'Dy2 Ni12 As6 P1'
_cell_volume   287.45500077
_cell_formula_units_Z   1
loop_
 _symmetry_equiv_pos_site_id
 _symmetry_equiv_pos_as_xyz
  1  'x, y, z'
loop_
 _atom_site_type_symbol
 _atom_site_label
 _atom_site_symmetry_multiplicity
 _atom_site_fract_x
 _atom_site_fract_y
 _atom_site_fract_z
 _atom_site_occupancy
  Dy  Dy0  1  0.666667  0.333333  0.000000  1
  Dy  Dy1  1  0.000000  0.000000  0.500000  1
  Ni  Ni2  1  0.708314  0.090019  0.500000  1
  Ni  Ni3  1  0.909981  0.618294  0.500000  1
  Ni  Ni4  1  0.381706  0.291686  0.500000  1
  Ni  Ni5  1  0.770740  0.722157  0.000000  1
  Ni  Ni6  1  0.277843  0.048582  0.000000  1
  Ni  Ni7  1  0.951418  0.229260  0.000000  1
  Ni  Ni8  1  0.525201  0.754458  0.500000  1
  Ni  Ni9  1  0.245542  0.770742  0.500000  1
  Ni  Ni10  1  0.229258  0.474799  0.500000  1
  Ni  Ni11  1  0.475375  0.933239  0.000000  1
  Ni  Ni12  1  0.066761  0.542136  0.000000  1
  Ni  Ni13  1  0.457864  0.524625  0.000000  1
  As  As14  1  0.440848  0.071365  0.500000  1
  As  As15  1  0.928635  0.369482  0.500000  1
  As  As16  1  0.630518  0.559152  0.500000  1
  As  As17  1  0.735289  0.952646  0.000000  1
  As  As18  1  0.047354  0.782644  0.000000  1
  As  As19  1  0.217356  0.264711  0.000000  1
  P  P20  1  0.333333  0.666667  0.000000  1
