# generated using pymatgen
data_Y20Cd6ReIr
_symmetry_space_group_name_H-M   'P 1'
_cell_length_a   9.62070850
_cell_length_b   9.65852052
_cell_length_c   9.92613900
_cell_angle_alpha   90.00000000
_cell_angle_beta   90.00000000
_cell_angle_gamma   119.73773793
_symmetry_Int_Tables_number   1
_chemical_formula_structural   Y20Cd6ReIr
_chemical_formula_sum   'Y20 Cd6 Re1 Ir1'
_cell_volume   800.88528269
_cell_formula_units_Z   1
loop_
 _symmetry_equiv_pos_site_id
 _symmetry_equiv_pos_as_xyz
  1  'x, y, z'
loop_
 _atom_site_type_symbol
 _atom_site_label
 _atom_site_symmetry_multiplicity
 _atom_site_fract_x
 _atom_site_fract_y
 _atom_site_fract_z
 _atom_site_occupancy
  Y  Y0  1  0.999999  0.999886  0.499869  1
  Y  Y1  1  0.999999  0.999886  0.000131  1
  Y  Y2  1  0.209143  0.790659  0.440846  1
  Y  Y3  1  0.209392  0.418662  0.440796  1
  Y  Y4  1  0.581223  0.790452  0.440767  1
  Y  Y5  1  0.790569  0.209427  0.559308  1
  Y  Y6  1  0.790666  0.581313  0.559396  1
  Y  Y7  1  0.418870  0.209425  0.559336  1
  Y  Y8  1  0.790569  0.209427  0.940692  1
  Y  Y9  1  0.790666  0.581313  0.940604  1
  Y  Y10  1  0.418870  0.209425  0.940664  1
  Y  Y11  1  0.209143  0.790659  0.059154  1
  Y  Y12  1  0.209392  0.418662  0.059204  1
  Y  Y13  1  0.581223  0.790452  0.059233  1
  Y  Y14  1  0.538936  0.461059  0.250000  1
  Y  Y15  1  0.538847  0.077648  0.250000  1
  Y  Y16  1  0.922553  0.461272  0.250000  1
  Y  Y17  1  0.458990  0.541360  0.750000  1
  Y  Y18  1  0.458643  0.917436  0.750000  1
  Y  Y19  1  0.082497  0.541502  0.750000  1
  Cd  Cd20  1  0.885666  0.114880  0.250000  1
  Cd  Cd21  1  0.885163  0.770626  0.250000  1
  Cd  Cd22  1  0.229299  0.115073  0.250000  1
  Cd  Cd23  1  0.113828  0.885647  0.750000  1
  Cd  Cd24  1  0.114334  0.228338  0.750000  1
  Cd  Cd25  1  0.771817  0.885487  0.750000  1
  Re  Re26  1  0.332924  0.666358  0.250000  1
  Ir  Ir27  1  0.666778  0.333666  0.750000  1
