# generated using pymatgen
data_Pa3Sb4Rh3
_symmetry_space_group_name_H-M   'P 1'
_cell_length_a   8.35324771
_cell_length_b   8.35336637
_cell_length_c   8.35302100
_cell_angle_alpha   109.47042485
_cell_angle_beta   109.47088729
_cell_angle_gamma   109.47423931
_symmetry_Int_Tables_number   1
_chemical_formula_structural   Pa3Sb4Rh3
_chemical_formula_sum   'Pa6 Sb8 Rh6'
_cell_volume   448.67145924
_cell_formula_units_Z   2
loop_
 _symmetry_equiv_pos_site_id
 _symmetry_equiv_pos_as_xyz
  1  'x, y, z'
loop_
 _atom_site_type_symbol
 _atom_site_label
 _atom_site_symmetry_multiplicity
 _atom_site_fract_x
 _atom_site_fract_y
 _atom_site_fract_z
 _atom_site_occupancy
  Pa  Pa0  1  0.375027  0.250018  0.625010  1
  Pa  Pa1  1  0.124971  0.750006  0.874978  1
  Pa  Pa2  1  0.624995  0.374999  0.249973  1
  Pa  Pa3  1  0.874977  0.124979  0.749949  1
  Pa  Pa4  1  0.250020  0.625027  0.375029  1
  Pa  Pa5  1  0.750008  0.875016  0.125031  1
  Sb  Sb6  1  0.500003  0.000004  0.826628  1
  Sb  Sb7  1  0.826628  0.499992  0.999988  1
  Sb  Sb8  1  0.000002  0.826642  0.500015  1
  Sb  Sb9  1  0.673377  0.673371  0.673376  1
  Sb  Sb10  1  0.326617  0.499993  0.999990  1
  Sb  Sb11  1  0.500017  0.000005  0.326651  1
  Sb  Sb12  1  0.999995  0.326620  0.500002  1
  Sb  Sb13  1  0.173365  0.173363  0.173383  1
  Rh  Rh14  1  0.875012  0.249980  0.125016  1
  Rh  Rh15  1  0.624966  0.749981  0.374971  1
  Rh  Rh16  1  0.124991  0.874978  0.249978  1
  Rh  Rh17  1  0.375014  0.625013  0.750009  1
  Rh  Rh18  1  0.249987  0.124978  0.874984  1
  Rh  Rh19  1  0.750029  0.375037  0.625041  1
