# generated using pymatgen
data_Ho6Sn6Pd5Pt
_symmetry_space_group_name_H-M   'P 1'
_cell_length_a   7.67721600
_cell_length_b   7.67721679
_cell_length_c   7.68663300
_cell_angle_alpha   90.00000000
_cell_angle_beta   90.00000000
_cell_angle_gamma   119.99999659
_symmetry_Int_Tables_number   1
_chemical_formula_structural   Ho6Sn6Pd5Pt
_chemical_formula_sum   'Ho6 Sn6 Pd5 Pt1'
_cell_volume   392.35063238
_cell_formula_units_Z   1
loop_
 _symmetry_equiv_pos_site_id
 _symmetry_equiv_pos_as_xyz
  1  'x, y, z'
loop_
 _atom_site_type_symbol
 _atom_site_label
 _atom_site_symmetry_multiplicity
 _atom_site_fract_x
 _atom_site_fract_y
 _atom_site_fract_z
 _atom_site_occupancy
  Ho  Ho0  1  0.402253  0.000689  0.249153  1
  Ho  Ho1  1  0.598437  0.597747  0.249153  1
  Ho  Ho2  1  0.999311  0.401563  0.249153  1
  Ho  Ho3  1  0.398363  0.993788  0.750891  1
  Ho  Ho4  1  0.595424  0.601637  0.750891  1
  Ho  Ho5  1  0.006212  0.404576  0.750891  1
  Sn  Sn6  1  0.738750  0.003438  0.000081  1
  Sn  Sn7  1  0.263979  0.261817  0.500017  1
  Sn  Sn8  1  0.997837  0.736021  0.500017  1
  Sn  Sn9  1  0.996562  0.735312  0.000081  1
  Sn  Sn10  1  0.264688  0.261250  0.000081  1
  Sn  Sn11  1  0.738183  0.002163  0.500017  1
  Pd  Pd12  1  0.333333  0.666667  0.494414  1
  Pd  Pd13  1  0.666667  0.333333  0.992129  1
  Pd  Pd14  1  0.666667  0.333333  0.507575  1
  Pd  Pd15  1  0.000000  0.000000  0.249290  1
  Pd  Pd16  1  0.000000  0.000000  0.750722  1
  Pt  Pt17  1  0.333333  0.666667  0.005446  1
