# generated using pymatgen
data_Tb8Mg3Sc9Si15As
_symmetry_space_group_name_H-M   'P 1'
_cell_length_a   7.04006962
_cell_length_b   7.40707070
_cell_length_c   14.05351087
_cell_angle_alpha   90.06182706
_cell_angle_beta   89.22547467
_cell_angle_gamma   90.12063518
_symmetry_Int_Tables_number   1
_chemical_formula_structural   Tb8Mg3Sc9Si15As
_chemical_formula_sum   'Tb8 Mg3 Sc9 Si15 As1'
_cell_volume   732.76951526
_cell_formula_units_Z   1
loop_
 _symmetry_equiv_pos_site_id
 _symmetry_equiv_pos_as_xyz
  1  'x, y, z'
loop_
 _atom_site_type_symbol
 _atom_site_label
 _atom_site_symmetry_multiplicity
 _atom_site_fract_x
 _atom_site_fract_y
 _atom_site_fract_z
 _atom_site_occupancy
  Tb  Tb0  1  0.012631  0.177619  0.098460  1
  Tb  Tb1  1  0.991140  0.822235  0.902723  1
  Tb  Tb2  1  0.489052  0.673919  0.902920  1
  Tb  Tb3  1  0.994308  0.817951  0.595586  1
  Tb  Tb4  1  0.511870  0.322496  0.098415  1
  Tb  Tb5  1  0.007216  0.179983  0.402519  1
  Tb  Tb6  1  0.507984  0.320462  0.400867  1
  Tb  Tb7  1  0.495084  0.674493  0.597620  1
  Mg  Mg8  1  0.164304  0.504147  0.752858  1
  Mg  Mg9  1  0.836518  0.498318  0.251523  1
  Mg  Mg10  1  0.337480  0.002763  0.250939  1
  Sc  Sc11  1  0.663418  0.998375  0.749312  1
  Sc  Sc12  1  0.336614  0.177750  0.626877  1
  Sc  Sc13  1  0.661698  0.823460  0.373961  1
  Sc  Sc14  1  0.158560  0.676219  0.377203  1
  Sc  Sc15  1  0.667714  0.822003  0.124635  1
  Sc  Sc16  1  0.841335  0.327598  0.622497  1
  Sc  Sc17  1  0.329294  0.180723  0.874554  1
  Sc  Sc18  1  0.834694  0.322347  0.874681  1
  Sc  Sc19  1  0.168166  0.680699  0.124541  1
  Si  Si20  1  0.032777  0.103926  0.748952  1
  Si  Si21  1  0.960769  0.891427  0.250191  1
  Si  Si22  1  0.456601  0.612262  0.249834  1
  Si  Si23  1  0.543910  0.380461  0.750624  1
  Si  Si24  1  0.292501  0.881346  0.749916  1
  Si  Si25  1  0.716768  0.119707  0.249419  1
  Si  Si26  1  0.213935  0.382404  0.249792  1
  Si  Si27  1  0.782384  0.626984  0.749705  1
  Si  Si28  1  0.811622  0.543882  0.463857  1
  Si  Si29  1  0.335275  0.962253  0.466143  1
  Si  Si30  1  0.840199  0.537846  0.034924  1
  Si  Si31  1  0.662770  0.036553  0.537636  1
  Si  Si32  1  0.158123  0.462433  0.965493  1
  Si  Si33  1  0.656370  0.034773  0.961036  1
  Si  Si34  1  0.341985  0.964788  0.035172  1
  As  As35  1  0.184931  0.455395  0.534616  1
