# generated using pymatgen
data_Y2Tm4Al24Os7Au
_symmetry_space_group_name_H-M   'P 1'
_cell_length_a   8.85191552
_cell_length_b   8.84255033
_cell_length_c   9.54367426
_cell_angle_alpha   89.76546031
_cell_angle_beta   90.18674512
_cell_angle_gamma   120.00180244
_symmetry_Int_Tables_number   1
_chemical_formula_structural   Y2Tm4Al24Os7Au
_chemical_formula_sum   'Y2 Tm4 Al24 Os7 Au1'
_cell_volume   646.91778113
_cell_formula_units_Z   1
loop_
 _symmetry_equiv_pos_site_id
 _symmetry_equiv_pos_as_xyz
  1  'x, y, z'
loop_
 _atom_site_type_symbol
 _atom_site_label
 _atom_site_symmetry_multiplicity
 _atom_site_fract_x
 _atom_site_fract_y
 _atom_site_fract_z
 _atom_site_occupancy
  Y  Y0  1  0.190600  0.385566  0.250647  1
  Y  Y1  1  0.809400  0.614434  0.749353  1
  Tm  Tm2  1  0.611575  0.809200  0.251913  1
  Tm  Tm3  1  0.388425  0.190800  0.748087  1
  Tm  Tm4  1  0.195842  0.804288  0.254478  1
  Tm  Tm5  1  0.804158  0.195712  0.745522  1
  Al  Al6  1  0.328709  0.671782  0.023964  1
  Al  Al7  1  0.671291  0.328218  0.976036  1
  Al  Al8  1  0.666070  0.333745  0.518878  1
  Al  Al9  1  0.333930  0.666255  0.481122  1
  Al  Al10  1  0.163013  0.325789  0.576149  1
  Al  Al11  1  0.836987  0.674211  0.423851  1
  Al  Al12  1  0.674075  0.837382  0.575295  1
  Al  Al13  1  0.848491  0.677609  0.080375  1
  Al  Al14  1  0.325925  0.162618  0.424705  1
  Al  Al15  1  0.151509  0.322391  0.919625  1
  Al  Al16  1  0.163628  0.837161  0.575363  1
  Al  Al17  1  0.322431  0.151140  0.079422  1
  Al  Al18  1  0.836372  0.162839  0.424637  1
  Al  Al19  1  0.677569  0.848860  0.920578  1
  Al  Al20  1  0.836104  0.162853  0.075386  1
  Al  Al21  1  0.163896  0.837147  0.924614  1
  Al  Al22  1  0.560582  0.120861  0.249193  1
  Al  Al23  1  0.439418  0.879139  0.750807  1
  Al  Al24  1  0.878274  0.439537  0.249293  1
  Al  Al25  1  0.121726  0.560463  0.750707  1
  Al  Al26  1  0.564317  0.437055  0.255709  1
  Al  Al27  1  0.435683  0.562945  0.744291  1
  Al  Al28  1  0.998344  0.997905  0.250354  1
  Al  Al29  1  0.001656  0.002095  0.749646  1
  Os  Os30  1  0.500000  0.000000  0.000000  1
  Os  Os31  1  0.000000  0.500000  0.000000  1
  Os  Os32  1  0.500000  0.000000  0.500000  1
  Os  Os33  1  0.000000  0.500000  0.500000  1
  Os  Os34  1  0.500000  0.500000  0.500000  1
  Os  Os35  1  0.000000  0.000000  0.000000  1
  Os  Os36  1  0.000000  0.000000  0.500000  1
  Au  Au37  1  0.500000  0.500000  0.000000  1
