# generated using pymatgen
data_PaNb3F20
_symmetry_space_group_name_H-M   'P 1'
_cell_length_a   9.14818182
_cell_length_b   9.14818197
_cell_length_c   5.40075692
_cell_angle_alpha   86.66099170
_cell_angle_beta   86.66099291
_cell_angle_gamma   112.47978404
_symmetry_Int_Tables_number   1
_chemical_formula_structural   PaNb3F20
_chemical_formula_sum   'Pa1 Nb3 F20'
_cell_volume   415.34070004
_cell_formula_units_Z   1
loop_
 _symmetry_equiv_pos_site_id
 _symmetry_equiv_pos_as_xyz
  1  'x, y, z'
loop_
 _atom_site_type_symbol
 _atom_site_label
 _atom_site_symmetry_multiplicity
 _atom_site_fract_x
 _atom_site_fract_y
 _atom_site_fract_z
 _atom_site_occupancy
  Pa  Pa0  1  0.743743  0.743743  0.749969  1
  Nb  Nb1  1  0.251653  0.251653  0.245901  1
  Nb  Nb2  1  0.210084  0.806748  0.006415  1
  Nb  Nb3  1  0.806748  0.210084  0.006415  1
  F  F4  1  0.407082  0.842406  0.126527  1
  F  F5  1  0.174888  0.609402  0.888217  1
  F  F6  1  0.609402  0.174888  0.888217  1
  F  F7  1  0.842406  0.407082  0.126527  1
  F  F8  1  0.124647  0.124647  0.527999  1
  F  F9  1  0.852937  0.852937  0.409225  1
  F  F10  1  0.318634  0.318634  0.904771  1
  F  F11  1  0.639091  0.639091  0.095957  1
  F  F12  1  0.266029  0.448488  0.343230  1
  F  F13  1  0.525483  0.727835  0.648130  1
  F  F14  1  0.727835  0.525483  0.648130  1
  F  F15  1  0.448488  0.266029  0.343230  1
  F  F16  1  0.026009  0.218429  0.121323  1
  F  F17  1  0.787096  0.988268  0.886193  1
  F  F18  1  0.988268  0.787096  0.886193  1
  F  F19  1  0.218429  0.026009  0.121323  1
  F  F20  1  0.928048  0.289826  0.696686  1
  F  F21  1  0.724687  0.088490  0.316369  1
  F  F22  1  0.088490  0.724687  0.316369  1
  F  F23  1  0.289826  0.928048  0.696686  1
