# generated using pymatgen
data_Dy4Ho8Ir3Os
_symmetry_space_group_name_H-M   'P 1'
_cell_length_a   6.39515212
_cell_length_b   7.27406600
_cell_length_c   9.08377100
_cell_angle_alpha   90.00000000
_cell_angle_beta   90.00000000
_cell_angle_gamma   90.00927528
_symmetry_Int_Tables_number   1
_chemical_formula_structural   Dy4Ho8Ir3Os
_chemical_formula_sum   'Dy4 Ho8 Ir3 Os1'
_cell_volume   422.56574504
_cell_formula_units_Z   1
loop_
 _symmetry_equiv_pos_site_id
 _symmetry_equiv_pos_as_xyz
  1  'x, y, z'
loop_
 _atom_site_type_symbol
 _atom_site_label
 _atom_site_symmetry_multiplicity
 _atom_site_fract_x
 _atom_site_fract_y
 _atom_site_fract_z
 _atom_site_occupancy
  Dy  Dy0  1  0.870836  0.534974  0.250000  1
  Dy  Dy1  1  0.627977  0.035537  0.250000  1
  Dy  Dy2  1  0.131156  0.464689  0.750000  1
  Dy  Dy3  1  0.371632  0.963626  0.750000  1
  Ho  Ho4  1  0.326073  0.678237  0.064560  1
  Ho  Ho5  1  0.171584  0.174871  0.435907  1
  Ho  Ho6  1  0.671719  0.323171  0.563127  1
  Ho  Ho7  1  0.831040  0.823834  0.939373  1
  Ho  Ho8  1  0.671719  0.323171  0.936873  1
  Ho  Ho9  1  0.831040  0.823834  0.560627  1
  Ho  Ho10  1  0.326073  0.678237  0.435440  1
  Ho  Ho11  1  0.171584  0.174871  0.064093  1
  Ir  Ir12  1  0.455970  0.384878  0.250000  1
  Ir  Ir13  1  0.957147  0.115939  0.750000  1
  Ir  Ir14  1  0.546013  0.615384  0.750000  1
  Os  Os15  1  0.038438  0.884746  0.250000  1
