# generated using pymatgen
data_Nd3Y7(In2Ir)4
_symmetry_space_group_name_H-M   'P 1'
_cell_length_a   3.71575800
_cell_length_b   8.08037755
_cell_length_c   18.44557971
_cell_angle_alpha   89.79052965
_cell_angle_beta   90.00000000
_cell_angle_gamma   90.00000000
_symmetry_Int_Tables_number   1
_chemical_formula_structural   Nd3Y7(In2Ir)4
_chemical_formula_sum   'Nd3 Y7 In8 Ir4'
_cell_volume   553.81980347
_cell_formula_units_Z   1
loop_
 _symmetry_equiv_pos_site_id
 _symmetry_equiv_pos_as_xyz
  1  'x, y, z'
loop_
 _atom_site_type_symbol
 _atom_site_label
 _atom_site_symmetry_multiplicity
 _atom_site_fract_x
 _atom_site_fract_y
 _atom_site_fract_z
 _atom_site_occupancy
  Nd  Nd0  1  0.500000  0.242629  0.778888  1
  Nd  Nd1  1  0.500000  0.000859  0.999932  1
  Nd  Nd2  1  0.500000  0.499787  0.499534  1
  Y  Y3  1  0.500000  0.756900  0.221557  1
  Y  Y4  1  0.500000  0.256691  0.278254  1
  Y  Y5  1  0.500000  0.741188  0.721414  1
  Y  Y6  1  0.500000  0.114975  0.589544  1
  Y  Y7  1  0.500000  0.883321  0.409489  1
  Y  Y8  1  0.500000  0.384180  0.090690  1
  Y  Y9  1  0.500000  0.617938  0.911353  1
  In  In10  1  0.000000  0.072215  0.151689  1
  In  In11  1  0.000000  0.921479  0.848426  1
  In  In12  1  0.000000  0.431459  0.650301  1
  In  In13  1  0.000000  0.572080  0.348116  1
  In  In14  1  0.000000  0.203847  0.430616  1
  In  In15  1  0.000000  0.795300  0.568158  1
  In  In16  1  0.000000  0.299629  0.933024  1
  In  In17  1  0.000000  0.704236  0.069490  1
  Ir  Ir18  1  0.000000  0.011699  0.694461  1
  Ir  Ir19  1  0.000000  0.983058  0.304255  1
  Ir  Ir20  1  0.000000  0.483062  0.195911  1
  Ir  Ir21  1  0.000000  0.523467  0.804900  1
