# generated using pymatgen
data_Y5Ir2Rh
_symmetry_space_group_name_H-M   'P 1'
_cell_length_a   10.92055100
_cell_length_b   10.92055100
_cell_length_c   6.40730000
_cell_angle_alpha   90.00000000
_cell_angle_beta   90.00000000
_cell_angle_gamma   90.00000000
_symmetry_Int_Tables_number   1
_chemical_formula_structural   Y5Ir2Rh
_chemical_formula_sum   'Y20 Ir8 Rh4'
_cell_volume   764.12456509
_cell_formula_units_Z   4
loop_
 _symmetry_equiv_pos_site_id
 _symmetry_equiv_pos_as_xyz
  1  'x, y, z'
loop_
 _atom_site_type_symbol
 _atom_site_label
 _atom_site_symmetry_multiplicity
 _atom_site_fract_x
 _atom_site_fract_y
 _atom_site_fract_z
 _atom_site_occupancy
  Y  Y0  1  0.290432  0.088969  0.379206  1
  Y  Y1  1  0.290432  0.911031  0.879206  1
  Y  Y2  1  0.709568  0.088969  0.879206  1
  Y  Y3  1  0.709568  0.911031  0.379206  1
  Y  Y4  1  0.588969  0.790432  0.879206  1
  Y  Y5  1  0.588969  0.209568  0.379206  1
  Y  Y6  1  0.411031  0.790432  0.379206  1
  Y  Y7  1  0.411031  0.209568  0.879206  1
  Y  Y8  1  0.209568  0.411031  0.620794  1
  Y  Y9  1  0.209568  0.588969  0.120794  1
  Y  Y10  1  0.790432  0.411031  0.120794  1
  Y  Y11  1  0.790432  0.588969  0.620794  1
  Y  Y12  1  0.911031  0.709568  0.120794  1
  Y  Y13  1  0.911031  0.290432  0.620794  1
  Y  Y14  1  0.088969  0.709568  0.620794  1
  Y  Y15  1  0.088969  0.290432  0.120794  1
  Y  Y16  1  0.000000  0.000000  0.500000  1
  Y  Y17  1  0.000000  0.000000  0.000000  1
  Y  Y18  1  0.500000  0.500000  0.000000  1
  Y  Y19  1  0.500000  0.500000  0.500000  1
  Ir  Ir20  1  0.845888  0.154112  0.250000  1
  Ir  Ir21  1  0.845888  0.845888  0.750000  1
  Ir  Ir22  1  0.154112  0.154112  0.750000  1
  Ir  Ir23  1  0.154112  0.845888  0.250000  1
  Ir  Ir24  1  0.654112  0.345888  0.750000  1
  Ir  Ir25  1  0.654112  0.654112  0.250000  1
  Ir  Ir26  1  0.345888  0.345888  0.250000  1
  Ir  Ir27  1  0.345888  0.654112  0.750000  1
  Rh  Rh28  1  0.500000  0.000000  0.124192  1
  Rh  Rh29  1  0.500000  0.000000  0.624192  1
  Rh  Rh30  1  0.000000  0.500000  0.875808  1
  Rh  Rh31  1  0.000000  0.500000  0.375808  1
