# generated using pymatgen
data_Pr3Y(WN3)4
_symmetry_space_group_name_H-M   'P 1'
_cell_length_a   7.39451571
_cell_length_b   7.39451550
_cell_length_c   6.34029863
_cell_angle_alpha   75.59067987
_cell_angle_beta   75.59067509
_cell_angle_gamma   83.81850183
_symmetry_Int_Tables_number   1
_chemical_formula_structural   Pr3Y(WN3)4
_chemical_formula_sum   'Pr3 Y1 W4 N12'
_cell_volume   324.82505861
_cell_formula_units_Z   1
loop_
 _symmetry_equiv_pos_site_id
 _symmetry_equiv_pos_as_xyz
  1  'x, y, z'
loop_
 _atom_site_type_symbol
 _atom_site_label
 _atom_site_symmetry_multiplicity
 _atom_site_fract_x
 _atom_site_fract_y
 _atom_site_fract_z
 _atom_site_occupancy
  Pr  Pr0  1  0.696673  0.303327  0.750000  1
  Pr  Pr1  1  0.089162  0.910838  0.750000  1
  Pr  Pr2  1  0.304507  0.695493  0.250000  1
  Y  Y3  1  0.907743  0.092257  0.250000  1
  W  W4  1  0.380161  0.200621  0.243723  1
  W  W5  1  0.621757  0.799163  0.750926  1
  W  W6  1  0.799379  0.619839  0.256277  1
  W  W7  1  0.200837  0.378243  0.749074  1
  N  N8  1  0.618301  0.113315  0.160354  1
  N  N9  1  0.359619  0.337061  0.475898  1
  N  N10  1  0.000878  0.221433  0.859325  1
  N  N11  1  0.386425  0.885765  0.846861  1
  N  N12  1  0.778567  0.999122  0.640675  1
  N  N13  1  0.114235  0.613575  0.653139  1
  N  N14  1  0.886685  0.381699  0.339646  1
  N  N15  1  0.633002  0.652214  0.530072  1
  N  N16  1  0.662939  0.640381  0.024102  1
  N  N17  1  0.347786  0.366998  0.969928  1
  N  N18  1  0.993935  0.782592  0.159836  1
  N  N19  1  0.217408  0.006065  0.340164  1
