# generated using pymatgen
data_Er4Sc2AlGaPt4
_symmetry_space_group_name_H-M   'P 1'
_cell_length_a   4.36427800
_cell_length_b   7.12085618
_cell_length_c   8.07874910
_cell_angle_alpha   90.44803431
_cell_angle_beta   90.00000000
_cell_angle_gamma   90.00000000
_symmetry_Int_Tables_number   1
_chemical_formula_structural   Er4Sc2AlGaPt4
_chemical_formula_sum   'Er4 Sc2 Al1 Ga1 Pt4'
_cell_volume   251.05880885
_cell_formula_units_Z   1
loop_
 _symmetry_equiv_pos_site_id
 _symmetry_equiv_pos_as_xyz
  1  'x, y, z'
loop_
 _atom_site_type_symbol
 _atom_site_label
 _atom_site_symmetry_multiplicity
 _atom_site_fract_x
 _atom_site_fract_y
 _atom_site_fract_z
 _atom_site_occupancy
  Er  Er0  1  0.250000  0.984098  0.327874  1
  Er  Er1  1  0.250000  0.446093  0.174342  1
  Er  Er2  1  0.750000  0.052578  0.678849  1
  Er  Er3  1  0.750000  0.514705  0.828035  1
  Sc  Sc4  1  0.250000  0.870987  0.938238  1
  Sc  Sc5  1  0.750000  0.631156  0.437008  1
  Al  Al6  1  0.250000  0.363155  0.563187  1
  Ga  Ga7  1  0.750000  0.137157  0.065873  1
  Pt  Pt8  1  0.250000  0.244781  0.870826  1
  Pt  Pt9  1  0.250000  0.740440  0.616195  1
  Pt  Pt10  1  0.750000  0.755349  0.117017  1
  Pt  Pt11  1  0.750000  0.259502  0.382556  1
