# generated using pymatgen
data_DyTh(BRu)8
_symmetry_space_group_name_H-M   'P 1'
_cell_length_a   9.25604304
_cell_length_b   7.52562924
_cell_length_c   7.52562900
_cell_angle_alpha   90.00000000
_cell_angle_beta   113.98674109
_cell_angle_gamma   113.98673377
_symmetry_Int_Tables_number   1
_chemical_formula_structural   DyTh(BRu)8
_chemical_formula_sum   'Dy2 Th2 B16 Ru16'
_cell_volume   428.92171336
_cell_formula_units_Z   2
loop_
 _symmetry_equiv_pos_site_id
 _symmetry_equiv_pos_as_xyz
  1  'x, y, z'
loop_
 _atom_site_type_symbol
 _atom_site_label
 _atom_site_symmetry_multiplicity
 _atom_site_fract_x
 _atom_site_fract_y
 _atom_site_fract_z
 _atom_site_occupancy
  Dy  Dy0  1  0.750000  0.375000  0.625000  1
  Dy  Dy1  1  0.249999  0.125000  0.875000  1
  Th  Th2  1  0.750000  0.875000  0.125000  1
  Th  Th3  1  0.249999  0.625000  0.375000  1
  B  B4  1  0.913747  0.289521  0.065119  1
  B  B5  1  0.413747  0.565120  0.124227  1
  B  B6  1  0.086253  0.210480  0.151371  1
  B  B7  1  0.585382  0.150387  0.210622  1
  B  B8  1  0.414618  0.065004  0.289379  1
  B  B9  1  0.913747  0.624227  0.348629  1
  B  B10  1  0.586253  0.651372  0.375774  1
  B  B11  1  0.086253  0.875774  0.434881  1
  B  B12  1  0.914618  0.125239  0.565005  1
  B  B13  1  0.414618  0.349613  0.625240  1
  B  B14  1  0.085382  0.374761  0.650388  1
  B  B15  1  0.586253  0.934880  0.710480  1
  B  B16  1  0.413747  0.848628  0.789521  1
  B  B17  1  0.914618  0.789379  0.849613  1
  B  B18  1  0.585382  0.434996  0.874761  1
  B  B19  1  0.085382  0.710621  0.934995  1
  Ru  Ru20  1  0.871667  0.549956  0.037666  1
  Ru  Ru21  1  0.371666  0.834001  0.049956  1
  Ru  Ru22  1  0.128334  0.950045  0.165999  1
  Ru  Ru23  1  0.625821  0.459959  0.178205  1
  Ru  Ru24  1  0.374179  0.334138  0.321795  1
  Ru  Ru25  1  0.871667  0.321710  0.334001  1
  Ru  Ru26  1  0.628334  0.962334  0.450044  1
  Ru  Ru27  1  0.128334  0.178290  0.462334  1
  Ru  Ru28  1  0.874180  0.821796  0.540040  1
  Ru  Ru29  1  0.374179  0.040041  0.552383  1
  Ru  Ru30  1  0.125821  0.678204  0.665861  1
  Ru  Ru31  1  0.628334  0.665999  0.678289  1
  Ru  Ru32  1  0.371666  0.537665  0.821711  1
  Ru  Ru33  1  0.874180  0.052384  0.834139  1
  Ru  Ru34  1  0.625821  0.165862  0.947617  1
  Ru  Ru35  1  0.125821  0.447616  0.959960  1
