# generated using pymatgen
data_Ac7Y(InSi2)4
_symmetry_space_group_name_H-M   'P 1'
_cell_length_a   4.52038300
_cell_length_b   7.99015356
_cell_length_c   15.25302009
_cell_angle_alpha   90.78773590
_cell_angle_beta   90.00000000
_cell_angle_gamma   90.00000000
_symmetry_Int_Tables_number   1
_chemical_formula_structural   Ac7Y(InSi2)4
_chemical_formula_sum   'Ac7 Y1 In4 Si8'
_cell_volume   550.86496717
_cell_formula_units_Z   1
loop_
 _symmetry_equiv_pos_site_id
 _symmetry_equiv_pos_as_xyz
  1  'x, y, z'
loop_
 _atom_site_type_symbol
 _atom_site_label
 _atom_site_symmetry_multiplicity
 _atom_site_fract_x
 _atom_site_fract_y
 _atom_site_fract_z
 _atom_site_occupancy
  Ac  Ac0  1  0.500000  0.743445  0.031940  1
  Ac  Ac1  1  0.500000  0.242623  0.960216  1
  Ac  Ac2  1  0.500000  0.254688  0.469156  1
  Ac  Ac3  1  0.500000  0.756422  0.538486  1
  Ac  Ac4  1  0.500000  0.618324  0.283944  1
  Ac  Ac5  1  0.500000  0.385835  0.720750  1
  Ac  Ac6  1  0.500000  0.118090  0.214187  1
  Y  Y7  1  0.500000  0.886060  0.783969  1
  In  In8  1  0.000000  0.938909  0.374963  1
  In  In9  1  0.000000  0.047948  0.633771  1
  In  In10  1  0.000000  0.438843  0.124419  1
  In  In11  1  0.000000  0.580199  0.870891  1
  Si  Si12  1  0.000000  0.553226  0.427540  1
  Si  Si13  1  0.000000  0.465890  0.580354  1
  Si  Si14  1  0.000000  0.040526  0.068390  1
  Si  Si15  1  0.000000  0.931273  0.916108  1
  Si  Si16  1  0.000000  0.829507  0.181364  1
  Si  Si17  1  0.000000  0.146805  0.809964  1
  Si  Si18  1  0.000000  0.330068  0.318775  1
  Si  Si19  1  0.000000  0.691320  0.690813  1
