# generated using pymatgen
data_Tb5Pu2O12
_symmetry_space_group_name_H-M   'P 1'
_cell_length_a   6.57114700
_cell_length_b   6.67273944
_cell_length_c   6.56337695
_cell_angle_alpha   100.11551414
_cell_angle_beta   98.66417984
_cell_angle_gamma   99.26862323
_symmetry_Int_Tables_number   1
_chemical_formula_structural   Tb5Pu2O12
_chemical_formula_sum   'Tb5 Pu2 O12'
_cell_volume   274.83310316
_cell_formula_units_Z   1
loop_
 _symmetry_equiv_pos_site_id
 _symmetry_equiv_pos_as_xyz
  1  'x, y, z'
loop_
 _atom_site_type_symbol
 _atom_site_label
 _atom_site_symmetry_multiplicity
 _atom_site_fract_x
 _atom_site_fract_y
 _atom_site_fract_z
 _atom_site_occupancy
  Tb  Tb0  1  0.858758  0.692275  0.393469  1
  Tb  Tb1  1  0.391509  0.857242  0.688110  1
  Tb  Tb2  1  0.305763  0.610870  0.141258  1
  Tb  Tb3  1  0.146357  0.313318  0.608091  1
  Tb  Tb4  1  0.606966  0.133979  0.309574  1
  Pu  Pu5  1  0.696528  0.401750  0.862212  1
  Pu  Pu6  1  0.999255  0.002768  0.999096  1
  O  O7  1  0.437937  0.178016  0.597332  1
  O  O8  1  0.588452  0.421788  0.164218  1
  O  O9  1  0.175201  0.581078  0.433990  1
  O  O10  1  0.565209  0.819163  0.408100  1
  O  O11  1  0.427517  0.569237  0.822312  1
  O  O12  1  0.812357  0.419976  0.576126  1
  O  O13  1  0.065103  0.320469  0.938379  1
  O  O14  1  0.689523  0.049868  0.927016  1
  O  O15  1  0.052186  0.925528  0.685928  1
  O  O16  1  0.924287  0.681330  0.056509  1
  O  O17  1  0.310334  0.944922  0.072749  1
  O  O18  1  0.946759  0.076423  0.315533  1
