# generated using pymatgen
data_Dy4Er4Re(B8Os)3
_symmetry_space_group_name_H-M   'P 1'
_cell_length_a   3.64978100
_cell_length_b   9.12272865
_cell_length_c   11.50880500
_cell_angle_alpha   90.08304189
_cell_angle_beta   90.00000000
_cell_angle_gamma   90.00000000
_symmetry_Int_Tables_number   1
_chemical_formula_structural   Dy4Er4Re(B8Os)3
_chemical_formula_sum   'Dy4 Er4 Re1 B24 Os3'
_cell_volume   383.19632814
_cell_formula_units_Z   1
loop_
 _symmetry_equiv_pos_site_id
 _symmetry_equiv_pos_as_xyz
  1  'x, y, z'
loop_
 _atom_site_type_symbol
 _atom_site_label
 _atom_site_symmetry_multiplicity
 _atom_site_fract_x
 _atom_site_fract_y
 _atom_site_fract_z
 _atom_site_occupancy
  Dy  Dy0  1  0.000000  0.322178  0.414853  1
  Dy  Dy1  1  0.000000  0.680177  0.588050  1
  Dy  Dy2  1  0.000000  0.822401  0.083757  1
  Dy  Dy3  1  0.000000  0.176613  0.913200  1
  Er  Er4  1  0.000000  0.943413  0.371950  1
  Er  Er5  1  0.000000  0.055805  0.627696  1
  Er  Er6  1  0.000000  0.443046  0.127754  1
  Er  Er7  1  0.000000  0.556439  0.872787  1
  Re  Re8  1  0.000000  0.862231  0.821140  1
  B  B9  1  0.500000  0.553989  0.433086  1
  B  B10  1  0.500000  0.446101  0.567172  1
  B  B11  1  0.500000  0.053840  0.067430  1
  B  B12  1  0.500000  0.946955  0.933046  1
  B  B13  1  0.500000  0.748777  0.419329  1
  B  B14  1  0.500000  0.251299  0.580555  1
  B  B15  1  0.500000  0.248559  0.080823  1
  B  B16  1  0.500000  0.751093  0.919194  1
  B  B17  1  0.500000  0.790639  0.266090  1
  B  B18  1  0.500000  0.208975  0.733187  1
  B  B19  1  0.500000  0.291072  0.233926  1
  B  B20  1  0.500000  0.708330  0.766081  1
  B  B21  1  0.500000  0.630843  0.185354  1
  B  B22  1  0.500000  0.368773  0.814245  1
  B  B23  1  0.500000  0.131423  0.314770  1
  B  B24  1  0.500000  0.868917  0.685533  1
  B  B25  1  0.500000  0.983247  0.212856  1
  B  B26  1  0.500000  0.017819  0.787083  1
  B  B27  1  0.500000  0.482991  0.287581  1
  B  B28  1  0.500000  0.516959  0.712865  1
  B  B29  1  0.500000  0.604768  0.029669  1
  B  B30  1  0.500000  0.393768  0.970956  1
  B  B31  1  0.500000  0.106077  0.470320  1
  B  B32  1  0.500000  0.894430  0.528688  1
  Os  Os33  1  0.000000  0.637580  0.321208  1
  Os  Os34  1  0.000000  0.362406  0.678306  1
  Os  Os35  1  0.000000  0.138066  0.179456  1
