# generated using pymatgen
data_Zr24GaGe2Se5
_symmetry_space_group_name_H-M   'P 1'
_cell_length_a   11.04291398
_cell_length_b   11.05571497
_cell_length_c   5.49681829
_cell_angle_alpha   89.90584312
_cell_angle_beta   89.73755010
_cell_angle_gamma   90.00720148
_symmetry_Int_Tables_number   1
_chemical_formula_structural   Zr24GaGe2Se5
_chemical_formula_sum   'Zr24 Ga1 Ge2 Se5'
_cell_volume   671.08380281
_cell_formula_units_Z   1
loop_
 _symmetry_equiv_pos_site_id
 _symmetry_equiv_pos_as_xyz
  1  'x, y, z'
loop_
 _atom_site_type_symbol
 _atom_site_label
 _atom_site_symmetry_multiplicity
 _atom_site_fract_x
 _atom_site_fract_y
 _atom_site_fract_z
 _atom_site_occupancy
  Zr  Zr0  1  0.916581  0.606036  0.542916  1
  Zr  Zr1  1  0.083233  0.394774  0.540910  1
  Zr  Zr2  1  0.894840  0.415293  0.034290  1
  Zr  Zr3  1  0.104762  0.583210  0.039664  1
  Zr  Zr4  1  0.583612  0.896297  0.960832  1
  Zr  Zr5  1  0.416318  0.103905  0.961282  1
  Zr  Zr6  1  0.604604  0.083232  0.463036  1
  Zr  Zr7  1  0.396329  0.916487  0.460490  1
  Zr  Zr8  1  0.859422  0.973979  0.716356  1
  Zr  Zr9  1  0.139391  0.026191  0.717163  1
  Zr  Zr10  1  0.528788  0.360173  0.214059  1
  Zr  Zr11  1  0.476246  0.640629  0.217620  1
  Zr  Zr12  1  0.638782  0.525129  0.785235  1
  Zr  Zr13  1  0.360023  0.473972  0.781999  1
  Zr  Zr14  1  0.972683  0.140237  0.283046  1
  Zr  Zr15  1  0.024543  0.860081  0.283759  1
  Zr  Zr16  1  0.816685  0.715082  0.011604  1
  Zr  Zr17  1  0.182090  0.284672  0.008521  1
  Zr  Zr18  1  0.785132  0.318602  0.514073  1
  Zr  Zr19  1  0.214529  0.683159  0.508855  1
  Zr  Zr20  1  0.681852  0.785518  0.489716  1
  Zr  Zr21  1  0.319044  0.214695  0.486988  1
  Zr  Zr22  1  0.714213  0.181583  0.986827  1
  Zr  Zr23  1  0.284450  0.817887  0.989252  1
  Ga  Ga24  1  0.296969  0.460391  0.288857  1
  Ge  Ge25  1  0.960271  0.204670  0.788003  1
  Ge  Ge26  1  0.039053  0.795213  0.790271  1
  Se  Se27  1  0.792723  0.960990  0.211330  1
  Se  Se28  1  0.206452  0.039496  0.212029  1
  Se  Se29  1  0.538234  0.292562  0.710758  1
  Se  Se30  1  0.460101  0.707221  0.710920  1
  Se  Se31  1  0.708049  0.538630  0.289340  1
