# generated using pymatgen
data_Ba8Th3(SbO6)4
_symmetry_space_group_name_H-M   'P 1'
_cell_length_a   8.66350206
_cell_length_b   8.66350158
_cell_length_c   10.63626166
_cell_angle_alpha   114.03298519
_cell_angle_beta   114.03298507
_cell_angle_gamma   89.99999942
_symmetry_Int_Tables_number   1
_chemical_formula_structural   Ba8Th3(SbO6)4
_chemical_formula_sum   'Ba8 Th3 Sb4 O24'
_cell_volume   652.60951650
_cell_formula_units_Z   1
loop_
 _symmetry_equiv_pos_site_id
 _symmetry_equiv_pos_as_xyz
  1  'x, y, z'
loop_
 _atom_site_type_symbol
 _atom_site_label
 _atom_site_symmetry_multiplicity
 _atom_site_fract_x
 _atom_site_fract_y
 _atom_site_fract_z
 _atom_site_occupancy
  Ba  Ba0  1  0.659937  0.110998  0.770934  1
  Ba  Ba1  1  0.659937  0.659937  0.770934  1
  Ba  Ba2  1  0.889002  0.340063  0.229066  1
  Ba  Ba3  1  0.340063  0.340063  0.229066  1
  Ba  Ba4  1  0.110998  0.110998  0.770934  1
  Ba  Ba5  1  0.340063  0.889002  0.229066  1
  Ba  Ba6  1  0.889002  0.889002  0.229066  1
  Ba  Ba7  1  0.110998  0.659937  0.770934  1
  Th  Th8  1  0.750000  0.250000  0.500000  1
  Th  Th9  1  0.250000  0.750000  0.500000  1
  Th  Th10  1  0.500000  0.500000  0.000000  1
  Sb  Sb11  1  0.254631  0.254631  0.509262  1
  Sb  Sb12  1  0.745369  0.745369  0.490738  1
  Sb  Sb13  1  0.500000  0.000000  0.000000  1
  Sb  Sb14  1  0.000000  0.500000  0.000000  1
  O  O15  1  0.763960  0.500000  0.000000  1
  O  O16  1  0.630671  0.630671  0.261342  1
  O  O17  1  0.016183  0.252093  0.504187  1
  O  O18  1  0.983817  0.747907  0.495813  1
  O  O19  1  0.252094  0.016183  0.504187  1
  O  O20  1  0.236040  0.500000  0.000000  1
  O  O21  1  0.118036  0.618036  0.236073  1
  O  O22  1  0.000000  0.273272  0.000000  1
  O  O23  1  0.747906  0.983817  0.495813  1
  O  O24  1  0.500000  0.763960  0.000000  1
  O  O25  1  0.881964  0.381964  0.763927  1
  O  O26  1  0.747906  0.511996  0.495813  1
  O  O27  1  0.488004  0.252093  0.504187  1
  O  O28  1  0.369329  0.369329  0.738658  1
  O  O29  1  0.000000  0.726728  0.000000  1
  O  O30  1  0.500000  0.236040  0.000000  1
  O  O31  1  0.273272  0.000000  0.000000  1
  O  O32  1  0.252094  0.488004  0.504187  1
  O  O33  1  0.859463  0.859463  0.718927  1
  O  O34  1  0.381964  0.881964  0.763927  1
  O  O35  1  0.140537  0.140537  0.281073  1
  O  O36  1  0.726728  0.000000  0.000000  1
  O  O37  1  0.511996  0.747907  0.495813  1
  O  O38  1  0.618036  0.118036  0.236073  1
