# generated using pymatgen
data_La19Tb(Ga2Sn)4
_symmetry_space_group_name_H-M   'P 1'
_cell_length_a   8.18331900
_cell_length_b   8.18331900
_cell_length_c   14.91145300
_cell_angle_alpha   90.00000000
_cell_angle_beta   90.00000000
_cell_angle_gamma   90.00000000
_symmetry_Int_Tables_number   1
_chemical_formula_structural   La19Tb(Ga2Sn)4
_chemical_formula_sum   'La19 Tb1 Ga8 Sn4'
_cell_volume   998.57094658
_cell_formula_units_Z   1
loop_
 _symmetry_equiv_pos_site_id
 _symmetry_equiv_pos_as_xyz
  1  'x, y, z'
loop_
 _atom_site_type_symbol
 _atom_site_label
 _atom_site_symmetry_multiplicity
 _atom_site_fract_x
 _atom_site_fract_y
 _atom_site_fract_z
 _atom_site_occupancy
  La  La0  1  0.338738  0.320453  0.106106  1
  La  La1  1  0.837471  0.823306  0.893154  1
  La  La2  1  0.000000  0.500000  0.222107  1
  La  La3  1  0.837180  0.177239  0.394172  1
  La  La4  1  0.162529  0.176694  0.893154  1
  La  La5  1  0.661262  0.679547  0.106106  1
  La  La6  1  0.000000  0.500000  0.721658  1
  La  La7  1  0.825749  0.837357  0.607392  1
  La  La8  1  0.322761  0.337180  0.394172  1
  La  La9  1  0.179547  0.838738  0.106106  1
  La  La10  1  0.174251  0.162643  0.607392  1
  La  La11  1  0.820453  0.161262  0.106106  1
  La  La12  1  0.337357  0.674251  0.607392  1
  La  La13  1  0.500000  0.000000  0.283672  1
  La  La14  1  0.676694  0.337471  0.893154  1
  La  La15  1  0.662643  0.325749  0.607392  1
  La  La16  1  0.323306  0.662529  0.893154  1
  La  La17  1  0.162820  0.822761  0.394172  1
  La  La18  1  0.677239  0.662820  0.394172  1
  Tb  Tb19  1  0.500000  0.000000  0.767007  1
  Ga  Ga20  1  0.620502  0.379020  0.249826  1
  Ga  Ga21  1  0.872808  0.119862  0.751708  1
  Ga  Ga22  1  0.879020  0.879498  0.249826  1
  Ga  Ga23  1  0.127192  0.880138  0.751708  1
  Ga  Ga24  1  0.380138  0.372808  0.751708  1
  Ga  Ga25  1  0.120980  0.120502  0.249826  1
  Ga  Ga26  1  0.379498  0.620980  0.249826  1
  Ga  Ga27  1  0.619862  0.627192  0.751708  1
  Sn  Sn28  1  0.500000  0.000000  0.503807  1
  Sn  Sn29  1  0.000000  0.500000  0.002444  1
  Sn  Sn30  1  0.500000  0.000000  0.987934  1
  Sn  Sn31  1  0.000000  0.500000  0.501931  1
