# generated using pymatgen
data_Ce8Nb9Si16Mo3
_symmetry_space_group_name_H-M   'P 1'
_cell_length_a   6.93175625
_cell_length_b   7.12991724
_cell_length_c   13.43199200
_cell_angle_alpha   90.00000000
_cell_angle_beta   90.00000000
_cell_angle_gamma   89.96978384
_symmetry_Int_Tables_number   1
_chemical_formula_structural   Ce8Nb9Si16Mo3
_chemical_formula_sum   'Ce8 Nb9 Si16 Mo3'
_cell_volume   663.84721176
_cell_formula_units_Z   1
loop_
 _symmetry_equiv_pos_site_id
 _symmetry_equiv_pos_as_xyz
  1  'x, y, z'
loop_
 _atom_site_type_symbol
 _atom_site_label
 _atom_site_symmetry_multiplicity
 _atom_site_fract_x
 _atom_site_fract_y
 _atom_site_fract_z
 _atom_site_occupancy
  Ce  Ce0  1  0.502050  0.333050  0.094475  1
  Ce  Ce1  1  0.002048  0.167695  0.405607  1
  Ce  Ce2  1  0.497575  0.668277  0.593942  1
  Ce  Ce3  1  0.997213  0.831483  0.906449  1
  Ce  Ce4  1  0.497575  0.668277  0.906058  1
  Ce  Ce5  1  0.997213  0.831483  0.593551  1
  Ce  Ce6  1  0.502050  0.333050  0.405525  1
  Ce  Ce7  1  0.002048  0.167695  0.094393  1
  Nb  Nb8  1  0.836296  0.328032  0.625608  1
  Nb  Nb9  1  0.335906  0.172090  0.874297  1
  Nb  Nb10  1  0.164546  0.671557  0.126275  1
  Nb  Nb11  1  0.664854  0.828311  0.373067  1
  Nb  Nb12  1  0.164546  0.671557  0.373725  1
  Nb  Nb13  1  0.664854  0.828311  0.126933  1
  Nb  Nb14  1  0.836296  0.328032  0.874392  1
  Nb  Nb15  1  0.335906  0.172090  0.625703  1
  Nb  Nb16  1  0.662421  0.004561  0.750000  1
  Si  Si17  1  0.659471  0.041148  0.542000  1
  Si  Si18  1  0.159765  0.458243  0.956308  1
  Si  Si19  1  0.341330  0.959163  0.044827  1
  Si  Si20  1  0.840983  0.541015  0.455414  1
  Si  Si21  1  0.341330  0.959163  0.455173  1
  Si  Si22  1  0.840983  0.541015  0.044586  1
  Si  Si23  1  0.659471  0.041148  0.958000  1
  Si  Si24  1  0.159765  0.458243  0.543692  1
  Si  Si25  1  0.535908  0.375981  0.750000  1
  Si  Si26  1  0.039947  0.127160  0.750000  1
  Si  Si27  1  0.462525  0.627704  0.250000  1
  Si  Si28  1  0.963681  0.873065  0.250000  1
  Si  Si29  1  0.801180  0.622295  0.750000  1
  Si  Si30  1  0.296989  0.873887  0.750000  1
  Si  Si31  1  0.197915  0.375491  0.250000  1
  Si  Si32  1  0.698146  0.124893  0.250000  1
  Mo  Mo33  1  0.161935  0.494353  0.750000  1
  Mo  Mo34  1  0.337766  0.996021  0.250000  1
  Mo  Mo35  1  0.837511  0.504460  0.250000  1
