# generated using pymatgen
data_Y2Ho4TcRu
_symmetry_space_group_name_H-M   'P 1'
_cell_length_a   6.26926900
_cell_length_b   7.42924400
_cell_length_c   9.11707500
_cell_angle_alpha   90.00000000
_cell_angle_beta   90.00000000
_cell_angle_gamma   90.00000000
_symmetry_Int_Tables_number   1
_chemical_formula_structural   Y2Ho4TcRu
_chemical_formula_sum   'Y4 Ho8 Tc2 Ru2'
_cell_volume   424.63623882
_cell_formula_units_Z   2
loop_
 _symmetry_equiv_pos_site_id
 _symmetry_equiv_pos_as_xyz
  1  'x, y, z'
loop_
 _atom_site_type_symbol
 _atom_site_label
 _atom_site_symmetry_multiplicity
 _atom_site_fract_x
 _atom_site_fract_y
 _atom_site_fract_z
 _atom_site_occupancy
  Y  Y0  1  0.876640  0.539228  0.250000  1
  Y  Y1  1  0.623360  0.039228  0.250000  1
  Y  Y2  1  0.130706  0.457965  0.750000  1
  Y  Y3  1  0.369294  0.957964  0.750000  1
  Ho  Ho4  1  0.335479  0.676166  0.063701  1
  Ho  Ho5  1  0.164521  0.176166  0.436299  1
  Ho  Ho6  1  0.663501  0.324571  0.562591  1
  Ho  Ho7  1  0.836499  0.824571  0.937409  1
  Ho  Ho8  1  0.663501  0.324571  0.937409  1
  Ho  Ho9  1  0.836499  0.824571  0.562591  1
  Ho  Ho10  1  0.335479  0.676166  0.436299  1
  Ho  Ho11  1  0.164521  0.176166  0.063701  1
  Tc  Tc12  1  0.042627  0.886097  0.250000  1
  Tc  Tc13  1  0.457373  0.386097  0.250000  1
  Ru  Ru14  1  0.957085  0.115236  0.750000  1
  Ru  Ru15  1  0.542915  0.615236  0.750000  1
