# generated using pymatgen
data_Ho2Tm2Al4OsPd2Pt
_symmetry_space_group_name_H-M   'P 1'
_cell_length_a   4.34532100
_cell_length_b   6.80186808
_cell_length_c   7.86123200
_cell_angle_alpha   89.81339308
_cell_angle_beta   90.00000000
_cell_angle_gamma   90.00000000
_symmetry_Int_Tables_number   1
_chemical_formula_structural   Ho2Tm2Al4OsPd2Pt
_chemical_formula_sum   'Ho2 Tm2 Al4 Os1 Pd2 Pt1'
_cell_volume   232.34770051
_cell_formula_units_Z   1
loop_
 _symmetry_equiv_pos_site_id
 _symmetry_equiv_pos_as_xyz
  1  'x, y, z'
loop_
 _atom_site_type_symbol
 _atom_site_label
 _atom_site_symmetry_multiplicity
 _atom_site_fract_x
 _atom_site_fract_y
 _atom_site_fract_z
 _atom_site_occupancy
  Ho  Ho0  1  0.250000  0.034505  0.678123  1
  Ho  Ho1  1  0.250000  0.526378  0.820006  1
  Tm  Tm2  1  0.750000  0.981523  0.321021  1
  Tm  Tm3  1  0.750000  0.463364  0.184922  1
  Al  Al4  1  0.250000  0.145015  0.063420  1
  Al  Al5  1  0.250000  0.638208  0.438471  1
  Al  Al6  1  0.750000  0.859008  0.940650  1
  Al  Al7  1  0.750000  0.353153  0.558432  1
  Os  Os8  1  0.250000  0.266318  0.376396  1
  Pd  Pd9  1  0.250000  0.769820  0.119489  1
  Pd  Pd10  1  0.750000  0.731030  0.620242  1
  Pt  Pt11  1  0.750000  0.231678  0.878830  1
