# generated using pymatgen
data_YbErIr3W
_symmetry_space_group_name_H-M   'P 1'
_cell_length_a   5.61175368
_cell_length_b   5.61175391
_cell_length_c   5.18293555
_cell_angle_alpha   57.22314971
_cell_angle_beta   57.22315274
_cell_angle_gamma   59.99998455
_symmetry_Int_Tables_number   1
_chemical_formula_structural   YbErIr3W
_chemical_formula_sum   'Yb1 Er1 Ir3 W1'
_cell_volume   110.32987420
_cell_formula_units_Z   1
loop_
 _symmetry_equiv_pos_site_id
 _symmetry_equiv_pos_as_xyz
  1  'x, y, z'
loop_
 _atom_site_type_symbol
 _atom_site_label
 _atom_site_symmetry_multiplicity
 _atom_site_fract_x
 _atom_site_fract_y
 _atom_site_fract_z
 _atom_site_occupancy
  Yb  Yb0  1  0.750223  0.750223  0.749330  1
  Er  Er1  1  0.499773  0.499773  0.500683  1
  Ir  Ir2  1  0.625372  0.124680  0.125269  1
  Ir  Ir3  1  0.124680  0.124680  0.125269  1
  Ir  Ir4  1  0.124680  0.625372  0.125269  1
  W  W5  1  0.125273  0.125273  0.624182  1
