# generated using pymatgen
data_Hf6Al16Cu3NiRh3
_symmetry_space_group_name_H-M   'P 1'
_cell_length_a   8.61090996
_cell_length_b   8.66085676
_cell_length_c   8.64194924
_cell_angle_alpha   59.69044964
_cell_angle_beta   60.10854750
_cell_angle_gamma   60.04573448
_symmetry_Int_Tables_number   1
_chemical_formula_structural   Hf6Al16Cu3NiRh3
_chemical_formula_sum   'Hf6 Al16 Cu3 Ni1 Rh3'
_cell_volume   455.17992029
_cell_formula_units_Z   1
loop_
 _symmetry_equiv_pos_site_id
 _symmetry_equiv_pos_as_xyz
  1  'x, y, z'
loop_
 _atom_site_type_symbol
 _atom_site_label
 _atom_site_symmetry_multiplicity
 _atom_site_fract_x
 _atom_site_fract_y
 _atom_site_fract_z
 _atom_site_occupancy
  Hf  Hf0  1  0.690146  0.310181  0.309851  1
  Hf  Hf1  1  0.309854  0.689819  0.690149  1
  Hf  Hf2  1  0.315336  0.684669  0.315333  1
  Hf  Hf3  1  0.684664  0.315331  0.684667  1
  Hf  Hf4  1  0.315845  0.315749  0.684161  1
  Hf  Hf5  1  0.684155  0.684251  0.315839  1
  Al  Al6  1  0.338186  0.329654  0.335606  1
  Al  Al7  1  0.661814  0.670346  0.664394  1
  Al  Al8  1  0.333767  0.335294  0.998073  1
  Al  Al9  1  0.335607  0.996553  0.338192  1
  Al  Al10  1  0.666233  0.664706  0.001927  1
  Al  Al11  1  0.664393  0.003447  0.661808  1
  Al  Al12  1  0.998063  0.332872  0.333774  1
  Al  Al13  1  0.001937  0.667128  0.666226  1
  Al  Al14  1  0.125108  0.115629  0.117353  1
  Al  Al15  1  0.874892  0.884371  0.882647  1
  Al  Al16  1  0.123225  0.122035  0.640874  1
  Al  Al17  1  0.117340  0.641921  0.125120  1
  Al  Al18  1  0.876775  0.877965  0.359126  1
  Al  Al19  1  0.882660  0.358079  0.874880  1
  Al  Al20  1  0.640865  0.113881  0.123212  1
  Al  Al21  1  0.359135  0.886119  0.876788  1
  Cu  Cu22  1  0.000000  0.500000  0.000000  1
  Cu  Cu23  1  0.000000  0.000000  0.500000  1
  Cu  Cu24  1  0.500000  0.500000  0.000000  1
  Ni  Ni25  1  0.500000  0.000000  0.500000  1
  Rh  Rh26  1  0.500000  0.000000  0.000000  1
  Rh  Rh27  1  0.000000  0.500000  0.500000  1
  Rh  Rh28  1  0.000000  0.000000  0.000000  1
