# generated using pymatgen
data_TbY2NiIr8
_symmetry_space_group_name_H-M   'P 1'
_cell_length_a   5.31847612
_cell_length_b   5.31847435
_cell_length_c   9.17196275
_cell_angle_alpha   73.14615859
_cell_angle_beta   73.14616289
_cell_angle_gamma   60.00000625
_symmetry_Int_Tables_number   1
_chemical_formula_structural   TbY2NiIr8
_chemical_formula_sum   'Tb1 Y2 Ni1 Ir8'
_cell_volume   211.71620531
_cell_formula_units_Z   1
loop_
 _symmetry_equiv_pos_site_id
 _symmetry_equiv_pos_as_xyz
  1  'x, y, z'
loop_
 _atom_site_type_symbol
 _atom_site_label
 _atom_site_symmetry_multiplicity
 _atom_site_fract_x
 _atom_site_fract_y
 _atom_site_fract_z
 _atom_site_occupancy
  Tb  Tb0  1  0.000172  0.000172  0.999482  1
  Y  Y1  1  0.140516  0.140516  0.578452  1
  Y  Y2  1  0.861049  0.861049  0.416853  1
  Ni  Ni3  1  0.666874  0.666874  0.999377  1
  Ir  Ir4  1  0.077514  0.582905  0.756673  1
  Ir  Ir5  1  0.582905  0.582905  0.756673  1
  Ir  Ir6  1  0.582905  0.077514  0.756673  1
  Ir  Ir7  1  0.914725  0.420872  0.243533  1
  Ir  Ir8  1  0.420872  0.420872  0.243533  1
  Ir  Ir9  1  0.420872  0.914725  0.243533  1
  Ir  Ir10  1  0.332442  0.332442  0.002674  1
  Ir  Ir11  1  0.499152  0.499152  0.502543  1
