# generated using pymatgen
data_Dy5P12Ir4Ru13Rh2
_symmetry_space_group_name_H-M   'P 1'
_cell_length_a   12.59360645
_cell_length_b   12.56434357
_cell_length_c   3.96443700
_cell_angle_alpha   90.00000000
_cell_angle_beta   90.00000000
_cell_angle_gamma   119.87713221
_symmetry_Int_Tables_number   1
_chemical_formula_structural   Dy5P12Ir4Ru13Rh2
_chemical_formula_sum   'Dy5 P12 Ir4 Ru13 Rh2'
_cell_volume   543.92427575
_cell_formula_units_Z   1
loop_
 _symmetry_equiv_pos_site_id
 _symmetry_equiv_pos_as_xyz
  1  'x, y, z'
loop_
 _atom_site_type_symbol
 _atom_site_label
 _atom_site_symmetry_multiplicity
 _atom_site_fract_x
 _atom_site_fract_y
 _atom_site_fract_z
 _atom_site_occupancy
  Dy  Dy0  1  0.666929  0.333297  0.000000  1
  Dy  Dy1  1  0.333178  0.666163  0.000000  1
  Dy  Dy2  1  0.813414  0.001335  0.500000  1
  Dy  Dy3  1  0.185471  0.186594  0.500000  1
  Dy  Dy4  1  0.000146  0.813400  0.500000  1
  P  P5  1  0.629708  0.003359  0.000000  1
  P  P6  1  0.372365  0.371909  0.000000  1
  P  P7  1  0.999939  0.628173  0.000000  1
  P  P8  1  0.688685  0.517847  0.500000  1
  P  P9  1  0.828693  0.307910  0.500000  1
  P  P10  1  0.313136  0.830955  0.500000  1
  P  P11  1  0.518086  0.686484  0.500000  1
  P  P12  1  0.181496  0.000597  0.000000  1
  P  P13  1  0.817024  0.817895  0.000000  1
  P  P14  1  0.996819  0.183573  0.000000  1
  P  P15  1  0.481761  0.168840  0.500000  1
  P  P16  1  0.169612  0.482114  0.500000  1
  Ir  Ir17  1  0.374834  0.182699  0.000000  1
  Ir  Ir18  1  0.191086  0.817609  0.000000  1
  Ir  Ir19  1  0.807666  0.624589  0.000000  1
  Ir  Ir20  1  0.999175  0.000883  0.000000  1
  Ru  Ru21  1  0.872829  0.509131  0.500000  1
  Ru  Ru22  1  0.490441  0.361422  0.500000  1
  Ru  Ru23  1  0.636058  0.124260  0.500000  1
  Ru  Ru24  1  0.128794  0.639778  0.500000  1
  Ru  Ru25  1  0.361214  0.487519  0.500000  1
  Ru  Ru26  1  0.510677  0.870907  0.500000  1
  Ru  Ru27  1  0.716330  0.716383  0.500000  1
  Ru  Ru28  1  0.002190  0.285388  0.500000  1
  Ru  Ru29  1  0.445111  0.997391  0.000000  1
  Ru  Ru30  1  0.552429  0.552587  0.000000  1
  Ru  Ru31  1  0.004023  0.449706  0.000000  1
  Ru  Ru32  1  0.818105  0.196406  0.000000  1
  Ru  Ru33  1  0.283895  0.000124  0.500000  1
  Rh  Rh34  1  0.624641  0.807887  0.000000  1
  Rh  Rh35  1  0.184042  0.374885  0.000000  1
