# generated using pymatgen
data_Zr6Zn10Cu13As
_symmetry_space_group_name_H-M   'P 1'
_cell_length_a   8.55280316
_cell_length_b   8.56100926
_cell_length_c   8.56100900
_cell_angle_alpha   60.00000487
_cell_angle_beta   59.96826100
_cell_angle_gamma   59.96825641
_symmetry_Int_Tables_number   1
_chemical_formula_structural   Zr6Zn10Cu13As
_chemical_formula_sum   'Zr6 Zn10 Cu13 As1'
_cell_volume   443.03178704
_cell_formula_units_Z   1
loop_
 _symmetry_equiv_pos_site_id
 _symmetry_equiv_pos_as_xyz
  1  'x, y, z'
loop_
 _atom_site_type_symbol
 _atom_site_label
 _atom_site_symmetry_multiplicity
 _atom_site_fract_x
 _atom_site_fract_y
 _atom_site_fract_z
 _atom_site_occupancy
  Zr  Zr0  1  0.724015  0.276641  0.276641  1
  Zr  Zr1  1  0.274714  0.720130  0.720130  1
  Zr  Zr2  1  0.274714  0.720130  0.285025  1
  Zr  Zr3  1  0.724015  0.276641  0.722704  1
  Zr  Zr4  1  0.274714  0.285025  0.720130  1
  Zr  Zr5  1  0.724015  0.722704  0.276641  1
  Zn  Zn6  1  0.366159  0.877947  0.877947  1
  Zn  Zn7  1  0.333861  0.332724  0.332724  1
  Zn  Zn8  1  0.670058  0.664015  0.664015  1
  Zn  Zn9  1  0.333861  0.332724  0.000693  1
  Zn  Zn10  1  0.333861  0.000693  0.332724  1
  Zn  Zn11  1  0.670058  0.664015  0.001910  1
  Zn  Zn12  1  0.670058  0.001910  0.664015  1
  Zn  Zn13  1  0.002054  0.332649  0.332649  1
  Zn  Zn14  1  0.993527  0.668824  0.668824  1
  Zn  Zn15  1  0.993042  0.002319  0.002319  1
  Cu  Cu16  1  0.121937  0.121689  0.121689  1
  Cu  Cu17  1  0.877713  0.878233  0.878233  1
  Cu  Cu18  1  0.121937  0.121689  0.634686  1
  Cu  Cu19  1  0.121937  0.634686  0.121689  1
  Cu  Cu20  1  0.877713  0.878233  0.365819  1
  Cu  Cu21  1  0.877713  0.365819  0.878233  1
  Cu  Cu22  1  0.630367  0.123211  0.123211  1
  Cu  Cu23  1  0.499555  0.999265  0.999265  1
  Cu  Cu24  1  0.001696  0.499204  0.499204  1
  Cu  Cu25  1  0.001696  0.499204  0.999896  1
  Cu  Cu26  1  0.499555  0.999265  0.501915  1
  Cu  Cu27  1  0.001696  0.999896  0.499204  1
  Cu  Cu28  1  0.499555  0.501915  0.999265  1
  As  As29  1  0.504202  0.498599  0.498599  1
