# generated using pymatgen
data_Ce(Pr2Ru)2
_symmetry_space_group_name_H-M   'P 1'
_cell_length_a   9.08949647
_cell_length_b   9.08949916
_cell_length_c   7.24085747
_cell_angle_alpha   81.27842016
_cell_angle_beta   81.27842612
_cell_angle_gamma   42.35573257
_symmetry_Int_Tables_number   1
_chemical_formula_structural   Ce(Pr2Ru)2
_chemical_formula_sum   'Ce2 Pr8 Ru4'
_cell_volume   397.68319011
_cell_formula_units_Z   2
loop_
 _symmetry_equiv_pos_site_id
 _symmetry_equiv_pos_as_xyz
  1  'x, y, z'
loop_
 _atom_site_type_symbol
 _atom_site_label
 _atom_site_symmetry_multiplicity
 _atom_site_fract_x
 _atom_site_fract_y
 _atom_site_fract_z
 _atom_site_occupancy
  Ce  Ce0  1  0.586970  0.413030  0.750000  1
  Ce  Ce1  1  0.413030  0.586970  0.250000  1
  Pr  Pr2  1  0.209158  0.976231  0.582180  1
  Pr  Pr3  1  0.023769  0.790842  0.917820  1
  Pr  Pr4  1  0.211761  0.358568  0.312877  1
  Pr  Pr5  1  0.641432  0.788239  0.187123  1
  Pr  Pr6  1  0.788239  0.641432  0.687123  1
  Pr  Pr7  1  0.358568  0.211761  0.812877  1
  Pr  Pr8  1  0.976231  0.209158  0.082180  1
  Pr  Pr9  1  0.790842  0.023769  0.417820  1
  Ru  Ru10  1  0.224954  0.584186  0.548925  1
  Ru  Ru11  1  0.415814  0.775046  0.951075  1
  Ru  Ru12  1  0.775046  0.415814  0.451075  1
  Ru  Ru13  1  0.584186  0.224954  0.048925  1
