# generated using pymatgen
data_SbCl9
_symmetry_space_group_name_H-M   'P 1'
_cell_length_a   7.74101731
_cell_length_b   7.74150030
_cell_length_c   15.73626316
_cell_angle_alpha   80.61889232
_cell_angle_beta   99.37414877
_cell_angle_gamma   114.05217397
_symmetry_Int_Tables_number   1
_chemical_formula_structural   SbCl9
_chemical_formula_sum   'Sb2 Cl18'
_cell_volume   844.75046158
_cell_formula_units_Z   2
loop_
 _symmetry_equiv_pos_site_id
 _symmetry_equiv_pos_as_xyz
  1  'x, y, z'
loop_
 _atom_site_type_symbol
 _atom_site_label
 _atom_site_symmetry_multiplicity
 _atom_site_fract_x
 _atom_site_fract_y
 _atom_site_fract_z
 _atom_site_occupancy
  Sb  Sb0  1  0.995874  0.961960  0.996636  1
  Sb  Sb1  1  0.538088  0.504100  0.496607  1
  Cl  Cl2  1  0.823232  0.329470  0.245455  1
  Cl  Cl3  1  0.170402  0.676712  0.745441  1
  Cl  Cl4  1  0.247887  0.861502  0.046460  1
  Cl  Cl5  1  0.868320  0.830509  0.131201  1
  Cl  Cl6  1  0.218882  0.301324  0.086538  1
  Cl  Cl7  1  0.467367  0.301841  0.153839  1
  Cl  Cl8  1  0.783639  0.080061  0.317243  1
  Cl  Cl9  1  0.795238  0.711109  0.420451  1
  Cl  Cl10  1  0.354852  0.338493  0.377380  1
  Cl  Cl11  1  0.343386  0.682298  0.474831  1
  Cl  Cl12  1  0.638537  0.252134  0.546426  1
  Cl  Cl13  1  0.669595  0.631635  0.631169  1
  Cl  Cl14  1  0.198766  0.281163  0.586520  1
  Cl  Cl15  1  0.198152  0.032637  0.653818  1
  Cl  Cl16  1  0.419792  0.716327  0.817242  1
  Cl  Cl17  1  0.788814  0.704807  0.920509  1
  Cl  Cl18  1  0.161510  0.145172  0.877393  1
  Cl  Cl19  1  0.817669  0.156739  0.974841  1
