# generated using pymatgen
data_Cs2Pr2MnZnTe6
_symmetry_space_group_name_H-M   'P 1'
_cell_length_a   8.85462598
_cell_length_b   8.85462507
_cell_length_c   12.08530900
_cell_angle_alpha   90.00000000
_cell_angle_beta   90.00000000
_cell_angle_gamma   30.21008596
_symmetry_Int_Tables_number   1
_chemical_formula_structural   Cs2Pr2MnZnTe6
_chemical_formula_sum   'Cs2 Pr2 Mn1 Zn1 Te6'
_cell_volume   476.77633625
_cell_formula_units_Z   1
loop_
 _symmetry_equiv_pos_site_id
 _symmetry_equiv_pos_as_xyz
  1  'x, y, z'
loop_
 _atom_site_type_symbol
 _atom_site_label
 _atom_site_symmetry_multiplicity
 _atom_site_fract_x
 _atom_site_fract_y
 _atom_site_fract_z
 _atom_site_occupancy
  Cs  Cs0  1  0.743747  0.743747  0.250000  1
  Cs  Cs1  1  0.256156  0.256156  0.750000  1
  Pr  Pr2  1  0.999397  0.999397  0.998648  1
  Pr  Pr3  1  0.999397  0.999397  0.501352  1
  Mn  Mn4  1  0.464597  0.464597  0.250000  1
  Zn  Zn5  1  0.538462  0.538462  0.750000  1
  Te  Te6  1  0.058373  0.058373  0.250000  1
  Te  Te7  1  0.941007  0.941007  0.750000  1
  Te  Te8  1  0.376929  0.376929  0.064440  1
  Te  Te9  1  0.622504  0.622504  0.564770  1
  Te  Te10  1  0.622504  0.622504  0.935231  1
  Te  Te11  1  0.376929  0.376929  0.435560  1
