# generated using pymatgen
data_Pr2Sc4Pb5
_symmetry_space_group_name_H-M   'P 1'
_cell_length_a   6.45826586
_cell_length_b   9.38078453
_cell_length_c   11.42128661
_cell_angle_alpha   114.24700296
_cell_angle_beta   106.42316877
_cell_angle_gamma   90.00000461
_symmetry_Int_Tables_number   1
_chemical_formula_structural   Pr2Sc4Pb5
_chemical_formula_sum   'Pr4 Sc8 Pb10'
_cell_volume   599.80426079
_cell_formula_units_Z   2
loop_
 _symmetry_equiv_pos_site_id
 _symmetry_equiv_pos_as_xyz
  1  'x, y, z'
loop_
 _atom_site_type_symbol
 _atom_site_label
 _atom_site_symmetry_multiplicity
 _atom_site_fract_x
 _atom_site_fract_y
 _atom_site_fract_z
 _atom_site_occupancy
  Pr  Pr0  1  0.141407  0.259033  0.282813  1
  Pr  Pr1  1  0.858593  0.740967  0.717187  1
  Pr  Pr2  1  0.641407  0.023780  0.282813  1
  Pr  Pr3  1  0.358593  0.976220  0.717187  1
  Sc  Sc4  1  0.558348  0.308348  0.616694  1
  Sc  Sc5  1  0.441652  0.691652  0.383306  1
  Sc  Sc6  1  0.941652  0.691652  0.383306  1
  Sc  Sc7  1  0.058348  0.308348  0.616694  1
  Sc  Sc8  1  0.437897  0.679240  0.875793  1
  Sc  Sc9  1  0.562103  0.320760  0.124207  1
  Sc  Sc10  1  0.937897  0.196553  0.875793  1
  Sc  Sc11  1  0.062103  0.803447  0.124207  1
  Pb  Pb12  1  0.290725  0.589723  0.581451  1
  Pb  Pb13  1  0.709275  0.410277  0.418549  1
  Pb  Pb14  1  0.790725  0.991728  0.581451  1
  Pb  Pb15  1  0.209275  0.008272  0.418549  1
  Pb  Pb16  1  0.250000  0.000000  0.000000  1
  Pb  Pb17  1  0.750000  0.000000  0.000000  1
  Pb  Pb18  1  0.069142  0.481541  0.138284  1
  Pb  Pb19  1  0.930858  0.518459  0.861716  1
  Pb  Pb20  1  0.569142  0.656743  0.138284  1
  Pb  Pb21  1  0.430858  0.343257  0.861716  1
