# generated using pymatgen
data_La2ErZr(NiAs)4
_symmetry_space_group_name_H-M   'P 1'
_cell_length_a   4.07302300
_cell_length_b   4.07302341
_cell_length_c   15.69903900
_cell_angle_alpha   90.00000000
_cell_angle_beta   90.00000000
_cell_angle_gamma   120.00002100
_symmetry_Int_Tables_number   1
_chemical_formula_structural   La2ErZr(NiAs)4
_chemical_formula_sum   'La2 Er1 Zr1 Ni4 As4'
_cell_volume   225.54716741
_cell_formula_units_Z   1
loop_
 _symmetry_equiv_pos_site_id
 _symmetry_equiv_pos_as_xyz
  1  'x, y, z'
loop_
 _atom_site_type_symbol
 _atom_site_label
 _atom_site_symmetry_multiplicity
 _atom_site_fract_x
 _atom_site_fract_y
 _atom_site_fract_z
 _atom_site_occupancy
  La  La0  1  0.000000  0.000000  0.004728  1
  La  La1  1  0.000000  0.000000  0.495272  1
  Er  Er2  1  0.000000  0.000000  0.750000  1
  Zr  Zr3  1  0.000000  0.000000  0.250000  1
  Ni  Ni4  1  0.333333  0.666667  0.162046  1
  Ni  Ni5  1  0.666667  0.333333  0.859884  1
  Ni  Ni6  1  0.666667  0.333333  0.640116  1
  Ni  Ni7  1  0.333333  0.666667  0.337954  1
  As  As8  1  0.333333  0.666667  0.625934  1
  As  As9  1  0.666667  0.333333  0.369208  1
  As  As10  1  0.666667  0.333333  0.130792  1
  As  As11  1  0.333333  0.666667  0.874066  1
