# generated using pymatgen
data_Pr4Co4Pt2O19
_symmetry_space_group_name_H-M   'P 1'
_cell_length_a   7.63910452
_cell_length_b   7.63925849
_cell_length_c   7.63910488
_cell_angle_alpha   108.96728867
_cell_angle_beta   109.16968348
_cell_angle_gamma   110.27896714
_symmetry_Int_Tables_number   1
_chemical_formula_structural   Pr4Co4Pt2O19
_chemical_formula_sum   'Pr4 Co4 Pt2 O19'
_cell_volume   343.12503196
_cell_formula_units_Z   1
loop_
 _symmetry_equiv_pos_site_id
 _symmetry_equiv_pos_as_xyz
  1  'x, y, z'
loop_
 _atom_site_type_symbol
 _atom_site_label
 _atom_site_symmetry_multiplicity
 _atom_site_fract_x
 _atom_site_fract_y
 _atom_site_fract_z
 _atom_site_occupancy
  Pr  Pr0  1  0.670227  0.678766  0.670389  1
  Pr  Pr1  1  0.329777  0.000170  0.008545  1
  Pr  Pr2  1  0.991623  0.321234  0.991462  1
  Pr  Pr3  1  0.008375  0.999830  0.329608  1
  Co  Co4  1  0.338213  0.838213  0.499994  1
  Co  Co5  1  0.661781  0.161787  0.499999  1
  Co  Co6  1  0.847317  0.500000  0.347317  1
  Co  Co7  1  0.152615  0.500000  0.652615  1
  Pt  Pt8  1  0.500013  0.337522  0.837539  1
  Pt  Pt9  1  0.500017  0.662478  0.162491  1
  O  O10  1  0.663043  0.663043  0.000006  1
  O  O11  1  0.336963  0.336957  0.000000  1
  O  O12  1  0.644221  0.000000  0.644221  1
  O  O13  1  0.355786  0.000000  0.355786  1
  O  O14  1  0.999987  0.640968  0.640975  1
  O  O15  1  0.000007  0.359032  0.359019  1
  O  O16  1  0.000003  0.000000  0.000003  1
  O  O17  1  0.355405  0.614348  0.329368  1
  O  O18  1  0.644590  0.973963  0.258938  1
  O  O19  1  0.715021  0.385652  0.741057  1
  O  O20  1  0.620226  0.323267  0.365737  1
  O  O21  1  0.284974  0.026037  0.670627  1
  O  O22  1  0.957530  0.254470  0.634263  1
  O  O23  1  0.379792  0.745529  0.703059  1
  O  O24  1  0.042470  0.676733  0.296958  1
  O  O25  1  0.315987  0.366768  0.607747  1
  O  O26  1  0.759037  0.708243  0.392261  1
  O  O27  1  0.684020  0.291757  0.050795  1
  O  O28  1  0.240978  0.633232  0.949219  1
