# generated using pymatgen
data_LaNdCdPdAu
_symmetry_space_group_name_H-M   'P 1'
_cell_length_a   8.05635001
_cell_length_b   8.05635037
_cell_length_c   3.93893400
_cell_angle_alpha   90.00000000
_cell_angle_beta   90.00000000
_cell_angle_gamma   89.08304735
_symmetry_Int_Tables_number   1
_chemical_formula_structural   LaNdCdPdAu
_chemical_formula_sum   'La2 Nd2 Cd2 Pd2 Au2'
_cell_volume   255.62289940
_cell_formula_units_Z   2
loop_
 _symmetry_equiv_pos_site_id
 _symmetry_equiv_pos_as_xyz
  1  'x, y, z'
loop_
 _atom_site_type_symbol
 _atom_site_label
 _atom_site_symmetry_multiplicity
 _atom_site_fract_x
 _atom_site_fract_y
 _atom_site_fract_z
 _atom_site_occupancy
  La  La0  1  0.179612  0.320388  0.500000  1
  La  La1  1  0.820388  0.679612  0.500000  1
  Nd  Nd2  1  0.666712  0.166712  0.500000  1
  Nd  Nd3  1  0.333288  0.833288  0.500000  1
  Cd  Cd4  1  0.000000  0.000000  0.000000  1
  Cd  Cd5  1  0.500000  0.500000  0.000000  1
  Pd  Pd6  1  0.626682  0.873318  0.000000  1
  Pd  Pd7  1  0.373318  0.126682  0.000000  1
  Au  Au8  1  0.128699  0.628699  0.000000  1
  Au  Au9  1  0.871301  0.371301  0.000000  1
