# generated using pymatgen
data_BaGdSi4N7
_symmetry_space_group_name_H-M   'P 1'
_cell_length_a   6.13087400
_cell_length_b   6.13087382
_cell_length_c   9.98953100
_cell_angle_alpha   90.00000000
_cell_angle_beta   90.00000000
_cell_angle_gamma   119.99999018
_symmetry_Int_Tables_number   1
_chemical_formula_structural   BaGdSi4N7
_chemical_formula_sum   'Ba2 Gd2 Si8 N14'
_cell_volume   325.17754073
_cell_formula_units_Z   2
loop_
 _symmetry_equiv_pos_site_id
 _symmetry_equiv_pos_as_xyz
  1  'x, y, z'
loop_
 _atom_site_type_symbol
 _atom_site_label
 _atom_site_symmetry_multiplicity
 _atom_site_fract_x
 _atom_site_fract_y
 _atom_site_fract_z
 _atom_site_occupancy
  Ba  Ba0  1  0.666667  0.333333  0.577555  1
  Ba  Ba1  1  0.333333  0.666667  0.077555  1
  Gd  Gd2  1  0.666667  0.333333  0.949840  1
  Gd  Gd3  1  0.333333  0.666667  0.449840  1
  Si  Si4  1  0.174463  0.348926  0.759585  1
  Si  Si5  1  0.825537  0.174463  0.259585  1
  Si  Si6  1  0.348926  0.174463  0.259585  1
  Si  Si7  1  0.651074  0.825537  0.759585  1
  Si  Si8  1  0.174463  0.825537  0.759585  1
  Si  Si9  1  0.825537  0.651074  0.259585  1
  Si  Si10  1  0.000000  0.000000  0.029057  1
  Si  Si11  1  0.000000  0.000000  0.529057  1
  N  N12  1  0.000000  0.000000  0.838315  1
  N  N13  1  0.000000  0.000000  0.338315  1
  N  N14  1  0.848296  0.696591  0.088633  1
  N  N15  1  0.151704  0.848296  0.588633  1
  N  N16  1  0.696591  0.848296  0.588633  1
  N  N17  1  0.303409  0.151704  0.088633  1
  N  N18  1  0.848296  0.151704  0.088633  1
  N  N19  1  0.151704  0.303409  0.588633  1
  N  N20  1  0.486910  0.513090  0.811134  1
  N  N21  1  0.973820  0.486910  0.311134  1
  N  N22  1  0.513090  0.026180  0.311134  1
  N  N23  1  0.486910  0.973820  0.811134  1
  N  N24  1  0.513090  0.486910  0.311134  1
  N  N25  1  0.026180  0.513090  0.811134  1
