# generated using pymatgen
data_Yb5YEr2(Si3Ag)4
_symmetry_space_group_name_H-M   'P 1'
_cell_length_a   8.37290090
_cell_length_b   8.37290122
_cell_length_c   8.06303700
_cell_angle_alpha   90.00000000
_cell_angle_beta   90.00000000
_cell_angle_gamma   120.54681369
_symmetry_Int_Tables_number   1
_chemical_formula_structural   Yb5YEr2(Si3Ag)4
_chemical_formula_sum   'Yb5 Y1 Er2 Si12 Ag4'
_cell_volume   486.81252886
_cell_formula_units_Z   1
loop_
 _symmetry_equiv_pos_site_id
 _symmetry_equiv_pos_as_xyz
  1  'x, y, z'
loop_
 _atom_site_type_symbol
 _atom_site_label
 _atom_site_symmetry_multiplicity
 _atom_site_fract_x
 _atom_site_fract_y
 _atom_site_fract_z
 _atom_site_occupancy
  Yb  Yb0  1  0.503415  0.006713  0.250000  1
  Yb  Yb1  1  0.496227  0.992990  0.750000  1
  Yb  Yb2  1  0.993287  0.496585  0.250000  1
  Yb  Yb3  1  0.007010  0.503773  0.750000  1
  Yb  Yb4  1  0.503217  0.496783  0.250000  1
  Y  Y5  1  0.999955  0.000045  0.250000  1
  Er  Er6  1  0.496978  0.503022  0.750000  1
  Er  Er7  1  0.000090  0.999910  0.750000  1
  Si  Si8  1  0.162687  0.322539  0.997072  1
  Si  Si9  1  0.837407  0.677604  0.995797  1
  Si  Si10  1  0.677461  0.837313  0.997072  1
  Si  Si11  1  0.837407  0.677604  0.504203  1
  Si  Si12  1  0.322396  0.162593  0.995797  1
  Si  Si13  1  0.162687  0.322539  0.502928  1
  Si  Si14  1  0.160643  0.839357  0.999915  1
  Si  Si15  1  0.322396  0.162593  0.504203  1
  Si  Si16  1  0.839174  0.160826  0.996829  1
  Si  Si17  1  0.677461  0.837313  0.502928  1
  Si  Si18  1  0.839174  0.160826  0.503171  1
  Si  Si19  1  0.160643  0.839357  0.500085  1
  Ag  Ag20  1  0.332879  0.667121  0.008507  1
  Ag  Ag21  1  0.667264  0.332736  0.984777  1
  Ag  Ag22  1  0.667264  0.332736  0.515223  1
  Ag  Ag23  1  0.332879  0.667121  0.491493  1
