# generated using pymatgen
data_DyHoMn2(CuO5)2
_symmetry_space_group_name_H-M   'P 1'
_cell_length_a   5.64683100
_cell_length_b   7.48879153
_cell_length_c   8.45837660
_cell_angle_alpha   90.04309008
_cell_angle_beta   90.00000000
_cell_angle_gamma   90.00000000
_symmetry_Int_Tables_number   1
_chemical_formula_structural   DyHoMn2(CuO5)2
_chemical_formula_sum   'Dy2 Ho2 Mn4 Cu4 O20'
_cell_volume   357.68722228
_cell_formula_units_Z   2
loop_
 _symmetry_equiv_pos_site_id
 _symmetry_equiv_pos_as_xyz
  1  'x, y, z'
loop_
 _atom_site_type_symbol
 _atom_site_label
 _atom_site_symmetry_multiplicity
 _atom_site_fract_x
 _atom_site_fract_y
 _atom_site_fract_z
 _atom_site_occupancy
  Dy  Dy0  1  0.000000  0.851671  0.825777  1
  Dy  Dy1  1  0.000000  0.148329  0.174223  1
  Ho  Ho2  1  0.000000  0.351510  0.674157  1
  Ho  Ho3  1  0.000000  0.648490  0.325843  1
  Mn  Mn4  1  0.259257  0.500000  0.000000  1
  Mn  Mn5  1  0.740744  0.000000  0.500000  1
  Mn  Mn6  1  0.740743  0.500000  0.000000  1
  Mn  Mn7  1  0.259256  0.000000  0.500000  1
  Cu  Cu8  1  0.500000  0.071688  0.849727  1
  Cu  Cu9  1  0.500000  0.928312  0.150273  1
  Cu  Cu10  1  0.500000  0.571346  0.649974  1
  Cu  Cu11  1  0.500000  0.428654  0.350026  1
  O  O12  1  0.241005  0.903707  0.286755  1
  O  O13  1  0.241005  0.096293  0.713245  1
  O  O14  1  0.758959  0.404942  0.213547  1
  O  O15  1  0.758959  0.595058  0.786453  1
  O  O16  1  0.758995  0.096293  0.713245  1
  O  O17  1  0.758995  0.903707  0.286755  1
  O  O18  1  0.241041  0.595058  0.786453  1
  O  O19  1  0.241041  0.404942  0.213547  1
  O  O20  1  0.500000  0.346688  0.938396  1
  O  O21  1  0.500000  0.653312  0.061604  1
  O  O22  1  0.500000  0.846773  0.561769  1
  O  O23  1  0.500000  0.153227  0.438231  1
  O  O24  1  0.272089  0.000000  0.000000  1
  O  O25  1  0.729052  0.500000  0.500000  1
  O  O26  1  0.727911  0.000000  0.000000  1
  O  O27  1  0.270948  0.500000  0.500000  1
  O  O28  1  0.000000  0.165679  0.448749  1
  O  O29  1  0.000000  0.834321  0.551251  1
  O  O30  1  0.000000  0.665221  0.052655  1
  O  O31  1  0.000000  0.334779  0.947345  1
