# generated using pymatgen
data_DyEr2Pa(ReB6)2
_symmetry_space_group_name_H-M   'P 1'
_cell_length_a   3.69090500
_cell_length_b   9.14626617
_cell_length_c   11.51598903
_cell_angle_alpha   90.31992691
_cell_angle_beta   90.00000000
_cell_angle_gamma   90.00000000
_symmetry_Int_Tables_number   1
_chemical_formula_structural   DyEr2Pa(ReB6)2
_chemical_formula_sum   'Dy2 Er4 Pa2 Re4 B24'
_cell_volume   388.75069192
_cell_formula_units_Z   2
loop_
 _symmetry_equiv_pos_site_id
 _symmetry_equiv_pos_as_xyz
  1  'x, y, z'
loop_
 _atom_site_type_symbol
 _atom_site_label
 _atom_site_symmetry_multiplicity
 _atom_site_fract_x
 _atom_site_fract_y
 _atom_site_fract_z
 _atom_site_occupancy
  Dy  Dy0  1  0.000000  0.823747  0.085657  1
  Dy  Dy1  1  0.000000  0.176253  0.914343  1
  Er  Er2  1  0.000000  0.944821  0.372488  1
  Er  Er3  1  0.000000  0.055179  0.627512  1
  Er  Er4  1  0.000000  0.443799  0.126444  1
  Er  Er5  1  0.000000  0.556201  0.873556  1
  Pa  Pa6  1  0.000000  0.321378  0.413079  1
  Pa  Pa7  1  0.000000  0.678622  0.586921  1
  Re  Re8  1  0.000000  0.635589  0.324316  1
  Re  Re9  1  0.000000  0.364411  0.675684  1
  Re  Re10  1  0.000000  0.140577  0.181773  1
  Re  Re11  1  0.000000  0.859423  0.818227  1
  B  B12  1  0.500000  0.553605  0.432843  1
  B  B13  1  0.500000  0.446395  0.567157  1
  B  B14  1  0.500000  0.053434  0.067276  1
  B  B15  1  0.500000  0.946566  0.932724  1
  B  B16  1  0.500000  0.748829  0.419426  1
  B  B17  1  0.500000  0.251171  0.580574  1
  B  B18  1  0.500000  0.248252  0.080130  1
  B  B19  1  0.500000  0.751748  0.919870  1
  B  B20  1  0.500000  0.791793  0.265465  1
  B  B21  1  0.500000  0.208207  0.734535  1
  B  B22  1  0.500000  0.292216  0.233641  1
  B  B23  1  0.500000  0.707784  0.766359  1
  B  B24  1  0.500000  0.631297  0.185163  1
  B  B25  1  0.500000  0.368703  0.814837  1
  B  B26  1  0.500000  0.131810  0.314128  1
  B  B27  1  0.500000  0.868190  0.685872  1
  B  B28  1  0.500000  0.982073  0.212228  1
  B  B29  1  0.500000  0.017927  0.787772  1
  B  B30  1  0.500000  0.482865  0.286345  1
  B  B31  1  0.500000  0.517135  0.713655  1
  B  B32  1  0.500000  0.604322  0.029148  1
  B  B33  1  0.500000  0.395678  0.970852  1
  B  B34  1  0.500000  0.109094  0.469792  1
  B  B35  1  0.500000  0.890906  0.530208  1
