# generated using pymatgen
data_Y3Er17(Ag3Ru)2
_symmetry_space_group_name_H-M   'P 1'
_cell_length_a   9.44032100
_cell_length_b   9.44032092
_cell_length_c   9.58526800
_cell_angle_alpha   90.00000000
_cell_angle_beta   90.00000000
_cell_angle_gamma   119.99999678
_symmetry_Int_Tables_number   1
_chemical_formula_structural   Y3Er17(Ag3Ru)2
_chemical_formula_sum   'Y3 Er17 Ag6 Ru2'
_cell_volume   739.78994782
_cell_formula_units_Z   1
loop_
 _symmetry_equiv_pos_site_id
 _symmetry_equiv_pos_as_xyz
  1  'x, y, z'
loop_
 _atom_site_type_symbol
 _atom_site_label
 _atom_site_symmetry_multiplicity
 _atom_site_fract_x
 _atom_site_fract_y
 _atom_site_fract_z
 _atom_site_occupancy
  Y  Y0  1  0.459065  0.540935  0.750000  1
  Y  Y1  1  0.459065  0.918131  0.750000  1
  Y  Y2  1  0.081869  0.540935  0.750000  1
  Er  Er3  1  0.000000  0.000000  0.500034  1
  Er  Er4  1  0.000000  0.000000  0.999966  1
  Er  Er5  1  0.208866  0.791134  0.440680  1
  Er  Er6  1  0.208866  0.417731  0.440680  1
  Er  Er7  1  0.582269  0.791134  0.440680  1
  Er  Er8  1  0.791167  0.208833  0.557992  1
  Er  Er9  1  0.791167  0.582334  0.557992  1
  Er  Er10  1  0.417666  0.208833  0.557992  1
  Er  Er11  1  0.791167  0.208833  0.942008  1
  Er  Er12  1  0.791167  0.582334  0.942008  1
  Er  Er13  1  0.417666  0.208833  0.942008  1
  Er  Er14  1  0.208866  0.791134  0.059320  1
  Er  Er15  1  0.208866  0.417731  0.059320  1
  Er  Er16  1  0.582269  0.791134  0.059320  1
  Er  Er17  1  0.541054  0.458946  0.250000  1
  Er  Er18  1  0.541054  0.082107  0.250000  1
  Er  Er19  1  0.917893  0.458946  0.250000  1
  Ag  Ag20  1  0.883222  0.116778  0.250000  1
  Ag  Ag21  1  0.883222  0.766446  0.250000  1
  Ag  Ag22  1  0.233554  0.116778  0.250000  1
  Ag  Ag23  1  0.115284  0.884716  0.750000  1
  Ag  Ag24  1  0.115284  0.230567  0.750000  1
  Ag  Ag25  1  0.769433  0.884716  0.750000  1
  Ru  Ru26  1  0.333333  0.666667  0.250000  1
  Ru  Ru27  1  0.666667  0.333333  0.750000  1
