# generated using pymatgen
data_Tb3Y(Sc4Bi3)4
_symmetry_space_group_name_H-M   'P 1'
_cell_length_a   7.90014201
_cell_length_b   9.05768300
_cell_length_c   11.57848201
_cell_angle_alpha   90.00000000
_cell_angle_beta   89.99449270
_cell_angle_gamma   90.00000000
_symmetry_Int_Tables_number   1
_chemical_formula_structural   Tb3Y(Sc4Bi3)4
_chemical_formula_sum   'Tb3 Y1 Sc16 Bi12'
_cell_volume   828.52122489
_cell_formula_units_Z   1
loop_
 _symmetry_equiv_pos_site_id
 _symmetry_equiv_pos_as_xyz
  1  'x, y, z'
loop_
 _atom_site_type_symbol
 _atom_site_label
 _atom_site_symmetry_multiplicity
 _atom_site_fract_x
 _atom_site_fract_y
 _atom_site_fract_z
 _atom_site_occupancy
  Tb  Tb0  1  0.815663  0.250000  0.280972  1
  Tb  Tb1  1  0.684323  0.750000  0.780972  1
  Tb  Tb2  1  0.184327  0.750000  0.719011  1
  Y  Y3  1  0.315651  0.250000  0.218978  1
  Sc  Sc4  1  0.348446  0.750000  0.220534  1
  Sc  Sc5  1  0.848439  0.750000  0.279483  1
  Sc  Sc6  1  0.651523  0.250000  0.779489  1
  Sc  Sc7  1  0.151541  0.250000  0.720510  1
  Sc  Sc8  1  0.693365  0.567235  0.062310  1
  Sc  Sc9  1  0.193344  0.932716  0.437679  1
  Sc  Sc10  1  0.306692  0.067211  0.937695  1
  Sc  Sc11  1  0.806687  0.432765  0.562276  1
  Sc  Sc12  1  0.306692  0.432789  0.937695  1
  Sc  Sc13  1  0.806687  0.067235  0.562276  1
  Sc  Sc14  1  0.693365  0.932765  0.062310  1
  Sc  Sc15  1  0.193344  0.567284  0.437679  1
  Sc  Sc16  1  0.481369  0.250000  0.488716  1
  Sc  Sc17  1  0.981295  0.250000  0.011371  1
  Sc  Sc18  1  0.518588  0.750000  0.511370  1
  Sc  Sc19  1  0.018677  0.750000  0.988600  1
  Bi  Bi20  1  0.402669  0.750000  0.967430  1
  Bi  Bi21  1  0.902646  0.750000  0.532572  1
  Bi  Bi22  1  0.597218  0.250000  0.032656  1
  Bi  Bi23  1  0.097408  0.250000  0.467385  1
  Bi  Bi24  1  0.563750  0.989320  0.328664  1
  Bi  Bi25  1  0.063902  0.510641  0.171338  1
  Bi  Bi26  1  0.436194  0.489261  0.671334  1
  Bi  Bi27  1  0.936174  0.010758  0.828679  1
  Bi  Bi28  1  0.436194  0.010739  0.671334  1
  Bi  Bi29  1  0.936174  0.489242  0.828679  1
  Bi  Bi30  1  0.563750  0.510680  0.328664  1
  Bi  Bi31  1  0.063902  0.989359  0.171338  1
