# generated using pymatgen
data_HoEr3Mo2(SeO4)6
_symmetry_space_group_name_H-M   'P 1'
_cell_length_a   6.56084820
_cell_length_b   7.12999817
_cell_length_c   10.82012907
_cell_angle_alpha   84.85811523
_cell_angle_beta   73.27614665
_cell_angle_gamma   86.61525407
_symmetry_Int_Tables_number   1
_chemical_formula_structural   HoEr3Mo2(SeO4)6
_chemical_formula_sum   'Ho1 Er3 Mo2 Se6 O24'
_cell_volume   482.50003737
_cell_formula_units_Z   1
loop_
 _symmetry_equiv_pos_site_id
 _symmetry_equiv_pos_as_xyz
  1  'x, y, z'
loop_
 _atom_site_type_symbol
 _atom_site_label
 _atom_site_symmetry_multiplicity
 _atom_site_fract_x
 _atom_site_fract_y
 _atom_site_fract_z
 _atom_site_occupancy
  Ho  Ho0  1  0.732654  0.637826  0.508609  1
  Er  Er1  1  0.267228  0.362174  0.491512  1
  Er  Er2  1  0.205132  0.182618  0.168874  1
  Er  Er3  1  0.794799  0.817415  0.831249  1
  Mo  Mo4  1  0.722837  0.893041  0.205308  1
  Mo  Mo5  1  0.277193  0.107108  0.794527  1
  Se  Se6  1  0.204064  0.659482  0.215617  1
  Se  Se7  1  0.796484  0.340423  0.784203  1
  Se  Se8  1  0.657991  0.365171  0.142285  1
  Se  Se9  1  0.341591  0.634841  0.858092  1
  Se  Se10  1  0.788953  0.140291  0.494195  1
  Se  Se11  1  0.210940  0.859909  0.505746  1
  O  O12  1  0.693878  0.671073  0.298849  1
  O  O13  1  0.305989  0.328864  0.700574  1
  O  O14  1  0.718077  0.958701  0.417269  1
  O  O15  1  0.282011  0.041854  0.582405  1
  O  O16  1  0.449799  0.975087  0.232274  1
  O  O17  1  0.550153  0.024956  0.767706  1
  O  O18  1  0.825947  0.172209  0.178620  1
  O  O19  1  0.174107  0.827892  0.821336  1
  O  O20  1  0.784678  0.832680  0.042802  1
  O  O21  1  0.215397  0.167400  0.957054  1
  O  O22  1  0.060427  0.874474  0.193706  1
  O  O23  1  0.939561  0.125420  0.806403  1
  O  O24  1  0.100178  0.496218  0.147666  1
  O  O25  1  0.899827  0.503765  0.852338  1
  O  O26  1  0.081724  0.600708  0.383454  1
  O  O27  1  0.919903  0.398643  0.616388  1
  O  O28  1  0.547984  0.272476  0.037910  1
  O  O29  1  0.451887  0.727596  0.962268  1
  O  O30  1  0.423154  0.347070  0.271491  1
  O  O31  1  0.576508  0.652886  0.729020  1
  O  O32  1  0.044137  0.191676  0.391674  1
  O  O33  1  0.956101  0.808760  0.608598  1
  O  O34  1  0.639032  0.339291  0.460464  1
  O  O35  1  0.359677  0.660002  0.539517  1
