# generated using pymatgen
data_Dy3Ho5Ti11Si16Hg
_symmetry_space_group_name_H-M   'P 1'
_cell_length_a   7.07374925
_cell_length_b   7.07327369
_cell_length_c   12.90543606
_cell_angle_alpha   90.12057159
_cell_angle_beta   89.87091277
_cell_angle_gamma   89.59290250
_symmetry_Int_Tables_number   1
_chemical_formula_structural   Dy3Ho5Ti11Si16Hg
_chemical_formula_sum   'Dy3 Ho5 Ti11 Si16 Hg1'
_cell_volume   645.69848328
_cell_formula_units_Z   1
loop_
 _symmetry_equiv_pos_site_id
 _symmetry_equiv_pos_as_xyz
  1  'x, y, z'
loop_
 _atom_site_type_symbol
 _atom_site_label
 _atom_site_symmetry_multiplicity
 _atom_site_fract_x
 _atom_site_fract_y
 _atom_site_fract_z
 _atom_site_occupancy
  Dy  Dy0  1  0.341104  0.002364  0.466902  1
  Dy  Dy1  1  0.497840  0.839606  0.715977  1
  Dy  Dy2  1  0.501412  0.157326  0.214907  1
  Ho  Ho3  1  0.840010  0.498339  0.283979  1
  Ho  Ho4  1  0.157076  0.501248  0.784977  1
  Ho  Ho5  1  0.657074  0.000417  0.968433  1
  Ho  Ho6  1  0.001956  0.341511  0.533146  1
  Ho  Ho7  1  0.000568  0.657029  0.031714  1
  Ti  Ti8  1  0.173693  0.826258  0.250519  1
  Ti  Ti9  1  0.826392  0.173827  0.749321  1
  Ti  Ti10  1  0.672955  0.672463  0.500082  1
  Ti  Ti11  1  0.146995  0.008641  0.876976  1
  Ti  Ti12  1  0.495464  0.650111  0.123543  1
  Ti  Ti13  1  0.507424  0.351314  0.624405  1
  Ti  Ti14  1  0.650150  0.495825  0.876518  1
  Ti  Ti15  1  0.351128  0.507208  0.375561  1
  Ti  Ti16  1  0.849754  0.991242  0.374508  1
  Ti  Ti17  1  0.008596  0.146832  0.123104  1
  Ti  Ti18  1  0.991457  0.849450  0.625516  1
  Si  Si19  1  0.201582  0.132354  0.683966  1
  Si  Si20  1  0.373818  0.724323  0.927423  1
  Si  Si21  1  0.631622  0.294619  0.432809  1
  Si  Si22  1  0.724855  0.374223  0.072722  1
  Si  Si23  1  0.293921  0.630698  0.567167  1
  Si  Si24  1  0.798534  0.866677  0.183059  1
  Si  Si25  1  0.131419  0.202199  0.316056  1
  Si  Si26  1  0.867379  0.798117  0.816954  1
  Si  Si27  1  0.285971  0.932536  0.067510  1
  Si  Si28  1  0.546632  0.790589  0.314665  1
  Si  Si29  1  0.458627  0.205860  0.805424  1
  Si  Si30  1  0.791337  0.546240  0.685175  1
  Si  Si31  1  0.205213  0.459121  0.194630  1
  Si  Si32  1  0.709961  0.048304  0.564008  1
  Si  Si33  1  0.932916  0.286236  0.932514  1
  Si  Si34  1  0.047720  0.709197  0.435956  1
  Hg  Hg35  1  0.327440  0.327692  0.999875  1
