# generated using pymatgen
data_Lu12CuTc3
_symmetry_space_group_name_H-M   'P 1'
_cell_length_a   6.13358237
_cell_length_b   7.26181654
_cell_length_c   8.93415600
_cell_angle_alpha   90.00000000
_cell_angle_beta   90.00000000
_cell_angle_gamma   90.11289031
_symmetry_Int_Tables_number   1
_chemical_formula_structural   Lu12CuTc3
_chemical_formula_sum   'Lu12 Cu1 Tc3'
_cell_volume   397.93502277
_cell_formula_units_Z   1
loop_
 _symmetry_equiv_pos_site_id
 _symmetry_equiv_pos_as_xyz
  1  'x, y, z'
loop_
 _atom_site_type_symbol
 _atom_site_label
 _atom_site_symmetry_multiplicity
 _atom_site_fract_x
 _atom_site_fract_y
 _atom_site_fract_z
 _atom_site_occupancy
  Lu  Lu0  1  0.331111  0.677615  0.067675  1
  Lu  Lu1  1  0.163298  0.177296  0.437336  1
  Lu  Lu2  1  0.663443  0.315581  0.558561  1
  Lu  Lu3  1  0.841372  0.827886  0.943270  1
  Lu  Lu4  1  0.663443  0.315581  0.941439  1
  Lu  Lu5  1  0.841372  0.827886  0.556730  1
  Lu  Lu6  1  0.331111  0.677615  0.432325  1
  Lu  Lu7  1  0.163298  0.177296  0.062664  1
  Lu  Lu8  1  0.872352  0.540001  0.250000  1
  Lu  Lu9  1  0.620814  0.038761  0.250000  1
  Lu  Lu10  1  0.131679  0.456298  0.750000  1
  Lu  Lu11  1  0.371880  0.967564  0.750000  1
  Cu  Cu12  1  0.551498  0.615863  0.750000  1
  Tc  Tc13  1  0.034196  0.884771  0.250000  1
  Tc  Tc14  1  0.462343  0.386320  0.250000  1
  Tc  Tc15  1  0.956791  0.113664  0.750000  1
