# generated using pymatgen
data_LaEu4Rh
_symmetry_space_group_name_H-M   'P 1'
_cell_length_a   6.80728000
_cell_length_b   7.55060700
_cell_length_c   16.52243000
_cell_angle_alpha   90.00000000
_cell_angle_beta   90.00000000
_cell_angle_gamma   90.00000000
_symmetry_Int_Tables_number   1
_chemical_formula_structural   LaEu4Rh
_chemical_formula_sum   'La4 Eu16 Rh4'
_cell_volume   849.23796604
_cell_formula_units_Z   4
loop_
 _symmetry_equiv_pos_site_id
 _symmetry_equiv_pos_as_xyz
  1  'x, y, z'
loop_
 _atom_site_type_symbol
 _atom_site_label
 _atom_site_symmetry_multiplicity
 _atom_site_fract_x
 _atom_site_fract_y
 _atom_site_fract_z
 _atom_site_occupancy
  La  La0  1  0.159636  0.088137  0.250000  1
  La  La1  1  0.840364  0.911863  0.750000  1
  La  La2  1  0.659636  0.411863  0.750000  1
  La  La3  1  0.340364  0.588137  0.250000  1
  Eu  Eu4  1  0.349958  0.309992  0.058251  1
  Eu  Eu5  1  0.650042  0.690008  0.941749  1
  Eu  Eu6  1  0.849958  0.190008  0.941749  1
  Eu  Eu7  1  0.650042  0.690008  0.558251  1
  Eu  Eu8  1  0.150042  0.809992  0.058251  1
  Eu  Eu9  1  0.349958  0.309992  0.441749  1
  Eu  Eu10  1  0.150042  0.809992  0.441749  1
  Eu  Eu11  1  0.849958  0.190008  0.558251  1
  Eu  Eu12  1  0.326296  0.039453  0.643479  1
  Eu  Eu13  1  0.673704  0.960547  0.356521  1
  Eu  Eu14  1  0.826296  0.460547  0.356521  1
  Eu  Eu15  1  0.673704  0.960547  0.143479  1
  Eu  Eu16  1  0.173704  0.539453  0.643479  1
  Eu  Eu17  1  0.326296  0.039453  0.856521  1
  Eu  Eu18  1  0.173704  0.539453  0.856521  1
  Eu  Eu19  1  0.826296  0.460547  0.143479  1
  Rh  Rh20  1  0.521268  0.267403  0.250000  1
  Rh  Rh21  1  0.478732  0.732597  0.750000  1
  Rh  Rh22  1  0.021268  0.232597  0.750000  1
  Rh  Rh23  1  0.978732  0.767403  0.250000  1
