# generated using pymatgen
data_TbEr4Bi2As
_symmetry_space_group_name_H-M   'P 1'
_cell_length_a   8.03411300
_cell_length_b   9.13931600
_cell_length_c   11.92206100
_cell_angle_alpha   90.00000000
_cell_angle_beta   90.00000000
_cell_angle_gamma   90.00000000
_symmetry_Int_Tables_number   1
_chemical_formula_structural   TbEr4Bi2As
_chemical_formula_sum   'Tb4 Er16 Bi8 As4'
_cell_volume   875.39279764
_cell_formula_units_Z   4
loop_
 _symmetry_equiv_pos_site_id
 _symmetry_equiv_pos_as_xyz
  1  'x, y, z'
loop_
 _atom_site_type_symbol
 _atom_site_label
 _atom_site_symmetry_multiplicity
 _atom_site_fract_x
 _atom_site_fract_y
 _atom_site_fract_z
 _atom_site_occupancy
  Tb  Tb0  1  0.164774  0.750000  0.214441  1
  Tb  Tb1  1  0.335226  0.750000  0.714441  1
  Tb  Tb2  1  0.835226  0.250000  0.785559  1
  Tb  Tb3  1  0.664774  0.250000  0.285559  1
  Er  Er4  1  0.818667  0.556981  0.062041  1
  Er  Er5  1  0.681333  0.943019  0.562041  1
  Er  Er6  1  0.181333  0.056981  0.937959  1
  Er  Er7  1  0.318667  0.443019  0.437959  1
  Er  Er8  1  0.181333  0.443019  0.937959  1
  Er  Er9  1  0.318667  0.056981  0.437959  1
  Er  Er10  1  0.818667  0.943019  0.062041  1
  Er  Er11  1  0.681333  0.556981  0.562041  1
  Er  Er12  1  0.467558  0.750000  0.001839  1
  Er  Er13  1  0.032442  0.750000  0.501839  1
  Er  Er14  1  0.532442  0.250000  0.998161  1
  Er  Er15  1  0.967558  0.250000  0.498161  1
  Er  Er16  1  0.640350  0.750000  0.294872  1
  Er  Er17  1  0.859650  0.750000  0.794872  1
  Er  Er18  1  0.359650  0.250000  0.705128  1
  Er  Er19  1  0.140350  0.250000  0.205128  1
  Bi  Bi20  1  0.930968  0.509988  0.326146  1
  Bi  Bi21  1  0.569032  0.990012  0.826146  1
  Bi  Bi22  1  0.069032  0.009988  0.673854  1
  Bi  Bi23  1  0.430968  0.490012  0.173854  1
  Bi  Bi24  1  0.069032  0.490012  0.673854  1
  Bi  Bi25  1  0.430968  0.009988  0.173854  1
  Bi  Bi26  1  0.930968  0.990012  0.326146  1
  Bi  Bi27  1  0.569032  0.509988  0.826146  1
  As  As28  1  0.409036  0.750000  0.477207  1
  As  As29  1  0.090964  0.750000  0.977207  1
  As  As30  1  0.590964  0.250000  0.522793  1
  As  As31  1  0.909036  0.250000  0.022793  1
