# generated using pymatgen
data_CaCu3Ni2
_symmetry_space_group_name_H-M   'P 1'
_cell_length_a   5.03097022
_cell_length_b   5.03097028
_cell_length_c   3.98948300
_cell_angle_alpha   90.00000000
_cell_angle_beta   90.00000000
_cell_angle_gamma   120.81492810
_symmetry_Int_Tables_number   1
_chemical_formula_structural   CaCu3Ni2
_chemical_formula_sum   'Ca1 Cu3 Ni2'
_cell_volume   86.72125063
_cell_formula_units_Z   1
loop_
 _symmetry_equiv_pos_site_id
 _symmetry_equiv_pos_as_xyz
  1  'x, y, z'
loop_
 _atom_site_type_symbol
 _atom_site_label
 _atom_site_symmetry_multiplicity
 _atom_site_fract_x
 _atom_site_fract_y
 _atom_site_fract_z
 _atom_site_occupancy
  Ca  Ca0  1  0.000000  0.000000  0.000000  1
  Cu  Cu1  1  0.500000  0.500000  0.500000  1
  Cu  Cu2  1  0.326492  0.673508  0.000000  1
  Cu  Cu3  1  0.673508  0.326492  0.000000  1
  Ni  Ni4  1  0.500000  0.000000  0.500000  1
  Ni  Ni5  1  0.000000  0.500000  0.500000  1
