# generated using pymatgen
data_Y3Mn6Fe2CoP6
_symmetry_space_group_name_H-M   'P 1'
_cell_length_a   3.66937800
_cell_length_b   10.85860200
_cell_length_c   12.43430800
_cell_angle_alpha   90.00000000
_cell_angle_beta   90.00000000
_cell_angle_gamma   90.00000000
_symmetry_Int_Tables_number   1
_chemical_formula_structural   Y3Mn6Fe2CoP6
_chemical_formula_sum   'Y6 Mn12 Fe4 Co2 P12'
_cell_volume   495.43648836
_cell_formula_units_Z   2
loop_
 _symmetry_equiv_pos_site_id
 _symmetry_equiv_pos_as_xyz
  1  'x, y, z'
loop_
 _atom_site_type_symbol
 _atom_site_label
 _atom_site_symmetry_multiplicity
 _atom_site_fract_x
 _atom_site_fract_y
 _atom_site_fract_z
 _atom_site_occupancy
  Y  Y0  1  0.000000  0.500000  0.533036  1
  Y  Y1  1  0.500000  0.000000  0.467309  1
  Y  Y2  1  0.500000  0.822709  0.203475  1
  Y  Y3  1  0.500000  0.177291  0.203475  1
  Y  Y4  1  0.000000  0.674848  0.798086  1
  Y  Y5  1  0.000000  0.325152  0.798086  1
  Mn  Mn6  1  0.500000  0.500000  0.157408  1
  Mn  Mn7  1  0.000000  0.000000  0.837168  1
  Mn  Mn8  1  0.000000  0.169293  0.002355  1
  Mn  Mn9  1  0.000000  0.830707  0.002355  1
  Mn  Mn10  1  0.500000  0.298109  0.431776  1
  Mn  Mn11  1  0.500000  0.701891  0.431776  1
  Mn  Mn12  1  0.000000  0.202917  0.568551  1
  Mn  Mn13  1  0.000000  0.797083  0.568551  1
  Mn  Mn14  1  0.500000  0.882028  0.703605  1
  Mn  Mn15  1  0.500000  0.117972  0.703605  1
  Mn  Mn16  1  0.000000  0.617058  0.295086  1
  Mn  Mn17  1  0.000000  0.382942  0.295086  1
  Fe  Fe18  1  0.000000  0.500000  0.993843  1
  Fe  Fe19  1  0.500000  0.000000  0.006411  1
  Fe  Fe20  1  0.500000  0.327989  0.998107  1
  Fe  Fe21  1  0.500000  0.672011  0.998107  1
  Co  Co22  1  0.500000  0.500000  0.710364  1
  Co  Co23  1  0.000000  0.000000  0.292522  1
  P  P24  1  0.500000  0.500000  0.892526  1
  P  P25  1  0.000000  0.000000  0.114029  1
  P  P26  1  0.500000  0.500000  0.356348  1
  P  P27  1  0.000000  0.000000  0.642635  1
  P  P28  1  0.500000  0.317609  0.620940  1
  P  P29  1  0.500000  0.682391  0.620940  1
  P  P30  1  0.000000  0.183392  0.380177  1
  P  P31  1  0.000000  0.816608  0.380177  1
  P  P32  1  0.500000  0.846498  0.887654  1
  P  P33  1  0.500000  0.153502  0.887654  1
  P  P34  1  0.000000  0.652387  0.108388  1
  P  P35  1  0.000000  0.347613  0.108388  1
