# generated using pymatgen
data_NdSm4Sn3Br
_symmetry_space_group_name_H-M   'P 1'
_cell_length_a   9.41655900
_cell_length_b   9.41507502
_cell_length_c   6.76283000
_cell_angle_alpha   90.00000000
_cell_angle_beta   90.00000000
_cell_angle_gamma   120.00521057
_symmetry_Int_Tables_number   1
_chemical_formula_structural   NdSm4Sn3Br
_chemical_formula_sum   'Nd2 Sm8 Sn6 Br2'
_cell_volume   519.22107710
_cell_formula_units_Z   2
loop_
 _symmetry_equiv_pos_site_id
 _symmetry_equiv_pos_as_xyz
  1  'x, y, z'
loop_
 _atom_site_type_symbol
 _atom_site_label
 _atom_site_symmetry_multiplicity
 _atom_site_fract_x
 _atom_site_fract_y
 _atom_site_fract_z
 _atom_site_occupancy
  Nd  Nd0  1  0.267371  0.267354  0.750000  1
  Nd  Nd1  1  0.000016  0.732646  0.750000  1
  Sm  Sm2  1  0.732818  0.000000  0.750000  1
  Sm  Sm3  1  0.999911  0.267613  0.250000  1
  Sm  Sm4  1  0.333614  0.666940  0.499417  1
  Sm  Sm5  1  0.732298  0.732387  0.250000  1
  Sm  Sm6  1  0.666675  0.333060  0.499417  1
  Sm  Sm7  1  0.267792  0.000000  0.250000  1
  Sm  Sm8  1  0.333614  0.666940  0.000583  1
  Sm  Sm9  1  0.666675  0.333060  0.000583  1
  Sn  Sn10  1  0.612549  0.000000  0.250000  1
  Sn  Sn11  1  0.999104  0.386539  0.750000  1
  Sn  Sn12  1  0.389060  0.000000  0.750000  1
  Sn  Sn13  1  0.612565  0.613461  0.750000  1
  Sn  Sn14  1  0.999915  0.612258  0.250000  1
  Sn  Sn15  1  0.387657  0.387742  0.250000  1
  Br  Br16  1  0.999183  0.000000  0.001627  1
  Br  Br17  1  0.999183  0.000000  0.498373  1
