# generated using pymatgen
data_Dy8Y12Si15Ag
_symmetry_space_group_name_H-M   'P 1'
_cell_length_a   7.46911601
_cell_length_b   7.70399877
_cell_length_c   14.67468397
_cell_angle_alpha   89.82306107
_cell_angle_beta   89.46141301
_cell_angle_gamma   90.14656366
_symmetry_Int_Tables_number   1
_chemical_formula_structural   Dy8Y12Si15Ag
_chemical_formula_sum   'Dy8 Y12 Si15 Ag1'
_cell_volume   844.36739433
_cell_formula_units_Z   1
loop_
 _symmetry_equiv_pos_site_id
 _symmetry_equiv_pos_as_xyz
  1  'x, y, z'
loop_
 _atom_site_type_symbol
 _atom_site_label
 _atom_site_symmetry_multiplicity
 _atom_site_fract_x
 _atom_site_fract_y
 _atom_site_fract_z
 _atom_site_occupancy
  Dy  Dy0  1  0.675736  0.825352  0.876204  1
  Dy  Dy1  1  0.181669  0.680099  0.621708  1
  Dy  Dy2  1  0.820348  0.323820  0.124074  1
  Dy  Dy3  1  0.317960  0.178351  0.377267  1
  Dy  Dy4  1  0.322692  0.178644  0.123527  1
  Dy  Dy5  1  0.819238  0.320469  0.377304  1
  Dy  Dy6  1  0.182248  0.676064  0.877865  1
  Dy  Dy7  1  0.681726  0.821039  0.622298  1
  Y  Y8  1  0.648277  0.991065  0.249992  1
  Y  Y9  1  0.149983  0.511045  0.248309  1
  Y  Y10  1  0.848692  0.488970  0.749472  1
  Y  Y11  1  0.349827  0.011588  0.749952  1
  Y  Y12  1  0.975511  0.822958  0.101209  1
  Y  Y13  1  0.471544  0.683622  0.401308  1
  Y  Y14  1  0.520768  0.315276  0.899004  1
  Y  Y15  1  0.029812  0.182246  0.598435  1
  Y  Y16  1  0.030040  0.176184  0.900000  1
  Y  Y17  1  0.529331  0.316514  0.598262  1
  Y  Y18  1  0.473382  0.682681  0.100602  1
  Y  Y19  1  0.969669  0.817023  0.400250  1
  Si  Si20  1  0.765925  0.628287  0.251508  1
  Si  Si21  1  0.266567  0.873270  0.251136  1
  Si  Si22  1  0.734091  0.125640  0.748837  1
  Si  Si23  1  0.231422  0.373698  0.747694  1
  Si  Si24  1  0.022097  0.104747  0.250398  1
  Si  Si25  1  0.523492  0.396023  0.252059  1
  Si  Si26  1  0.475643  0.604269  0.748215  1
  Si  Si27  1  0.977019  0.892888  0.748645  1
  Si  Si28  1  0.354599  0.971359  0.540097  1
  Si  Si29  1  0.649760  0.028595  0.041394  1
  Si  Si30  1  0.146361  0.470330  0.460080  1
  Si  Si31  1  0.158026  0.470912  0.042351  1
  Si  Si32  1  0.645464  0.028823  0.459403  1
  Si  Si33  1  0.351681  0.969307  0.961105  1
  Si  Si34  1  0.855360  0.529693  0.539009  1
  Ag  Ag35  1  0.844035  0.529144  0.961025  1
