# generated using pymatgen
data_La5ThNpO12
_symmetry_space_group_name_H-M   'P 1'
_cell_length_a   6.89331320
_cell_length_b   6.96945192
_cell_length_c   6.88332417
_cell_angle_alpha   99.29719542
_cell_angle_beta   98.70177211
_cell_angle_gamma   98.78055267
_symmetry_Int_Tables_number   1
_chemical_formula_structural   La5ThNpO12
_chemical_formula_sum   'La5 Th1 Np1 O12'
_cell_volume   317.23195853
_cell_formula_units_Z   1
loop_
 _symmetry_equiv_pos_site_id
 _symmetry_equiv_pos_as_xyz
  1  'x, y, z'
loop_
 _atom_site_type_symbol
 _atom_site_label
 _atom_site_symmetry_multiplicity
 _atom_site_fract_x
 _atom_site_fract_y
 _atom_site_fract_z
 _atom_site_occupancy
  La  La0  1  0.603960  0.142324  0.303964  1
  La  La1  1  0.396589  0.863153  0.695953  1
  La  La2  1  0.696715  0.394018  0.858433  1
  La  La3  1  0.855531  0.692106  0.394625  1
  La  La4  1  0.142660  0.306367  0.605943  1
  Th  Th5  1  0.302220  0.606276  0.139296  1
  Np  Np6  1  0.001020  0.999319  0.001600  1
  O  O7  1  0.437604  0.178148  0.592684  1
  O  O8  1  0.940517  0.690701  0.055389  1
  O  O9  1  0.181601  0.589527  0.429154  1
  O  O10  1  0.823850  0.410378  0.560931  1
  O  O11  1  0.555268  0.819536  0.396743  1
  O  O12  1  0.574557  0.438887  0.177428  1
  O  O13  1  0.405511  0.568448  0.830380  1
  O  O14  1  0.953860  0.066565  0.298076  1
  O  O15  1  0.045754  0.932554  0.702726  1
  O  O16  1  0.698872  0.052129  0.931674  1
  O  O17  1  0.079441  0.310036  0.957982  1
  O  O18  1  0.304468  0.939530  0.067017  1
