# generated using pymatgen
data_Rb4ZrTcI12
_symmetry_space_group_name_H-M   'P 1'
_cell_length_a   8.75855405
_cell_length_b   8.27621047
_cell_length_c   14.15225516
_cell_angle_alpha   54.58368332
_cell_angle_beta   90.22459500
_cell_angle_gamma   90.26342940
_symmetry_Int_Tables_number   1
_chemical_formula_structural   Rb4ZrTcI12
_chemical_formula_sum   'Rb4 Zr1 Tc1 I12'
_cell_volume   836.03078168
_cell_formula_units_Z   1
loop_
 _symmetry_equiv_pos_site_id
 _symmetry_equiv_pos_as_xyz
  1  'x, y, z'
loop_
 _atom_site_type_symbol
 _atom_site_label
 _atom_site_symmetry_multiplicity
 _atom_site_fract_x
 _atom_site_fract_y
 _atom_site_fract_z
 _atom_site_occupancy
  Rb  Rb0  1  0.423982  0.727720  0.252069  1
  Rb  Rb1  1  0.924951  0.259530  0.255607  1
  Rb  Rb2  1  0.075049  0.740470  0.744393  1
  Rb  Rb3  1  0.576018  0.272280  0.747931  1
  Zr  Zr4  1  0.000000  0.000000  0.000000  1
  Tc  Tc5  1  0.500000  0.000000  0.500000  1
  I  I6  1  0.822033  0.326996  0.962484  1
  I  I7  1  0.507367  0.158305  0.267280  1
  I  I8  1  0.492633  0.841695  0.732720  1
  I  I9  1  0.280900  0.213189  0.966583  1
  I  I10  1  0.320704  0.690754  0.538798  1
  I  I11  1  0.238301  0.215382  0.463117  1
  I  I12  1  0.177967  0.673004  0.037516  1
  I  I13  1  0.761699  0.784618  0.536883  1
  I  I14  1  0.719100  0.786811  0.033417  1
  I  I15  1  0.006375  0.821651  0.246040  1
  I  I16  1  0.993625  0.178349  0.753960  1
  I  I17  1  0.679296  0.309246  0.461202  1
