# generated using pymatgen
data_MgGa3(FeRh3)2
_symmetry_space_group_name_H-M   'P 1'
_cell_length_a   4.30300500
_cell_length_b   6.05348600
_cell_length_c   12.92238001
_cell_angle_alpha   90.00000000
_cell_angle_beta   89.99630913
_cell_angle_gamma   90.00000000
_symmetry_Int_Tables_number   1
_chemical_formula_structural   MgGa3(FeRh3)2
_chemical_formula_sum   'Mg2 Ga6 Fe4 Rh12'
_cell_volume   336.60448671
_cell_formula_units_Z   2
loop_
 _symmetry_equiv_pos_site_id
 _symmetry_equiv_pos_as_xyz
  1  'x, y, z'
loop_
 _atom_site_type_symbol
 _atom_site_label
 _atom_site_symmetry_multiplicity
 _atom_site_fract_x
 _atom_site_fract_y
 _atom_site_fract_z
 _atom_site_occupancy
  Mg  Mg0  1  0.000009  0.500000  0.999793  1
  Mg  Mg1  1  0.499794  0.000000  0.166913  1
  Ga  Ga2  1  0.999998  0.000000  0.000878  1
  Ga  Ga3  1  0.499848  0.500000  0.165828  1
  Ga  Ga4  1  0.999794  0.000000  0.332791  1
  Ga  Ga5  1  0.500004  0.500000  0.500389  1
  Ga  Ga6  1  0.000176  0.000000  0.666208  1
  Ga  Ga7  1  0.500200  0.500000  0.833928  1
  Fe  Fe8  1  0.999799  0.500000  0.332615  1
  Fe  Fe9  1  0.500002  0.000000  0.499587  1
  Fe  Fe10  1  0.000174  0.500000  0.667136  1
  Fe  Fe11  1  0.500196  0.000000  0.834009  1
  Rh  Rh12  1  0.500013  0.245636  0.996834  1
  Rh  Rh13  1  0.500013  0.754364  0.996834  1
  Rh  Rh14  1  0.999837  0.254397  0.169875  1
  Rh  Rh15  1  0.999837  0.745604  0.169875  1
  Rh  Rh16  1  0.499820  0.253684  0.337474  1
  Rh  Rh17  1  0.499820  0.746314  0.337474  1
  Rh  Rh18  1  0.999998  0.250075  0.500873  1
  Rh  Rh19  1  0.999998  0.749925  0.500873  1
  Rh  Rh20  1  0.500159  0.250034  0.665752  1
  Rh  Rh21  1  0.500159  0.749964  0.665752  1
  Rh  Rh22  1  0.000181  0.246406  0.829156  1
  Rh  Rh23  1  0.000181  0.753595  0.829156  1
