# generated using pymatgen
data_DyEr5Sc4(In2Rh)4
_symmetry_space_group_name_H-M   'P 1'
_cell_length_a   3.52815900
_cell_length_b   7.86794909
_cell_length_c   17.92227221
_cell_angle_alpha   89.98261679
_cell_angle_beta   90.00000000
_cell_angle_gamma   90.00000000
_symmetry_Int_Tables_number   1
_chemical_formula_structural   DyEr5Sc4(In2Rh)4
_chemical_formula_sum   'Dy1 Er5 Sc4 In8 Rh4'
_cell_volume   497.51105921
_cell_formula_units_Z   1
loop_
 _symmetry_equiv_pos_site_id
 _symmetry_equiv_pos_as_xyz
  1  'x, y, z'
loop_
 _atom_site_type_symbol
 _atom_site_label
 _atom_site_symmetry_multiplicity
 _atom_site_fract_x
 _atom_site_fract_y
 _atom_site_fract_z
 _atom_site_occupancy
  Dy  Dy0  1  0.000000  0.000000  0.000000  1
  Er  Er1  1  0.000000  0.500000  0.500000  1
  Er  Er2  1  0.000000  0.748206  0.781907  1
  Er  Er3  1  0.000000  0.251794  0.218093  1
  Er  Er4  1  0.000000  0.248188  0.718087  1
  Er  Er5  1  0.000000  0.751812  0.281913  1
  Sc  Sc6  1  0.000000  0.877481  0.588691  1
  Sc  Sc7  1  0.000000  0.122519  0.411309  1
  Sc  Sc8  1  0.000000  0.377560  0.911275  1
  Sc  Sc9  1  0.000000  0.622440  0.088725  1
  In  In10  1  0.500000  0.808730  0.438168  1
  In  In11  1  0.500000  0.191270  0.561832  1
  In  In12  1  0.500000  0.309224  0.061961  1
  In  In13  1  0.500000  0.690776  0.938039  1
  In  In14  1  0.500000  0.925661  0.149747  1
  In  In15  1  0.500000  0.074339  0.850253  1
  In  In16  1  0.500000  0.425770  0.350511  1
  In  In17  1  0.500000  0.574230  0.649489  1
  Rh  Rh18  1  0.500000  0.962971  0.692743  1
  Rh  Rh19  1  0.500000  0.037029  0.307257  1
  Rh  Rh20  1  0.500000  0.462999  0.807225  1
  Rh  Rh21  1  0.500000  0.537001  0.192775  1
