# generated using pymatgen
data_Pa4ZnGa3Pt4
_symmetry_space_group_name_H-M   'P 1'
_cell_length_a   4.44911700
_cell_length_b   6.80257463
_cell_length_c   7.81936537
_cell_angle_alpha   90.29851024
_cell_angle_beta   90.00000000
_cell_angle_gamma   90.00000000
_symmetry_Int_Tables_number   1
_chemical_formula_structural   Pa4ZnGa3Pt4
_chemical_formula_sum   'Pa4 Zn1 Ga3 Pt4'
_cell_volume   236.65340306
_cell_formula_units_Z   1
loop_
 _symmetry_equiv_pos_site_id
 _symmetry_equiv_pos_as_xyz
  1  'x, y, z'
loop_
 _atom_site_type_symbol
 _atom_site_label
 _atom_site_symmetry_multiplicity
 _atom_site_fract_x
 _atom_site_fract_y
 _atom_site_fract_z
 _atom_site_occupancy
  Pa  Pa0  1  0.250000  0.999045  0.287819  1
  Pa  Pa1  1  0.250000  0.517136  0.212632  1
  Pa  Pa2  1  0.750000  0.993643  0.711514  1
  Pa  Pa3  1  0.750000  0.491906  0.789154  1
  Zn  Zn4  1  0.750000  0.814152  0.079384  1
  Ga  Ga5  1  0.250000  0.683210  0.582613  1
  Ga  Ga6  1  0.250000  0.181320  0.921327  1
  Ga  Ga7  1  0.750000  0.313564  0.416989  1
  Pt  Pt8  1  0.250000  0.264699  0.589086  1
  Pt  Pt9  1  0.250000  0.766625  0.910106  1
  Pt  Pt10  1  0.750000  0.733842  0.411787  1
  Pt  Pt11  1  0.750000  0.240861  0.087591  1
