# generated using pymatgen
data_Np(BiO2)7
_symmetry_space_group_name_H-M   'P 1'
_cell_length_a   7.01411792
_cell_length_b   7.03520733
_cell_length_c   7.99713395
_cell_angle_alpha   107.10759290
_cell_angle_beta   87.99460457
_cell_angle_gamma   102.76285397
_symmetry_Int_Tables_number   1
_chemical_formula_structural   Np(BiO2)7
_chemical_formula_sum   'Np1 Bi7 O14'
_cell_volume   367.65506804
_cell_formula_units_Z   1
loop_
 _symmetry_equiv_pos_site_id
 _symmetry_equiv_pos_as_xyz
  1  'x, y, z'
loop_
 _atom_site_type_symbol
 _atom_site_label
 _atom_site_symmetry_multiplicity
 _atom_site_fract_x
 _atom_site_fract_y
 _atom_site_fract_z
 _atom_site_occupancy
  Np  Np0  1  0.000000  0.000000  0.000000  1
  Bi  Bi1  1  0.000000  0.000000  0.500000  1
  Bi  Bi2  1  0.477546  0.989652  0.272534  1
  Bi  Bi3  1  0.522454  0.010348  0.727466  1
  Bi  Bi4  1  0.271642  0.515768  0.864146  1
  Bi  Bi5  1  0.728358  0.484232  0.135854  1
  Bi  Bi6  1  0.723504  0.491481  0.599445  1
  Bi  Bi7  1  0.276496  0.508519  0.400555  1
  O  O8  1  0.492864  0.647162  0.200993  1
  O  O9  1  0.507136  0.352838  0.799007  1
  O  O10  1  0.255154  0.939616  0.909468  1
  O  O11  1  0.744846  0.060384  0.090532  1
  O  O12  1  0.303746  0.905882  0.509035  1
  O  O13  1  0.696254  0.094118  0.490965  1
  O  O14  1  0.525481  0.345348  0.362497  1
  O  O15  1  0.474519  0.654652  0.637503  1
  O  O16  1  0.912023  0.706157  0.006115  1
  O  O17  1  0.087977  0.293843  0.993885  1
  O  O18  1  0.112987  0.361976  0.617986  1
  O  O19  1  0.887013  0.638024  0.382014  1
  O  O20  1  0.876290  0.912136  0.750079  1
  O  O21  1  0.123710  0.087864  0.249921  1
