# generated using pymatgen
data_Lu5IrRh2
_symmetry_space_group_name_H-M   'P 1'
_cell_length_a   10.64877900
_cell_length_b   10.64877900
_cell_length_c   6.26679200
_cell_angle_alpha   90.00000000
_cell_angle_beta   90.00000000
_cell_angle_gamma   90.00000000
_symmetry_Int_Tables_number   1
_chemical_formula_structural   Lu5IrRh2
_chemical_formula_sum   'Lu20 Ir4 Rh8'
_cell_volume   710.63224262
_cell_formula_units_Z   4
loop_
 _symmetry_equiv_pos_site_id
 _symmetry_equiv_pos_as_xyz
  1  'x, y, z'
loop_
 _atom_site_type_symbol
 _atom_site_label
 _atom_site_symmetry_multiplicity
 _atom_site_fract_x
 _atom_site_fract_y
 _atom_site_fract_z
 _atom_site_occupancy
  Lu  Lu0  1  0.291657  0.089083  0.378452  1
  Lu  Lu1  1  0.291657  0.910917  0.878452  1
  Lu  Lu2  1  0.708343  0.089083  0.878452  1
  Lu  Lu3  1  0.708343  0.910917  0.378452  1
  Lu  Lu4  1  0.586756  0.790218  0.878825  1
  Lu  Lu5  1  0.586756  0.209782  0.378825  1
  Lu  Lu6  1  0.413244  0.790218  0.378825  1
  Lu  Lu7  1  0.413244  0.209782  0.878825  1
  Lu  Lu8  1  0.209782  0.413244  0.621175  1
  Lu  Lu9  1  0.209782  0.586756  0.121175  1
  Lu  Lu10  1  0.790218  0.413244  0.121175  1
  Lu  Lu11  1  0.790218  0.586756  0.621175  1
  Lu  Lu12  1  0.910917  0.708343  0.121548  1
  Lu  Lu13  1  0.910917  0.291657  0.621548  1
  Lu  Lu14  1  0.089083  0.708343  0.621548  1
  Lu  Lu15  1  0.089083  0.291657  0.121548  1
  Lu  Lu16  1  0.000000  0.000000  0.500000  1
  Lu  Lu17  1  0.000000  0.000000  0.000000  1
  Lu  Lu18  1  0.500000  0.500000  0.000000  1
  Lu  Lu19  1  0.500000  0.500000  0.500000  1
  Ir  Ir20  1  0.654583  0.345417  0.750000  1
  Ir  Ir21  1  0.654583  0.654583  0.250000  1
  Ir  Ir22  1  0.345417  0.345417  0.250000  1
  Ir  Ir23  1  0.345417  0.654583  0.750000  1
  Rh  Rh24  1  0.846998  0.153002  0.250000  1
  Rh  Rh25  1  0.846998  0.846998  0.750000  1
  Rh  Rh26  1  0.153002  0.153002  0.750000  1
  Rh  Rh27  1  0.153002  0.846998  0.250000  1
  Rh  Rh28  1  0.500000  0.000000  0.127492  1
  Rh  Rh29  1  0.500000  0.000000  0.627492  1
  Rh  Rh30  1  0.000000  0.500000  0.872508  1
  Rh  Rh31  1  0.000000  0.500000  0.372508  1
