# generated using pymatgen
data_Er3In3CuAgHg
_symmetry_space_group_name_H-M   'P 1'
_cell_length_a   7.68470800
_cell_length_b   7.68470856
_cell_length_c   4.01055500
_cell_angle_alpha   90.00000000
_cell_angle_beta   90.00000000
_cell_angle_gamma   119.99999757
_symmetry_Int_Tables_number   1
_chemical_formula_structural   Er3In3CuAgHg
_chemical_formula_sum   'Er3 In3 Cu1 Ag1 Hg1'
_cell_volume   205.11144339
_cell_formula_units_Z   1
loop_
 _symmetry_equiv_pos_site_id
 _symmetry_equiv_pos_as_xyz
  1  'x, y, z'
loop_
 _atom_site_type_symbol
 _atom_site_label
 _atom_site_symmetry_multiplicity
 _atom_site_fract_x
 _atom_site_fract_y
 _atom_site_fract_z
 _atom_site_occupancy
  Er  Er0  1  0.996374  0.595998  0.500000  1
  Er  Er1  1  0.404002  0.400376  0.500000  1
  Er  Er2  1  0.599624  0.003626  0.500000  1
  In  In3  1  0.756360  0.750784  0.000000  1
  In  In4  1  0.994426  0.243640  0.000000  1
  In  In5  1  0.249216  0.005574  0.000000  1
  Cu  Cu6  1  0.000000  0.000000  0.500000  1
  Ag  Ag7  1  0.666667  0.333333  0.000000  1
  Hg  Hg8  1  0.333333  0.666667  0.000000  1
