# generated using pymatgen
data_Pa2Be22Cu3Ni
_symmetry_space_group_name_H-M   'P 1'
_cell_length_a   7.32105637
_cell_length_b   7.33514477
_cell_length_c   7.29404731
_cell_angle_alpha   60.05803882
_cell_angle_beta   60.33455193
_cell_angle_gamma   59.69264196
_symmetry_Int_Tables_number   1
_chemical_formula_structural   Pa2Be22Cu3Ni
_chemical_formula_sum   'Pa2 Be22 Cu3 Ni1'
_cell_volume   277.13300071
_cell_formula_units_Z   1
loop_
 _symmetry_equiv_pos_site_id
 _symmetry_equiv_pos_as_xyz
  1  'x, y, z'
loop_
 _atom_site_type_symbol
 _atom_site_label
 _atom_site_symmetry_multiplicity
 _atom_site_fract_x
 _atom_site_fract_y
 _atom_site_fract_z
 _atom_site_occupancy
  Pa  Pa0  1  0.250509  0.249604  0.255147  1
  Pa  Pa1  1  0.744855  0.755263  0.749486  1
  Be  Be2  1  0.499055  0.494823  0.500944  1
  Be  Be3  1  0.998949  0.000632  0.001055  1
  Be  Be4  1  0.280266  0.935694  0.719740  1
  Be  Be5  1  0.718371  0.067282  0.281632  1
  Be  Be6  1  0.934234  0.280375  0.065765  1
  Be  Be7  1  0.066774  0.720285  0.933223  1
  Be  Be8  1  0.198608  0.801321  0.556895  1
  Be  Be9  1  0.797933  0.199582  0.443015  1
  Be  Be10  1  0.443108  0.556830  0.801385  1
  Be  Be11  1  0.556994  0.440536  0.202061  1
  Be  Be12  1  0.713522  0.287632  0.935390  1
  Be  Be13  1  0.287201  0.712701  0.063555  1
  Be  Be14  1  0.064607  0.936533  0.286486  1
  Be  Be15  1  0.936436  0.063453  0.712811  1
  Be  Be16  1  0.563812  0.204122  0.793768  1
  Be  Be17  1  0.435442  0.796152  0.204248  1
  Be  Be18  1  0.795745  0.435845  0.564566  1
  Be  Be19  1  0.206231  0.561702  0.436187  1
  Be  Be20  1  0.942832  0.710238  0.289287  1
  Be  Be21  1  0.061870  0.287998  0.709550  1
  Be  Be22  1  0.290458  0.059413  0.938124  1
  Be  Be23  1  0.710713  0.942355  0.057163  1
  Cu  Cu24  1  0.805151  0.556002  0.194851  1
  Cu  Cu25  1  0.195445  0.444691  0.804549  1
  Cu  Cu26  1  0.554962  0.804870  0.445036  1
  Ni  Ni27  1  0.445916  0.194063  0.554079  1
