# generated using pymatgen
data_Tm8Ti11ReSi16
_symmetry_space_group_name_H-M   'P 1'
_cell_length_a   6.97968009
_cell_length_b   6.97968002
_cell_length_c   12.81515167
_cell_angle_alpha   89.98149333
_cell_angle_beta   89.98149081
_cell_angle_gamma   90.01238721
_symmetry_Int_Tables_number   1
_chemical_formula_structural   Tm8Ti11ReSi16
_chemical_formula_sum   'Tm8 Ti11 Re1 Si16'
_cell_volume   624.30199881
_cell_formula_units_Z   1
loop_
 _symmetry_equiv_pos_site_id
 _symmetry_equiv_pos_as_xyz
  1  'x, y, z'
loop_
 _atom_site_type_symbol
 _atom_site_label
 _atom_site_symmetry_multiplicity
 _atom_site_fract_x
 _atom_site_fract_y
 _atom_site_fract_z
 _atom_site_occupancy
  Tm  Tm0  1  0.997835  0.660206  0.031694  1
  Tm  Tm1  1  0.999455  0.340203  0.534989  1
  Tm  Tm2  1  0.339794  0.002165  0.468306  1
  Tm  Tm3  1  0.158033  0.500809  0.781865  1
  Tm  Tm4  1  0.840738  0.497120  0.282729  1
  Tm  Tm5  1  0.502880  0.159262  0.217271  1
  Tm  Tm6  1  0.499191  0.841967  0.718135  1
  Tm  Tm7  1  0.659797  0.000545  0.965011  1
  Ti  Ti8  1  0.673823  0.672080  0.501376  1
  Ti  Ti9  1  0.173327  0.826673  0.250000  1
  Ti  Ti10  1  0.327920  0.326177  0.998624  1
  Ti  Ti11  1  0.991983  0.847177  0.625887  1
  Ti  Ti12  1  0.006603  0.150848  0.122909  1
  Ti  Ti13  1  0.849152  0.993397  0.377091  1
  Ti  Ti14  1  0.348773  0.506397  0.374782  1
  Ti  Ti15  1  0.653027  0.493551  0.874161  1
  Ti  Ti16  1  0.506449  0.346973  0.625839  1
  Ti  Ti17  1  0.493603  0.651227  0.125218  1
  Ti  Ti18  1  0.152823  0.008017  0.874113  1
  Re  Re19  1  0.826382  0.173618  0.750000  1
  Si  Si20  1  0.046254  0.706647  0.435150  1
  Si  Si21  1  0.631452  0.296540  0.433672  1
  Si  Si22  1  0.368475  0.703617  0.932826  1
  Si  Si23  1  0.200763  0.129701  0.682975  1
  Si  Si24  1  0.296383  0.631525  0.567174  1
  Si  Si25  1  0.703460  0.368548  0.066328  1
  Si  Si26  1  0.796695  0.868176  0.183314  1
  Si  Si27  1  0.131824  0.203305  0.316686  1
  Si  Si28  1  0.952383  0.292698  0.932967  1
  Si  Si29  1  0.707302  0.047617  0.567033  1
  Si  Si30  1  0.207366  0.452677  0.184461  1
  Si  Si31  1  0.790139  0.545055  0.685517  1
  Si  Si32  1  0.454945  0.209861  0.814483  1
  Si  Si33  1  0.547323  0.792634  0.315539  1
  Si  Si34  1  0.293353  0.953746  0.064850  1
  Si  Si35  1  0.870299  0.799237  0.817025  1
