# generated using pymatgen
data_Pr2MnSi4(PPd10)2
_symmetry_space_group_name_H-M   'P 1'
_cell_length_a   8.70703295
_cell_length_b   8.71087147
_cell_length_c   8.71087285
_cell_angle_alpha   59.97083304
_cell_angle_beta   60.01458149
_cell_angle_gamma   60.01458186
_symmetry_Int_Tables_number   1
_chemical_formula_structural   Pr2MnSi4(PPd10)2
_chemical_formula_sum   'Pr2 Mn1 Si4 P2 Pd20'
_cell_volume   467.17359675
_cell_formula_units_Z   1
loop_
 _symmetry_equiv_pos_site_id
 _symmetry_equiv_pos_as_xyz
  1  'x, y, z'
loop_
 _atom_site_type_symbol
 _atom_site_label
 _atom_site_symmetry_multiplicity
 _atom_site_fract_x
 _atom_site_fract_y
 _atom_site_fract_z
 _atom_site_occupancy
  Pr  Pr0  1  0.250000  0.250000  0.250000  1
  Pr  Pr1  1  0.750000  0.750000  0.750000  1
  Mn  Mn2  1  0.000000  0.000000  0.000000  1
  Si  Si3  1  0.264079  0.735921  0.264079  1
  Si  Si4  1  0.735921  0.264079  0.735921  1
  Si  Si5  1  0.264079  0.264079  0.735921  1
  Si  Si6  1  0.735921  0.735921  0.264079  1
  P  P7  1  0.735514  0.264486  0.264486  1
  P  P8  1  0.264486  0.735514  0.735514  1
  Pd  Pd9  1  0.387069  0.385366  0.385366  1
  Pd  Pd10  1  0.612931  0.614634  0.614634  1
  Pd  Pd11  1  0.385366  0.387069  0.842199  1
  Pd  Pd12  1  0.385366  0.842199  0.387069  1
  Pd  Pd13  1  0.614634  0.612931  0.157801  1
  Pd  Pd14  1  0.614634  0.157801  0.612931  1
  Pd  Pd15  1  0.842199  0.385366  0.385366  1
  Pd  Pd16  1  0.157801  0.614634  0.614634  1
  Pd  Pd17  1  0.344411  0.000000  0.000000  1
  Pd  Pd18  1  0.655589  0.000000  0.000000  1
  Pd  Pd19  1  0.000000  0.344411  0.655589  1
  Pd  Pd20  1  0.000000  0.655589  0.344411  1
  Pd  Pd21  1  0.998188  0.342889  0.001812  1
  Pd  Pd22  1  0.657111  0.001812  0.342889  1
  Pd  Pd23  1  0.001812  0.657111  0.998188  1
  Pd  Pd24  1  0.342889  0.998188  0.657111  1
  Pd  Pd25  1  0.998188  0.001812  0.342889  1
  Pd  Pd26  1  0.001812  0.998188  0.657111  1
  Pd  Pd27  1  0.657111  0.342889  0.001812  1
  Pd  Pd28  1  0.342889  0.657111  0.998188  1
