# generated using pymatgen
data_U8V7Si16W5
_symmetry_space_group_name_H-M   'P 1'
_cell_length_a   6.72883102
_cell_length_b   6.72762106
_cell_length_c   12.74818176
_cell_angle_alpha   90.06136944
_cell_angle_beta   89.92886845
_cell_angle_gamma   90.13137939
_symmetry_Int_Tables_number   1
_chemical_formula_structural   U8V7Si16W5
_chemical_formula_sum   'U8 V7 Si16 W5'
_cell_volume   577.09547151
_cell_formula_units_Z   1
loop_
 _symmetry_equiv_pos_site_id
 _symmetry_equiv_pos_as_xyz
  1  'x, y, z'
loop_
 _atom_site_type_symbol
 _atom_site_label
 _atom_site_symmetry_multiplicity
 _atom_site_fract_x
 _atom_site_fract_y
 _atom_site_fract_z
 _atom_site_occupancy
  U  U0  1  0.974621  0.296434  0.225335  1
  U  U1  1  0.024561  0.705174  0.727618  1
  U  U2  1  0.205603  0.474054  0.476380  1
  U  U3  1  0.525214  0.794371  0.023378  1
  U  U4  1  0.794175  0.525631  0.976250  1
  U  U5  1  0.474649  0.205542  0.523828  1
  U  U6  1  0.294287  0.974863  0.773918  1
  U  U7  1  0.704394  0.025071  0.272891  1
  V  V8  1  0.834202  0.999100  0.866703  1
  V  V9  1  0.499918  0.664540  0.617000  1
  V  V10  1  0.333947  0.499770  0.883500  1
  V  V11  1  0.499305  0.334257  0.115274  1
  V  V12  1  0.667228  0.500027  0.383759  1
  V  V13  1  0.999792  0.165382  0.633124  1
  V  V14  1  0.998319  0.834586  0.132756  1
  Si  Si15  1  0.307535  0.028004  0.176376  1
  Si  Si16  1  0.693220  0.972507  0.678460  1
  Si  Si17  1  0.477447  0.803823  0.429879  1
  Si  Si18  1  0.192987  0.527917  0.071492  1
  Si  Si19  1  0.527292  0.192937  0.927948  1
  Si  Si20  1  0.807606  0.473834  0.572237  1
  Si  Si21  1  0.026636  0.306296  0.821582  1
  Si  Si22  1  0.970767  0.689748  0.320634  1
  Si  Si23  1  0.388299  0.297199  0.304028  1
  Si  Si24  1  0.614716  0.706085  0.805480  1
  Si  Si25  1  0.208917  0.882208  0.558600  1
  Si  Si26  1  0.115485  0.793899  0.944725  1
  Si  Si27  1  0.793143  0.115748  0.055039  1
  Si  Si28  1  0.879788  0.209012  0.444950  1
  Si  Si29  1  0.292716  0.384373  0.694833  1
  Si  Si30  1  0.704740  0.615005  0.194247  1
  W  W31  1  0.162038  0.163080  0.999698  1
  W  W32  1  0.839300  0.837949  0.500263  1
  W  W33  1  0.337323  0.663366  0.249930  1
  W  W34  1  0.662370  0.337249  0.749855  1
  W  W35  1  0.167462  0.000962  0.368031  1
