# generated using pymatgen
data_Er5Tm3Sc12Si15Os
_symmetry_space_group_name_H-M   'P 1'
_cell_length_a   7.05382341
_cell_length_b   7.40929729
_cell_length_c   13.89948706
_cell_angle_alpha   89.99106353
_cell_angle_beta   89.99467947
_cell_angle_gamma   90.19172395
_symmetry_Int_Tables_number   1
_chemical_formula_structural   Er5Tm3Sc12Si15Os
_chemical_formula_sum   'Er5 Tm3 Sc12 Si15 Os1'
_cell_volume   726.43697062
_cell_formula_units_Z   1
loop_
 _symmetry_equiv_pos_site_id
 _symmetry_equiv_pos_as_xyz
  1  'x, y, z'
loop_
 _atom_site_type_symbol
 _atom_site_label
 _atom_site_symmetry_multiplicity
 _atom_site_fract_x
 _atom_site_fract_y
 _atom_site_fract_z
 _atom_site_occupancy
  Er  Er0  1  0.990272  0.827550  0.595416  1
  Er  Er1  1  0.511590  0.322586  0.096044  1
  Er  Er2  1  0.011980  0.180053  0.403770  1
  Er  Er3  1  0.511507  0.322615  0.403897  1
  Er  Er4  1  0.488111  0.677169  0.595325  1
  Tm  Tm5  1  0.011987  0.180197  0.096333  1
  Tm  Tm6  1  0.990288  0.827500  0.904463  1
  Tm  Tm7  1  0.488050  0.677458  0.904542  1
  Sc  Sc8  1  0.156296  0.498819  0.750076  1
  Sc  Sc9  1  0.838970  0.495518  0.249948  1
  Sc  Sc10  1  0.340018  0.006647  0.249953  1
  Sc  Sc11  1  0.667797  0.996123  0.750089  1
  Sc  Sc12  1  0.316538  0.171372  0.627445  1
  Sc  Sc13  1  0.672725  0.826244  0.373716  1
  Sc  Sc14  1  0.171960  0.678219  0.374028  1
  Sc  Sc15  1  0.672711  0.826233  0.126173  1
  Sc  Sc16  1  0.837350  0.318633  0.627717  1
  Sc  Sc17  1  0.316293  0.171276  0.872636  1
  Sc  Sc18  1  0.837423  0.318557  0.872367  1
  Sc  Sc19  1  0.171921  0.678291  0.125862  1
  Si  Si20  1  0.969990  0.887136  0.249915  1
  Si  Si21  1  0.470510  0.613387  0.249970  1
  Si  Si22  1  0.528465  0.389821  0.750108  1
  Si  Si23  1  0.285461  0.863575  0.750229  1
  Si  Si24  1  0.714408  0.132567  0.249883  1
  Si  Si25  1  0.214666  0.369665  0.249864  1
  Si  Si26  1  0.778104  0.627858  0.750221  1
  Si  Si27  1  0.160266  0.468852  0.537044  1
  Si  Si28  1  0.843511  0.535741  0.461529  1
  Si  Si29  1  0.344185  0.966537  0.459781  1
  Si  Si30  1  0.843573  0.535709  0.038449  1
  Si  Si31  1  0.655499  0.034083  0.538369  1
  Si  Si32  1  0.160477  0.469087  0.962901  1
  Si  Si33  1  0.655733  0.033671  0.961560  1
  Si  Si34  1  0.343831  0.966468  0.040188  1
  Os  Os35  1  0.027534  0.104784  0.750190  1
