# generated using pymatgen
data_Hf8FeTc3Os4
_symmetry_space_group_name_H-M   'P 1'
_cell_length_a   6.46847200
_cell_length_b   4.59012000
_cell_length_c   9.20102300
_cell_angle_alpha   89.99995013
_cell_angle_beta   89.99945765
_cell_angle_gamma   90.00045498
_symmetry_Int_Tables_number   1
_chemical_formula_structural   Hf8FeTc3Os4
_chemical_formula_sum   'Hf8 Fe1 Tc3 Os4'
_cell_volume   273.18815076
_cell_formula_units_Z   1
loop_
 _symmetry_equiv_pos_site_id
 _symmetry_equiv_pos_as_xyz
  1  'x, y, z'
loop_
 _atom_site_type_symbol
 _atom_site_label
 _atom_site_symmetry_multiplicity
 _atom_site_fract_x
 _atom_site_fract_y
 _atom_site_fract_z
 _atom_site_occupancy
  Hf  Hf0  1  0.998647  0.750001  0.125008  1
  Hf  Hf1  1  0.501477  0.750001  0.125011  1
  Hf  Hf2  1  0.999704  0.250001  0.373880  1
  Hf  Hf3  1  0.500387  0.249999  0.373885  1
  Hf  Hf4  1  0.499361  0.750000  0.625003  1
  Hf  Hf5  1  0.000509  0.750001  0.625006  1
  Hf  Hf6  1  0.500294  0.249999  0.876092  1
  Hf  Hf7  1  0.999568  0.250001  0.876103  1
  Fe  Fe8  1  0.750051  0.250008  0.125005  1
  Tc  Tc9  1  0.250043  0.750001  0.373839  1
  Tc  Tc10  1  0.749944  0.250001  0.624991  1
  Tc  Tc11  1  0.249945  0.749999  0.876175  1
  Os  Os12  1  0.250044  0.250002  0.125010  1
  Os  Os13  1  0.750036  0.750001  0.372981  1
  Os  Os14  1  0.249940  0.250001  0.625007  1
  Os  Os15  1  0.749950  0.750001  0.877001  1
