# generated using pymatgen
data_Yb4Pr16Ga11Sn
_symmetry_space_group_name_H-M   'P 1'
_cell_length_a   7.94719800
_cell_length_b   7.94719800
_cell_length_c   14.62324700
_cell_angle_alpha   90.00000000
_cell_angle_beta   90.00000000
_cell_angle_gamma   90.00000000
_symmetry_Int_Tables_number   1
_chemical_formula_structural   Yb4Pr16Ga11Sn
_chemical_formula_sum   'Yb4 Pr16 Ga11 Sn1'
_cell_volume   923.57439135
_cell_formula_units_Z   1
loop_
 _symmetry_equiv_pos_site_id
 _symmetry_equiv_pos_as_xyz
  1  'x, y, z'
loop_
 _atom_site_type_symbol
 _atom_site_label
 _atom_site_symmetry_multiplicity
 _atom_site_fract_x
 _atom_site_fract_y
 _atom_site_fract_z
 _atom_site_occupancy
  Yb  Yb0  1  0.000000  0.500000  0.745477  1
  Yb  Yb1  1  0.000000  0.500000  0.247981  1
  Yb  Yb2  1  0.500000  0.000000  0.247701  1
  Yb  Yb3  1  0.500000  0.000000  0.761880  1
  Pr  Pr4  1  0.821620  0.833363  0.604707  1
  Pr  Pr5  1  0.173942  0.827137  0.101134  1
  Pr  Pr6  1  0.174520  0.831396  0.395312  1
  Pr  Pr7  1  0.825480  0.168604  0.395312  1
  Pr  Pr8  1  0.668604  0.674520  0.395312  1
  Pr  Pr9  1  0.666637  0.321620  0.604707  1
  Pr  Pr10  1  0.333363  0.678380  0.604707  1
  Pr  Pr11  1  0.672863  0.673942  0.101134  1
  Pr  Pr12  1  0.675515  0.329727  0.898652  1
  Pr  Pr13  1  0.829727  0.824485  0.898652  1
  Pr  Pr14  1  0.331396  0.325480  0.395312  1
  Pr  Pr15  1  0.178380  0.166637  0.604707  1
  Pr  Pr16  1  0.826058  0.172863  0.101134  1
  Pr  Pr17  1  0.324485  0.670273  0.898652  1
  Pr  Pr18  1  0.327137  0.326058  0.101134  1
  Pr  Pr19  1  0.170273  0.175515  0.898652  1
  Ga  Ga20  1  0.617297  0.383116  0.248494  1
  Ga  Ga21  1  0.116931  0.882763  0.751216  1
  Ga  Ga22  1  0.382763  0.383069  0.751216  1
  Ga  Ga23  1  0.382703  0.616884  0.248494  1
  Ga  Ga24  1  0.883116  0.882703  0.248494  1
  Ga  Ga25  1  0.617237  0.616931  0.751216  1
  Ga  Ga26  1  0.883069  0.117237  0.751216  1
  Ga  Ga27  1  0.500000  0.000000  0.497976  1
  Ga  Ga28  1  0.500000  0.000000  0.998673  1
  Ga  Ga29  1  0.116884  0.117297  0.248494  1
  Ga  Ga30  1  0.000000  0.500000  0.001039  1
  Sn  Sn31  1  0.000000  0.500000  0.501217  1
