# generated using pymatgen
data_Ba3(ZnRh)4
_symmetry_space_group_name_H-M   'P 1'
_cell_length_a   6.92094334
_cell_length_b   6.92094366
_cell_length_c   6.92094300
_cell_angle_alpha   109.47121870
_cell_angle_beta   109.47121963
_cell_angle_gamma   109.47122071
_symmetry_Int_Tables_number   1
_chemical_formula_structural   Ba3(ZnRh)4
_chemical_formula_sum   'Ba3 Zn4 Rh4'
_cell_volume   255.19608346
_cell_formula_units_Z   1
loop_
 _symmetry_equiv_pos_site_id
 _symmetry_equiv_pos_as_xyz
  1  'x, y, z'
loop_
 _atom_site_type_symbol
 _atom_site_label
 _atom_site_symmetry_multiplicity
 _atom_site_fract_x
 _atom_site_fract_y
 _atom_site_fract_z
 _atom_site_occupancy
  Ba  Ba0  1  0.499999  0.499999  0.000000  1
  Ba  Ba1  1  0.499999  0.000000  0.499999  1
  Ba  Ba2  1  0.000000  0.499999  0.499999  1
  Zn  Zn3  1  0.386278  0.000000  0.000000  1
  Zn  Zn4  1  0.000000  0.386278  0.000000  1
  Zn  Zn5  1  0.000000  0.000000  0.386278  1
  Zn  Zn6  1  0.613721  0.613721  0.613721  1
  Rh  Rh7  1  0.755342  0.000000  0.000000  1
  Rh  Rh8  1  0.000000  0.755342  0.000000  1
  Rh  Rh9  1  0.244657  0.244657  0.244657  1
  Rh  Rh10  1  0.000000  0.000000  0.755342  1
