# generated using pymatgen
data_Na2Co12P7
_symmetry_space_group_name_H-M   'P 1'
_cell_length_a   3.50695500
_cell_length_b   8.97282478
_cell_length_c   8.97282500
_cell_angle_alpha   119.99999615
_cell_angle_beta   90.00000000
_cell_angle_gamma   90.00000000
_symmetry_Int_Tables_number   1
_chemical_formula_structural   Na2Co12P7
_chemical_formula_sum   'Na2 Co12 P7'
_cell_volume   244.52272451
_cell_formula_units_Z   1
loop_
 _symmetry_equiv_pos_site_id
 _symmetry_equiv_pos_as_xyz
  1  'x, y, z'
loop_
 _atom_site_type_symbol
 _atom_site_label
 _atom_site_symmetry_multiplicity
 _atom_site_fract_x
 _atom_site_fract_y
 _atom_site_fract_z
 _atom_site_occupancy
  Na  Na0  1  0.000000  0.666667  0.333333  1
  Na  Na1  1  0.500000  0.333333  0.666667  1
  Co  Co2  1  0.000000  0.562722  0.940236  1
  Co  Co3  1  0.000000  0.377514  0.437278  1
  Co  Co4  1  0.000000  0.059764  0.622486  1
  Co  Co5  1  0.500000  0.766081  0.897553  1
  Co  Co6  1  0.500000  0.131472  0.233919  1
  Co  Co7  1  0.500000  0.102447  0.868528  1
  Co  Co8  1  0.000000  0.879812  0.152711  1
  Co  Co9  1  0.000000  0.272900  0.120188  1
  Co  Co10  1  0.000000  0.847289  0.727100  1
  Co  Co11  1  0.500000  0.948344  0.383787  1
  Co  Co12  1  0.500000  0.435442  0.051656  1
  Co  Co13  1  0.500000  0.616213  0.564558  1
  P  P14  1  0.000000  0.000000  0.000000  1
  P  P15  1  0.500000  0.708041  0.112060  1
  P  P16  1  0.500000  0.404018  0.291959  1
  P  P17  1  0.500000  0.887940  0.595982  1
  P  P18  1  0.000000  0.594664  0.709648  1
  P  P19  1  0.000000  0.114984  0.405336  1
  P  P20  1  0.000000  0.290352  0.885016  1
