# generated using pymatgen
data_KS2BrO8
_symmetry_space_group_name_H-M   'P 1'
_cell_length_a   6.90659528
_cell_length_b   6.90659626
_cell_length_c   9.71412163
_cell_angle_alpha   66.49500774
_cell_angle_beta   66.49500471
_cell_angle_gamma   66.87621263
_symmetry_Int_Tables_number   1
_chemical_formula_structural   KS2BrO8
_chemical_formula_sum   'K2 S4 Br2 O16'
_cell_volume   374.32414003
_cell_formula_units_Z   2
loop_
 _symmetry_equiv_pos_site_id
 _symmetry_equiv_pos_as_xyz
  1  'x, y, z'
loop_
 _atom_site_type_symbol
 _atom_site_label
 _atom_site_symmetry_multiplicity
 _atom_site_fract_x
 _atom_site_fract_y
 _atom_site_fract_z
 _atom_site_occupancy
  K  K0  1  0.988610  0.011390  0.250000  1
  K  K1  1  0.011390  0.988610  0.750000  1
  S  S2  1  0.677243  0.718021  0.140509  1
  S  S3  1  0.281979  0.322757  0.359491  1
  S  S4  1  0.718021  0.677243  0.640509  1
  S  S5  1  0.322757  0.281979  0.859491  1
  Br  Br6  1  0.500000  0.500000  0.500000  1
  Br  Br7  1  0.500000  0.500000  0.000000  1
  O  O8  1  0.154618  0.549063  0.322192  1
  O  O9  1  0.488309  0.278223  0.214793  1
  O  O10  1  0.846201  0.828173  0.086232  1
  O  O11  1  0.393283  0.264635  0.488041  1
  O  O12  1  0.153799  0.171827  0.913768  1
  O  O13  1  0.171827  0.153799  0.413768  1
  O  O14  1  0.511691  0.721777  0.785207  1
  O  O15  1  0.264635  0.393283  0.988041  1
  O  O16  1  0.278223  0.488309  0.714793  1
  O  O17  1  0.735365  0.606717  0.011959  1
  O  O18  1  0.721777  0.511691  0.285207  1
  O  O19  1  0.845382  0.450937  0.677808  1
  O  O20  1  0.549063  0.154618  0.822192  1
  O  O21  1  0.450937  0.845382  0.177808  1
  O  O22  1  0.828173  0.846201  0.586232  1
  O  O23  1  0.606717  0.735365  0.511959  1
