# generated using pymatgen
data_Er4LuOs2
_symmetry_space_group_name_H-M   'P 1'
_cell_length_a   6.29157156
_cell_length_b   7.31511981
_cell_length_c   8.32026011
_cell_angle_alpha   96.90837345
_cell_angle_beta   112.21525669
_cell_angle_gamma   90.00000695
_symmetry_Int_Tables_number   1
_chemical_formula_structural   Er4LuOs2
_chemical_formula_sum   'Er8 Lu2 Os4'
_cell_volume   351.49862908
_cell_formula_units_Z   2
loop_
 _symmetry_equiv_pos_site_id
 _symmetry_equiv_pos_as_xyz
  1  'x, y, z'
loop_
 _atom_site_type_symbol
 _atom_site_label
 _atom_site_symmetry_multiplicity
 _atom_site_fract_x
 _atom_site_fract_y
 _atom_site_fract_z
 _atom_site_occupancy
  Er  Er0  1  0.792313  0.083146  0.818357  1
  Er  Er1  1  0.973956  0.416854  0.181643  1
  Er  Er2  1  0.207687  0.916854  0.181643  1
  Er  Er3  1  0.026044  0.583146  0.818357  1
  Er  Er4  1  0.204242  0.182860  0.564643  1
  Er  Er5  1  0.639600  0.317140  0.435357  1
  Er  Er6  1  0.795758  0.817140  0.435357  1
  Er  Er7  1  0.360400  0.682860  0.564643  1
  Lu  Lu8  1  0.421747  0.250000  0.000000  1
  Lu  Lu9  1  0.578253  0.750000  0.000000  1
  Os  Os10  1  0.602463  0.422170  0.781596  1
  Os  Os11  1  0.820866  0.077830  0.218404  1
  Os  Os12  1  0.397537  0.577830  0.218404  1
  Os  Os13  1  0.179134  0.922170  0.781596  1
