# generated using pymatgen
data_Y17Th3(Ir2Ru)4
_symmetry_space_group_name_H-M   'P 1'
_cell_length_a   10.98140464
_cell_length_b   10.92670830
_cell_length_c   6.45991756
_cell_angle_alpha   90.02765880
_cell_angle_beta   89.80547143
_cell_angle_gamma   90.09744333
_symmetry_Int_Tables_number   1
_chemical_formula_structural   Y17Th3(Ir2Ru)4
_chemical_formula_sum   'Y17 Th3 Ir8 Ru4'
_cell_volume   775.12374126
_cell_formula_units_Z   1
loop_
 _symmetry_equiv_pos_site_id
 _symmetry_equiv_pos_as_xyz
  1  'x, y, z'
loop_
 _atom_site_type_symbol
 _atom_site_label
 _atom_site_symmetry_multiplicity
 _atom_site_fract_x
 _atom_site_fract_y
 _atom_site_fract_z
 _atom_site_occupancy
  Y  Y0  1  0.706212  0.909145  0.379485  1
  Y  Y1  1  0.590864  0.786371  0.881635  1
  Y  Y2  1  0.591656  0.209988  0.380853  1
  Y  Y3  1  0.415935  0.786379  0.381107  1
  Y  Y4  1  0.409438  0.215292  0.878855  1
  Y  Y5  1  0.204898  0.415543  0.618297  1
  Y  Y6  1  0.205444  0.586907  0.120739  1
  Y  Y7  1  0.794764  0.414911  0.117347  1
  Y  Y8  1  0.795838  0.586053  0.618625  1
  Y  Y9  1  0.913508  0.706407  0.117487  1
  Y  Y10  1  0.914746  0.293943  0.613727  1
  Y  Y11  1  0.085268  0.705767  0.616787  1
  Y  Y12  1  0.085065  0.295760  0.112301  1
  Y  Y13  1  0.995284  0.998394  0.500279  1
  Y  Y14  1  0.000455  0.000088  0.001340  1
  Y  Y15  1  0.499613  0.499740  0.012856  1
  Y  Y16  1  0.502447  0.498473  0.512132  1
  Th  Th17  1  0.294837  0.090184  0.379240  1
  Th  Th18  1  0.294304  0.908704  0.878979  1
  Th  Th19  1  0.704383  0.087738  0.883002  1
  Ir  Ir20  1  0.844432  0.152265  0.241019  1
  Ir  Ir21  1  0.842105  0.851254  0.754144  1
  Ir  Ir22  1  0.156430  0.149145  0.741232  1
  Ir  Ir23  1  0.159053  0.851871  0.247864  1
  Ir  Ir24  1  0.653691  0.344108  0.755883  1
  Ir  Ir25  1  0.653697  0.650873  0.253033  1
  Ir  Ir26  1  0.345981  0.345725  0.257084  1
  Ir  Ir27  1  0.347771  0.654353  0.754644  1
  Ru  Ru28  1  0.494519  0.002401  0.121755  1
  Ru  Ru29  1  0.497769  0.000488  0.629988  1
  Ru  Ru30  1  0.999847  0.500696  0.869307  1
  Ru  Ru31  1  0.999744  0.501036  0.368973  1
