# generated using pymatgen
data_Ta4SnPb2O13
_symmetry_space_group_name_H-M   'P 1'
_cell_length_a   7.58282709
_cell_length_b   7.56660648
_cell_length_c   7.58282677
_cell_angle_alpha   59.76302663
_cell_angle_beta   59.86620366
_cell_angle_gamma   59.76303957
_symmetry_Int_Tables_number   1
_chemical_formula_structural   Ta4SnPb2O13
_chemical_formula_sum   'Ta4 Sn1 Pb2 O13'
_cell_volume   306.22855088
_cell_formula_units_Z   1
loop_
 _symmetry_equiv_pos_site_id
 _symmetry_equiv_pos_as_xyz
  1  'x, y, z'
loop_
 _atom_site_type_symbol
 _atom_site_label
 _atom_site_symmetry_multiplicity
 _atom_site_fract_x
 _atom_site_fract_y
 _atom_site_fract_z
 _atom_site_occupancy
  Ta  Ta0  1  0.497845  0.498936  0.497845  1
  Ta  Ta1  1  0.998345  0.500225  0.503483  1
  Ta  Ta2  1  0.503483  0.500225  0.998345  1
  Ta  Ta3  1  0.500659  0.999656  0.500659  1
  Sn  Sn4  1  0.029642  0.499726  0.029642  1
  Pb  Pb5  1  0.506916  0.010909  0.013944  1
  Pb  Pb6  1  0.013944  0.010909  0.506916  1
  O  O7  1  0.811623  0.433165  0.424056  1
  O  O8  1  0.439223  0.803716  0.803554  1
  O  O9  1  0.424056  0.433165  0.811623  1
  O  O10  1  0.803554  0.803716  0.439223  1
  O  O11  1  0.801205  0.435230  0.801205  1
  O  O12  1  0.429401  0.812689  0.429401  1
  O  O13  1  0.187460  0.560091  0.551422  1
  O  O14  1  0.553618  0.183291  0.183590  1
  O  O15  1  0.551422  0.560091  0.187460  1
  O  O16  1  0.183590  0.183291  0.553618  1
  O  O17  1  0.181329  0.548135  0.181329  1
  O  O18  1  0.558494  0.186317  0.558494  1
  O  O19  1  0.149188  0.161517  0.149188  1
