# generated using pymatgen
data_Zr4Zn2In2CoNi
_symmetry_space_group_name_H-M   'P 1'
_cell_length_a   7.34115298
_cell_length_b   7.34115283
_cell_length_c   6.89452000
_cell_angle_alpha   90.00000000
_cell_angle_beta   90.00000000
_cell_angle_gamma   90.98465866
_symmetry_Int_Tables_number   1
_chemical_formula_structural   Zr4Zn2In2CoNi
_chemical_formula_sum   'Zr8 Zn4 In4 Co2 Ni2'
_cell_volume   371.50823038
_cell_formula_units_Z   2
loop_
 _symmetry_equiv_pos_site_id
 _symmetry_equiv_pos_as_xyz
  1  'x, y, z'
loop_
 _atom_site_type_symbol
 _atom_site_label
 _atom_site_symmetry_multiplicity
 _atom_site_fract_x
 _atom_site_fract_y
 _atom_site_fract_z
 _atom_site_occupancy
  Zr  Zr0  1  0.652786  0.347214  0.008049  1
  Zr  Zr1  1  0.347214  0.652786  0.008049  1
  Zr  Zr2  1  0.818645  0.818645  0.497547  1
  Zr  Zr3  1  0.181355  0.181355  0.497547  1
  Zr  Zr4  1  0.204450  0.204450  0.003187  1
  Zr  Zr5  1  0.795550  0.795550  0.003187  1
  Zr  Zr6  1  0.333766  0.666234  0.493828  1
  Zr  Zr7  1  0.666234  0.333766  0.493828  1
  Zn  Zn8  1  0.120301  0.879699  0.227680  1
  Zn  Zn9  1  0.879699  0.120301  0.227680  1
  Zn  Zn10  1  0.121195  0.878805  0.771437  1
  Zn  Zn11  1  0.878805  0.121195  0.771437  1
  In  In12  1  0.500000  0.000000  0.252898  1
  In  In13  1  0.000000  0.500000  0.252898  1
  In  In14  1  0.000000  0.500000  0.748458  1
  In  In15  1  0.500000  0.000000  0.748458  1
  Co  Co16  1  0.375166  0.375166  0.268451  1
  Co  Co17  1  0.624834  0.624834  0.268451  1
  Ni  Ni18  1  0.621044  0.621044  0.728464  1
  Ni  Ni19  1  0.378956  0.378956  0.728464  1
