# generated using pymatgen
data_Ac4HgGe4
_symmetry_space_group_name_H-M   'P 1'
_cell_length_a   7.92806700
_cell_length_b   8.52433200
_cell_length_c   16.10603200
_cell_angle_alpha   90.00000000
_cell_angle_beta   90.00000000
_cell_angle_gamma   90.00000000
_symmetry_Int_Tables_number   1
_chemical_formula_structural   Ac4HgGe4
_chemical_formula_sum   'Ac16 Hg4 Ge16'
_cell_volume   1088.46940260
_cell_formula_units_Z   4
loop_
 _symmetry_equiv_pos_site_id
 _symmetry_equiv_pos_as_xyz
  1  'x, y, z'
loop_
 _atom_site_type_symbol
 _atom_site_label
 _atom_site_symmetry_multiplicity
 _atom_site_fract_x
 _atom_site_fract_y
 _atom_site_fract_z
 _atom_site_occupancy
  Ac  Ac0  1  0.327226  0.183042  0.632532  1
  Ac  Ac1  1  0.672774  0.816958  0.367468  1
  Ac  Ac2  1  0.172774  0.683042  0.367468  1
  Ac  Ac3  1  0.672774  0.816958  0.132532  1
  Ac  Ac4  1  0.827226  0.316958  0.632532  1
  Ac  Ac5  1  0.327226  0.183042  0.867468  1
  Ac  Ac6  1  0.827226  0.316958  0.867468  1
  Ac  Ac7  1  0.172774  0.683042  0.132532  1
  Ac  Ac8  1  0.026284  0.194107  0.102349  1
  Ac  Ac9  1  0.973716  0.805893  0.897651  1
  Ac  Ac10  1  0.473716  0.694107  0.897651  1
  Ac  Ac11  1  0.973716  0.805893  0.602349  1
  Ac  Ac12  1  0.526284  0.305893  0.102349  1
  Ac  Ac13  1  0.026284  0.194107  0.397651  1
  Ac  Ac14  1  0.526284  0.305893  0.397651  1
  Ac  Ac15  1  0.473716  0.694107  0.602349  1
  Hg  Hg16  1  0.147299  0.509487  0.750000  1
  Hg  Hg17  1  0.852701  0.490513  0.250000  1
  Hg  Hg18  1  0.352701  0.009487  0.250000  1
  Hg  Hg19  1  0.647299  0.990513  0.750000  1
  Ge  Ge20  1  0.259789  0.862633  0.750000  1
  Ge  Ge21  1  0.740211  0.137367  0.250000  1
  Ge  Ge22  1  0.240211  0.362633  0.250000  1
  Ge  Ge23  1  0.759789  0.637367  0.750000  1
  Ge  Ge24  1  0.017546  0.063224  0.750000  1
  Ge  Ge25  1  0.982454  0.936776  0.250000  1
  Ge  Ge26  1  0.482454  0.563224  0.250000  1
  Ge  Ge27  1  0.517546  0.436776  0.750000  1
  Ge  Ge28  1  0.154107  0.469893  0.531397  1
  Ge  Ge29  1  0.845893  0.530107  0.468603  1
  Ge  Ge30  1  0.345893  0.969893  0.468603  1
  Ge  Ge31  1  0.845893  0.530107  0.031397  1
  Ge  Ge32  1  0.654107  0.030107  0.531397  1
  Ge  Ge33  1  0.154107  0.469893  0.968603  1
  Ge  Ge34  1  0.654107  0.030107  0.968603  1
  Ge  Ge35  1  0.345893  0.969893  0.031397  1
