# generated using pymatgen
data_Tm3Al12Fe2PdPt
_symmetry_space_group_name_H-M   'P 1'
_cell_length_a   8.71271400
_cell_length_b   8.73045159
_cell_length_c   9.39834800
_cell_angle_alpha   90.00000000
_cell_angle_beta   90.00000000
_cell_angle_gamma   119.85454955
_symmetry_Int_Tables_number   1
_chemical_formula_structural   Tm3Al12Fe2PdPt
_chemical_formula_sum   'Tm6 Al24 Fe4 Pd2 Pt2'
_cell_volume   620.02183222
_cell_formula_units_Z   2
loop_
 _symmetry_equiv_pos_site_id
 _symmetry_equiv_pos_as_xyz
  1  'x, y, z'
loop_
 _atom_site_type_symbol
 _atom_site_label
 _atom_site_symmetry_multiplicity
 _atom_site_fract_x
 _atom_site_fract_y
 _atom_site_fract_z
 _atom_site_occupancy
  Tm  Tm0  1  0.808780  0.197488  0.750000  1
  Tm  Tm1  1  0.191220  0.802512  0.250000  1
  Tm  Tm2  1  0.386891  0.194378  0.750000  1
  Tm  Tm3  1  0.613109  0.805622  0.250000  1
  Tm  Tm4  1  0.807688  0.610482  0.750000  1
  Tm  Tm5  1  0.192312  0.389518  0.250000  1
  Al  Al6  1  0.679337  0.339139  0.975276  1
  Al  Al7  1  0.320663  0.660861  0.024724  1
  Al  Al8  1  0.320663  0.660861  0.475276  1
  Al  Al9  1  0.679337  0.339139  0.524724  1
  Al  Al10  1  0.847769  0.168037  0.421851  1
  Al  Al11  1  0.152231  0.831963  0.578149  1
  Al  Al12  1  0.315289  0.157876  0.421837  1
  Al  Al13  1  0.152231  0.831963  0.921851  1
  Al  Al14  1  0.684711  0.842124  0.578163  1
  Al  Al15  1  0.847769  0.168037  0.078149  1
  Al  Al16  1  0.847691  0.679555  0.423068  1
  Al  Al17  1  0.684711  0.842124  0.921837  1
  Al  Al18  1  0.152309  0.320445  0.576932  1
  Al  Al19  1  0.315289  0.157876  0.078163  1
  Al  Al20  1  0.152309  0.320445  0.923068  1
  Al  Al21  1  0.847691  0.679555  0.076932  1
  Al  Al22  1  0.434789  0.563663  0.750000  1
  Al  Al23  1  0.565211  0.436337  0.250000  1
  Al  Al24  1  0.116162  0.557892  0.750000  1
  Al  Al25  1  0.883838  0.442108  0.250000  1
  Al  Al26  1  0.436090  0.873196  0.750000  1
  Al  Al27  1  0.563910  0.126804  0.250000  1
  Al  Al28  1  0.001632  0.000329  0.750000  1
  Al  Al29  1  0.998368  0.999671  0.250000  1
  Fe  Fe30  1  0.000000  0.500000  0.000000  1
  Fe  Fe31  1  0.000000  0.500000  0.500000  1
  Fe  Fe32  1  0.000000  0.000000  0.000000  1
  Fe  Fe33  1  0.000000  0.000000  0.500000  1
  Pd  Pd34  1  0.500000  0.000000  0.000000  1
  Pd  Pd35  1  0.500000  0.000000  0.500000  1
  Pt  Pt36  1  0.500000  0.500000  0.000000  1
  Pt  Pt37  1  0.500000  0.500000  0.500000  1
