# generated using pymatgen
data_Yb5Pa3(Si3Rh)4
_symmetry_space_group_name_H-M   'P 1'
_cell_length_a   8.09613500
_cell_length_b   8.09613542
_cell_length_c   7.94471400
_cell_angle_alpha   90.00000000
_cell_angle_beta   90.00000000
_cell_angle_gamma   119.47753772
_symmetry_Int_Tables_number   1
_chemical_formula_structural   Yb5Pa3(Si3Rh)4
_chemical_formula_sum   'Yb5 Pa3 Si12 Rh4'
_cell_volume   453.34291618
_cell_formula_units_Z   1
loop_
 _symmetry_equiv_pos_site_id
 _symmetry_equiv_pos_as_xyz
  1  'x, y, z'
loop_
 _atom_site_type_symbol
 _atom_site_label
 _atom_site_symmetry_multiplicity
 _atom_site_fract_x
 _atom_site_fract_y
 _atom_site_fract_z
 _atom_site_occupancy
  Yb  Yb0  1  0.495764  0.993235  0.250000  1
  Yb  Yb1  1  0.006765  0.504236  0.250000  1
  Yb  Yb2  1  0.503469  0.496531  0.750000  1
  Yb  Yb3  1  0.995642  0.497651  0.750000  1
  Yb  Yb4  1  0.502349  0.004358  0.750000  1
  Pa  Pa5  1  0.999871  0.000129  0.250000  1
  Pa  Pa6  1  0.000266  0.999734  0.750000  1
  Pa  Pa7  1  0.496260  0.503740  0.250000  1
  Si  Si8  1  0.830730  0.169270  0.495318  1
  Si  Si9  1  0.838717  0.672261  0.500356  1
  Si  Si10  1  0.327739  0.161283  0.500356  1
  Si  Si11  1  0.830730  0.169270  0.004682  1
  Si  Si12  1  0.838717  0.672261  0.999644  1
  Si  Si13  1  0.327739  0.161283  0.999644  1
  Si  Si14  1  0.168854  0.831146  0.002001  1
  Si  Si15  1  0.673321  0.839027  0.999643  1
  Si  Si16  1  0.160973  0.326679  0.999643  1
  Si  Si17  1  0.168854  0.831146  0.497999  1
  Si  Si18  1  0.673321  0.839027  0.500357  1
  Si  Si19  1  0.160973  0.326679  0.500357  1
  Rh  Rh20  1  0.659803  0.340197  0.470591  1
  Rh  Rh21  1  0.659803  0.340197  0.029409  1
  Rh  Rh22  1  0.339671  0.660329  0.006216  1
  Rh  Rh23  1  0.339671  0.660329  0.493784  1
