# generated using pymatgen
data_Tb16Tl3InNiRh3
_symmetry_space_group_name_H-M   'P 1'
_cell_length_a   9.72289097
_cell_length_b   9.71713169
_cell_length_c   9.70357900
_cell_angle_alpha   60.04612969
_cell_angle_beta   60.06568590
_cell_angle_gamma   60.05216757
_symmetry_Int_Tables_number   1
_chemical_formula_structural   Tb16Tl3InNiRh3
_chemical_formula_sum   'Tb16 Tl3 In1 Ni1 Rh3'
_cell_volume   649.06490807
_cell_formula_units_Z   1
loop_
 _symmetry_equiv_pos_site_id
 _symmetry_equiv_pos_as_xyz
  1  'x, y, z'
loop_
 _atom_site_type_symbol
 _atom_site_label
 _atom_site_symmetry_multiplicity
 _atom_site_fract_x
 _atom_site_fract_y
 _atom_site_fract_z
 _atom_site_occupancy
  Tb  Tb0  1  0.811012  0.810718  0.189134  1
  Tb  Tb1  1  0.812113  0.190071  0.810280  1
  Tb  Tb2  1  0.187893  0.189377  0.811365  1
  Tb  Tb3  1  0.649761  0.049418  0.650410  1
  Tb  Tb4  1  0.059823  0.061241  0.439468  1
  Tb  Tb5  1  0.437023  0.438754  0.062112  1
  Tb  Tb6  1  0.652480  0.649105  0.653181  1
  Tb  Tb7  1  0.812113  0.190071  0.187536  1
  Tb  Tb8  1  0.189267  0.811766  0.810551  1
  Tb  Tb9  1  0.047369  0.648547  0.652042  1
  Tb  Tb10  1  0.438930  0.060217  0.061444  1
  Tb  Tb11  1  0.438930  0.060217  0.439409  1
  Tb  Tb12  1  0.060908  0.438798  0.063009  1
  Tb  Tb13  1  0.652480  0.649105  0.045235  1
  Tb  Tb14  1  0.189267  0.811766  0.188415  1
  Tb  Tb15  1  0.060908  0.438798  0.437285  1
  Tl  Tl16  1  0.415708  0.415239  0.413598  1
  Tl  Tl17  1  0.415708  0.415239  0.755455  1
  Tl  Tl18  1  0.416498  0.754197  0.414652  1
  In  In19  1  0.750529  0.417283  0.416093  1
  Ni  Ni20  1  0.858421  0.426394  0.857592  1
  Rh  Rh21  1  0.857840  0.857797  0.857290  1
  Rh  Rh22  1  0.857840  0.857797  0.427073  1
  Rh  Rh23  1  0.427179  0.858085  0.857368  1
