# generated using pymatgen
data_Sr(Al3Pt)3
_symmetry_space_group_name_H-M   'P 1'
_cell_length_a   10.59678425
_cell_length_b   10.59678429
_cell_length_c   10.59678500
_cell_angle_alpha   41.81649820
_cell_angle_beta   41.81649890
_cell_angle_gamma   41.81649629
_symmetry_Int_Tables_number   1
_chemical_formula_structural   Sr(Al3Pt)3
_chemical_formula_sum   'Sr2 Al18 Pt6'
_cell_volume   478.33004981
_cell_formula_units_Z   2
loop_
 _symmetry_equiv_pos_site_id
 _symmetry_equiv_pos_as_xyz
  1  'x, y, z'
loop_
 _atom_site_type_symbol
 _atom_site_label
 _atom_site_symmetry_multiplicity
 _atom_site_fract_x
 _atom_site_fract_y
 _atom_site_fract_z
 _atom_site_occupancy
  Sr  Sr0  1  0.166688  0.166688  0.166688  1
  Sr  Sr1  1  0.833312  0.833312  0.833312  1
  Al  Al2  1  0.106089  0.432331  0.759060  1
  Al  Al3  1  0.432331  0.759060  0.106089  1
  Al  Al4  1  0.567669  0.893911  0.240940  1
  Al  Al5  1  0.950091  0.950091  0.950091  1
  Al  Al6  1  0.049909  0.049909  0.049909  1
  Al  Al7  1  0.299763  0.700237  0.500000  1
  Al  Al8  1  0.893911  0.240940  0.567669  1
  Al  Al9  1  0.384245  0.384245  0.384245  1
  Al  Al10  1  0.500000  0.299763  0.700237  1
  Al  Al11  1  0.240940  0.567669  0.893911  1
  Al  Al12  1  0.716341  0.716341  0.716341  1
  Al  Al13  1  0.615755  0.615755  0.615755  1
  Al  Al14  1  0.333470  0.000000  0.666530  1
  Al  Al15  1  0.700237  0.500000  0.299763  1
  Al  Al16  1  0.666530  0.333470  0.000000  1
  Al  Al17  1  0.283659  0.283659  0.283659  1
  Al  Al18  1  0.000000  0.666530  0.333470  1
  Al  Al19  1  0.759060  0.106089  0.432331  1
  Pt  Pt20  1  0.417175  0.077880  0.756168  1
  Pt  Pt21  1  0.582825  0.243832  0.922120  1
  Pt  Pt22  1  0.077880  0.756168  0.417175  1
  Pt  Pt23  1  0.756168  0.417175  0.077880  1
  Pt  Pt24  1  0.922120  0.582825  0.243832  1
  Pt  Pt25  1  0.243832  0.922120  0.582825  1
