# generated using pymatgen
data_TiVS8
_symmetry_space_group_name_H-M   'P 1'
_cell_length_a   8.74287339
_cell_length_b   8.76647699
_cell_length_c   7.39165312
_cell_angle_alpha   71.82217672
_cell_angle_beta   71.94309090
_cell_angle_gamma   81.81848833
_symmetry_Int_Tables_number   1
_chemical_formula_structural   TiVS8
_chemical_formula_sum   'Ti2 V2 S16'
_cell_volume   511.09129851
_cell_formula_units_Z   2
loop_
 _symmetry_equiv_pos_site_id
 _symmetry_equiv_pos_as_xyz
  1  'x, y, z'
loop_
 _atom_site_type_symbol
 _atom_site_label
 _atom_site_symmetry_multiplicity
 _atom_site_fract_x
 _atom_site_fract_y
 _atom_site_fract_z
 _atom_site_occupancy
  Ti  Ti0  1  0.129201  0.629894  0.870377  1
  Ti  Ti1  1  0.870799  0.370106  0.129623  1
  V  V2  1  0.384369  0.884811  0.615345  1
  V  V3  1  0.615631  0.115189  0.384655  1
  S  S4  1  0.328590  0.164125  0.464662  1
  S  S5  1  0.575913  0.971985  0.724823  1
  S  S6  1  0.671410  0.835875  0.535338  1
  S  S7  1  0.025725  0.426424  0.774772  1
  S  S8  1  0.641971  0.316744  0.049257  1
  S  S9  1  0.139611  0.815690  0.550465  1
  S  S10  1  0.800820  0.120970  0.063867  1
  S  S11  1  0.974275  0.573576  0.225228  1
  S  S12  1  0.424087  0.028015  0.275177  1
  S  S13  1  0.335062  0.656367  0.529094  1
  S  S14  1  0.860389  0.184310  0.449535  1
  S  S15  1  0.199180  0.879030  0.936133  1
  S  S16  1  0.358029  0.683256  0.950743  1
  S  S17  1  0.167078  0.326717  0.963202  1
  S  S18  1  0.664938  0.343633  0.470906  1
  S  S19  1  0.832922  0.673283  0.036798  1
