# generated using pymatgen
data_Dy4ScPa2Co17P12
_symmetry_space_group_name_H-M   'P 1'
_cell_length_a   3.71870600
_cell_length_b   10.58327600
_cell_length_c   12.19185800
_cell_angle_alpha   90.00000000
_cell_angle_beta   90.00000000
_cell_angle_gamma   90.00000000
_symmetry_Int_Tables_number   1
_chemical_formula_structural   Dy4ScPa2Co17P12
_chemical_formula_sum   'Dy4 Sc1 Pa2 Co17 P12'
_cell_volume   479.82388462
_cell_formula_units_Z   1
loop_
 _symmetry_equiv_pos_site_id
 _symmetry_equiv_pos_as_xyz
  1  'x, y, z'
loop_
 _atom_site_type_symbol
 _atom_site_label
 _atom_site_symmetry_multiplicity
 _atom_site_fract_x
 _atom_site_fract_y
 _atom_site_fract_z
 _atom_site_occupancy
  Dy  Dy0  1  0.500000  0.819317  0.206384  1
  Dy  Dy1  1  0.500000  0.180683  0.206384  1
  Dy  Dy2  1  0.000000  0.685095  0.796591  1
  Dy  Dy3  1  0.000000  0.314905  0.796591  1
  Sc  Sc4  1  0.500000  0.500000  0.151426  1
  Pa  Pa5  1  0.000000  0.500000  0.534293  1
  Pa  Pa6  1  0.500000  0.000000  0.471121  1
  Co  Co7  1  0.000000  0.000000  0.839004  1
  Co  Co8  1  0.500000  0.500000  0.695812  1
  Co  Co9  1  0.000000  0.000000  0.303830  1
  Co  Co10  1  0.000000  0.500000  0.983788  1
  Co  Co11  1  0.500000  0.000000  0.014569  1
  Co  Co12  1  0.500000  0.327810  0.988950  1
  Co  Co13  1  0.500000  0.672190  0.988950  1
  Co  Co14  1  0.000000  0.161242  0.002780  1
  Co  Co15  1  0.000000  0.838758  0.002780  1
  Co  Co16  1  0.500000  0.297414  0.435224  1
  Co  Co17  1  0.500000  0.702586  0.435224  1
  Co  Co18  1  0.000000  0.197798  0.568614  1
  Co  Co19  1  0.000000  0.802202  0.568614  1
  Co  Co20  1  0.500000  0.881265  0.708453  1
  Co  Co21  1  0.500000  0.118735  0.708453  1
  Co  Co22  1  0.000000  0.621576  0.295742  1
  Co  Co23  1  0.000000  0.378424  0.295742  1
  P  P24  1  0.500000  0.500000  0.878886  1
  P  P25  1  0.000000  0.000000  0.120050  1
  P  P26  1  0.500000  0.500000  0.357968  1
  P  P27  1  0.000000  0.000000  0.656043  1
  P  P28  1  0.500000  0.305714  0.618442  1
  P  P29  1  0.500000  0.694286  0.618442  1
  P  P30  1  0.000000  0.192109  0.384408  1
  P  P31  1  0.000000  0.807891  0.384408  1
  P  P32  1  0.500000  0.851693  0.890468  1
  P  P33  1  0.500000  0.148307  0.890468  1
  P  P34  1  0.000000  0.663277  0.100549  1
  P  P35  1  0.000000  0.336723  0.100549  1
