# generated using pymatgen
data_PrHo15Cd4(OsPt)2
_symmetry_space_group_name_H-M   'P 1'
_cell_length_a   9.64701855
_cell_length_b   9.64701851
_cell_length_c   9.74003500
_cell_angle_alpha   59.68052611
_cell_angle_beta   59.68052625
_cell_angle_gamma   59.39125267
_symmetry_Int_Tables_number   1
_chemical_formula_structural   PrHo15Cd4(OsPt)2
_chemical_formula_sum   'Pr1 Ho15 Cd4 Os2 Pt2'
_cell_volume   634.89078052
_cell_formula_units_Z   1
loop_
 _symmetry_equiv_pos_site_id
 _symmetry_equiv_pos_as_xyz
  1  'x, y, z'
loop_
 _atom_site_type_symbol
 _atom_site_label
 _atom_site_symmetry_multiplicity
 _atom_site_fract_x
 _atom_site_fract_y
 _atom_site_fract_z
 _atom_site_occupancy
  Pr  Pr0  1  0.934665  0.934665  0.565335  1
  Ho  Ho1  1  0.352135  0.352135  0.348613  1
  Ho  Ho2  1  0.352135  0.352135  0.947118  1
  Ho  Ho3  1  0.345796  0.956419  0.348892  1
  Ho  Ho4  1  0.956419  0.345796  0.348892  1
  Ho  Ho5  1  0.815331  0.187687  0.188839  1
  Ho  Ho6  1  0.187687  0.815331  0.808144  1
  Ho  Ho7  1  0.187687  0.815331  0.188839  1
  Ho  Ho8  1  0.815331  0.187687  0.808144  1
  Ho  Ho9  1  0.188759  0.188759  0.811241  1
  Ho  Ho10  1  0.807836  0.807836  0.192164  1
  Ho  Ho11  1  0.939099  0.550969  0.566993  1
  Ho  Ho12  1  0.550969  0.939099  0.942937  1
  Ho  Ho13  1  0.550969  0.939099  0.566993  1
  Ho  Ho14  1  0.939099  0.550969  0.942937  1
  Ho  Ho15  1  0.565211  0.565211  0.934789  1
  Cd  Cd16  1  0.580671  0.580671  0.582054  1
  Cd  Cd17  1  0.580671  0.580671  0.256603  1
  Cd  Cd18  1  0.577984  0.257635  0.582190  1
  Cd  Cd19  1  0.257635  0.577984  0.582190  1
  Os  Os20  1  0.147247  0.147247  0.131837  1
  Os  Os21  1  0.147247  0.147247  0.573670  1
  Pt  Pt22  1  0.144881  0.574534  0.140293  1
  Pt  Pt23  1  0.574534  0.144881  0.140293  1
