# generated using pymatgen
data_Tm7Th(InCo)2
_symmetry_space_group_name_H-M   'P 1'
_cell_length_a   9.47359545
_cell_length_b   9.47364589
_cell_length_c   9.51436500
_cell_angle_alpha   59.85671621
_cell_angle_beta   59.85668167
_cell_angle_gamma   59.94167190
_symmetry_Int_Tables_number   1
_chemical_formula_structural   Tm7Th(InCo)2
_chemical_formula_sum   'Tm14 Th2 In4 Co4'
_cell_volume   602.22909562
_cell_formula_units_Z   2
loop_
 _symmetry_equiv_pos_site_id
 _symmetry_equiv_pos_as_xyz
  1  'x, y, z'
loop_
 _atom_site_type_symbol
 _atom_site_label
 _atom_site_symmetry_multiplicity
 _atom_site_fract_x
 _atom_site_fract_y
 _atom_site_fract_z
 _atom_site_occupancy
  Tm  Tm0  1  0.347794  0.953550  0.349337  1
  Tm  Tm1  1  0.953548  0.347794  0.349337  1
  Tm  Tm2  1  0.813674  0.188710  0.187044  1
  Tm  Tm3  1  0.188711  0.813683  0.810560  1
  Tm  Tm4  1  0.188708  0.813678  0.187049  1
  Tm  Tm5  1  0.813680  0.188713  0.810561  1
  Tm  Tm6  1  0.187159  0.187163  0.812824  1
  Tm  Tm7  1  0.811236  0.811252  0.188758  1
  Tm  Tm8  1  0.937703  0.562632  0.561663  1
  Tm  Tm9  1  0.562640  0.937692  0.937998  1
  Tm  Tm10  1  0.562632  0.937698  0.561669  1
  Tm  Tm11  1  0.937697  0.562638  0.937999  1
  Tm  Tm12  1  0.562351  0.562347  0.937649  1
  Tm  Tm13  1  0.939818  0.939818  0.560187  1
  Th  Th14  1  0.341884  0.341887  0.345677  1
  Th  Th15  1  0.341869  0.341870  0.970572  1
  In  In16  1  0.584254  0.584251  0.582277  1
  In  In17  1  0.584258  0.584257  0.249212  1
  In  In18  1  0.584459  0.249915  0.582814  1
  In  In19  1  0.249917  0.584458  0.582814  1
  Co  Co20  1  0.143369  0.143372  0.138934  1
  Co  Co21  1  0.143376  0.143377  0.574315  1
  Co  Co22  1  0.147685  0.571568  0.140375  1
  Co  Co23  1  0.571577  0.147674  0.140375  1
