# generated using pymatgen
data_DyHo3(Tm3Pt4)2
_symmetry_space_group_name_H-M   'P 1'
_cell_length_a   7.42265300
_cell_length_b   7.51684500
_cell_length_c   14.62373800
_cell_angle_alpha   89.99889876
_cell_angle_beta   90.00000000
_cell_angle_gamma   90.00000000
_symmetry_Int_Tables_number   1
_chemical_formula_structural   DyHo3(Tm3Pt4)2
_chemical_formula_sum   'Dy2 Ho6 Tm12 Pt16'
_cell_volume   815.93046853
_cell_formula_units_Z   2
loop_
 _symmetry_equiv_pos_site_id
 _symmetry_equiv_pos_as_xyz
  1  'x, y, z'
loop_
 _atom_site_type_symbol
 _atom_site_label
 _atom_site_symmetry_multiplicity
 _atom_site_fract_x
 _atom_site_fract_y
 _atom_site_fract_z
 _atom_site_occupancy
  Dy  Dy0  1  0.500985  0.679760  0.592564  1
  Dy  Dy1  1  0.000985  0.820240  0.907436  1
  Ho  Ho2  1  0.498983  0.320226  0.092576  1
  Ho  Ho3  1  0.998983  0.179774  0.407424  1
  Ho  Ho4  1  0.498980  0.320200  0.407416  1
  Ho  Ho5  1  0.998980  0.179800  0.092584  1
  Ho  Ho6  1  0.501018  0.679761  0.907422  1
  Ho  Ho7  1  0.001018  0.820239  0.592578  1
  Tm  Tm8  1  0.656955  0.167751  0.622620  1
  Tm  Tm9  1  0.156955  0.332249  0.877380  1
  Tm  Tm10  1  0.343067  0.832248  0.122625  1
  Tm  Tm11  1  0.843067  0.667752  0.377375  1
  Tm  Tm12  1  0.343031  0.832274  0.377364  1
  Tm  Tm13  1  0.843031  0.667726  0.122636  1
  Tm  Tm14  1  0.656925  0.167766  0.877379  1
  Tm  Tm15  1  0.156925  0.332234  0.622621  1
  Tm  Tm16  1  0.819249  0.511220  0.750003  1
  Tm  Tm17  1  0.319249  0.988780  0.749997  1
  Tm  Tm18  1  0.180758  0.488747  0.250000  1
  Tm  Tm19  1  0.680758  0.011253  0.250000  1
  Pt  Pt20  1  0.683274  0.966782  0.458322  1
  Pt  Pt21  1  0.183274  0.533218  0.041678  1
  Pt  Pt22  1  0.316810  0.033302  0.958342  1
  Pt  Pt23  1  0.816810  0.466698  0.541658  1
  Pt  Pt24  1  0.316717  0.033305  0.541657  1
  Pt  Pt25  1  0.816717  0.466695  0.958343  1
  Pt  Pt26  1  0.683236  0.966771  0.041683  1
  Pt  Pt27  1  0.183236  0.533229  0.458317  1
  Pt  Pt28  1  0.454401  0.386420  0.750016  1
  Pt  Pt29  1  0.954401  0.113580  0.749984  1
  Pt  Pt30  1  0.545598  0.613546  0.250000  1
  Pt  Pt31  1  0.045598  0.886454  0.250000  1
  Pt  Pt32  1  0.682814  0.856768  0.750019  1
  Pt  Pt33  1  0.182814  0.643232  0.749981  1
  Pt  Pt34  1  0.317198  0.143274  0.250000  1
  Pt  Pt35  1  0.817198  0.356726  0.250000  1
