# generated using pymatgen
data_Tb6Zn(P3Rh5)4
_symmetry_space_group_name_H-M   'P 1'
_cell_length_a   13.46526800
_cell_length_b   13.46526650
_cell_length_c   3.90542000
_cell_angle_alpha   90.00000000
_cell_angle_beta   90.00000000
_cell_angle_gamma   119.99999878
_symmetry_Int_Tables_number   1
_chemical_formula_structural   Tb6Zn(P3Rh5)4
_chemical_formula_sum   'Tb6 Zn1 P12 Rh20'
_cell_volume   613.23698231
_cell_formula_units_Z   1
loop_
 _symmetry_equiv_pos_site_id
 _symmetry_equiv_pos_as_xyz
  1  'x, y, z'
loop_
 _atom_site_type_symbol
 _atom_site_label
 _atom_site_symmetry_multiplicity
 _atom_site_fract_x
 _atom_site_fract_y
 _atom_site_fract_z
 _atom_site_occupancy
  Tb  Tb0  1  0.531454  0.717236  0.251197  1
  Tb  Tb1  1  0.282764  0.814218  0.251197  1
  Tb  Tb2  1  0.185782  0.468546  0.251197  1
  Tb  Tb3  1  0.468546  0.282764  0.748803  1
  Tb  Tb4  1  0.717236  0.185782  0.748803  1
  Tb  Tb5  1  0.814218  0.531454  0.748803  1
  Zn  Zn6  1  0.000000  0.000000  0.000000  1
  P  P7  1  0.526627  0.138153  0.249770  1
  P  P8  1  0.861847  0.388475  0.249770  1
  P  P9  1  0.611525  0.473373  0.249770  1
  P  P10  1  0.950020  0.721012  0.246650  1
  P  P11  1  0.278988  0.229007  0.246650  1
  P  P12  1  0.770993  0.049980  0.246650  1
  P  P13  1  0.388475  0.526627  0.750230  1
  P  P14  1  0.473373  0.861847  0.750230  1
  P  P15  1  0.138153  0.611525  0.750230  1
  P  P16  1  0.721012  0.770993  0.753350  1
  P  P17  1  0.229007  0.950020  0.753350  1
  P  P18  1  0.049980  0.278988  0.753350  1
  Rh  Rh19  1  0.333333  0.666667  0.751673  1
  Rh  Rh20  1  0.918909  0.251466  0.247549  1
  Rh  Rh21  1  0.748534  0.667442  0.247549  1
  Rh  Rh22  1  0.332558  0.081091  0.247549  1
  Rh  Rh23  1  0.442326  0.026854  0.749663  1
  Rh  Rh24  1  0.973146  0.415474  0.749663  1
  Rh  Rh25  1  0.584526  0.557674  0.749663  1
  Rh  Rh26  1  0.666667  0.333333  0.248327  1
  Rh  Rh27  1  0.094988  0.202889  0.256801  1
  Rh  Rh28  1  0.797111  0.892099  0.256801  1
  Rh  Rh29  1  0.107901  0.905012  0.256801  1
  Rh  Rh30  1  0.026854  0.584526  0.250337  1
  Rh  Rh31  1  0.415474  0.442326  0.250337  1
  Rh  Rh32  1  0.557674  0.973146  0.250337  1
  Rh  Rh33  1  0.667442  0.918909  0.752451  1
  Rh  Rh34  1  0.081091  0.748534  0.752451  1
  Rh  Rh35  1  0.251466  0.332558  0.752451  1
  Rh  Rh36  1  0.905012  0.797111  0.743199  1
  Rh  Rh37  1  0.202889  0.107901  0.743199  1
  Rh  Rh38  1  0.892099  0.094988  0.743199  1
