# generated using pymatgen
data_SrPr3Ti8O20
_symmetry_space_group_name_H-M   'P 1'
_cell_length_a   5.87244600
_cell_length_b   7.85759012
_cell_length_c   8.80650497
_cell_angle_alpha   89.79729073
_cell_angle_beta   90.00000000
_cell_angle_gamma   90.00000000
_symmetry_Int_Tables_number   1
_chemical_formula_structural   SrPr3Ti8O20
_chemical_formula_sum   'Sr1 Pr3 Ti8 O20'
_cell_volume   406.35842594
_cell_formula_units_Z   1
loop_
 _symmetry_equiv_pos_site_id
 _symmetry_equiv_pos_as_xyz
  1  'x, y, z'
loop_
 _atom_site_type_symbol
 _atom_site_label
 _atom_site_symmetry_multiplicity
 _atom_site_fract_x
 _atom_site_fract_y
 _atom_site_fract_z
 _atom_site_occupancy
  Sr  Sr0  1  0.000000  0.354960  0.670728  1
  Pr  Pr1  1  0.000000  0.641129  0.330253  1
  Pr  Pr2  1  0.000000  0.855888  0.828134  1
  Pr  Pr3  1  0.000000  0.143451  0.171280  1
  Ti  Ti4  1  0.500000  0.113277  0.858037  1
  Ti  Ti5  1  0.500000  0.882925  0.142621  1
  Ti  Ti6  1  0.500000  0.617799  0.640192  1
  Ti  Ti7  1  0.500000  0.387726  0.359959  1
  Ti  Ti8  1  0.252889  0.500395  0.997672  1
  Ti  Ti9  1  0.746866  0.000044  0.500098  1
  Ti  Ti10  1  0.747111  0.500395  0.997672  1
  Ti  Ti11  1  0.253134  0.000044  0.500098  1
  O  O12  1  0.257604  0.899728  0.289742  1
  O  O13  1  0.261425  0.086979  0.711509  1
  O  O14  1  0.741965  0.400895  0.210385  1
  O  O15  1  0.737660  0.607823  0.793481  1
  O  O16  1  0.738575  0.086979  0.711509  1
  O  O17  1  0.742396  0.899728  0.289742  1
  O  O18  1  0.262340  0.607823  0.793481  1
  O  O19  1  0.258035  0.400895  0.210385  1
  O  O20  1  0.500000  0.334791  0.919643  1
  O  O21  1  0.500000  0.664411  0.079075  1
  O  O22  1  0.500000  0.832996  0.570710  1
  O  O23  1  0.500000  0.168007  0.425815  1
  O  O24  1  0.282038  0.000344  0.001833  1
  O  O25  1  0.714526  0.507524  0.495895  1
  O  O26  1  0.717962  0.000344  0.001833  1
  O  O27  1  0.285474  0.507524  0.495895  1
  O  O28  1  0.000000  0.154221  0.443045  1
  O  O29  1  0.000000  0.839125  0.551488  1
  O  O30  1  0.000000  0.660274  0.052943  1
  O  O31  1  0.000000  0.341554  0.954849  1
