# generated using pymatgen
data_Y4Cr3ReB16
_symmetry_space_group_name_H-M   'P 1'
_cell_length_a   3.49837700
_cell_length_b   5.95226176
_cell_length_c   11.50001601
_cell_angle_alpha   89.92279806
_cell_angle_beta   90.00000000
_cell_angle_gamma   90.00000000
_symmetry_Int_Tables_number   1
_chemical_formula_structural   Y4Cr3ReB16
_chemical_formula_sum   'Y4 Cr3 Re1 B16'
_cell_volume   239.46755571
_cell_formula_units_Z   1
loop_
 _symmetry_equiv_pos_site_id
 _symmetry_equiv_pos_as_xyz
  1  'x, y, z'
loop_
 _atom_site_type_symbol
 _atom_site_label
 _atom_site_symmetry_multiplicity
 _atom_site_fract_x
 _atom_site_fract_y
 _atom_site_fract_z
 _atom_site_occupancy
  Y  Y0  1  0.000000  0.624010  0.351766  1
  Y  Y1  1  0.000000  0.375544  0.650084  1
  Y  Y2  1  0.000000  0.126226  0.152133  1
  Y  Y3  1  0.000000  0.875390  0.847386  1
  Cr  Cr4  1  0.000000  0.371992  0.916767  1
  Cr  Cr5  1  0.000000  0.123708  0.419320  1
  Cr  Cr6  1  0.000000  0.876325  0.580534  1
  Re  Re7  1  0.000000  0.627350  0.083330  1
  B  B8  1  0.500000  0.784374  0.186185  1
  B  B9  1  0.500000  0.217611  0.814875  1
  B  B10  1  0.500000  0.281787  0.317114  1
  B  B11  1  0.500000  0.718071  0.683378  1
  B  B12  1  0.500000  0.864717  0.031278  1
  B  B13  1  0.500000  0.136898  0.966672  1
  B  B14  1  0.500000  0.362465  0.468066  1
  B  B15  1  0.500000  0.637771  0.532646  1
  B  B16  1  0.500000  0.887115  0.453666  1
  B  B17  1  0.500000  0.113423  0.546919  1
  B  B18  1  0.500000  0.384445  0.045874  1
  B  B19  1  0.500000  0.612198  0.951334  1
  B  B20  1  0.500000  0.976682  0.309459  1
  B  B21  1  0.500000  0.024080  0.691017  1
  B  B22  1  0.500000  0.473763  0.192925  1
  B  B23  1  0.500000  0.524056  0.807271  1
