# generated using pymatgen
data_CsTbDy9(C2I9)2
_symmetry_space_group_name_H-M   'P 1'
_cell_length_a   11.46323371
_cell_length_b   11.48197377
_cell_length_c   11.50720069
_cell_angle_alpha   113.23742084
_cell_angle_beta   86.83173633
_cell_angle_gamma   119.91807779
_symmetry_Int_Tables_number   1
_chemical_formula_structural   CsTbDy9(C2I9)2
_chemical_formula_sum   'Cs1 Tb1 Dy9 C4 I18'
_cell_volume   1187.06182036
_cell_formula_units_Z   1
loop_
 _symmetry_equiv_pos_site_id
 _symmetry_equiv_pos_as_xyz
  1  'x, y, z'
loop_
 _atom_site_type_symbol
 _atom_site_label
 _atom_site_symmetry_multiplicity
 _atom_site_fract_x
 _atom_site_fract_y
 _atom_site_fract_z
 _atom_site_occupancy
  Cs  Cs0  1  0.499992  0.999979  0.500041  1
  Tb  Tb1  1  0.895153  0.055370  0.999429  1
  Dy  Dy2  1  0.678812  0.724896  0.711893  1
  Dy  Dy3  1  0.276299  0.351642  0.015652  1
  Dy  Dy4  1  0.093587  0.389778  0.291326  1
  Dy  Dy5  1  0.964809  0.037997  0.323084  1
  Dy  Dy6  1  0.906441  0.609860  0.708439  1
  Dy  Dy7  1  0.104062  0.944868  0.000577  1
  Dy  Dy8  1  0.035341  0.961952  0.676912  1
  Dy  Dy9  1  0.321547  0.275243  0.288307  1
  Dy  Dy10  1  0.723822  0.648289  0.984337  1
  C  C11  1  0.151912  0.219564  0.120783  1
  C  C12  1  0.848591  0.780113  0.879134  1
  C  C13  1  0.924332  0.856196  0.803324  1
  C  C14  1  0.076239  0.143512  0.196649  1
  I  I15  1  0.450640  0.530628  0.831992  1
  I  I16  1  0.382391  0.039994  0.157412  1
  I  I17  1  0.778238  0.855461  0.501860  1
  I  I18  1  0.838524  0.310817  0.154091  1
  I  I19  1  0.549470  0.469455  0.168018  1
  I  I20  1  0.221804  0.144516  0.498204  1
  I  I21  1  0.316751  0.096329  0.830260  1
  I  I22  1  0.682925  0.903319  0.170153  1
  I  I23  1  0.974789  0.756811  0.169355  1
  I  I24  1  0.934036  0.298181  0.500725  1
  I  I25  1  0.025706  0.243622  0.830261  1
  I  I26  1  0.066021  0.701832  0.499250  1
  I  I27  1  0.260381  0.620606  0.182607  1
  I  I28  1  0.739567  0.379273  0.817389  1
  I  I29  1  0.642751  0.435608  0.501085  1
  I  I30  1  0.161408  0.690515  0.846789  1
  I  I31  1  0.616469  0.959399  0.841757  1
  I  I32  1  0.357191  0.564374  0.498906  1
