# generated using pymatgen
data_Dy2Er9TmCo5Bi
_symmetry_space_group_name_H-M   'P 1'
_cell_length_a   8.23904935
_cell_length_b   8.24486281
_cell_length_c   8.24802154
_cell_angle_alpha   111.01858167
_cell_angle_beta   110.81189981
_cell_angle_gamma   106.62941560
_symmetry_Int_Tables_number   1
_chemical_formula_structural   Dy2Er9TmCo5Bi
_chemical_formula_sum   'Dy2 Er9 Tm1 Co5 Bi1'
_cell_volume   430.46571819
_cell_formula_units_Z   1
loop_
 _symmetry_equiv_pos_site_id
 _symmetry_equiv_pos_as_xyz
  1  'x, y, z'
loop_
 _atom_site_type_symbol
 _atom_site_label
 _atom_site_symmetry_multiplicity
 _atom_site_fract_x
 _atom_site_fract_y
 _atom_site_fract_z
 _atom_site_occupancy
  Dy  Dy0  1  0.987739  0.792816  0.195390  1
  Dy  Dy1  1  0.012107  0.206342  0.805330  1
  Er  Er2  1  0.183911  0.289616  0.472508  1
  Er  Er3  1  0.183297  0.711982  0.894243  1
  Er  Er4  1  0.816065  0.288583  0.105738  1
  Er  Er5  1  0.687731  0.379216  0.690066  1
  Er  Er6  1  0.312976  0.620981  0.310224  1
  Er  Er7  1  0.687631  0.997354  0.308620  1
  Er  Er8  1  0.312588  0.002485  0.691804  1
  Er  Er9  1  0.598152  0.792770  0.804894  1
  Er  Er10  1  0.403382  0.208160  0.195691  1
  Tm  Tm11  1  0.816192  0.710630  0.527823  1
  Co  Co12  1  0.623273  0.998483  0.623468  1
  Co  Co13  1  0.376500  0.000936  0.375765  1
  Co  Co14  1  0.111777  0.611838  0.500568  1
  Co  Co15  1  0.886308  0.388583  0.498317  1
  Co  Co16  1  0.000672  0.999222  0.999915  1
  Bi  Bi17  1  0.499700  0.500001  0.999637  1
