# generated using pymatgen
data_Mg2Ni9Mo2P7Ru
_symmetry_space_group_name_H-M   'P 1'
_cell_length_a   3.61097200
_cell_length_b   9.17875406
_cell_length_c   9.18848892
_cell_angle_alpha   120.22726296
_cell_angle_beta   90.00000000
_cell_angle_gamma   90.00000000
_symmetry_Int_Tables_number   1
_chemical_formula_structural   Mg2Ni9Mo2P7Ru
_chemical_formula_sum   'Mg2 Ni9 Mo2 P7 Ru1'
_cell_volume   263.13793514
_cell_formula_units_Z   1
loop_
 _symmetry_equiv_pos_site_id
 _symmetry_equiv_pos_as_xyz
  1  'x, y, z'
loop_
 _atom_site_type_symbol
 _atom_site_label
 _atom_site_symmetry_multiplicity
 _atom_site_fract_x
 _atom_site_fract_y
 _atom_site_fract_z
 _atom_site_occupancy
  Mg  Mg0  1  0.000000  0.666721  0.331626  1
  Mg  Mg1  1  0.500000  0.333166  0.666636  1
  Ni  Ni2  1  0.000000  0.557760  0.927475  1
  Ni  Ni3  1  0.000000  0.372510  0.442575  1
  Ni  Ni4  1  0.000000  0.069148  0.630053  1
  Ni  Ni5  1  0.500000  0.938448  0.385157  1
  Ni  Ni6  1  0.500000  0.448550  0.062487  1
  Ni  Ni7  1  0.500000  0.614085  0.554978  1
  Ni  Ni8  1  0.000000  0.871201  0.159843  1
  Ni  Ni9  1  0.000000  0.290448  0.129915  1
  Ni  Ni10  1  0.000000  0.836471  0.707716  1
  Mo  Mo11  1  0.500000  0.119844  0.218682  1
  Mo  Mo12  1  0.500000  0.098208  0.881024  1
  P  P13  1  0.500000  0.709786  0.118465  1
  P  P14  1  0.500000  0.412716  0.291805  1
  P  P15  1  0.500000  0.879140  0.587022  1
  P  P16  1  0.000000  0.995732  0.997359  1
  P  P17  1  0.000000  0.589170  0.705363  1
  P  P18  1  0.000000  0.116121  0.415138  1
  P  P19  1  0.000000  0.299183  0.885290  1
  Ru  Ru20  1  0.500000  0.781594  0.901390  1
