# generated using pymatgen
data_Tm3LuAl6(Ga2Ir)6
_symmetry_space_group_name_H-M   'P 1'
_cell_length_a   7.54160108
_cell_length_b   7.53795865
_cell_length_c   9.48564274
_cell_angle_alpha   90.17905880
_cell_angle_beta   89.93235566
_cell_angle_gamma   119.74270877
_symmetry_Int_Tables_number   1
_chemical_formula_structural   Tm3LuAl6(Ga2Ir)6
_chemical_formula_sum   'Tm3 Lu1 Al6 Ga12 Ir6'
_cell_volume   468.20137162
_cell_formula_units_Z   1
loop_
 _symmetry_equiv_pos_site_id
 _symmetry_equiv_pos_as_xyz
  1  'x, y, z'
loop_
 _atom_site_type_symbol
 _atom_site_label
 _atom_site_symmetry_multiplicity
 _atom_site_fract_x
 _atom_site_fract_y
 _atom_site_fract_z
 _atom_site_occupancy
  Tm  Tm0  1  0.998029  0.667888  0.251161  1
  Tm  Tm1  1  0.002003  0.332039  0.748803  1
  Tm  Tm2  1  0.672443  0.000048  0.254115  1
  Lu  Lu3  1  0.327405  0.000001  0.746021  1
  Al  Al4  1  0.663822  0.998160  0.926986  1
  Al  Al5  1  0.335850  0.001832  0.072230  1
  Al  Al6  1  0.332389  0.332055  0.555177  1
  Al  Al7  1  0.667645  0.667686  0.445441  1
  Al  Al8  1  0.668132  0.667696  0.055430  1
  Al  Al9  1  0.331878  0.332127  0.943953  1
  Ga  Ga10  1  0.129746  0.126685  0.249419  1
  Ga  Ga11  1  0.870566  0.873364  0.750561  1
  Ga  Ga12  1  0.998405  0.333841  0.078567  1
  Ga  Ga13  1  0.001926  0.666421  0.920977  1
  Ga  Ga14  1  0.999520  0.664862  0.580791  1
  Ga  Ga15  1  0.335407  0.999520  0.418253  1
  Ga  Ga16  1  0.000959  0.335521  0.419639  1
  Ga  Ga17  1  0.664147  0.000491  0.582628  1
  Ga  Ga18  1  0.344736  0.550765  0.249840  1
  Ga  Ga19  1  0.654920  0.448792  0.750114  1
  Ga  Ga20  1  0.548632  0.343455  0.249168  1
  Ga  Ga21  1  0.451226  0.656601  0.750800  1
  Ir  Ir22  1  0.667141  0.325370  0.999064  1
  Ir  Ir23  1  0.332803  0.674595  0.000661  1
  Ir  Ir24  1  0.330368  0.669528  0.500780  1
  Ir  Ir25  1  0.669699  0.330490  0.499407  1
  Ir  Ir26  1  0.000108  0.000078  0.999815  1
  Ir  Ir27  1  0.000093  0.000093  0.500203  1
