# generated using pymatgen
data_Sc12Mn2SiI16
_symmetry_space_group_name_H-M   'P 1'
_cell_length_a   9.09466550
_cell_length_b   11.86578893
_cell_length_c   12.53747884
_cell_angle_alpha   117.04987346
_cell_angle_beta   101.19824425
_cell_angle_gamma   100.67516988
_symmetry_Int_Tables_number   1
_chemical_formula_structural   Sc12Mn2SiI16
_chemical_formula_sum   'Sc12 Mn2 Si1 I16'
_cell_volume   1122.60285787
_cell_formula_units_Z   1
loop_
 _symmetry_equiv_pos_site_id
 _symmetry_equiv_pos_as_xyz
  1  'x, y, z'
loop_
 _atom_site_type_symbol
 _atom_site_label
 _atom_site_symmetry_multiplicity
 _atom_site_fract_x
 _atom_site_fract_y
 _atom_site_fract_z
 _atom_site_occupancy
  Sc  Sc0  1  0.100834  0.270319  0.359078  1
  Sc  Sc1  1  0.899166  0.729681  0.640922  1
  Sc  Sc2  1  0.769336  0.536173  0.330576  1
  Sc  Sc3  1  0.230664  0.463827  0.669424  1
  Sc  Sc4  1  0.287345  0.730215  0.640160  1
  Sc  Sc5  1  0.712655  0.269785  0.359840  1
  Sc  Sc6  1  0.157457  0.536488  0.329928  1
  Sc  Sc7  1  0.842543  0.463512  0.670072  1
  Sc  Sc8  1  0.412315  0.368851  0.289608  1
  Sc  Sc9  1  0.587685  0.631149  0.710392  1
  Sc  Sc10  1  0.461489  0.320116  0.519827  1
  Sc  Sc11  1  0.538511  0.679884  0.480173  1
  Mn  Mn12  1  0.332411  0.500205  0.499740  1
  Mn  Mn13  1  0.667590  0.499795  0.500260  1
  Si  Si14  1  0.000000  0.500000  0.500000  1
  I  I15  1  0.390084  0.739184  0.883016  1
  I  I16  1  0.609916  0.260816  0.116984  1
  I  I17  1  0.185681  0.959994  0.778986  1
  I  I18  1  0.814319  0.040006  0.221014  1
  I  I19  1  0.335934  0.094141  0.251189  1
  I  I20  1  0.664066  0.905859  0.748811  1
  I  I21  1  0.563267  0.436531  0.800234  1
  I  I22  1  0.436733  0.563469  0.199766  1
  I  I23  1  0.304106  0.828674  0.462930  1
  I  I24  1  0.695894  0.171326  0.537070  1
  I  I25  1  0.163258  0.172145  0.535733  1
  I  I26  1  0.836742  0.827855  0.464267  1
  I  I27  1  0.927323  0.576442  0.163850  1
  I  I28  1  0.072677  0.423558  0.836150  1
  I  I29  1  0.929069  0.738604  0.883715  1
  I  I30  1  0.070931  0.261396  0.116285  1
