# generated using pymatgen
data_Y4PtAu3
_symmetry_space_group_name_H-M   'P 1'
_cell_length_a   4.69092500
_cell_length_b   5.64221839
_cell_length_c   7.20176842
_cell_angle_alpha   89.01046710
_cell_angle_beta   90.00000000
_cell_angle_gamma   90.00000000
_symmetry_Int_Tables_number   1
_chemical_formula_structural   Y4PtAu3
_chemical_formula_sum   'Y4 Pt1 Au3'
_cell_volume   190.58238656
_cell_formula_units_Z   1
loop_
 _symmetry_equiv_pos_site_id
 _symmetry_equiv_pos_as_xyz
  1  'x, y, z'
loop_
 _atom_site_type_symbol
 _atom_site_label
 _atom_site_symmetry_multiplicity
 _atom_site_fract_x
 _atom_site_fract_y
 _atom_site_fract_z
 _atom_site_occupancy
  Y  Y0  1  0.250000  0.640394  0.187848  1
  Y  Y1  1  0.750000  0.352517  0.807292  1
  Y  Y2  1  0.750000  0.152039  0.323492  1
  Y  Y3  1  0.250000  0.858212  0.680838  1
  Pt  Pt4  1  0.250000  0.346378  0.540077  1
  Au  Au5  1  0.250000  0.150876  0.041304  1
  Au  Au6  1  0.750000  0.844971  0.961344  1
  Au  Au7  1  0.750000  0.654612  0.457806  1
