# generated using pymatgen
data_TbGd12YRh6
_symmetry_space_group_name_H-M   'P 1'
_cell_length_a   9.99774500
_cell_length_b   9.99774649
_cell_length_c   6.27297500
_cell_angle_alpha   90.00000000
_cell_angle_beta   90.00000000
_cell_angle_gamma   120.00000501
_symmetry_Int_Tables_number   1
_chemical_formula_structural   TbGd12YRh6
_chemical_formula_sum   'Tb1 Gd12 Y1 Rh6'
_cell_volume   543.01064337
_cell_formula_units_Z   1
loop_
 _symmetry_equiv_pos_site_id
 _symmetry_equiv_pos_as_xyz
  1  'x, y, z'
loop_
 _atom_site_type_symbol
 _atom_site_label
 _atom_site_symmetry_multiplicity
 _atom_site_fract_x
 _atom_site_fract_y
 _atom_site_fract_z
 _atom_site_occupancy
  Tb  Tb0  1  0.666667  0.333333  0.569148  1
  Gd  Gd1  1  0.874579  0.749157  0.771147  1
  Gd  Gd2  1  0.250843  0.125421  0.771147  1
  Gd  Gd3  1  0.874579  0.125421  0.771147  1
  Gd  Gd4  1  0.125592  0.251183  0.271049  1
  Gd  Gd5  1  0.748817  0.874408  0.271049  1
  Gd  Gd6  1  0.125592  0.874408  0.271049  1
  Gd  Gd7  1  0.458087  0.916177  0.590608  1
  Gd  Gd8  1  0.083823  0.541913  0.590608  1
  Gd  Gd9  1  0.458087  0.541913  0.590608  1
  Gd  Gd10  1  0.541867  0.083732  0.090589  1
  Gd  Gd11  1  0.916268  0.458133  0.090589  1
  Gd  Gd12  1  0.541867  0.458133  0.090589  1
  Y  Y13  1  0.333333  0.666667  0.071458  1
  Rh  Rh14  1  0.188658  0.377314  0.850391  1
  Rh  Rh15  1  0.622686  0.811342  0.850391  1
  Rh  Rh16  1  0.188658  0.811342  0.850391  1
  Rh  Rh17  1  0.810909  0.621819  0.351028  1
  Rh  Rh18  1  0.378181  0.189091  0.351028  1
  Rh  Rh19  1  0.810909  0.189091  0.351028  1
