# generated using pymatgen
data_Sc5Nb3P12Ir15Ru
_symmetry_space_group_name_H-M   'P 1'
_cell_length_a   12.71421392
_cell_length_b   12.66147503
_cell_length_c   3.91835500
_cell_angle_alpha   90.00000000
_cell_angle_beta   90.00000000
_cell_angle_gamma   119.92442817
_symmetry_Int_Tables_number   1
_chemical_formula_structural   Sc5Nb3P12Ir15Ru
_chemical_formula_sum   'Sc5 Nb3 P12 Ir15 Ru1'
_cell_volume   546.68662166
_cell_formula_units_Z   1
loop_
 _symmetry_equiv_pos_site_id
 _symmetry_equiv_pos_as_xyz
  1  'x, y, z'
loop_
 _atom_site_type_symbol
 _atom_site_label
 _atom_site_symmetry_multiplicity
 _atom_site_fract_x
 _atom_site_fract_y
 _atom_site_fract_z
 _atom_site_occupancy
  Sc  Sc0  1  0.332007  0.664891  0.000000  1
  Sc  Sc1  1  0.666692  0.333289  0.000000  1
  Sc  Sc2  1  0.814835  0.000615  0.500000  1
  Sc  Sc3  1  0.999937  0.814263  0.500000  1
  Sc  Sc4  1  0.185965  0.186699  0.500000  1
  Nb  Nb5  1  0.451448  0.999836  0.000000  1
  Nb  Nb6  1  0.000191  0.451430  0.000000  1
  Nb  Nb7  1  0.549456  0.548361  0.000000  1
  P  P8  1  0.175460  0.001345  0.000000  1
  P  P9  1  0.003956  0.178757  0.000000  1
  P  P10  1  0.825210  0.825843  0.000000  1
  P  P11  1  0.168838  0.480427  0.500000  1
  P  P12  1  0.515745  0.683986  0.500000  1
  P  P13  1  0.314773  0.830681  0.500000  1
  P  P14  1  0.685082  0.516139  0.500000  1
  P  P15  1  0.831273  0.314632  0.500000  1
  P  P16  1  0.483643  0.168361  0.500000  1
  P  P17  1  0.644217  0.000200  0.000000  1
  P  P18  1  0.000319  0.644677  0.000000  1
  P  P19  1  0.352060  0.356102  0.000000  1
  Ir  Ir20  1  0.357084  0.492030  0.500000  1
  Ir  Ir21  1  0.505647  0.861321  0.500000  1
  Ir  Ir22  1  0.138259  0.643137  0.500000  1
  Ir  Ir23  1  0.861865  0.506250  0.500000  1
  Ir  Ir24  1  0.643748  0.137585  0.500000  1
  Ir  Ir25  1  0.495142  0.355767  0.500000  1
  Ir  Ir26  1  0.630575  0.809131  0.000000  1
  Ir  Ir27  1  0.190817  0.821436  0.000000  1
  Ir  Ir28  1  0.809581  0.630945  0.000000  1
  Ir  Ir29  1  0.820429  0.190845  0.000000  1
  Ir  Ir30  1  0.370067  0.179389  0.000000  1
  Ir  Ir31  1  0.279669  0.000062  0.500000  1
  Ir  Ir32  1  0.997778  0.277400  0.500000  1
  Ir  Ir33  1  0.720602  0.720733  0.500000  1
  Ir  Ir34  1  0.000034  0.000666  0.000000  1
  Ru  Ru35  1  0.177597  0.372769  0.000000  1
