# generated using pymatgen
data_Dy9Ho(CoRu)2
_symmetry_space_group_name_H-M   'P 1'
_cell_length_a   6.30981987
_cell_length_b   7.10794745
_cell_length_c   8.51575743
_cell_angle_alpha   96.49649596
_cell_angle_beta   111.74516618
_cell_angle_gamma   90.00000641
_symmetry_Int_Tables_number   1
_chemical_formula_structural   Dy9Ho(CoRu)2
_chemical_formula_sum   'Dy9 Ho1 Co2 Ru2'
_cell_volume   352.11101858
_cell_formula_units_Z   1
loop_
 _symmetry_equiv_pos_site_id
 _symmetry_equiv_pos_as_xyz
  1  'x, y, z'
loop_
 _atom_site_type_symbol
 _atom_site_label
 _atom_site_symmetry_multiplicity
 _atom_site_fract_x
 _atom_site_fract_y
 _atom_site_fract_z
 _atom_site_occupancy
  Dy  Dy0  1  0.977754  0.911365  0.189458  1
  Dy  Dy1  1  0.788296  0.588635  0.810542  1
  Dy  Dy2  1  0.012616  0.083250  0.814303  1
  Dy  Dy3  1  0.198314  0.416750  0.185697  1
  Dy  Dy4  1  0.648326  0.810663  0.432176  1
  Dy  Dy5  1  0.216150  0.689337  0.567824  1
  Dy  Dy6  1  0.358627  0.182531  0.566594  1
  Dy  Dy7  1  0.792033  0.317469  0.433406  1
  Dy  Dy8  1  0.427352  0.750000  0.000000  1
  Ho  Ho9  1  0.577066  0.250000  0.000000  1
  Co  Co10  1  0.825550  0.576381  0.222555  1
  Co  Co11  1  0.602994  0.923619  0.777445  1
  Ru  Ru12  1  0.177028  0.427435  0.779134  1
  Ru  Ru13  1  0.397893  0.072565  0.220866  1
