# generated using pymatgen
data_Ca3Nd7(Pb3Cl)2
_symmetry_space_group_name_H-M   'P 1'
_cell_length_a   9.49304948
_cell_length_b   9.47051001
_cell_length_c   7.02730100
_cell_angle_alpha   90.00000000
_cell_angle_beta   90.00000000
_cell_angle_gamma   120.22288079
_symmetry_Int_Tables_number   1
_chemical_formula_structural   Ca3Nd7(Pb3Cl)2
_chemical_formula_sum   'Ca3 Nd7 Pb6 Cl2'
_cell_volume   545.90683553
_cell_formula_units_Z   1
loop_
 _symmetry_equiv_pos_site_id
 _symmetry_equiv_pos_as_xyz
  1  'x, y, z'
loop_
 _atom_site_type_symbol
 _atom_site_label
 _atom_site_symmetry_multiplicity
 _atom_site_fract_x
 _atom_site_fract_y
 _atom_site_fract_z
 _atom_site_occupancy
  Ca  Ca0  1  0.256056  0.002703  0.250000  1
  Ca  Ca1  1  0.743881  0.998677  0.750000  1
  Ca  Ca2  1  0.003857  0.257239  0.250000  1
  Nd  Nd3  1  0.996479  0.744707  0.750000  1
  Nd  Nd4  1  0.747047  0.745320  0.250000  1
  Nd  Nd5  1  0.253994  0.255216  0.750000  1
  Nd  Nd6  1  0.332638  0.668489  0.002270  1
  Nd  Nd7  1  0.667008  0.326477  0.002215  1
  Nd  Nd8  1  0.667008  0.326477  0.497785  1
  Nd  Nd9  1  0.332638  0.668489  0.497730  1
  Pb  Pb10  1  0.610722  0.998453  0.250000  1
  Pb  Pb11  1  0.386177  0.999521  0.750000  1
  Pb  Pb12  1  0.999087  0.611093  0.250000  1
  Pb  Pb13  1  0.003043  0.396334  0.750000  1
  Pb  Pb14  1  0.394856  0.394938  0.250000  1
  Pb  Pb15  1  0.607466  0.603628  0.750000  1
  Cl  Cl16  1  0.999023  0.001120  0.999509  1
  Cl  Cl17  1  0.999023  0.001120  0.500491  1
