# generated using pymatgen
data_Er10IrAu3
_symmetry_space_group_name_H-M   'P 1'
_cell_length_a   9.37638900
_cell_length_b   9.37638919
_cell_length_c   9.40186600
_cell_angle_alpha   90.00000000
_cell_angle_beta   90.00000000
_cell_angle_gamma   120.00000286
_symmetry_Int_Tables_number   1
_chemical_formula_structural   Er10IrAu3
_chemical_formula_sum   'Er20 Ir2 Au6'
_cell_volume   715.83992760
_cell_formula_units_Z   2
loop_
 _symmetry_equiv_pos_site_id
 _symmetry_equiv_pos_as_xyz
  1  'x, y, z'
loop_
 _atom_site_type_symbol
 _atom_site_label
 _atom_site_symmetry_multiplicity
 _atom_site_fract_x
 _atom_site_fract_y
 _atom_site_fract_z
 _atom_site_occupancy
  Er  Er0  1  0.000000  0.000000  0.500000  1
  Er  Er1  1  0.000000  0.000000  0.000000  1
  Er  Er2  1  0.206912  0.793088  0.442737  1
  Er  Er3  1  0.206912  0.413824  0.442737  1
  Er  Er4  1  0.586176  0.793088  0.442737  1
  Er  Er5  1  0.793088  0.206912  0.557263  1
  Er  Er6  1  0.793088  0.586176  0.557263  1
  Er  Er7  1  0.413824  0.206912  0.557263  1
  Er  Er8  1  0.793088  0.206912  0.942737  1
  Er  Er9  1  0.793088  0.586176  0.942737  1
  Er  Er10  1  0.413824  0.206912  0.942737  1
  Er  Er11  1  0.206912  0.793088  0.057263  1
  Er  Er12  1  0.206912  0.413824  0.057263  1
  Er  Er13  1  0.586176  0.793088  0.057263  1
  Er  Er14  1  0.541742  0.458258  0.250000  1
  Er  Er15  1  0.541742  0.083484  0.250000  1
  Er  Er16  1  0.916516  0.458258  0.250000  1
  Er  Er17  1  0.458258  0.541742  0.750000  1
  Er  Er18  1  0.458258  0.916516  0.750000  1
  Er  Er19  1  0.083484  0.541742  0.750000  1
  Ir  Ir20  1  0.333333  0.666667  0.250000  1
  Ir  Ir21  1  0.666667  0.333333  0.750000  1
  Au  Au22  1  0.879136  0.120864  0.250000  1
  Au  Au23  1  0.879136  0.758274  0.250000  1
  Au  Au24  1  0.241726  0.120864  0.250000  1
  Au  Au25  1  0.120864  0.879136  0.750000  1
  Au  Au26  1  0.120864  0.241726  0.750000  1
  Au  Au27  1  0.758274  0.879136  0.750000  1
