# generated using pymatgen
data_Lu16Al4NiRh3
_symmetry_space_group_name_H-M   'P 1'
_cell_length_a   9.31531119
_cell_length_b   9.31531158
_cell_length_c   9.31531191
_cell_angle_alpha   59.86979655
_cell_angle_beta   59.86979292
_cell_angle_gamma   59.86979337
_symmetry_Int_Tables_number   1
_chemical_formula_structural   Lu16Al4NiRh3
_chemical_formula_sum   'Lu16 Al4 Ni1 Rh3'
_cell_volume   569.89144187
_cell_formula_units_Z   1
loop_
 _symmetry_equiv_pos_site_id
 _symmetry_equiv_pos_as_xyz
  1  'x, y, z'
loop_
 _atom_site_type_symbol
 _atom_site_label
 _atom_site_symmetry_multiplicity
 _atom_site_fract_x
 _atom_site_fract_y
 _atom_site_fract_z
 _atom_site_occupancy
  Lu  Lu0  1  0.604131  0.604131  0.604131  1
  Lu  Lu1  1  0.600584  0.600584  0.192833  1
  Lu  Lu2  1  0.600584  0.192833  0.600584  1
  Lu  Lu3  1  0.192833  0.600584  0.600584  1
  Lu  Lu4  1  0.059889  0.441909  0.441909  1
  Lu  Lu5  1  0.443440  0.057369  0.057369  1
  Lu  Lu6  1  0.441909  0.059889  0.441909  1
  Lu  Lu7  1  0.057369  0.443440  0.057369  1
  Lu  Lu8  1  0.441909  0.441909  0.059889  1
  Lu  Lu9  1  0.057369  0.057369  0.443440  1
  Lu  Lu10  1  0.186560  0.813118  0.813118  1
  Lu  Lu11  1  0.815198  0.185404  0.185404  1
  Lu  Lu12  1  0.813118  0.186560  0.813118  1
  Lu  Lu13  1  0.185404  0.815198  0.185404  1
  Lu  Lu14  1  0.813118  0.813118  0.186560  1
  Lu  Lu15  1  0.185404  0.185404  0.815198  1
  Al  Al16  1  0.828622  0.828622  0.828622  1
  Al  Al17  1  0.829439  0.829439  0.513465  1
  Al  Al18  1  0.829439  0.513465  0.829439  1
  Al  Al19  1  0.513465  0.829439  0.829439  1
  Ni  Ni20  1  0.392222  0.392222  0.392222  1
  Rh  Rh21  1  0.393908  0.393908  0.820177  1
  Rh  Rh22  1  0.393908  0.820177  0.393908  1
  Rh  Rh23  1  0.820177  0.393908  0.393908  1
