# generated using pymatgen
data_Ca2Ga9Ru5
_symmetry_space_group_name_H-M   'P 1'
_cell_length_a   6.22126233
_cell_length_b   6.22126201
_cell_length_c   8.02496369
_cell_angle_alpha   112.80644117
_cell_angle_beta   112.80644188
_cell_angle_gamma   90.00000787
_symmetry_Int_Tables_number   1
_chemical_formula_structural   Ca2Ga9Ru5
_chemical_formula_sum   'Ca2 Ga9 Ru5'
_cell_volume   259.77344811
_cell_formula_units_Z   1
loop_
 _symmetry_equiv_pos_site_id
 _symmetry_equiv_pos_as_xyz
  1  'x, y, z'
loop_
 _atom_site_type_symbol
 _atom_site_label
 _atom_site_symmetry_multiplicity
 _atom_site_fract_x
 _atom_site_fract_y
 _atom_site_fract_z
 _atom_site_occupancy
  Ca  Ca0  1  0.500000  0.000000  0.000000  1
  Ca  Ca1  1  0.000000  0.500000  0.000000  1
  Ga  Ga2  1  0.000000  0.000000  0.000000  1
  Ga  Ga3  1  0.438404  0.438404  0.296813  1
  Ga  Ga4  1  0.858409  0.438404  0.296813  1
  Ga  Ga5  1  0.438404  0.858409  0.296813  1
  Ga  Ga6  1  0.858409  0.858409  0.296813  1
  Ga  Ga7  1  0.141591  0.141591  0.703187  1
  Ga  Ga8  1  0.561596  0.141591  0.703187  1
  Ga  Ga9  1  0.141591  0.561596  0.703187  1
  Ga  Ga10  1  0.561596  0.561596  0.703187  1
  Ru  Ru11  1  0.500000  0.500000  0.000000  1
  Ru  Ru12  1  0.181676  0.181676  0.363351  1
  Ru  Ru13  1  0.750000  0.250000  0.499999  1
  Ru  Ru14  1  0.250000  0.750000  0.499999  1
  Ru  Ru15  1  0.818325  0.818325  0.636649  1
