# generated using pymatgen
data_Cs13K5(TlSb4)2
_symmetry_space_group_name_H-M   'P 1'
_cell_length_a   11.26863601
_cell_length_b   11.37161310
_cell_length_c   11.93921500
_cell_angle_alpha   90.00000000
_cell_angle_beta   90.00000000
_cell_angle_gamma   119.69649674
_symmetry_Int_Tables_number   1
_chemical_formula_structural   Cs13K5(TlSb4)2
_chemical_formula_sum   'Cs13 K5 Tl2 Sb8'
_cell_volume   1328.98453049
_cell_formula_units_Z   1
loop_
 _symmetry_equiv_pos_site_id
 _symmetry_equiv_pos_as_xyz
  1  'x, y, z'
loop_
 _atom_site_type_symbol
 _atom_site_label
 _atom_site_symmetry_multiplicity
 _atom_site_fract_x
 _atom_site_fract_y
 _atom_site_fract_z
 _atom_site_occupancy
  Cs  Cs0  1  0.207580  0.415159  0.542309  1
  Cs  Cs1  1  0.792548  0.207535  0.043352  1
  Cs  Cs2  1  0.414987  0.207535  0.043349  1
  Cs  Cs3  1  0.584005  0.792676  0.541766  1
  Cs  Cs4  1  0.208669  0.792673  0.541767  1
  Cs  Cs5  1  0.791504  0.583006  0.454280  1
  Cs  Cs6  1  0.792548  0.207535  0.456648  1
  Cs  Cs7  1  0.791504  0.583006  0.045720  1
  Cs  Cs8  1  0.414987  0.207535  0.456651  1
  Cs  Cs9  1  0.584005  0.792676  0.958234  1
  Cs  Cs10  1  0.207580  0.415159  0.957691  1
  Cs  Cs11  1  0.208669  0.792673  0.958233  1
  Cs  Cs12  1  0.880946  0.761895  0.750000  1
  K  K13  1  0.120283  0.240543  0.250000  1
  K  K14  1  0.880452  0.121247  0.750000  1
  K  K15  1  0.240786  0.121266  0.750000  1
  K  K16  1  0.761242  0.881309  0.250000  1
  K  K17  1  0.120090  0.881322  0.250000  1
  Tl  Tl18  1  0.333402  0.666808  0.250000  1
  Tl  Tl19  1  0.666354  0.332711  0.750000  1
  Sb  Sb20  1  0.483663  0.519195  0.250000  1
  Sb  Sb21  1  0.964878  0.474012  0.750000  1
  Sb  Sb22  1  0.518181  0.036357  0.750000  1
  Sb  Sb23  1  0.481168  0.962346  0.250000  1
  Sb  Sb24  1  0.035523  0.519193  0.250000  1
  Sb  Sb25  1  0.509141  0.474002  0.750000  1
  Sb  Sb26  1  0.002652  0.005310  0.005289  1
  Sb  Sb27  1  0.002652  0.005310  0.494711  1
