# generated using pymatgen
data_Ho3ErGa4IrPd3
_symmetry_space_group_name_H-M   'P 1'
_cell_length_a   4.44083900
_cell_length_b   6.85328881
_cell_length_c   7.67026597
_cell_angle_alpha   89.63166192
_cell_angle_beta   90.00000000
_cell_angle_gamma   90.00000000
_symmetry_Int_Tables_number   1
_chemical_formula_structural   Ho3ErGa4IrPd3
_chemical_formula_sum   'Ho3 Er1 Ga4 Ir1 Pd3'
_cell_volume   233.43475227
_cell_formula_units_Z   1
loop_
 _symmetry_equiv_pos_site_id
 _symmetry_equiv_pos_as_xyz
  1  'x, y, z'
loop_
 _atom_site_type_symbol
 _atom_site_label
 _atom_site_symmetry_multiplicity
 _atom_site_fract_x
 _atom_site_fract_y
 _atom_site_fract_z
 _atom_site_occupancy
  Ho  Ho0  1  0.250000  0.988860  0.306479  1
  Ho  Ho1  1  0.750000  0.023441  0.690538  1
  Ho  Ho2  1  0.750000  0.519191  0.805615  1
  Er  Er3  1  0.250000  0.478901  0.198093  1
  Ga  Ga4  1  0.250000  0.330234  0.569669  1
  Ga  Ga5  1  0.250000  0.830335  0.930211  1
  Ga  Ga6  1  0.750000  0.663073  0.428643  1
  Ga  Ga7  1  0.750000  0.171157  0.072762  1
  Ir  Ir8  1  0.750000  0.271566  0.395530  1
  Pd  Pd9  1  0.250000  0.223993  0.896619  1
  Pd  Pd10  1  0.250000  0.723825  0.603814  1
  Pd  Pd11  1  0.750000  0.775425  0.102026  1
