# generated using pymatgen
data_HoEr4(CoB3)2
_symmetry_space_group_name_H-M   'P 1'
_cell_length_a   5.39129001
_cell_length_b   5.39129046
_cell_length_c   8.24660135
_cell_angle_alpha   70.92052575
_cell_angle_beta   70.92051042
_cell_angle_gamma   60.00002779
_symmetry_Int_Tables_number   1
_chemical_formula_structural   HoEr4(CoB3)2
_chemical_formula_sum   'Ho1 Er4 Co2 B6'
_cell_volume   192.22798218
_cell_formula_units_Z   1
loop_
 _symmetry_equiv_pos_site_id
 _symmetry_equiv_pos_as_xyz
  1  'x, y, z'
loop_
 _atom_site_type_symbol
 _atom_site_label
 _atom_site_symmetry_multiplicity
 _atom_site_fract_x
 _atom_site_fract_y
 _atom_site_fract_z
 _atom_site_occupancy
  Ho  Ho0  1  0.000000  0.000000  0.000000  1
  Er  Er1  1  0.251755  0.251755  0.244737  1
  Er  Er2  1  0.748245  0.748245  0.755263  1
  Er  Er3  1  0.415918  0.415918  0.752248  1
  Er  Er4  1  0.584082  0.584082  0.247752  1
  Co  Co5  1  0.118786  0.118786  0.643643  1
  Co  Co6  1  0.881214  0.881214  0.356357  1
  B  B7  1  0.168693  0.831307  0.500000  1
  B  B8  1  0.831307  0.500000  0.500000  1
  B  B9  1  0.500000  0.168693  0.500000  1
  B  B10  1  0.168693  0.500000  0.500000  1
  B  B11  1  0.500000  0.831307  0.500000  1
  B  B12  1  0.831307  0.168693  0.500000  1
