# generated using pymatgen
data_SrGa4Ni9
_symmetry_space_group_name_H-M   'P 1'
_cell_length_a   8.18299843
_cell_length_b   8.18299930
_cell_length_c   8.18299920
_cell_angle_alpha   120.95048232
_cell_angle_beta   120.95048093
_cell_angle_gamma   88.36145184
_symmetry_Int_Tables_number   1
_chemical_formula_structural   SrGa4Ni9
_chemical_formula_sum   'Sr2 Ga8 Ni18'
_cell_volume   381.72028639
_cell_formula_units_Z   2
loop_
 _symmetry_equiv_pos_site_id
 _symmetry_equiv_pos_as_xyz
  1  'x, y, z'
loop_
 _atom_site_type_symbol
 _atom_site_label
 _atom_site_symmetry_multiplicity
 _atom_site_fract_x
 _atom_site_fract_y
 _atom_site_fract_z
 _atom_site_occupancy
  Sr  Sr0  1  0.750000  0.750000  0.000000  1
  Sr  Sr1  1  0.250000  0.250000  0.000000  1
  Ga  Ga2  1  0.057250  0.557250  0.858771  1
  Ga  Ga3  1  0.698479  0.198479  0.141229  1
  Ga  Ga4  1  0.557250  0.698479  0.500000  1
  Ga  Ga5  1  0.198479  0.057250  0.500000  1
  Ga  Ga6  1  0.942750  0.442750  0.141229  1
  Ga  Ga7  1  0.301521  0.801521  0.858771  1
  Ga  Ga8  1  0.442750  0.301521  0.500000  1
  Ga  Ga9  1  0.801521  0.942750  0.500000  1
  Ni  Ni10  1  0.065508  0.204692  0.270201  1
  Ni  Ni11  1  0.934492  0.795308  0.729799  1
  Ni  Ni12  1  0.565508  0.295308  0.860816  1
  Ni  Ni13  1  0.434492  0.704692  0.139184  1
  Ni  Ni14  1  0.795308  0.065508  0.860816  1
  Ni  Ni15  1  0.204692  0.934492  0.139184  1
  Ni  Ni16  1  0.704692  0.565508  0.270201  1
  Ni  Ni17  1  0.295308  0.434492  0.729799  1
  Ni  Ni18  1  0.437772  0.937772  0.730257  1
  Ni  Ni19  1  0.207515  0.707515  0.269743  1
  Ni  Ni20  1  0.937772  0.207515  0.500000  1
  Ni  Ni21  1  0.707515  0.437772  0.500000  1
  Ni  Ni22  1  0.562228  0.062228  0.269743  1
  Ni  Ni23  1  0.792485  0.292485  0.730257  1
  Ni  Ni24  1  0.062228  0.792485  0.500000  1
  Ni  Ni25  1  0.292485  0.562228  0.500000  1
  Ni  Ni26  1  0.000000  0.500000  0.500000  1
  Ni  Ni27  1  0.500000  0.000000  0.500000  1
