# generated using pymatgen
data_Sr2Al9Ir2Au
_symmetry_space_group_name_H-M   'P 1'
_cell_length_a   7.70599741
_cell_length_b   7.70599829
_cell_length_c   9.77613300
_cell_angle_alpha   90.00000000
_cell_angle_beta   90.00000000
_cell_angle_gamma   119.10934108
_symmetry_Int_Tables_number   1
_chemical_formula_structural   Sr2Al9Ir2Au
_chemical_formula_sum   'Sr4 Al18 Ir4 Au2'
_cell_volume   507.20518719
_cell_formula_units_Z   2
loop_
 _symmetry_equiv_pos_site_id
 _symmetry_equiv_pos_as_xyz
  1  'x, y, z'
loop_
 _atom_site_type_symbol
 _atom_site_label
 _atom_site_symmetry_multiplicity
 _atom_site_fract_x
 _atom_site_fract_y
 _atom_site_fract_z
 _atom_site_occupancy
  Sr  Sr0  1  0.997859  0.678302  0.750000  1
  Sr  Sr1  1  0.002141  0.321698  0.250000  1
  Sr  Sr2  1  0.678302  0.997859  0.750000  1
  Sr  Sr3  1  0.321698  0.002141  0.250000  1
  Al  Al4  1  0.147702  0.147702  0.750000  1
  Al  Al5  1  0.852298  0.852298  0.250000  1
  Al  Al6  1  0.004605  0.347072  0.573360  1
  Al  Al7  1  0.995395  0.652928  0.426640  1
  Al  Al8  1  0.995395  0.652928  0.073360  1
  Al  Al9  1  0.347072  0.004605  0.926640  1
  Al  Al10  1  0.004605  0.347072  0.926640  1
  Al  Al11  1  0.652928  0.995395  0.073360  1
  Al  Al12  1  0.652928  0.995395  0.426640  1
  Al  Al13  1  0.347072  0.004605  0.573360  1
  Al  Al14  1  0.343138  0.343138  0.048182  1
  Al  Al15  1  0.656862  0.656862  0.951818  1
  Al  Al16  1  0.656862  0.656862  0.548182  1
  Al  Al17  1  0.343138  0.343138  0.451818  1
  Al  Al18  1  0.339522  0.549635  0.750000  1
  Al  Al19  1  0.660478  0.450365  0.250000  1
  Al  Al20  1  0.549635  0.339522  0.750000  1
  Al  Al21  1  0.450365  0.660478  0.250000  1
  Ir  Ir22  1  0.670109  0.329891  0.500000  1
  Ir  Ir23  1  0.329891  0.670109  0.500000  1
  Ir  Ir24  1  0.329891  0.670109  0.000000  1
  Ir  Ir25  1  0.670109  0.329891  0.000000  1
  Au  Au26  1  0.000000  0.000000  0.500000  1
  Au  Au27  1  0.000000  0.000000  0.000000  1
