# generated using pymatgen
data_Cs7Rb9(SnSe4)4
_symmetry_space_group_name_H-M   'P 1'
_cell_length_a   8.74122288
_cell_length_b   10.99426700
_cell_length_c   16.13762142
_cell_angle_alpha   90.00000000
_cell_angle_beta   90.18181763
_cell_angle_gamma   90.00000000
_symmetry_Int_Tables_number   1
_chemical_formula_structural   Cs7Rb9(SnSe4)4
_chemical_formula_sum   'Cs7 Rb9 Sn4 Se16'
_cell_volume   1550.87148220
_cell_formula_units_Z   1
loop_
 _symmetry_equiv_pos_site_id
 _symmetry_equiv_pos_as_xyz
  1  'x, y, z'
loop_
 _atom_site_type_symbol
 _atom_site_label
 _atom_site_symmetry_multiplicity
 _atom_site_fract_x
 _atom_site_fract_y
 _atom_site_fract_z
 _atom_site_occupancy
  Cs  Cs0  1  0.000459  0.999083  0.999521  1
  Cs  Cs1  1  0.499640  0.000293  0.500555  1
  Cs  Cs2  1  0.000459  0.500917  0.999521  1
  Cs  Cs3  1  0.499640  0.499707  0.500555  1
  Cs  Cs4  1  0.992249  0.750000  0.425528  1
  Cs  Cs5  1  0.492835  0.250000  0.075055  1
  Cs  Cs6  1  0.007614  0.250000  0.575179  1
  Rb  Rb7  1  0.522031  0.750000  0.926880  1
  Rb  Rb8  1  0.836458  0.049193  0.266649  1
  Rb  Rb9  1  0.336309  0.949578  0.230840  1
  Rb  Rb10  1  0.162452  0.551073  0.733750  1
  Rb  Rb11  1  0.663277  0.450271  0.769050  1
  Rb  Rb12  1  0.162452  0.948927  0.733750  1
  Rb  Rb13  1  0.663277  0.049729  0.769050  1
  Rb  Rb14  1  0.836458  0.450807  0.266649  1
  Rb  Rb15  1  0.336309  0.550422  0.230840  1
  Sn  Sn16  1  0.765364  0.750000  0.671081  1
  Sn  Sn17  1  0.232310  0.250000  0.329215  1
  Sn  Sn18  1  0.730328  0.750000  0.168676  1
  Sn  Sn19  1  0.270049  0.250000  0.830579  1
  Se  Se20  1  0.974581  0.250000  0.825314  1
  Se  Se21  1  0.527583  0.250000  0.324437  1
  Se  Se22  1  0.470651  0.750000  0.676062  1
  Se  Se23  1  0.025543  0.750000  0.174973  1
  Se  Se24  1  0.634102  0.562016  0.091745  1
  Se  Se25  1  0.136946  0.439605  0.404284  1
  Se  Se26  1  0.364988  0.059075  0.905809  1
  Se  Se27  1  0.862510  0.939127  0.596139  1
  Se  Se28  1  0.364988  0.440925  0.905809  1
  Se  Se29  1  0.862510  0.560873  0.596139  1
  Se  Se30  1  0.634102  0.937984  0.091745  1
  Se  Se31  1  0.136946  0.060395  0.404284  1
  Se  Se32  1  0.618601  0.750000  0.317767  1
  Se  Se33  1  0.118698  0.250000  0.180238  1
  Se  Se34  1  0.381756  0.250000  0.681387  1
  Se  Se35  1  0.875531  0.750000  0.820943  1
