# generated using pymatgen
data_Sr3Se2(IO3)2
_symmetry_space_group_name_H-M   'P 1'
_cell_length_a   7.27812934
_cell_length_b   7.27812874
_cell_length_c   15.11649937
_cell_angle_alpha   86.46499364
_cell_angle_beta   86.46499476
_cell_angle_gamma   46.68626089
_symmetry_Int_Tables_number   1
_chemical_formula_structural   Sr3Se2(IO3)2
_chemical_formula_sum   'Sr6 Se4 I4 O12'
_cell_volume   581.30874883
_cell_formula_units_Z   2
loop_
 _symmetry_equiv_pos_site_id
 _symmetry_equiv_pos_as_xyz
  1  'x, y, z'
loop_
 _atom_site_type_symbol
 _atom_site_label
 _atom_site_symmetry_multiplicity
 _atom_site_fract_x
 _atom_site_fract_y
 _atom_site_fract_z
 _atom_site_occupancy
  Sr  Sr0  1  0.558063  0.441937  0.250000  1
  Sr  Sr1  1  0.441937  0.558063  0.750000  1
  Sr  Sr2  1  0.797577  0.781233  0.343114  1
  Sr  Sr3  1  0.218767  0.202423  0.156886  1
  Sr  Sr4  1  0.202423  0.218767  0.656886  1
  Sr  Sr5  1  0.781233  0.797577  0.843114  1
  Se  Se6  1  0.894332  0.910341  0.632663  1
  Se  Se7  1  0.089659  0.105668  0.867337  1
  Se  Se8  1  0.105668  0.089659  0.367337  1
  Se  Se9  1  0.910341  0.894332  0.132663  1
  I  I10  1  0.348209  0.360384  0.449261  1
  I  I11  1  0.639616  0.651791  0.050739  1
  I  I12  1  0.651791  0.639616  0.550739  1
  I  I13  1  0.360384  0.348209  0.949261  1
  O  O14  1  0.941553  0.368231  0.300665  1
  O  O15  1  0.631769  0.058447  0.199335  1
  O  O16  1  0.058447  0.631769  0.699335  1
  O  O17  1  0.368231  0.941553  0.800665  1
  O  O18  1  0.977737  0.070761  0.151810  1
  O  O19  1  0.929239  0.022263  0.348190  1
  O  O20  1  0.022263  0.929239  0.848190  1
  O  O21  1  0.070761  0.977737  0.651810  1
  O  O22  1  0.115680  0.619805  0.199302  1
  O  O23  1  0.380195  0.884320  0.300698  1
  O  O24  1  0.884320  0.380195  0.800698  1
  O  O25  1  0.619805  0.115680  0.699302  1
