# generated using pymatgen
data_Nd2Zn18GaAg3
_symmetry_space_group_name_H-M   'P 1'
_cell_length_a   8.38722445
_cell_length_b   8.34432080
_cell_length_c   8.33143913
_cell_angle_alpha   99.63208588
_cell_angle_beta   99.90551286
_cell_angle_gamma   131.05812218
_symmetry_Int_Tables_number   1
_chemical_formula_structural   Nd2Zn18GaAg3
_chemical_formula_sum   'Nd2 Zn18 Ga1 Ag3'
_cell_volume   401.09159371
_cell_formula_units_Z   1
loop_
 _symmetry_equiv_pos_site_id
 _symmetry_equiv_pos_as_xyz
  1  'x, y, z'
loop_
 _atom_site_type_symbol
 _atom_site_label
 _atom_site_symmetry_multiplicity
 _atom_site_fract_x
 _atom_site_fract_y
 _atom_site_fract_z
 _atom_site_occupancy
  Nd  Nd0  1  0.248819  0.750303  0.502449  1
  Nd  Nd1  1  0.002744  0.000414  0.001056  1
  Zn  Zn2  1  0.625814  0.378322  0.748255  1
  Zn  Zn3  1  0.124906  0.373865  0.744984  1
  Zn  Zn4  1  0.627364  0.378005  0.252257  1
  Zn  Zn5  1  0.629252  0.876908  0.251714  1
  Zn  Zn6  1  0.178493  0.095294  0.668353  1
  Zn  Zn7  1  0.758258  0.930367  0.587271  1
  Zn  Zn8  1  0.344323  0.173585  0.415180  1
  Zn  Zn9  1  0.429690  0.511404  0.331853  1
  Zn  Zn10  1  0.908640  0.821090  0.328021  1
  Zn  Zn11  1  0.492271  0.577870  0.670691  1
  Zn  Zn12  1  0.070681  0.243024  0.410328  1
  Zn  Zn13  1  0.829407  0.658586  0.586376  1
  Zn  Zn14  1  0.064317  0.647100  0.828106  1
  Zn  Zn15  1  0.491342  0.815346  0.914166  1
  Zn  Zn16  1  0.904416  0.578787  0.085054  1
  Zn  Zn17  1  0.820492  0.237410  0.172612  1
  Zn  Zn18  1  0.345723  0.934128  0.177286  1
  Zn  Zn19  1  0.754163  0.168641  0.826115  1
  Ga  Ga20  1  0.415427  0.088818  0.911732  1
  Ag  Ag21  1  0.178894  0.507608  0.087038  1
  Ag  Ag22  1  0.504962  0.503614  0.998849  1
  Ag  Ag23  1  0.749602  0.249513  0.500253  1
