# generated using pymatgen
data_Li8LaNd(Th3Sn4)2
_symmetry_space_group_name_H-M   'P 1'
_cell_length_a   9.66575100
_cell_length_b   9.66571866
_cell_length_c   7.42982100
_cell_angle_alpha   90.00082439
_cell_angle_beta   89.99993951
_cell_angle_gamma   120.00043751
_symmetry_Int_Tables_number   1
_chemical_formula_structural   Li8LaNd(Th3Sn4)2
_chemical_formula_sum   'Li8 La1 Nd1 Th6 Sn8'
_cell_volume   601.14165242
_cell_formula_units_Z   1
loop_
 _symmetry_equiv_pos_site_id
 _symmetry_equiv_pos_as_xyz
  1  'x, y, z'
loop_
 _atom_site_type_symbol
 _atom_site_label
 _atom_site_symmetry_multiplicity
 _atom_site_fract_x
 _atom_site_fract_y
 _atom_site_fract_z
 _atom_site_occupancy
  Li  Li0  1  0.166291  0.332579  0.273353  1
  Li  Li1  1  0.166288  0.833714  0.273362  1
  Li  Li2  1  0.667419  0.833710  0.273352  1
  Li  Li3  1  0.833920  0.667838  0.775585  1
  Li  Li4  1  0.833923  0.166077  0.775583  1
  Li  Li5  1  0.332164  0.166080  0.775583  1
  Li  Li6  1  0.333333  0.666668  0.691341  1
  Li  Li7  1  0.666670  0.333337  0.189795  1
  La  La8  1  0.000004  0.000003  0.499843  1
  Nd  Nd9  1  0.999995  0.999988  0.000620  1
  Th  Th10  1  0.507527  0.015050  0.494754  1
  Th  Th11  1  0.507534  0.492478  0.494754  1
  Th  Th12  1  0.984954  0.492478  0.494746  1
  Th  Th13  1  0.492453  0.984911  0.994699  1
  Th  Th14  1  0.492439  0.507542  0.994697  1
  Th  Th15  1  0.015090  0.507545  0.994688  1
  Sn  Sn16  1  0.168763  0.337528  0.738916  1
  Sn  Sn17  1  0.168762  0.831237  0.738917  1
  Sn  Sn18  1  0.662467  0.831231  0.738925  1
  Sn  Sn19  1  0.831526  0.663052  0.235461  1
  Sn  Sn20  1  0.831520  0.168478  0.235488  1
  Sn  Sn21  1  0.336960  0.168478  0.235489  1
  Sn  Sn22  1  0.333334  0.666666  0.261501  1
  Sn  Sn23  1  0.666669  0.333332  0.760520  1
