# generated using pymatgen
data_Ce3Cu2S7
_symmetry_space_group_name_H-M   'P 1'
_cell_length_a   9.87045800
_cell_length_b   9.86952829
_cell_length_c   5.73433200
_cell_angle_alpha   90.00000000
_cell_angle_beta   90.00000000
_cell_angle_gamma   120.00313151
_symmetry_Int_Tables_number   1
_chemical_formula_structural   Ce3Cu2S7
_chemical_formula_sum   'Ce6 Cu4 S14'
_cell_volume   483.76390520
_cell_formula_units_Z   2
loop_
 _symmetry_equiv_pos_site_id
 _symmetry_equiv_pos_as_xyz
  1  'x, y, z'
loop_
 _atom_site_type_symbol
 _atom_site_label
 _atom_site_symmetry_multiplicity
 _atom_site_fract_x
 _atom_site_fract_y
 _atom_site_fract_z
 _atom_site_occupancy
  Ce  Ce0  1  0.378477  0.145463  0.241070  1
  Ce  Ce1  1  0.767006  0.621523  0.241062  1
  Ce  Ce2  1  0.854542  0.233051  0.241065  1
  Ce  Ce3  1  0.621523  0.854538  0.741069  1
  Ce  Ce4  1  0.232995  0.378477  0.741063  1
  Ce  Ce5  1  0.145458  0.766949  0.741066  1
  Cu  Cu6  1  0.999910  0.000073  0.226406  1
  Cu  Cu7  1  0.000090  0.999927  0.726406  1
  Cu  Cu8  1  0.333298  0.666571  0.354293  1
  Cu  Cu9  1  0.666701  0.333428  0.854293  1
  S  S10  1  0.156605  0.256934  0.231987  1
  S  S11  1  0.100265  0.843504  0.231987  1
  S  S12  1  0.743055  0.899676  0.231993  1
  S  S13  1  0.666632  0.333327  0.460379  1
  S  S14  1  0.085672  0.512566  0.488594  1
  S  S15  1  0.426875  0.914245  0.488547  1
  S  S16  1  0.487415  0.573092  0.488619  1
  S  S17  1  0.256945  0.100323  0.731993  1
  S  S18  1  0.843395  0.743066  0.731987  1
  S  S19  1  0.899735  0.156497  0.731988  1
  S  S20  1  0.333368  0.666673  0.960378  1
  S  S21  1  0.914328  0.487434  0.988593  1
  S  S22  1  0.573124  0.085754  0.988547  1
  S  S23  1  0.512585  0.426908  0.988618  1
