# generated using pymatgen
data_Al6V12GaCoN4
_symmetry_space_group_name_H-M   'P 1'
_cell_length_a   6.59267182
_cell_length_b   6.59267235
_cell_length_c   6.59267228
_cell_angle_alpha   89.96005881
_cell_angle_beta   90.03994545
_cell_angle_gamma   90.03994616
_symmetry_Int_Tables_number   1
_chemical_formula_structural   Al6V12GaCoN4
_chemical_formula_sum   'Al6 V12 Ga1 Co1 N4'
_cell_volume   286.53925041
_cell_formula_units_Z   1
loop_
 _symmetry_equiv_pos_site_id
 _symmetry_equiv_pos_as_xyz
  1  'x, y, z'
loop_
 _atom_site_type_symbol
 _atom_site_label
 _atom_site_symmetry_multiplicity
 _atom_site_fract_x
 _atom_site_fract_y
 _atom_site_fract_z
 _atom_site_occupancy
  Al  Al0  1  0.320428  0.176981  0.820528  1
  Al  Al1  1  0.823019  0.320528  0.179572  1
  Al  Al2  1  0.679472  0.679572  0.676981  1
  Al  Al3  1  0.416588  0.924113  0.556455  1
  Al  Al4  1  0.943545  0.583412  0.424113  1
  Al  Al5  1  0.075887  0.056455  0.083412  1
  V  V6  1  0.792421  0.959078  0.373275  1
  V  V7  1  0.710083  0.040894  0.876810  1
  V  V8  1  0.207181  0.460960  0.125538  1
  V  V9  1  0.292118  0.543576  0.626140  1
  V  V10  1  0.959106  0.376810  0.789917  1
  V  V11  1  0.040922  0.873275  0.707579  1
  V  V12  1  0.456424  0.126140  0.207882  1
  V  V13  1  0.539040  0.625538  0.292819  1
  V  V14  1  0.374462  0.792819  0.960960  1
  V  V15  1  0.873860  0.707882  0.043576  1
  V  V16  1  0.126725  0.207579  0.459078  1
  V  V17  1  0.623190  0.289917  0.540894  1
  Ga  Ga18  1  0.569285  0.430715  0.930715  1
  Co  Co19  1  0.181393  0.818607  0.318607  1
  N  N20  1  0.875661  0.124339  0.624339  1
  N  N21  1  0.622936  0.876133  0.127616  1
  N  N22  1  0.123867  0.627616  0.877064  1
  N  N23  1  0.372384  0.377064  0.376133  1
