# generated using pymatgen
data_Sc4Co4Si3Ge
_symmetry_space_group_name_H-M   'P 1'
_cell_length_a   4.00879800
_cell_length_b   6.44508257
_cell_length_c   6.91510012
_cell_angle_alpha   90.17559103
_cell_angle_beta   90.00000000
_cell_angle_gamma   90.00000000
_symmetry_Int_Tables_number   1
_chemical_formula_structural   Sc4Co4Si3Ge
_chemical_formula_sum   'Sc4 Co4 Si3 Ge1'
_cell_volume   178.66483856
_cell_formula_units_Z   1
loop_
 _symmetry_equiv_pos_site_id
 _symmetry_equiv_pos_as_xyz
  1  'x, y, z'
loop_
 _atom_site_type_symbol
 _atom_site_label
 _atom_site_symmetry_multiplicity
 _atom_site_fract_x
 _atom_site_fract_y
 _atom_site_fract_z
 _atom_site_occupancy
  Sc  Sc0  1  0.250000  0.992511  0.302770  1
  Sc  Sc1  1  0.250000  0.494869  0.194895  1
  Sc  Sc2  1  0.750000  0.000772  0.696326  1
  Sc  Sc3  1  0.750000  0.507563  0.805691  1
  Co  Co4  1  0.250000  0.150027  0.946195  1
  Co  Co5  1  0.250000  0.659442  0.560958  1
  Co  Co6  1  0.750000  0.847949  0.060319  1
  Co  Co7  1  0.750000  0.351841  0.431539  1
  Si  Si8  1  0.250000  0.792841  0.891759  1
  Si  Si9  1  0.750000  0.707173  0.389323  1
  Si  Si10  1  0.750000  0.206144  0.110295  1
  Ge  Ge11  1  0.250000  0.288869  0.609931  1
