# generated using pymatgen
data_TbY3MnRuC8
_symmetry_space_group_name_H-M   'P 1'
_cell_length_a   6.63851323
_cell_length_b   6.64504429
_cell_length_c   6.64432672
_cell_angle_alpha   134.05220895
_cell_angle_beta   109.77670781
_cell_angle_gamma   88.06823981
_symmetry_Int_Tables_number   1
_chemical_formula_structural   TbY3MnRuC8
_chemical_formula_sum   'Tb1 Y3 Mn1 Ru1 C8'
_cell_volume   189.22251972
_cell_formula_units_Z   1
loop_
 _symmetry_equiv_pos_site_id
 _symmetry_equiv_pos_as_xyz
  1  'x, y, z'
loop_
 _atom_site_type_symbol
 _atom_site_label
 _atom_site_symmetry_multiplicity
 _atom_site_fract_x
 _atom_site_fract_y
 _atom_site_fract_z
 _atom_site_occupancy
  Tb  Tb0  1  0.504062  0.354785  0.154418  1
  Y  Y1  1  0.496244  0.649926  0.851493  1
  Y  Y2  1  0.200961  0.849924  0.345861  1
  Y  Y3  1  0.798855  0.144910  0.648735  1
  Mn  Mn4  1  0.000178  0.750309  0.750108  1
  Ru  Ru5  1  0.000131  0.250250  0.250053  1
  C  C6  1  0.250900  0.053536  0.149272  1
  C  C7  1  0.748705  0.898059  0.802720  1
  C  C8  1  0.905226  0.602203  0.351004  1
  C  C9  1  0.094956  0.446002  0.696668  1
  C  C10  1  0.467993  0.127300  0.339696  1
  C  C11  1  0.531773  0.871611  0.659268  1
  C  C12  1  0.788335  0.628746  0.160615  1
  C  C13  1  0.211680  0.372441  0.840090  1
