# generated using pymatgen
data_Ba4YbU3O12
_symmetry_space_group_name_H-M   'P 1'
_cell_length_a   6.11386660
_cell_length_b   6.13865943
_cell_length_c   8.59947500
_cell_angle_alpha   89.95330400
_cell_angle_beta   89.94719189
_cell_angle_gamma   89.97941372
_symmetry_Int_Tables_number   1
_chemical_formula_structural   Ba4YbU3O12
_chemical_formula_sum   'Ba4 Yb1 U3 O12'
_cell_volume   322.74615702
_cell_formula_units_Z   1
loop_
 _symmetry_equiv_pos_site_id
 _symmetry_equiv_pos_as_xyz
  1  'x, y, z'
loop_
 _atom_site_type_symbol
 _atom_site_label
 _atom_site_symmetry_multiplicity
 _atom_site_fract_x
 _atom_site_fract_y
 _atom_site_fract_z
 _atom_site_occupancy
  Ba  Ba0  1  0.013173  0.996097  0.761170  1
  Ba  Ba1  1  0.482528  0.491324  0.238512  1
  Ba  Ba2  1  0.517472  0.508676  0.761488  1
  Ba  Ba3  1  0.986828  0.003903  0.238830  1
  Yb  Yb4  1  0.000000  0.500000  0.000000  1
  U  U5  1  0.000000  0.500000  0.500000  1
  U  U6  1  0.500000  0.000000  0.500000  1
  U  U7  1  0.500000  0.000000  0.000000  1
  O  O8  1  0.242752  0.223140  0.036909  1
  O  O9  1  0.509499  0.921921  0.253218  1
  O  O10  1  0.727372  0.264504  0.455673  1
  O  O11  1  0.724644  0.254821  0.035716  1
  O  O12  1  0.766555  0.772492  0.543637  1
  O  O13  1  0.010238  0.570469  0.263112  1
  O  O14  1  0.233445  0.227508  0.456363  1
  O  O15  1  0.275356  0.745179  0.964284  1
  O  O16  1  0.272628  0.735496  0.544327  1
  O  O17  1  0.490501  0.078079  0.746782  1
  O  O18  1  0.757248  0.776860  0.963091  1
  O  O19  1  0.989762  0.429531  0.736888  1
