# generated using pymatgen
data_La2Dy(YIr)2
_symmetry_space_group_name_H-M   'P 1'
_cell_length_a   6.59831305
_cell_length_b   7.24432099
_cell_length_c   8.88601152
_cell_angle_alpha   96.84306537
_cell_angle_beta   111.79428812
_cell_angle_gamma   89.99999482
_symmetry_Int_Tables_number   1
_chemical_formula_structural   La2Dy(YIr)2
_chemical_formula_sum   'La4 Dy2 Y4 Ir4'
_cell_volume   391.13314197
_cell_formula_units_Z   2
loop_
 _symmetry_equiv_pos_site_id
 _symmetry_equiv_pos_as_xyz
  1  'x, y, z'
loop_
 _atom_site_type_symbol
 _atom_site_label
 _atom_site_symmetry_multiplicity
 _atom_site_fract_x
 _atom_site_fract_y
 _atom_site_fract_z
 _atom_site_occupancy
  La  La0  1  0.784677  0.083220  0.807539  1
  La  La1  1  0.977139  0.416780  0.192461  1
  La  La2  1  0.215323  0.916780  0.192461  1
  La  La3  1  0.022861  0.583220  0.807539  1
  Dy  Dy4  1  0.430235  0.250000  0.000000  1
  Dy  Dy5  1  0.569765  0.750000  0.000000  1
  Y  Y6  1  0.208709  0.183511  0.566051  1
  Y  Y7  1  0.642657  0.316489  0.433949  1
  Y  Y8  1  0.791291  0.816489  0.433949  1
  Y  Y9  1  0.357343  0.683511  0.566051  1
  Ir  Ir10  1  0.590972  0.423585  0.774484  1
  Ir  Ir11  1  0.816487  0.076415  0.225516  1
  Ir  Ir12  1  0.409028  0.576415  0.225516  1
  Ir  Ir13  1  0.183513  0.923585  0.774484  1
