# generated using pymatgen
data_Er4LuMg3Ir4
_symmetry_space_group_name_H-M   'P 1'
_cell_length_a   4.15838200
_cell_length_b   7.08317854
_cell_length_c   8.61395600
_cell_angle_alpha   89.20985024
_cell_angle_beta   90.00000000
_cell_angle_gamma   90.00000000
_symmetry_Int_Tables_number   1
_chemical_formula_structural   Er4LuMg3Ir4
_chemical_formula_sum   'Er4 Lu1 Mg3 Ir4'
_cell_volume   253.69617602
_cell_formula_units_Z   1
loop_
 _symmetry_equiv_pos_site_id
 _symmetry_equiv_pos_as_xyz
  1  'x, y, z'
loop_
 _atom_site_type_symbol
 _atom_site_label
 _atom_site_symmetry_multiplicity
 _atom_site_fract_x
 _atom_site_fract_y
 _atom_site_fract_z
 _atom_site_occupancy
  Er  Er0  1  0.250000  0.957307  0.335701  1
  Er  Er1  1  0.250000  0.475655  0.179843  1
  Er  Er2  1  0.750000  0.030759  0.669187  1
  Er  Er3  1  0.750000  0.545111  0.822328  1
  Lu  Lu4  1  0.750000  0.135292  0.059281  1
  Mg  Mg5  1  0.250000  0.364294  0.558212  1
  Mg  Mg6  1  0.250000  0.852531  0.933989  1
  Mg  Mg7  1  0.750000  0.636241  0.441364  1
  Ir  Ir8  1  0.250000  0.255986  0.873852  1
  Ir  Ir9  1  0.250000  0.746084  0.627339  1
  Ir  Ir10  1  0.750000  0.751461  0.127972  1
  Ir  Ir11  1  0.750000  0.249282  0.370930  1
