# generated using pymatgen
data_KPr(LuSe2)2
_symmetry_space_group_name_H-M   'P 1'
_cell_length_a   4.11006100
_cell_length_b   4.11006091
_cell_length_c   29.12005000
_cell_angle_alpha   90.00000000
_cell_angle_beta   90.00000000
_cell_angle_gamma   119.99997657
_symmetry_Int_Tables_number   1
_chemical_formula_structural   KPr(LuSe2)2
_chemical_formula_sum   'K2 Pr2 Lu4 Se8'
_cell_volume   426.00959051
_cell_formula_units_Z   2
loop_
 _symmetry_equiv_pos_site_id
 _symmetry_equiv_pos_as_xyz
  1  'x, y, z'
loop_
 _atom_site_type_symbol
 _atom_site_label
 _atom_site_symmetry_multiplicity
 _atom_site_fract_x
 _atom_site_fract_y
 _atom_site_fract_z
 _atom_site_occupancy
  K  K0  1  0.666667  0.333333  0.250000  1
  K  K1  1  0.333333  0.666667  0.750000  1
  Pr  Pr2  1  0.000000  0.000000  0.500000  1
  Pr  Pr3  1  0.000000  0.000000  0.000000  1
  Lu  Lu4  1  0.666667  0.333333  0.617349  1
  Lu  Lu5  1  0.666667  0.333333  0.882651  1
  Lu  Lu6  1  0.333333  0.666667  0.382651  1
  Lu  Lu7  1  0.333333  0.666667  0.117349  1
  Se  Se8  1  0.000000  0.000000  0.170567  1
  Se  Se9  1  0.666667  0.333333  0.435215  1
  Se  Se10  1  0.000000  0.000000  0.670567  1
  Se  Se11  1  0.333333  0.666667  0.935215  1
  Se  Se12  1  0.333333  0.666667  0.564785  1
  Se  Se13  1  0.000000  0.000000  0.329433  1
  Se  Se14  1  0.666667  0.333333  0.064785  1
  Se  Se15  1  0.000000  0.000000  0.829433  1
