# generated using pymatgen
data_Rb3Fe(MoO4)3
_symmetry_space_group_name_H-M   'P 1'
_cell_length_a   9.55946000
_cell_length_b   11.12868000
_cell_length_c   13.94420300
_cell_angle_alpha   90.00000000
_cell_angle_beta   90.00000000
_cell_angle_gamma   90.00000000
_symmetry_Int_Tables_number   1
_chemical_formula_structural   Rb3Fe(MoO4)3
_chemical_formula_sum   'Rb12 Fe4 Mo12 O48'
_cell_volume   1483.44248077
_cell_formula_units_Z   4
loop_
 _symmetry_equiv_pos_site_id
 _symmetry_equiv_pos_as_xyz
  1  'x, y, z'
loop_
 _atom_site_type_symbol
 _atom_site_label
 _atom_site_symmetry_multiplicity
 _atom_site_fract_x
 _atom_site_fract_y
 _atom_site_fract_z
 _atom_site_occupancy
  Rb  Rb0  1  0.814971  0.221456  0.746955  1
  Rb  Rb1  1  0.540510  0.762251  0.528563  1
  Rb  Rb2  1  0.185029  0.778544  0.246955  1
  Rb  Rb3  1  0.519315  0.986191  0.251802  1
  Rb  Rb4  1  0.519315  0.513809  0.751802  1
  Rb  Rb5  1  0.480685  0.013809  0.751802  1
  Rb  Rb6  1  0.459490  0.237749  0.028563  1
  Rb  Rb7  1  0.814971  0.278544  0.246955  1
  Rb  Rb8  1  0.540510  0.737749  0.028563  1
  Rb  Rb9  1  0.480685  0.486191  0.251802  1
  Rb  Rb10  1  0.185029  0.721456  0.746955  1
  Rb  Rb11  1  0.459490  0.262251  0.528563  1
  Fe  Fe12  1  0.069744  0.250385  0.493668  1
  Fe  Fe13  1  0.069744  0.249615  0.993668  1
  Fe  Fe14  1  0.930256  0.750385  0.493668  1
  Fe  Fe15  1  0.930256  0.749615  0.993668  1
  Mo  Mo16  1  0.763604  0.044204  0.002819  1
  Mo  Mo17  1  0.235634  0.954710  0.988503  1
  Mo  Mo18  1  0.820710  0.819772  0.744321  1
  Mo  Mo19  1  0.764366  0.454710  0.988503  1
  Mo  Mo20  1  0.235634  0.545290  0.488503  1
  Mo  Mo21  1  0.236396  0.955796  0.502819  1
  Mo  Mo22  1  0.179289  0.180228  0.244321  1
  Mo  Mo23  1  0.179289  0.319772  0.744321  1
  Mo  Mo24  1  0.764366  0.045290  0.488503  1
  Mo  Mo25  1  0.236396  0.544204  0.002819  1
  Mo  Mo26  1  0.820710  0.680228  0.244321  1
  Mo  Mo27  1  0.763604  0.455796  0.502819  1
  O  O28  1  0.631919  0.429271  0.075652  1
  O  O29  1  0.923250  0.781582  0.638103  1
  O  O30  1  0.296840  0.598747  0.115224  1
  O  O31  1  0.076942  0.224387  0.349399  1
  O  O32  1  0.078961  0.873677  0.022511  1
  O  O33  1  0.921039  0.126323  0.522511  1
  O  O34  1  0.368081  0.570729  0.575652  1
  O  O35  1  0.204606  0.476178  0.747772  1
  O  O36  1  0.784592  0.880369  0.007582  1
  O  O37  1  0.919606  0.374506  0.468776  1
  O  O38  1  0.921039  0.373677  0.022511  1
  O  O39  1  0.076750  0.281583  0.638103  1
  O  O40  1  0.701261  0.104399  0.378907  1
  O  O41  1  0.651308  0.753108  0.739183  1
  O  O42  1  0.370487  0.919555  0.419979  1
  O  O43  1  0.298739  0.895601  0.878907  1
  O  O44  1  0.212753  0.117427  0.977479  1
  O  O45  1  0.298739  0.604399  0.378907  1
  O  O46  1  0.651308  0.746892  0.239183  1
  O  O47  1  0.923250  0.718418  0.138103  1
  O  O48  1  0.787247  0.882573  0.477479  1
  O  O49  1  0.795394  0.523822  0.247772  1
  O  O50  1  0.923058  0.724387  0.349399  1
  O  O51  1  0.629513  0.419555  0.419979  1
  O  O52  1  0.370487  0.580445  0.919979  1
  O  O53  1  0.076942  0.275613  0.849399  1
  O  O54  1  0.215408  0.380369  0.007582  1
  O  O55  1  0.703160  0.401253  0.615224  1
  O  O56  1  0.076750  0.218417  0.138103  1
  O  O57  1  0.080394  0.625494  0.968776  1
  O  O58  1  0.629513  0.080445  0.919979  1
  O  O59  1  0.368081  0.929271  0.075652  1
  O  O60  1  0.784592  0.619631  0.507582  1
  O  O61  1  0.348692  0.246892  0.239183  1
  O  O62  1  0.923058  0.775613  0.849399  1
  O  O63  1  0.703160  0.098747  0.115224  1
  O  O64  1  0.701261  0.395601  0.878907  1
  O  O65  1  0.795394  0.976178  0.747772  1
  O  O66  1  0.212753  0.382573  0.477479  1
  O  O67  1  0.078961  0.626323  0.522511  1
  O  O68  1  0.204606  0.023822  0.247772  1
  O  O69  1  0.348692  0.253108  0.739183  1
  O  O70  1  0.631919  0.070729  0.575652  1
  O  O71  1  0.919606  0.125494  0.968776  1
  O  O72  1  0.787247  0.617427  0.977479  1
  O  O73  1  0.080394  0.874506  0.468776  1
  O  O74  1  0.296840  0.901253  0.615224  1
  O  O75  1  0.215408  0.119631  0.507582  1
