# generated using pymatgen
data_NiPdI18
_symmetry_space_group_name_H-M   'P 1'
_cell_length_a   9.98298160
_cell_length_b   10.03432460
_cell_length_c   9.96790959
_cell_angle_alpha   94.54549402
_cell_angle_beta   94.59426088
_cell_angle_gamma   94.43976069
_symmetry_Int_Tables_number   1
_chemical_formula_structural   NiPdI18
_chemical_formula_sum   'Ni1 Pd1 I18'
_cell_volume   988.64018884
_cell_formula_units_Z   1
loop_
 _symmetry_equiv_pos_site_id
 _symmetry_equiv_pos_as_xyz
  1  'x, y, z'
loop_
 _atom_site_type_symbol
 _atom_site_label
 _atom_site_symmetry_multiplicity
 _atom_site_fract_x
 _atom_site_fract_y
 _atom_site_fract_z
 _atom_site_occupancy
  Ni  Ni0  1  0.500000  0.500000  0.500000  1
  Pd  Pd1  1  0.000000  0.000000  0.000000  1
  I  I2  1  0.772335  0.480295  0.522531  1
  I  I3  1  0.522014  0.770715  0.479761  1
  I  I4  1  0.480679  0.523020  0.772786  1
  I  I5  1  0.227665  0.519705  0.477469  1
  I  I6  1  0.477986  0.229285  0.520239  1
  I  I7  1  0.519321  0.476980  0.227214  1
  I  I8  1  0.891672  0.369424  0.758546  1
  I  I9  1  0.757792  0.890276  0.369995  1
  I  I10  1  0.370123  0.758211  0.891633  1
  I  I11  1  0.108328  0.630576  0.241454  1
  I  I12  1  0.242208  0.109724  0.630005  1
  I  I13  1  0.629877  0.241789  0.108367  1
  I  I14  1  0.998640  0.963441  0.725494  1
  I  I15  1  0.726016  0.999000  0.962291  1
  I  I16  1  0.962370  0.727411  0.997531  1
  I  I17  1  0.001360  0.036559  0.274506  1
  I  I18  1  0.273984  0.001000  0.037709  1
  I  I19  1  0.037630  0.272589  0.002469  1
