# generated using pymatgen
data_Er10AlZn2Ru
_symmetry_space_group_name_H-M   'P 1'
_cell_length_a   9.35772958
_cell_length_b   9.34832171
_cell_length_c   9.58631900
_cell_angle_alpha   90.00000000
_cell_angle_beta   90.00000000
_cell_angle_gamma   119.96674794
_symmetry_Int_Tables_number   1
_chemical_formula_structural   Er10AlZn2Ru
_chemical_formula_sum   'Er20 Al2 Zn4 Ru2'
_cell_volume   726.49406402
_cell_formula_units_Z   2
loop_
 _symmetry_equiv_pos_site_id
 _symmetry_equiv_pos_as_xyz
  1  'x, y, z'
loop_
 _atom_site_type_symbol
 _atom_site_label
 _atom_site_symmetry_multiplicity
 _atom_site_fract_x
 _atom_site_fract_y
 _atom_site_fract_z
 _atom_site_occupancy
  Er  Er0  1  0.007739  0.003869  0.512291  1
  Er  Er1  1  0.007739  0.003869  0.987709  1
  Er  Er2  1  0.205595  0.790802  0.440852  1
  Er  Er3  1  0.205595  0.414794  0.440852  1
  Er  Er4  1  0.587255  0.793628  0.439603  1
  Er  Er5  1  0.791431  0.206165  0.556228  1
  Er  Er6  1  0.791431  0.585266  0.556228  1
  Er  Er7  1  0.417708  0.208854  0.559732  1
  Er  Er8  1  0.791431  0.206165  0.943772  1
  Er  Er9  1  0.791431  0.585266  0.943772  1
  Er  Er10  1  0.417708  0.208854  0.940268  1
  Er  Er11  1  0.205595  0.790802  0.059148  1
  Er  Er12  1  0.205595  0.414794  0.059148  1
  Er  Er13  1  0.587255  0.793628  0.060397  1
  Er  Er14  1  0.532886  0.454577  0.250000  1
  Er  Er15  1  0.532886  0.078309  0.250000  1
  Er  Er16  1  0.915131  0.457565  0.250000  1
  Er  Er17  1  0.458592  0.541536  0.750000  1
  Er  Er18  1  0.458592  0.917055  0.750000  1
  Er  Er19  1  0.078326  0.539163  0.750000  1
  Al  Al20  1  0.891021  0.106363  0.250000  1
  Al  Al21  1  0.891021  0.784660  0.250000  1
  Zn  Zn22  1  0.217276  0.108639  0.250000  1
  Zn  Zn23  1  0.117073  0.884325  0.750000  1
  Zn  Zn24  1  0.117073  0.232746  0.750000  1
  Zn  Zn25  1  0.772601  0.886300  0.750000  1
  Ru  Ru26  1  0.334838  0.667419  0.250000  1
  Ru  Ru27  1  0.669176  0.334587  0.750000  1
