# generated using pymatgen
data_TiNb5(Zn3C)2
_symmetry_space_group_name_H-M   'P 1'
_cell_length_a   8.33588876
_cell_length_b   8.33588873
_cell_length_c   8.34032232
_cell_angle_alpha   59.84276065
_cell_angle_beta   59.84276313
_cell_angle_gamma   60.04858105
_symmetry_Int_Tables_number   1
_chemical_formula_structural   TiNb5(Zn3C)2
_chemical_formula_sum   'Ti2 Nb10 Zn12 C4'
_cell_volume   408.97223467
_cell_formula_units_Z   2
loop_
 _symmetry_equiv_pos_site_id
 _symmetry_equiv_pos_as_xyz
  1  'x, y, z'
loop_
 _atom_site_type_symbol
 _atom_site_label
 _atom_site_symmetry_multiplicity
 _atom_site_fract_x
 _atom_site_fract_y
 _atom_site_fract_z
 _atom_site_occupancy
  Ti  Ti0  1  0.320808  0.680903  0.319153  1
  Ti  Ti1  1  0.680903  0.320808  0.319153  1
  Nb  Nb2  1  0.930843  0.930843  0.568879  1
  Nb  Nb3  1  0.569672  0.931530  0.569050  1
  Nb  Nb4  1  0.931530  0.569672  0.569050  1
  Nb  Nb5  1  0.568958  0.568958  0.932774  1
  Nb  Nb6  1  0.929288  0.569518  0.931212  1
  Nb  Nb7  1  0.569518  0.929288  0.931212  1
  Nb  Nb8  1  0.318321  0.318321  0.683101  1
  Nb  Nb9  1  0.680072  0.318399  0.681629  1
  Nb  Nb10  1  0.318399  0.680072  0.681629  1
  Nb  Nb11  1  0.681628  0.681628  0.316838  1
  Zn  Zn12  1  0.332438  0.332438  0.002641  1
  Zn  Zn13  1  0.332940  0.998612  0.332808  1
  Zn  Zn14  1  0.998612  0.332940  0.332808  1
  Zn  Zn15  1  0.335897  0.335897  0.333382  1
  Zn  Zn16  1  0.917447  0.917447  0.247513  1
  Zn  Zn17  1  0.917458  0.247983  0.917281  1
  Zn  Zn18  1  0.247983  0.917458  0.917281  1
  Zn  Zn19  1  0.917234  0.917234  0.917243  1
  Zn  Zn20  1  0.125504  0.125504  0.623514  1
  Zn  Zn21  1  0.124882  0.624386  0.124886  1
  Zn  Zn22  1  0.624386  0.124882  0.124886  1
  Zn  Zn23  1  0.125270  0.125270  0.124135  1
  C  C24  1  0.620313  0.620313  0.133122  1
  C  C25  1  0.625696  0.128758  0.619829  1
  C  C26  1  0.128758  0.625696  0.619829  1
  C  C27  1  0.625240  0.625240  0.625164  1
