# generated using pymatgen
data_Lu5B(WC3)2
_symmetry_space_group_name_H-M   'P 1'
_cell_length_a   8.24667249
_cell_length_b   8.24652629
_cell_length_c   3.35222600
_cell_angle_alpha   90.00000000
_cell_angle_beta   90.00000000
_cell_angle_gamma   121.63156318
_symmetry_Int_Tables_number   1
_chemical_formula_structural   Lu5B(WC3)2
_chemical_formula_sum   'Lu5 B1 W2 C6'
_cell_volume   194.10476243
_cell_formula_units_Z   1
loop_
 _symmetry_equiv_pos_site_id
 _symmetry_equiv_pos_as_xyz
  1  'x, y, z'
loop_
 _atom_site_type_symbol
 _atom_site_label
 _atom_site_symmetry_multiplicity
 _atom_site_fract_x
 _atom_site_fract_y
 _atom_site_fract_z
 _atom_site_occupancy
  Lu  Lu0  1  0.328621  0.080146  0.500000  1
  Lu  Lu1  1  0.671379  0.919854  0.500000  1
  Lu  Lu2  1  0.080134  0.328632  0.500000  1
  Lu  Lu3  1  0.919866  0.671368  0.500000  1
  Lu  Lu4  1  0.500000  0.500000  0.000000  1
  B  B5  1  0.000000  0.000000  0.000000  1
  W  W6  1  0.286740  0.713266  0.000000  1
  W  W7  1  0.713260  0.286734  0.000000  1
  C  C8  1  0.183808  0.183820  0.000000  1
  C  C9  1  0.816192  0.816180  0.000000  1
  C  C10  1  0.375759  0.624248  0.500000  1
  C  C11  1  0.624241  0.375752  0.500000  1
  C  C12  1  0.500000  0.000000  0.000000  1
  C  C13  1  0.000000  0.500000  0.000000  1
