# generated using pymatgen
data_Na2Yb3Mn3(P3Ir4)4
_symmetry_space_group_name_H-M   'P 1'
_cell_length_a   12.56674000
_cell_length_b   12.56673906
_cell_length_c   3.94932000
_cell_angle_alpha   90.00000000
_cell_angle_beta   90.00000000
_cell_angle_gamma   120.00000247
_symmetry_Int_Tables_number   1
_chemical_formula_structural   Na2Yb3Mn3(P3Ir4)4
_chemical_formula_sum   'Na2 Yb3 Mn3 P12 Ir16'
_cell_volume   540.12984216
_cell_formula_units_Z   1
loop_
 _symmetry_equiv_pos_site_id
 _symmetry_equiv_pos_as_xyz
  1  'x, y, z'
loop_
 _atom_site_type_symbol
 _atom_site_label
 _atom_site_symmetry_multiplicity
 _atom_site_fract_x
 _atom_site_fract_y
 _atom_site_fract_z
 _atom_site_occupancy
  Na  Na0  1  0.666667  0.333333  0.000000  1
  Na  Na1  1  0.333333  0.666667  0.000000  1
  Yb  Yb2  1  0.821374  0.821374  0.500000  1
  Yb  Yb3  1  0.178626  0.000000  0.500000  1
  Yb  Yb4  1  0.000000  0.178626  0.500000  1
  Mn  Mn5  1  0.293214  0.293214  0.500000  1
  Mn  Mn6  1  0.706786  0.000000  0.500000  1
  Mn  Mn7  1  0.000000  0.706786  0.500000  1
  P  P8  1  0.687310  0.165582  0.500000  1
  P  P9  1  0.834418  0.521727  0.500000  1
  P  P10  1  0.478273  0.312690  0.500000  1
  P  P11  1  0.165582  0.687310  0.500000  1
  P  P12  1  0.521727  0.834418  0.500000  1
  P  P13  1  0.312690  0.478273  0.500000  1
  P  P14  1  0.637073  0.637073  0.000000  1
  P  P15  1  0.362927  0.000000  0.000000  1
  P  P16  1  0.000000  0.362927  0.000000  1
  P  P17  1  0.184267  0.184267  0.000000  1
  P  P18  1  0.815733  0.000000  0.000000  1
  P  P19  1  0.000000  0.815733  0.000000  1
  Ir  Ir20  1  0.804669  0.179939  0.000000  1
  Ir  Ir21  1  0.820061  0.624730  0.000000  1
  Ir  Ir22  1  0.375270  0.195331  0.000000  1
  Ir  Ir23  1  0.179939  0.804669  0.000000  1
  Ir  Ir24  1  0.624730  0.820061  0.000000  1
  Ir  Ir25  1  0.195331  0.375270  0.000000  1
  Ir  Ir26  1  0.453147  0.453147  0.000000  1
  Ir  Ir27  1  0.546853  0.000000  0.000000  1
  Ir  Ir28  1  0.000000  0.546853  0.000000  1
  Ir  Ir29  1  0.870246  0.359252  0.500000  1
  Ir  Ir30  1  0.640748  0.510995  0.500000  1
  Ir  Ir31  1  0.489005  0.129754  0.500000  1
  Ir  Ir32  1  0.359252  0.870246  0.500000  1
  Ir  Ir33  1  0.510995  0.640748  0.500000  1
  Ir  Ir34  1  0.129754  0.489005  0.500000  1
  Ir  Ir35  1  0.000000  0.000000  0.000000  1
