# generated using pymatgen
data_SmTm3(OsO4)4
_symmetry_space_group_name_H-M   'P 1'
_cell_length_a   5.32407575
_cell_length_b   7.66092293
_cell_length_c   7.41348400
_cell_angle_alpha   79.89665723
_cell_angle_beta   91.11314631
_cell_angle_gamma   93.93631834
_symmetry_Int_Tables_number   1
_chemical_formula_structural   SmTm3(OsO4)4
_chemical_formula_sum   'Sm1 Tm3 Os4 O16'
_cell_volume   296.97663496
_cell_formula_units_Z   1
loop_
 _symmetry_equiv_pos_site_id
 _symmetry_equiv_pos_as_xyz
  1  'x, y, z'
loop_
 _atom_site_type_symbol
 _atom_site_label
 _atom_site_symmetry_multiplicity
 _atom_site_fract_x
 _atom_site_fract_y
 _atom_site_fract_z
 _atom_site_occupancy
  Sm  Sm0  1  0.800556  0.828751  0.900490  1
  Tm  Tm1  1  0.261883  0.115413  0.609158  1
  Tm  Tm2  1  0.736101  0.888431  0.391029  1
  Tm  Tm3  1  0.197137  0.169239  0.104541  1
  Os  Os4  1  0.244682  0.665261  0.208157  1
  Os  Os5  1  0.752611  0.333574  0.793871  1
  Os  Os6  1  0.713601  0.334264  0.299862  1
  Os  Os7  1  0.283406  0.665558  0.697937  1
  O  O8  1  0.055482  0.465855  0.707912  1
  O  O9  1  0.939252  0.535237  0.290549  1
  O  O10  1  0.607488  0.322587  0.551039  1
  O  O11  1  0.392177  0.671427  0.450239  1
  O  O12  1  0.850298  0.318343  0.055248  1
  O  O13  1  0.165856  0.681373  0.945319  1
  O  O14  1  0.403896  0.439586  0.196735  1
  O  O15  1  0.589724  0.556026  0.800512  1
  O  O16  1  0.052948  0.889981  0.182641  1
  O  O17  1  0.955573  0.116591  0.818366  1
  O  O18  1  0.488429  0.108802  0.320305  1
  O  O19  1  0.507872  0.894147  0.669186  1
  O  O20  1  0.448174  0.191319  0.871800  1
  O  O21  1  0.550024  0.806935  0.140785  1
  O  O22  1  0.978465  0.163696  0.383248  1
  O  O23  1  0.024367  0.837606  0.611072  1
