# generated using pymatgen
data_DyHo9(Bi3C)2
_symmetry_space_group_name_H-M   'P 1'
_cell_length_a   6.46754303
_cell_length_b   9.12861943
_cell_length_c   9.12458112
_cell_angle_alpha   120.00790976
_cell_angle_beta   89.99175933
_cell_angle_gamma   89.99777691
_symmetry_Int_Tables_number   1
_chemical_formula_structural   DyHo9(Bi3C)2
_chemical_formula_sum   'Dy1 Ho9 Bi6 C2'
_cell_volume   466.50184800
_cell_formula_units_Z   1
loop_
 _symmetry_equiv_pos_site_id
 _symmetry_equiv_pos_as_xyz
  1  'x, y, z'
loop_
 _atom_site_type_symbol
 _atom_site_label
 _atom_site_symmetry_multiplicity
 _atom_site_fract_x
 _atom_site_fract_y
 _atom_site_fract_z
 _atom_site_occupancy
  Dy  Dy0  1  0.499907  0.333302  0.666647  1
  Ho  Ho1  1  0.499804  0.666699  0.333350  1
  Ho  Ho2  1  0.000195  0.666679  0.333355  1
  Ho  Ho3  1  0.000159  0.333316  0.666643  1
  Ho  Ho4  1  0.750028  0.206929  0.999948  1
  Ho  Ho5  1  0.750049  0.792831  0.792895  1
  Ho  Ho6  1  0.750027  0.999893  0.207083  1
  Ho  Ho7  1  0.249968  0.793056  0.000043  1
  Ho  Ho8  1  0.249947  0.207191  0.207127  1
  Ho  Ho9  1  0.249964  0.000117  0.792941  1
  Bi  Bi10  1  0.750141  0.598843  0.000243  1
  Bi  Bi11  1  0.750152  0.401496  0.401302  1
  Bi  Bi12  1  0.750136  0.999649  0.598423  1
  Bi  Bi13  1  0.249848  0.401434  0.000278  1
  Bi  Bi14  1  0.249832  0.598738  0.598404  1
  Bi  Bi15  1  0.249854  0.999825  0.401323  1
  C  C16  1  0.500022  0.000001  0.999998  1
  C  C17  1  0.999967  0.000002  0.999997  1
