# generated using pymatgen
data_Y2TiNb3(B2Ru5)2
_symmetry_space_group_name_H-M   'P 1'
_cell_length_a   9.54246782
_cell_length_b   9.52348909
_cell_length_c   3.09202700
_cell_angle_alpha   90.00000000
_cell_angle_beta   90.00000000
_cell_angle_gamma   90.66193056
_symmetry_Int_Tables_number   1
_chemical_formula_structural   Y2TiNb3(B2Ru5)2
_chemical_formula_sum   'Y2 Ti1 Nb3 B4 Ru10'
_cell_volume   280.97720446
_cell_formula_units_Z   1
loop_
 _symmetry_equiv_pos_site_id
 _symmetry_equiv_pos_as_xyz
  1  'x, y, z'
loop_
 _atom_site_type_symbol
 _atom_site_label
 _atom_site_symmetry_multiplicity
 _atom_site_fract_x
 _atom_site_fract_y
 _atom_site_fract_z
 _atom_site_occupancy
  Y  Y0  1  0.822110  0.674755  0.000000  1
  Y  Y1  1  0.177890  0.325245  0.000000  1
  Ti  Ti2  1  0.500000  0.500000  0.000000  1
  Nb  Nb3  1  0.326493  0.822465  0.000000  1
  Nb  Nb4  1  0.673507  0.177535  0.000000  1
  Nb  Nb5  1  0.000000  0.000000  0.000000  1
  B  B6  1  0.618457  0.875858  0.000000  1
  B  B7  1  0.381543  0.124142  0.000000  1
  B  B8  1  0.124852  0.620257  0.000000  1
  B  B9  1  0.875148  0.379743  0.000000  1
  Ru  Ru10  1  0.558082  0.721202  0.500000  1
  Ru  Ru11  1  0.441918  0.278798  0.500000  1
  Ru  Ru12  1  0.082637  0.785169  0.500000  1
  Ru  Ru13  1  0.917363  0.214831  0.500000  1
  Ru  Ru14  1  0.287439  0.581963  0.500000  1
  Ru  Ru15  1  0.712561  0.418037  0.500000  1
  Ru  Ru16  1  0.223795  0.059322  0.500000  1
  Ru  Ru17  1  0.776205  0.940678  0.500000  1
  Ru  Ru18  1  0.500000  0.000000  0.500000  1
  Ru  Ru19  1  0.000000  0.500000  0.500000  1
