# generated using pymatgen
data_La8Sc11Si16W
_symmetry_space_group_name_H-M   'P 1'
_cell_length_a   7.30062454
_cell_length_b   7.55058561
_cell_length_c   14.19250005
_cell_angle_alpha   90.26586677
_cell_angle_beta   89.67485192
_cell_angle_gamma   89.52023065
_symmetry_Int_Tables_number   1
_chemical_formula_structural   La8Sc11Si16W
_chemical_formula_sum   'La8 Sc11 Si16 W1'
_cell_volume   782.29861858
_cell_formula_units_Z   1
loop_
 _symmetry_equiv_pos_site_id
 _symmetry_equiv_pos_as_xyz
  1  'x, y, z'
loop_
 _atom_site_type_symbol
 _atom_site_label
 _atom_site_symmetry_multiplicity
 _atom_site_fract_x
 _atom_site_fract_y
 _atom_site_fract_z
 _atom_site_occupancy
  La  La0  1  0.010937  0.169463  0.096792  1
  La  La1  1  0.990666  0.830146  0.898680  1
  La  La2  1  0.487326  0.672634  0.898469  1
  La  La3  1  0.992892  0.832592  0.594919  1
  La  La4  1  0.513507  0.328790  0.096685  1
  La  La5  1  0.010293  0.170992  0.404015  1
  La  La6  1  0.506633  0.329763  0.409330  1
  La  La7  1  0.487610  0.670527  0.597224  1
  Sc  Sc8  1  0.164109  0.485089  0.743426  1
  Sc  Sc9  1  0.839467  0.503522  0.253284  1
  Sc  Sc10  1  0.339145  0.996674  0.251693  1
  Sc  Sc11  1  0.654341  0.007612  0.746633  1
  Sc  Sc12  1  0.664154  0.828788  0.378066  1
  Sc  Sc13  1  0.168502  0.674493  0.377488  1
  Sc  Sc14  1  0.669009  0.825060  0.125533  1
  Sc  Sc15  1  0.833621  0.326244  0.624556  1
  Sc  Sc16  1  0.333128  0.176210  0.874736  1
  Sc  Sc17  1  0.829840  0.324062  0.869631  1
  Sc  Sc18  1  0.170511  0.674819  0.126462  1
  Si  Si19  1  0.046093  0.128664  0.744241  1
  Si  Si20  1  0.963601  0.873196  0.252129  1
  Si  Si21  1  0.466534  0.629689  0.251225  1
  Si  Si22  1  0.528768  0.363113  0.744701  1
  Si  Si23  1  0.291112  0.897631  0.745608  1
  Si  Si24  1  0.707671  0.115190  0.250949  1
  Si  Si25  1  0.210238  0.383784  0.251017  1
  Si  Si26  1  0.789225  0.613520  0.746724  1
  Si  Si27  1  0.168499  0.446616  0.544943  1
  Si  Si28  1  0.848901  0.536101  0.458900  1
  Si  Si29  1  0.341635  0.969515  0.470697  1
  Si  Si30  1  0.851729  0.538051  0.038923  1
  Si  Si31  1  0.638019  0.041040  0.547679  1
  Si  Si32  1  0.146942  0.463681  0.958504  1
  Si  Si33  1  0.653188  0.037882  0.957457  1
  Si  Si34  1  0.349686  0.961545  0.039565  1
  W  W35  1  0.332471  0.173302  0.629117  1
