# generated using pymatgen
data_NbAlGa(NiPt2)3
_symmetry_space_group_name_H-M   'P 1'
_cell_length_a   3.90963100
_cell_length_b   3.90963100
_cell_length_c   11.22659200
_cell_angle_alpha   90.00000000
_cell_angle_beta   90.00000000
_cell_angle_gamma   90.00000000
_symmetry_Int_Tables_number   1
_chemical_formula_structural   NbAlGa(NiPt2)3
_chemical_formula_sum   'Nb1 Al1 Ga1 Ni3 Pt6'
_cell_volume   171.60086745
_cell_formula_units_Z   1
loop_
 _symmetry_equiv_pos_site_id
 _symmetry_equiv_pos_as_xyz
  1  'x, y, z'
loop_
 _atom_site_type_symbol
 _atom_site_label
 _atom_site_symmetry_multiplicity
 _atom_site_fract_x
 _atom_site_fract_y
 _atom_site_fract_z
 _atom_site_occupancy
  Nb  Nb0  1  0.000000  0.000000  0.999298  1
  Al  Al1  1  0.000000  0.000000  0.660321  1
  Ga  Ga2  1  0.000000  0.000000  0.339968  1
  Ni  Ni3  1  0.500000  0.500000  0.999300  1
  Ni  Ni4  1  0.500000  0.500000  0.336588  1
  Ni  Ni5  1  0.500000  0.500000  0.664282  1
  Pt  Pt6  1  0.500000  0.000000  0.169256  1
  Pt  Pt7  1  0.500000  0.000000  0.502741  1
  Pt  Pt8  1  0.500000  0.000000  0.828124  1
  Pt  Pt9  1  0.000000  0.500000  0.169256  1
  Pt  Pt10  1  0.000000  0.500000  0.502741  1
  Pt  Pt11  1  0.000000  0.500000  0.828124  1
