# generated using pymatgen
data_Lu12TlInFe2Re
_symmetry_space_group_name_H-M   'P 1'
_cell_length_a   8.21122827
_cell_length_b   8.21122877
_cell_length_c   8.21122802
_cell_angle_alpha   108.95300310
_cell_angle_beta   108.90715082
_cell_angle_gamma   110.55901445
_symmetry_Int_Tables_number   1
_chemical_formula_structural   Lu12TlInFe2Re
_chemical_formula_sum   'Lu12 Tl1 In1 Fe2 Re1'
_cell_volume   426.07374411
_cell_formula_units_Z   1
loop_
 _symmetry_equiv_pos_site_id
 _symmetry_equiv_pos_as_xyz
  1  'x, y, z'
loop_
 _atom_site_type_symbol
 _atom_site_label
 _atom_site_symmetry_multiplicity
 _atom_site_fract_x
 _atom_site_fract_y
 _atom_site_fract_z
 _atom_site_occupancy
  Lu  Lu0  1  0.308435  0.308211  0.616646  1
  Lu  Lu1  1  0.691565  0.691789  0.383354  1
  Lu  Lu2  1  0.691565  0.308211  0.999777  1
  Lu  Lu3  1  0.308435  0.691789  0.000223  1
  Lu  Lu4  1  0.193074  0.431160  0.238086  1
  Lu  Lu5  1  0.806926  0.568840  0.761914  1
  Lu  Lu6  1  0.193074  0.954988  0.761914  1
  Lu  Lu7  1  0.954940  0.192884  0.762056  1
  Lu  Lu8  1  0.806926  0.045012  0.238086  1
  Lu  Lu9  1  0.045060  0.807116  0.237944  1
  Lu  Lu10  1  0.430828  0.192884  0.237944  1
  Lu  Lu11  1  0.569172  0.807116  0.762056  1
  Tl  Tl12  1  0.000000  0.500000  0.500000  1
  In  In13  1  0.500000  0.000000  0.500000  1
  Fe  Fe14  1  0.383884  0.383884  0.000000  1
  Fe  Fe15  1  0.616116  0.616116  0.000000  1
  Re  Re16  1  0.000000  0.000000  0.000000  1
