# generated using pymatgen
data_Y7Tm3InPb5
_symmetry_space_group_name_H-M   'P 1'
_cell_length_a   9.04440406
_cell_length_b   9.04476172
_cell_length_c   6.66108100
_cell_angle_alpha   90.00147598
_cell_angle_beta   89.99353836
_cell_angle_gamma   120.03830801
_symmetry_Int_Tables_number   1
_chemical_formula_structural   Y7Tm3InPb5
_chemical_formula_sum   'Y7 Tm3 In1 Pb5'
_cell_volume   471.72039697
_cell_formula_units_Z   1
loop_
 _symmetry_equiv_pos_site_id
 _symmetry_equiv_pos_as_xyz
  1  'x, y, z'
loop_
 _atom_site_type_symbol
 _atom_site_label
 _atom_site_symmetry_multiplicity
 _atom_site_fract_x
 _atom_site_fract_y
 _atom_site_fract_z
 _atom_site_occupancy
  Y  Y0  1  0.663708  0.333540  0.998325  1
  Y  Y1  1  0.759962  0.760158  0.749791  1
  Y  Y2  1  0.239849  0.004605  0.749480  1
  Y  Y3  1  0.004897  0.240038  0.749954  1
  Y  Y4  1  0.238248  0.238544  0.250413  1
  Y  Y5  1  0.761185  0.999252  0.250338  1
  Y  Y6  1  0.999792  0.761617  0.250108  1
  Tm  Tm7  1  0.334064  0.663238  0.998271  1
  Tm  Tm8  1  0.333513  0.663522  0.501668  1
  Tm  Tm9  1  0.663223  0.333774  0.502151  1
  In  In10  1  0.397379  0.398366  0.748982  1
  Pb  Pb11  1  0.605345  0.999687  0.749117  1
  Pb  Pb12  1  0.001576  0.606217  0.749085  1
  Pb  Pb13  1  0.603054  0.604241  0.250688  1
  Pb  Pb14  1  0.394683  0.997478  0.250874  1
  Pb  Pb15  1  0.999520  0.395722  0.250753  1
