# generated using pymatgen
data_KTaMoO6
_symmetry_space_group_name_H-M   'P 1'
_cell_length_a   7.39168974
_cell_length_b   7.39168891
_cell_length_c   7.39168976
_cell_angle_alpha   119.96191178
_cell_angle_beta   113.53961020
_cell_angle_gamma   95.80785967
_symmetry_Int_Tables_number   1
_chemical_formula_structural   KTaMoO6
_chemical_formula_sum   'K2 Ta2 Mo2 O12'
_cell_volume   296.90203294
_cell_formula_units_Z   2
loop_
 _symmetry_equiv_pos_site_id
 _symmetry_equiv_pos_as_xyz
  1  'x, y, z'
loop_
 _atom_site_type_symbol
 _atom_site_label
 _atom_site_symmetry_multiplicity
 _atom_site_fract_x
 _atom_site_fract_y
 _atom_site_fract_z
 _atom_site_occupancy
  K  K0  1  0.036435  0.906870  0.629565  1
  K  K1  1  0.722696  0.093130  0.129565  1
  Ta  Ta2  1  0.509942  0.000000  0.509942  1
  Ta  Ta3  1  0.509942  0.500000  0.009942  1
  Mo  Mo4  1  0.448007  0.480458  0.467549  1
  Mo  Mo5  1  0.987091  0.519542  0.967549  1
  O  O6  1  0.875386  0.599979  0.775407  1
  O  O7  1  0.450149  0.177971  0.772178  1
  O  O8  1  0.469852  0.200628  0.409312  1
  O  O9  1  0.821375  0.564033  0.117480  1
  O  O10  1  0.821375  0.203895  0.757342  1
  O  O11  1  0.469852  0.560539  0.769225  1
  O  O12  1  0.175428  0.400021  0.275407  1
  O  O13  1  0.594207  0.822029  0.272178  1
  O  O14  1  0.553447  0.796105  0.617480  1
  O  O15  1  0.208685  0.439461  0.909312  1
  O  O16  1  0.208685  0.799372  0.269225  1
  O  O17  1  0.553447  0.435967  0.257342  1
