# generated using pymatgen
data_Tb3YV3ReB16
_symmetry_space_group_name_H-M   'P 1'
_cell_length_a   3.51654100
_cell_length_b   6.00020211
_cell_length_c   11.61599001
_cell_angle_alpha   89.99135498
_cell_angle_beta   90.00000000
_cell_angle_gamma   90.00000000
_symmetry_Int_Tables_number   1
_chemical_formula_structural   Tb3YV3ReB16
_chemical_formula_sum   'Tb3 Y1 V3 Re1 B16'
_cell_volume   245.09688358
_cell_formula_units_Z   1
loop_
 _symmetry_equiv_pos_site_id
 _symmetry_equiv_pos_as_xyz
  1  'x, y, z'
loop_
 _atom_site_type_symbol
 _atom_site_label
 _atom_site_symmetry_multiplicity
 _atom_site_fract_x
 _atom_site_fract_y
 _atom_site_fract_z
 _atom_site_occupancy
  Tb  Tb0  1  0.000000  0.623296  0.350156  1
  Tb  Tb1  1  0.000000  0.375897  0.651103  1
  Tb  Tb2  1  0.000000  0.126457  0.151890  1
  Y  Y3  1  0.000000  0.875532  0.848587  1
  V  V4  1  0.000000  0.372222  0.917751  1
  V  V5  1  0.000000  0.126566  0.416601  1
  V  V6  1  0.000000  0.873496  0.582441  1
  Re  Re7  1  0.000000  0.627706  0.082739  1
  B  B8  1  0.500000  0.784389  0.184907  1
  B  B9  1  0.500000  0.215616  0.814863  1
  B  B10  1  0.500000  0.284728  0.314757  1
  B  B11  1  0.500000  0.714703  0.685526  1
  B  B12  1  0.500000  0.864802  0.031692  1
  B  B13  1  0.500000  0.135815  0.967258  1
  B  B14  1  0.500000  0.363624  0.467509  1
  B  B15  1  0.500000  0.636098  0.532833  1
  B  B16  1  0.500000  0.885741  0.452882  1
  B  B17  1  0.500000  0.114317  0.547367  1
  B  B18  1  0.500000  0.386195  0.046612  1
  B  B19  1  0.500000  0.613834  0.952315  1
  B  B20  1  0.500000  0.976191  0.308103  1
  B  B21  1  0.500000  0.023510  0.692258  1
  B  B22  1  0.500000  0.476301  0.192003  1
  B  B23  1  0.500000  0.522967  0.807845  1
