# generated using pymatgen
data_Nd5Pa(Te4Cl)2
_symmetry_space_group_name_H-M   'P 1'
_cell_length_a   4.24731200
_cell_length_b   14.05512400
_cell_length_c   16.10992600
_cell_angle_alpha   90.00000000
_cell_angle_beta   90.00000000
_cell_angle_gamma   90.00000000
_symmetry_Int_Tables_number   1
_chemical_formula_structural   Nd5Pa(Te4Cl)2
_chemical_formula_sum   'Nd10 Pa2 Te16 Cl4'
_cell_volume   961.70614634
_cell_formula_units_Z   2
loop_
 _symmetry_equiv_pos_site_id
 _symmetry_equiv_pos_as_xyz
  1  'x, y, z'
loop_
 _atom_site_type_symbol
 _atom_site_label
 _atom_site_symmetry_multiplicity
 _atom_site_fract_x
 _atom_site_fract_y
 _atom_site_fract_z
 _atom_site_occupancy
  Nd  Nd0  1  0.750000  0.095321  0.371841  1
  Nd  Nd1  1  0.750000  0.404679  0.871841  1
  Nd  Nd2  1  0.750000  0.253608  0.614823  1
  Nd  Nd3  1  0.750000  0.246392  0.114823  1
  Nd  Nd4  1  0.250000  0.744339  0.384157  1
  Nd  Nd5  1  0.250000  0.755661  0.884157  1
  Nd  Nd6  1  0.750000  0.576689  0.633019  1
  Nd  Nd7  1  0.750000  0.923311  0.133019  1
  Nd  Nd8  1  0.250000  0.424443  0.367263  1
  Nd  Nd9  1  0.250000  0.075557  0.867263  1
  Pa  Pa10  1  0.250000  0.905947  0.627865  1
  Pa  Pa11  1  0.250000  0.594053  0.127865  1
  Te  Te12  1  0.250000  0.421259  0.570614  1
  Te  Te13  1  0.250000  0.078741  0.070614  1
  Te  Te14  1  0.750000  0.579511  0.429374  1
  Te  Te15  1  0.750000  0.920489  0.929374  1
  Te  Te16  1  0.750000  0.045689  0.713402  1
  Te  Te17  1  0.750000  0.454311  0.213402  1
  Te  Te18  1  0.250000  0.948682  0.285174  1
  Te  Te19  1  0.250000  0.551318  0.785174  1
  Te  Te20  1  0.750000  0.780587  0.731467  1
  Te  Te21  1  0.750000  0.719413  0.231467  1
  Te  Te22  1  0.250000  0.224837  0.265666  1
  Te  Te23  1  0.250000  0.275163  0.765666  1
  Te  Te24  1  0.250000  0.109004  0.525336  1
  Te  Te25  1  0.250000  0.390996  0.025336  1
  Te  Te26  1  0.750000  0.889423  0.479614  1
  Te  Te27  1  0.750000  0.610577  0.979614  1
  Cl  Cl28  1  0.250000  0.704348  0.568722  1
  Cl  Cl29  1  0.250000  0.795652  0.068722  1
  Cl  Cl30  1  0.750000  0.297005  0.431662  1
  Cl  Cl31  1  0.750000  0.202995  0.931662  1
