# generated using pymatgen
data_LiTi3Co10(GeB2)2
_symmetry_space_group_name_H-M   'P 1'
_cell_length_a   8.43788296
_cell_length_b   8.43788296
_cell_length_c   2.96571900
_cell_angle_alpha   90.00000000
_cell_angle_beta   90.00000000
_cell_angle_gamma   90.34820726
_symmetry_Int_Tables_number   1
_chemical_formula_structural   LiTi3Co10(GeB2)2
_chemical_formula_sum   'Li1 Ti3 Co10 Ge2 B4'
_cell_volume   211.14897281
_cell_formula_units_Z   1
loop_
 _symmetry_equiv_pos_site_id
 _symmetry_equiv_pos_as_xyz
  1  'x, y, z'
loop_
 _atom_site_type_symbol
 _atom_site_label
 _atom_site_symmetry_multiplicity
 _atom_site_fract_x
 _atom_site_fract_y
 _atom_site_fract_z
 _atom_site_occupancy
  Li  Li0  1  0.824650  0.324650  0.000000  1
  Ti  Ti1  1  0.326100  0.176925  0.000000  1
  Ti  Ti2  1  0.676925  0.826100  0.000000  1
  Ti  Ti3  1  0.171302  0.671302  0.000000  1
  Co  Co4  1  0.499108  0.999108  0.500000  1
  Co  Co5  1  0.001153  0.501153  0.500000  1
  Co  Co6  1  0.079210  0.216815  0.500000  1
  Co  Co7  1  0.218146  0.927844  0.500000  1
  Co  Co8  1  0.779080  0.064009  0.500000  1
  Co  Co9  1  0.931716  0.782468  0.500000  1
  Co  Co10  1  0.427844  0.718146  0.500000  1
  Co  Co11  1  0.564009  0.279080  0.500000  1
  Co  Co12  1  0.716815  0.579210  0.500000  1
  Co  Co13  1  0.282468  0.431716  0.500000  1
  Ge  Ge14  1  0.999437  0.001687  0.000000  1
  Ge  Ge15  1  0.501687  0.499437  0.000000  1
  B  B16  1  0.623595  0.123595  0.000000  1
  B  B17  1  0.119042  0.378893  0.000000  1
  B  B18  1  0.878893  0.619042  0.000000  1
  B  B19  1  0.378820  0.878820  0.000000  1
