# generated using pymatgen
data_Pa4Zn3Pd5
_symmetry_space_group_name_H-M   'P 1'
_cell_length_a   4.62171400
_cell_length_b   6.23167986
_cell_length_c   8.01649211
_cell_angle_alpha   89.90529458
_cell_angle_beta   90.00000000
_cell_angle_gamma   90.00000000
_symmetry_Int_Tables_number   1
_chemical_formula_structural   Pa4Zn3Pd5
_chemical_formula_sum   'Pa4 Zn3 Pd5'
_cell_volume   230.88301088
_cell_formula_units_Z   1
loop_
 _symmetry_equiv_pos_site_id
 _symmetry_equiv_pos_as_xyz
  1  'x, y, z'
loop_
 _atom_site_type_symbol
 _atom_site_label
 _atom_site_symmetry_multiplicity
 _atom_site_fract_x
 _atom_site_fract_y
 _atom_site_fract_z
 _atom_site_occupancy
  Pa  Pa0  1  0.500000  0.494602  0.759744  1
  Pa  Pa1  1  0.500000  0.005959  0.753803  1
  Pa  Pa2  1  0.000000  0.484669  0.240841  1
  Pa  Pa3  1  0.000000  0.013541  0.245740  1
  Zn  Zn4  1  0.500000  0.745147  0.417255  1
  Zn  Zn5  1  0.000000  0.754160  0.916064  1
  Zn  Zn6  1  0.000000  0.255741  0.579003  1
  Pd  Pd7  1  0.500000  0.750960  0.083570  1
  Pd  Pd8  1  0.500000  0.250530  0.431580  1
  Pd  Pd9  1  0.000000  0.248237  0.901051  1
  Pd  Pd10  1  0.000000  0.748056  0.582651  1
  Pd  Pd11  1  0.500000  0.248398  0.088696  1
