# generated using pymatgen
data_Lu2Th(Si3Pd10)2
_symmetry_space_group_name_H-M   'P 1'
_cell_length_a   8.72108375
_cell_length_b   8.72108375
_cell_length_c   8.72108300
_cell_angle_alpha   59.99999906
_cell_angle_beta   59.99999904
_cell_angle_gamma   59.99999938
_symmetry_Int_Tables_number   1
_chemical_formula_structural   Lu2Th(Si3Pd10)2
_chemical_formula_sum   'Lu2 Th1 Si6 Pd20'
_cell_volume   469.02536261
_cell_formula_units_Z   1
loop_
 _symmetry_equiv_pos_site_id
 _symmetry_equiv_pos_as_xyz
  1  'x, y, z'
loop_
 _atom_site_type_symbol
 _atom_site_label
 _atom_site_symmetry_multiplicity
 _atom_site_fract_x
 _atom_site_fract_y
 _atom_site_fract_z
 _atom_site_occupancy
  Lu  Lu0  1  0.750000  0.750000  0.750000  1
  Lu  Lu1  1  0.000000  0.000000  0.000000  1
  Th  Th2  1  0.250000  0.250000  0.250000  1
  Si  Si3  1  0.733606  0.266394  0.266394  1
  Si  Si4  1  0.266394  0.733606  0.733606  1
  Si  Si5  1  0.266394  0.733606  0.266394  1
  Si  Si6  1  0.733606  0.266394  0.733606  1
  Si  Si7  1  0.266394  0.266394  0.733606  1
  Si  Si8  1  0.733606  0.733606  0.266394  1
  Pd  Pd9  1  0.384647  0.384647  0.384647  1
  Pd  Pd10  1  0.617550  0.617550  0.617550  1
  Pd  Pd11  1  0.384647  0.384647  0.846060  1
  Pd  Pd12  1  0.384647  0.846060  0.384647  1
  Pd  Pd13  1  0.617550  0.617550  0.147347  1
  Pd  Pd14  1  0.617550  0.147347  0.617550  1
  Pd  Pd15  1  0.846060  0.384647  0.384647  1
  Pd  Pd16  1  0.147347  0.617550  0.617550  1
  Pd  Pd17  1  0.344583  0.000539  0.000539  1
  Pd  Pd18  1  0.654338  0.000539  0.000539  1
  Pd  Pd19  1  0.000539  0.344583  0.654338  1
  Pd  Pd20  1  0.000539  0.654338  0.344583  1
  Pd  Pd21  1  0.000539  0.344583  0.000539  1
  Pd  Pd22  1  0.654338  0.000539  0.344583  1
  Pd  Pd23  1  0.000539  0.654338  0.000539  1
  Pd  Pd24  1  0.344583  0.000539  0.654338  1
  Pd  Pd25  1  0.000539  0.000539  0.344583  1
  Pd  Pd26  1  0.000539  0.000539  0.654338  1
  Pd  Pd27  1  0.654338  0.344583  0.000539  1
  Pd  Pd28  1  0.344583  0.654338  0.000539  1
