# generated using pymatgen
data_Ho2MnIr2Ru
_symmetry_space_group_name_H-M   'P 1'
_cell_length_a   5.50166778
_cell_length_b   5.20376907
_cell_length_c   5.43555569
_cell_angle_alpha   57.94093562
_cell_angle_beta   59.59684324
_cell_angle_gamma   58.08751641
_symmetry_Int_Tables_number   1
_chemical_formula_structural   Ho2MnIr2Ru
_chemical_formula_sum   'Ho2 Mn1 Ir2 Ru1'
_cell_volume   106.31027858
_cell_formula_units_Z   1
loop_
 _symmetry_equiv_pos_site_id
 _symmetry_equiv_pos_as_xyz
  1  'x, y, z'
loop_
 _atom_site_type_symbol
 _atom_site_label
 _atom_site_symmetry_multiplicity
 _atom_site_fract_x
 _atom_site_fract_y
 _atom_site_fract_z
 _atom_site_occupancy
  Ho  Ho0  1  0.251806  0.246126  0.250261  1
  Ho  Ho1  1  0.998194  0.003874  0.999739  1
  Mn  Mn2  1  0.625000  0.125000  0.625000  1
  Ir  Ir3  1  0.125000  0.625000  0.625000  1
  Ir  Ir4  1  0.625000  0.625000  0.625000  1
  Ru  Ru5  1  0.625000  0.625000  0.125000  1
