# generated using pymatgen
data_Tb19Dy(Bi2Pt)4
_symmetry_space_group_name_H-M   'P 1'
_cell_length_a   8.11318404
_cell_length_b   9.07739501
_cell_length_c   12.48832206
_cell_angle_alpha   90.00408190
_cell_angle_beta   89.98974370
_cell_angle_gamma   89.99520762
_symmetry_Int_Tables_number   1
_chemical_formula_structural   Tb19Dy(Bi2Pt)4
_chemical_formula_sum   'Tb19 Dy1 Bi8 Pt4'
_cell_volume   919.72214359
_cell_formula_units_Z   1
loop_
 _symmetry_equiv_pos_site_id
 _symmetry_equiv_pos_as_xyz
  1  'x, y, z'
loop_
 _atom_site_type_symbol
 _atom_site_label
 _atom_site_symmetry_multiplicity
 _atom_site_fract_x
 _atom_site_fract_y
 _atom_site_fract_z
 _atom_site_occupancy
  Tb  Tb0  1  0.838680  0.749949  0.790336  1
  Tb  Tb1  1  0.161388  0.250002  0.209652  1
  Tb  Tb2  1  0.338570  0.250015  0.709715  1
  Tb  Tb3  1  0.661415  0.749985  0.290316  1
  Tb  Tb4  1  0.370941  0.749982  0.697565  1
  Tb  Tb5  1  0.629052  0.250004  0.302486  1
  Tb  Tb6  1  0.871037  0.250017  0.802508  1
  Tb  Tb7  1  0.129061  0.749938  0.197478  1
  Tb  Tb8  1  0.950119  0.750000  0.500016  1
  Tb  Tb9  1  0.049890  0.249992  0.499986  1
  Tb  Tb10  1  0.449982  0.250052  0.999971  1
  Tb  Tb11  1  0.549840  0.749958  0.000003  1
  Tb  Tb12  1  0.679749  0.045784  0.566862  1
  Tb  Tb13  1  0.320249  0.954219  0.433138  1
  Tb  Tb14  1  0.179707  0.954176  0.933133  1
  Tb  Tb15  1  0.320241  0.545772  0.433133  1
  Tb  Tb16  1  0.820254  0.045753  0.066854  1
  Tb  Tb17  1  0.679751  0.454210  0.566866  1
  Tb  Tb18  1  0.820385  0.454253  0.066810  1
  Dy  Dy19  1  0.179323  0.545814  0.933209  1
  Bi  Bi20  1  0.568816  0.491269  0.827297  1
  Bi  Bi21  1  0.431082  0.508755  0.172736  1
  Bi  Bi22  1  0.068988  0.508760  0.672808  1
  Bi  Bi23  1  0.431056  0.991249  0.172746  1
  Bi  Bi24  1  0.931057  0.491257  0.327259  1
  Bi  Bi25  1  0.568954  0.008733  0.827258  1
  Bi  Bi26  1  0.931056  0.008741  0.327244  1
  Bi  Bi27  1  0.068953  0.991253  0.672741  1
  Pt  Pt28  1  0.574757  0.750004  0.511493  1
  Pt  Pt29  1  0.425244  0.250003  0.488501  1
  Pt  Pt30  1  0.074915  0.250278  0.988466  1
  Pt  Pt31  1  0.925487  0.749822  0.011414  1
