# generated using pymatgen
data_SmTh7(AgSn)8
_symmetry_space_group_name_H-M   'P 1'
_cell_length_a   9.77308300
_cell_length_b   9.77308312
_cell_length_c   7.39028600
_cell_angle_alpha   90.00000000
_cell_angle_beta   90.00000000
_cell_angle_gamma   120.00000298
_symmetry_Int_Tables_number   1
_chemical_formula_structural   SmTh7(AgSn)8
_chemical_formula_sum   'Sm1 Th7 Ag8 Sn8'
_cell_volume   611.30091220
_cell_formula_units_Z   1
loop_
 _symmetry_equiv_pos_site_id
 _symmetry_equiv_pos_as_xyz
  1  'x, y, z'
loop_
 _atom_site_type_symbol
 _atom_site_label
 _atom_site_symmetry_multiplicity
 _atom_site_fract_x
 _atom_site_fract_y
 _atom_site_fract_z
 _atom_site_occupancy
  Sm  Sm0  1  0.000000  0.000000  0.002944  1
  Th  Th1  1  0.488971  0.511029  0.510107  1
  Th  Th2  1  0.488971  0.977941  0.510107  1
  Th  Th3  1  0.022059  0.511029  0.510107  1
  Th  Th4  1  0.510657  0.489343  0.011043  1
  Th  Th5  1  0.510657  0.021313  0.011043  1
  Th  Th6  1  0.978687  0.489343  0.011043  1
  Th  Th7  1  0.000000  0.000000  0.503570  1
  Ag  Ag8  1  0.833468  0.166532  0.710523  1
  Ag  Ag9  1  0.833468  0.666938  0.710523  1
  Ag  Ag10  1  0.333062  0.166532  0.710523  1
  Ag  Ag11  1  0.165529  0.834471  0.201323  1
  Ag  Ag12  1  0.165529  0.331058  0.201323  1
  Ag  Ag13  1  0.668942  0.834471  0.201323  1
  Ag  Ag14  1  0.666667  0.333333  0.314285  1
  Ag  Ag15  1  0.333333  0.666667  0.812219  1
  Sn  Sn16  1  0.833968  0.166032  0.273839  1
  Sn  Sn17  1  0.833968  0.667935  0.273839  1
  Sn  Sn18  1  0.332065  0.166032  0.273839  1
  Sn  Sn19  1  0.165468  0.834532  0.773495  1
  Sn  Sn20  1  0.165468  0.330937  0.773495  1
  Sn  Sn21  1  0.669063  0.834532  0.773495  1
  Sn  Sn22  1  0.666667  0.333333  0.741138  1
  Sn  Sn23  1  0.333333  0.666667  0.242865  1
