# generated using pymatgen
data_Nd8CdAgPt2
_symmetry_space_group_name_H-M   'P 1'
_cell_length_a   9.98731861
_cell_length_b   9.98731849
_cell_length_c   9.98364600
_cell_angle_alpha   60.01216319
_cell_angle_beta   60.01216358
_cell_angle_gamma   60.04194768
_symmetry_Int_Tables_number   1
_chemical_formula_structural   Nd8CdAgPt2
_chemical_formula_sum   'Nd16 Cd2 Ag2 Pt4'
_cell_volume   704.51353611
_cell_formula_units_Z   2
loop_
 _symmetry_equiv_pos_site_id
 _symmetry_equiv_pos_as_xyz
  1  'x, y, z'
loop_
 _atom_site_type_symbol
 _atom_site_label
 _atom_site_symmetry_multiplicity
 _atom_site_fract_x
 _atom_site_fract_y
 _atom_site_fract_z
 _atom_site_occupancy
  Nd  Nd0  1  0.351077  0.351077  0.350677  1
  Nd  Nd1  1  0.351077  0.351077  0.947168  1
  Nd  Nd2  1  0.353394  0.941687  0.352460  1
  Nd  Nd3  1  0.941687  0.353394  0.352460  1
  Nd  Nd4  1  0.810584  0.189877  0.191796  1
  Nd  Nd5  1  0.189877  0.810584  0.807742  1
  Nd  Nd6  1  0.189877  0.810584  0.191796  1
  Nd  Nd7  1  0.810584  0.189877  0.807742  1
  Nd  Nd8  1  0.191721  0.191721  0.808279  1
  Nd  Nd9  1  0.809146  0.809146  0.190854  1
  Nd  Nd10  1  0.933967  0.563012  0.565434  1
  Nd  Nd11  1  0.563012  0.933967  0.937587  1
  Nd  Nd12  1  0.563012  0.933967  0.565434  1
  Nd  Nd13  1  0.933967  0.563012  0.937587  1
  Nd  Nd14  1  0.562969  0.562969  0.937031  1
  Nd  Nd15  1  0.935734  0.935734  0.564266  1
  Cd  Cd16  1  0.580647  0.261132  0.579111  1
  Cd  Cd17  1  0.261132  0.580647  0.579111  1
  Ag  Ag18  1  0.583065  0.583065  0.582425  1
  Ag  Ag19  1  0.583065  0.583065  0.251445  1
  Pt  Pt20  1  0.143763  0.143763  0.144457  1
  Pt  Pt21  1  0.143763  0.143763  0.568018  1
  Pt  Pt22  1  0.142767  0.570114  0.143559  1
  Pt  Pt23  1  0.570114  0.142767  0.143559  1
