# generated using pymatgen
data_SrPr(GaAu)6
_symmetry_space_group_name_H-M   'P 1'
_cell_length_a   4.54557200
_cell_length_b   7.18038100
_cell_length_c   8.75823200
_cell_angle_alpha   90.00000000
_cell_angle_beta   90.00000000
_cell_angle_gamma   90.00000000
_symmetry_Int_Tables_number   1
_chemical_formula_structural   SrPr(GaAu)6
_chemical_formula_sum   'Sr1 Pr1 Ga6 Au6'
_cell_volume   285.85939845
_cell_formula_units_Z   1
loop_
 _symmetry_equiv_pos_site_id
 _symmetry_equiv_pos_as_xyz
  1  'x, y, z'
loop_
 _atom_site_type_symbol
 _atom_site_label
 _atom_site_symmetry_multiplicity
 _atom_site_fract_x
 _atom_site_fract_y
 _atom_site_fract_z
 _atom_site_occupancy
  Sr  Sr0  1  0.000000  0.500000  0.256553  1
  Pr  Pr1  1  0.500000  0.000000  0.753844  1
  Ga  Ga2  1  0.000000  0.304663  0.889684  1
  Ga  Ga3  1  0.500000  0.195907  0.108201  1
  Ga  Ga4  1  0.000000  0.695337  0.889684  1
  Ga  Ga5  1  0.000000  0.000000  0.371799  1
  Ga  Ga6  1  0.500000  0.804093  0.108201  1
  Ga  Ga7  1  0.500000  0.500000  0.619715  1
  Au  Au8  1  0.000000  0.736866  0.601027  1
  Au  Au9  1  0.500000  0.781036  0.403558  1
  Au  Au10  1  0.500000  0.500000  0.933107  1
  Au  Au11  1  0.000000  0.000000  0.060042  1
  Au  Au12  1  0.500000  0.218964  0.403558  1
  Au  Au13  1  0.000000  0.263134  0.601027  1
