# generated using pymatgen
data_Ac2Zn5Si3
_symmetry_space_group_name_H-M   'P 1'
_cell_length_a   4.38984300
_cell_length_b   4.38984300
_cell_length_c   10.49342400
_cell_angle_alpha   90.00000000
_cell_angle_beta   90.00000000
_cell_angle_gamma   90.00000000
_symmetry_Int_Tables_number   1
_chemical_formula_structural   Ac2Zn5Si3
_chemical_formula_sum   'Ac2 Zn5 Si3'
_cell_volume   202.21585216
_cell_formula_units_Z   1
loop_
 _symmetry_equiv_pos_site_id
 _symmetry_equiv_pos_as_xyz
  1  'x, y, z'
loop_
 _atom_site_type_symbol
 _atom_site_label
 _atom_site_symmetry_multiplicity
 _atom_site_fract_x
 _atom_site_fract_y
 _atom_site_fract_z
 _atom_site_occupancy
  Ac  Ac0  1  0.000000  0.000000  0.999201  1
  Ac  Ac1  1  0.500000  0.500000  0.498835  1
  Zn  Zn2  1  0.000000  0.500000  0.249509  1
  Zn  Zn3  1  0.500000  0.000000  0.748600  1
  Zn  Zn4  1  0.500000  0.000000  0.249509  1
  Zn  Zn5  1  0.000000  0.500000  0.748600  1
  Zn  Zn6  1  0.500000  0.500000  0.121892  1
  Si  Si7  1  0.000000  0.000000  0.617131  1
  Si  Si8  1  0.000000  0.000000  0.385506  1
  Si  Si9  1  0.500000  0.500000  0.881216  1
