# generated using pymatgen
data_Ho2ErIn3SnPt2
_symmetry_space_group_name_H-M   'P 1'
_cell_length_a   7.59261162
_cell_length_b   7.59427819
_cell_length_c   4.15419100
_cell_angle_alpha   90.00000000
_cell_angle_beta   90.00000000
_cell_angle_gamma   120.03915524
_symmetry_Int_Tables_number   1
_chemical_formula_structural   Ho2ErIn3SnPt2
_chemical_formula_sum   'Ho2 Er1 In3 Sn1 Pt2'
_cell_volume   207.35919187
_cell_formula_units_Z   1
loop_
 _symmetry_equiv_pos_site_id
 _symmetry_equiv_pos_as_xyz
  1  'x, y, z'
loop_
 _atom_site_type_symbol
 _atom_site_label
 _atom_site_symmetry_multiplicity
 _atom_site_fract_x
 _atom_site_fract_y
 _atom_site_fract_z
 _atom_site_occupancy
  Ho  Ho0  1  0.607327  0.021612  0.500000  1
  Ho  Ho1  1  0.414283  0.392747  0.500000  1
  Er  Er2  1  0.977953  0.585655  0.500000  1
  In  In3  1  0.755505  0.744428  0.000000  1
  In  In4  1  0.989156  0.244768  0.000000  1
  In  In5  1  0.255444  0.010787  0.000000  1
  Sn  Sn6  1  0.332999  0.666568  0.000000  1
  Pt  Pt7  1  0.667323  0.333839  0.000000  1
  Pt  Pt8  1  0.000011  0.999596  0.500000  1
