# generated using pymatgen
data_Ho12Co4HgPd
_symmetry_space_group_name_H-M   'P 1'
_cell_length_a   8.25158066
_cell_length_b   8.25158096
_cell_length_c   8.25158205
_cell_angle_alpha   110.89706593
_cell_angle_beta   110.23543151
_cell_angle_gamma   107.30339660
_symmetry_Int_Tables_number   1
_chemical_formula_structural   Ho12Co4HgPd
_chemical_formula_sum   'Ho12 Co4 Hg1 Pd1'
_cell_volume   432.02630581
_cell_formula_units_Z   1
loop_
 _symmetry_equiv_pos_site_id
 _symmetry_equiv_pos_as_xyz
  1  'x, y, z'
loop_
 _atom_site_type_symbol
 _atom_site_label
 _atom_site_symmetry_multiplicity
 _atom_site_fract_x
 _atom_site_fract_y
 _atom_site_fract_z
 _atom_site_occupancy
  Ho  Ho0  1  0.315413  0.618434  0.303020  1
  Ho  Ho1  1  0.684587  0.381566  0.696980  1
  Ho  Ho2  1  0.315413  0.012392  0.696980  1
  Ho  Ho3  1  0.684587  0.987608  0.303020  1
  Ho  Ho4  1  0.187511  0.294049  0.481560  1
  Ho  Ho5  1  0.812489  0.705951  0.518440  1
  Ho  Ho6  1  0.187511  0.705951  0.893462  1
  Ho  Ho7  1  0.812489  0.294049  0.106538  1
  Ho  Ho8  1  0.414164  0.215386  0.198778  1
  Ho  Ho9  1  0.585836  0.784614  0.801222  1
  Ho  Ho10  1  0.016609  0.215386  0.801222  1
  Ho  Ho11  1  0.983391  0.784614  0.198778  1
  Co  Co12  1  0.113273  0.613273  0.500000  1
  Co  Co13  1  0.886727  0.386727  0.500000  1
  Co  Co14  1  0.379339  0.000000  0.379339  1
  Co  Co15  1  0.620661  0.000000  0.620661  1
  Hg  Hg16  1  0.500000  0.500000  0.000000  1
  Pd  Pd17  1  0.000000  0.000000  0.000000  1
