# generated using pymatgen
data_Ce2Zn19Pd3
_symmetry_space_group_name_H-M   'P 1'
_cell_length_a   8.24700506
_cell_length_b   8.23430613
_cell_length_c   8.24700756
_cell_angle_alpha   99.74225036
_cell_angle_beta   100.08631873
_cell_angle_gamma   131.06572659
_symmetry_Int_Tables_number   1
_chemical_formula_structural   Ce2Zn19Pd3
_chemical_formula_sum   'Ce2 Zn19 Pd3'
_cell_volume   384.03003173
_cell_formula_units_Z   1
loop_
 _symmetry_equiv_pos_site_id
 _symmetry_equiv_pos_as_xyz
  1  'x, y, z'
loop_
 _atom_site_type_symbol
 _atom_site_label
 _atom_site_symmetry_multiplicity
 _atom_site_fract_x
 _atom_site_fract_y
 _atom_site_fract_z
 _atom_site_occupancy
  Ce  Ce0  1  0.249479  0.751762  0.502282  1
  Ce  Ce1  1  0.000521  0.998238  0.997718  1
  Zn  Zn2  1  0.425366  0.098929  0.916943  1
  Zn  Zn3  1  0.180237  0.508047  0.084297  1
  Zn  Zn4  1  0.496300  0.499351  0.003050  1
  Zn  Zn5  1  0.753700  0.250649  0.496950  1
  Zn  Zn6  1  0.625000  0.375000  0.750000  1
  Zn  Zn7  1  0.181988  0.098929  0.673564  1
  Zn  Zn8  1  0.756863  0.930759  0.584318  1
  Zn  Zn9  1  0.346493  0.173784  0.414757  1
  Zn  Zn10  1  0.423750  0.508047  0.327808  1
  Zn  Zn11  1  0.903560  0.819241  0.326104  1
  Zn  Zn12  1  0.490973  0.576216  0.672710  1
  Zn  Zn13  1  0.069763  0.241953  0.415703  1
  Zn  Zn14  1  0.824634  0.651071  0.583057  1
  Zn  Zn15  1  0.068012  0.651071  0.826436  1
  Zn  Zn16  1  0.493137  0.819241  0.915682  1
  Zn  Zn17  1  0.903507  0.576216  0.085243  1
  Zn  Zn18  1  0.826250  0.241953  0.172192  1
  Zn  Zn19  1  0.346440  0.930759  0.173896  1
  Zn  Zn20  1  0.759027  0.173784  0.827290  1
  Pd  Pd21  1  0.125000  0.375000  0.750000  1
  Pd  Pd22  1  0.625000  0.375000  0.250000  1
  Pd  Pd23  1  0.625000  0.875000  0.250000  1
