# generated using pymatgen
data_Sc20Zn3Ni2Rh3
_symmetry_space_group_name_H-M   'P 1'
_cell_length_a   8.70900500
_cell_length_b   8.70900549
_cell_length_c   8.63868400
_cell_angle_alpha   90.00000000
_cell_angle_beta   90.00000000
_cell_angle_gamma   119.99998676
_symmetry_Int_Tables_number   1
_chemical_formula_structural   Sc20Zn3Ni2Rh3
_chemical_formula_sum   'Sc20 Zn3 Ni2 Rh3'
_cell_volume   567.43403528
_cell_formula_units_Z   1
loop_
 _symmetry_equiv_pos_site_id
 _symmetry_equiv_pos_as_xyz
  1  'x, y, z'
loop_
 _atom_site_type_symbol
 _atom_site_label
 _atom_site_symmetry_multiplicity
 _atom_site_fract_x
 _atom_site_fract_y
 _atom_site_fract_z
 _atom_site_occupancy
  Sc  Sc0  1  0.000000  0.000000  0.522921  1
  Sc  Sc1  1  0.000000  0.000000  0.977079  1
  Sc  Sc2  1  0.542537  0.457463  0.250000  1
  Sc  Sc3  1  0.542537  0.085072  0.250000  1
  Sc  Sc4  1  0.914928  0.457463  0.250000  1
  Sc  Sc5  1  0.457357  0.542643  0.750000  1
  Sc  Sc6  1  0.457357  0.914715  0.750000  1
  Sc  Sc7  1  0.085285  0.542643  0.750000  1
  Sc  Sc8  1  0.205496  0.794504  0.445578  1
  Sc  Sc9  1  0.205496  0.410993  0.445578  1
  Sc  Sc10  1  0.589007  0.794504  0.445578  1
  Sc  Sc11  1  0.794431  0.205569  0.563020  1
  Sc  Sc12  1  0.794431  0.588862  0.563020  1
  Sc  Sc13  1  0.411138  0.205569  0.563020  1
  Sc  Sc14  1  0.794431  0.205569  0.936980  1
  Sc  Sc15  1  0.794431  0.588862  0.936980  1
  Sc  Sc16  1  0.411138  0.205569  0.936980  1
  Sc  Sc17  1  0.205496  0.794504  0.054422  1
  Sc  Sc18  1  0.205496  0.410993  0.054422  1
  Sc  Sc19  1  0.589007  0.794504  0.054422  1
  Zn  Zn20  1  0.889556  0.110444  0.250000  1
  Zn  Zn21  1  0.889556  0.779113  0.250000  1
  Zn  Zn22  1  0.220887  0.110444  0.250000  1
  Ni  Ni23  1  0.333333  0.666667  0.250000  1
  Ni  Ni24  1  0.666667  0.333333  0.750000  1
  Rh  Rh25  1  0.121531  0.878469  0.750000  1
  Rh  Rh26  1  0.121531  0.243061  0.750000  1
  Rh  Rh27  1  0.756939  0.878469  0.750000  1
