# generated using pymatgen
data_Nb4VGa3C
_symmetry_space_group_name_H-M   'P 1'
_cell_length_a   7.71393000
_cell_length_b   7.71393107
_cell_length_c   5.28049400
_cell_angle_alpha   90.00000000
_cell_angle_beta   90.00000000
_cell_angle_gamma   120.00000399
_symmetry_Int_Tables_number   1
_chemical_formula_structural   Nb4VGa3C
_chemical_formula_sum   'Nb8 V2 Ga6 C2'
_cell_volume   272.11758937
_cell_formula_units_Z   2
loop_
 _symmetry_equiv_pos_site_id
 _symmetry_equiv_pos_as_xyz
  1  'x, y, z'
loop_
 _atom_site_type_symbol
 _atom_site_label
 _atom_site_symmetry_multiplicity
 _atom_site_fract_x
 _atom_site_fract_y
 _atom_site_fract_z
 _atom_site_occupancy
  Nb  Nb0  1  0.233198  0.000000  0.252635  1
  Nb  Nb1  1  0.766802  0.000000  0.747365  1
  Nb  Nb2  1  0.000000  0.233198  0.252635  1
  Nb  Nb3  1  0.000000  0.766802  0.747365  1
  Nb  Nb4  1  0.766802  0.766802  0.252635  1
  Nb  Nb5  1  0.233198  0.233198  0.747365  1
  Nb  Nb6  1  0.666667  0.333333  0.500000  1
  Nb  Nb7  1  0.333333  0.666667  0.500000  1
  V  V8  1  0.333333  0.666667  0.000000  1
  V  V9  1  0.666667  0.333333  0.000000  1
  Ga  Ga10  1  0.590902  0.000000  0.234317  1
  Ga  Ga11  1  0.409098  0.000000  0.765683  1
  Ga  Ga12  1  0.000000  0.590902  0.234317  1
  Ga  Ga13  1  0.000000  0.409098  0.765683  1
  Ga  Ga14  1  0.409098  0.409098  0.234317  1
  Ga  Ga15  1  0.590902  0.590902  0.765683  1
  C  C16  1  0.000000  0.000000  0.000000  1
  C  C17  1  0.000000  0.000000  0.500000  1
