# generated using pymatgen
data_Ca4MgIn3Au4
_symmetry_space_group_name_H-M   'P 1'
_cell_length_a   4.47524800
_cell_length_b   7.54633509
_cell_length_c   8.70874006
_cell_angle_alpha   90.01538745
_cell_angle_beta   90.00000000
_cell_angle_gamma   90.00000000
_symmetry_Int_Tables_number   1
_chemical_formula_structural   Ca4MgIn3Au4
_chemical_formula_sum   'Ca4 Mg1 In3 Au4'
_cell_volume   294.10912899
_cell_formula_units_Z   1
loop_
 _symmetry_equiv_pos_site_id
 _symmetry_equiv_pos_as_xyz
  1  'x, y, z'
loop_
 _atom_site_type_symbol
 _atom_site_label
 _atom_site_symmetry_multiplicity
 _atom_site_fract_x
 _atom_site_fract_y
 _atom_site_fract_z
 _atom_site_occupancy
  Ca  Ca0  1  0.750000  0.964633  0.680258  1
  Ca  Ca1  1  0.250000  0.028059  0.317431  1
  Ca  Ca2  1  0.750000  0.472267  0.822595  1
  Ca  Ca3  1  0.250000  0.529683  0.178271  1
  Mg  Mg4  1  0.750000  0.360915  0.439511  1
  In  In5  1  0.250000  0.150973  0.935751  1
  In  In6  1  0.250000  0.644939  0.561095  1
  In  In7  1  0.750000  0.850360  0.062498  1
  Au  Au8  1  0.250000  0.763479  0.873710  1
  Au  Au9  1  0.250000  0.262590  0.617485  1
  Au  Au10  1  0.750000  0.733050  0.375187  1
  Au  Au11  1  0.750000  0.239052  0.136208  1
