# generated using pymatgen
data_Dy4Y12Cd4Ni3Os
_symmetry_space_group_name_H-M   'P 1'
_cell_length_a   9.64229043
_cell_length_b   9.64229090
_cell_length_c   9.64229106
_cell_angle_alpha   59.55197320
_cell_angle_beta   59.55196417
_cell_angle_gamma   59.55197288
_symmetry_Int_Tables_number   1
_chemical_formula_structural   Dy4Y12Cd4Ni3Os
_chemical_formula_sum   'Dy4 Y12 Cd4 Ni3 Os1'
_cell_volume   627.45009412
_cell_formula_units_Z   1
loop_
 _symmetry_equiv_pos_site_id
 _symmetry_equiv_pos_as_xyz
  1  'x, y, z'
loop_
 _atom_site_type_symbol
 _atom_site_label
 _atom_site_symmetry_multiplicity
 _atom_site_fract_x
 _atom_site_fract_y
 _atom_site_fract_z
 _atom_site_occupancy
  Dy  Dy0  1  0.597760  0.597760  0.597760  1
  Dy  Dy1  1  0.600638  0.600638  0.203918  1
  Dy  Dy2  1  0.600638  0.203918  0.600638  1
  Dy  Dy3  1  0.203918  0.600638  0.600638  1
  Y  Y4  1  0.060291  0.438590  0.438590  1
  Y  Y5  1  0.437305  0.060814  0.060814  1
  Y  Y6  1  0.438590  0.060291  0.438590  1
  Y  Y7  1  0.060814  0.437305  0.060814  1
  Y  Y8  1  0.438590  0.438590  0.060291  1
  Y  Y9  1  0.060814  0.060814  0.437305  1
  Y  Y10  1  0.186520  0.814990  0.814990  1
  Y  Y11  1  0.807394  0.188895  0.188895  1
  Y  Y12  1  0.814990  0.186520  0.814990  1
  Y  Y13  1  0.188895  0.807394  0.188895  1
  Y  Y14  1  0.814990  0.814990  0.186520  1
  Y  Y15  1  0.188895  0.188895  0.807394  1
  Cd  Cd16  1  0.830190  0.830190  0.830190  1
  Cd  Cd17  1  0.830173  0.830173  0.506164  1
  Cd  Cd18  1  0.830173  0.506164  0.830173  1
  Cd  Cd19  1  0.506164  0.830173  0.830173  1
  Ni  Ni20  1  0.392847  0.392847  0.822796  1
  Ni  Ni21  1  0.392847  0.822796  0.392847  1
  Ni  Ni22  1  0.822796  0.392847  0.392847  1
  Os  Os23  1  0.393765  0.393765  0.393765  1
