# generated using pymatgen
data_Mn2GaSbO6
_symmetry_space_group_name_H-M   'P 1'
_cell_length_a   5.28631551
_cell_length_b   5.28631396
_cell_length_c   5.75378011
_cell_angle_alpha   62.65305294
_cell_angle_beta   117.34694959
_cell_angle_gamma   119.99999654
_symmetry_Int_Tables_number   1
_chemical_formula_structural   Mn2GaSbO6
_chemical_formula_sum   'Mn2 Ga1 Sb1 O6'
_cell_volume   118.04362028
_cell_formula_units_Z   1
loop_
 _symmetry_equiv_pos_site_id
 _symmetry_equiv_pos_as_xyz
  1  'x, y, z'
loop_
 _atom_site_type_symbol
 _atom_site_label
 _atom_site_symmetry_multiplicity
 _atom_site_fract_x
 _atom_site_fract_y
 _atom_site_fract_z
 _atom_site_occupancy
  Mn  Mn0  1  0.861906  0.138094  0.585715  1
  Mn  Mn1  1  0.135629  0.864371  0.406887  1
  Ga  Ga2  1  0.652361  0.347639  0.957084  1
  Sb  Sb3  1  0.344721  0.655279  0.034163  1
  O  O4  1  0.456563  0.282208  0.234515  1
  O  O5  1  0.060160  0.543437  0.234515  1
  O  O6  1  0.717792  0.939840  0.234515  1
  O  O7  1  0.545130  0.717781  0.770869  1
  O  O8  1  0.943521  0.454870  0.770869  1
  O  O9  1  0.282219  0.056479  0.770869  1
