# generated using pymatgen
data_Sr3(NdSi2)2
_symmetry_space_group_name_H-M   'P 1'
_cell_length_a   7.81075500
_cell_length_b   8.21609300
_cell_length_c   15.94694200
_cell_angle_alpha   90.00000000
_cell_angle_beta   90.00000000
_cell_angle_gamma   90.00000000
_symmetry_Int_Tables_number   1
_chemical_formula_structural   Sr3(NdSi2)2
_chemical_formula_sum   'Sr12 Nd8 Si16'
_cell_volume   1023.37729346
_cell_formula_units_Z   4
loop_
 _symmetry_equiv_pos_site_id
 _symmetry_equiv_pos_as_xyz
  1  'x, y, z'
loop_
 _atom_site_type_symbol
 _atom_site_label
 _atom_site_symmetry_multiplicity
 _atom_site_fract_x
 _atom_site_fract_y
 _atom_site_fract_z
 _atom_site_occupancy
  Sr  Sr0  1  0.648727  0.977355  0.250000  1
  Sr  Sr1  1  0.148727  0.522645  0.250000  1
  Sr  Sr2  1  0.851273  0.477355  0.750000  1
  Sr  Sr3  1  0.351273  0.022645  0.750000  1
  Sr  Sr4  1  0.975290  0.820002  0.094812  1
  Sr  Sr5  1  0.475290  0.679998  0.405188  1
  Sr  Sr6  1  0.524710  0.320002  0.905188  1
  Sr  Sr7  1  0.024710  0.179998  0.594812  1
  Sr  Sr8  1  0.024710  0.179998  0.905188  1
  Sr  Sr9  1  0.524710  0.320002  0.594812  1
  Sr  Sr10  1  0.475290  0.679998  0.094812  1
  Sr  Sr11  1  0.975290  0.820002  0.405188  1
  Nd  Nd12  1  0.685125  0.820020  0.879100  1
  Nd  Nd13  1  0.185125  0.679980  0.620900  1
  Nd  Nd14  1  0.814875  0.320020  0.120900  1
  Nd  Nd15  1  0.314875  0.179980  0.379100  1
  Nd  Nd16  1  0.314875  0.179980  0.120900  1
  Nd  Nd17  1  0.814875  0.320020  0.379100  1
  Nd  Nd18  1  0.185125  0.679980  0.879100  1
  Nd  Nd19  1  0.685125  0.820020  0.620900  1
  Si  Si20  1  0.747051  0.592412  0.250000  1
  Si  Si21  1  0.247051  0.907588  0.250000  1
  Si  Si22  1  0.752949  0.092412  0.750000  1
  Si  Si23  1  0.252949  0.407588  0.750000  1
  Si  Si24  1  0.028044  0.119721  0.250000  1
  Si  Si25  1  0.528044  0.380279  0.250000  1
  Si  Si26  1  0.471956  0.619721  0.750000  1
  Si  Si27  1  0.971956  0.880279  0.750000  1
  Si  Si28  1  0.864743  0.536586  0.963875  1
  Si  Si29  1  0.364743  0.963414  0.536125  1
  Si  Si30  1  0.635257  0.036586  0.036125  1
  Si  Si31  1  0.135257  0.463414  0.463875  1
  Si  Si32  1  0.135257  0.463414  0.036125  1
  Si  Si33  1  0.635257  0.036586  0.463875  1
  Si  Si34  1  0.364743  0.963414  0.963875  1
  Si  Si35  1  0.864743  0.536586  0.536125  1
