# generated using pymatgen
data_AsPRh
_symmetry_space_group_name_H-M   'P 1'
_cell_length_a   5.99778100
_cell_length_b   5.98320919
_cell_length_c   6.04533013
_cell_angle_alpha   112.66766064
_cell_angle_beta   90.00000000
_cell_angle_gamma   90.00000000
_symmetry_Int_Tables_number   1
_chemical_formula_structural   AsPRh
_chemical_formula_sum   'As4 P4 Rh4'
_cell_volume   200.18502106
_cell_formula_units_Z   4
loop_
 _symmetry_equiv_pos_site_id
 _symmetry_equiv_pos_as_xyz
  1  'x, y, z'
loop_
 _atom_site_type_symbol
 _atom_site_label
 _atom_site_symmetry_multiplicity
 _atom_site_fract_x
 _atom_site_fract_y
 _atom_site_fract_z
 _atom_site_occupancy
  As  As0  1  0.122934  0.840505  0.136578  1
  As  As1  1  0.622934  0.159495  0.363422  1
  As  As2  1  0.877066  0.159495  0.863422  1
  As  As3  1  0.377066  0.840505  0.636578  1
  P  P4  1  0.870901  0.658645  0.319189  1
  P  P5  1  0.370901  0.341355  0.180811  1
  P  P6  1  0.129099  0.341355  0.680811  1
  P  P7  1  0.629099  0.658645  0.819189  1
  Rh  Rh8  1  0.509003  0.717884  0.207289  1
  Rh  Rh9  1  0.009003  0.282116  0.292711  1
  Rh  Rh10  1  0.490997  0.282116  0.792711  1
  Rh  Rh11  1  0.990997  0.717884  0.707289  1
