# generated using pymatgen
data_Lu2ScAlIr2
_symmetry_space_group_name_H-M   'P 1'
_cell_length_a   6.83937200
_cell_length_b   4.25191600
_cell_length_c   8.22120000
_cell_angle_alpha   90.00000000
_cell_angle_beta   90.00000000
_cell_angle_gamma   90.00000000
_symmetry_Int_Tables_number   1
_chemical_formula_structural   Lu2ScAlIr2
_chemical_formula_sum   'Lu4 Sc2 Al2 Ir4'
_cell_volume   239.07607417
_cell_formula_units_Z   2
loop_
 _symmetry_equiv_pos_site_id
 _symmetry_equiv_pos_as_xyz
  1  'x, y, z'
loop_
 _atom_site_type_symbol
 _atom_site_label
 _atom_site_symmetry_multiplicity
 _atom_site_fract_x
 _atom_site_fract_y
 _atom_site_fract_z
 _atom_site_occupancy
  Lu  Lu0  1  0.962943  0.250000  0.173505  1
  Lu  Lu1  1  0.462943  0.250000  0.326495  1
  Lu  Lu2  1  0.025609  0.750000  0.829995  1
  Lu  Lu3  1  0.525609  0.750000  0.670005  1
  Sc  Sc4  1  0.866672  0.250000  0.559494  1
  Sc  Sc5  1  0.366672  0.250000  0.940506  1
  Al  Al6  1  0.139688  0.750000  0.441482  1
  Al  Al7  1  0.639688  0.750000  0.058518  1
  Ir  Ir8  1  0.743754  0.250000  0.883309  1
  Ir  Ir9  1  0.243754  0.250000  0.616691  1
  Ir  Ir10  1  0.261334  0.750000  0.129396  1
  Ir  Ir11  1  0.761334  0.750000  0.370604  1
