# generated using pymatgen
data_Tm3Lu3Al16(SiOs)8
_symmetry_space_group_name_H-M   'P 1'
_cell_length_a   8.65923135
_cell_length_b   8.65789088
_cell_length_c   9.37212500
_cell_angle_alpha   90.00000000
_cell_angle_beta   90.00000000
_cell_angle_gamma   120.09728453
_symmetry_Int_Tables_number   1
_chemical_formula_structural   Tm3Lu3Al16(SiOs)8
_chemical_formula_sum   'Tm3 Lu3 Al16 Si8 Os8'
_cell_volume   607.90200973
_cell_formula_units_Z   1
loop_
 _symmetry_equiv_pos_site_id
 _symmetry_equiv_pos_as_xyz
  1  'x, y, z'
loop_
 _atom_site_type_symbol
 _atom_site_label
 _atom_site_symmetry_multiplicity
 _atom_site_fract_x
 _atom_site_fract_y
 _atom_site_fract_z
 _atom_site_occupancy
  Tm  Tm0  1  0.388857  0.192738  0.750000  1
  Tm  Tm1  1  0.195649  0.804382  0.250000  1
  Tm  Tm2  1  0.804586  0.195491  0.750000  1
  Lu  Lu3  1  0.193274  0.389790  0.250000  1
  Lu  Lu4  1  0.806984  0.610542  0.750000  1
  Lu  Lu5  1  0.610230  0.806767  0.250000  1
  Al  Al6  1  0.165362  0.328851  0.578767  1
  Al  Al7  1  0.834570  0.671080  0.421138  1
  Al  Al8  1  0.671181  0.834591  0.578820  1
  Al  Al9  1  0.834570  0.671080  0.078862  1
  Al  Al10  1  0.328884  0.165406  0.421043  1
  Al  Al11  1  0.165362  0.328851  0.921233  1
  Al  Al12  1  0.164404  0.835468  0.578910  1
  Al  Al13  1  0.328884  0.165406  0.078957  1
  Al  Al14  1  0.835501  0.164494  0.421018  1
  Al  Al15  1  0.671181  0.834591  0.921180  1
  Al  Al16  1  0.835501  0.164494  0.078982  1
  Al  Al17  1  0.164404  0.835468  0.921090  1
  Al  Al18  1  0.564761  0.435254  0.250000  1
  Al  Al19  1  0.435397  0.564814  0.750000  1
  Al  Al20  1  0.000148  0.999871  0.250000  1
  Al  Al21  1  0.999701  0.000029  0.750000  1
  Si  Si22  1  0.335041  0.664980  0.042125  1
  Si  Si23  1  0.665214  0.335203  0.958248  1
  Si  Si24  1  0.665214  0.335203  0.541752  1
  Si  Si25  1  0.335041  0.664980  0.457875  1
  Si  Si26  1  0.563519  0.123861  0.250000  1
  Si  Si27  1  0.436517  0.876127  0.750000  1
  Si  Si28  1  0.876153  0.436505  0.250000  1
  Si  Si29  1  0.123658  0.563511  0.750000  1
  Os  Os30  1  0.500054  0.999855  0.000078  1
  Os  Os31  1  0.000096  0.500043  0.999959  1
  Os  Os32  1  0.500054  0.999855  0.499922  1
  Os  Os33  1  0.500057  0.500172  0.000116  1
  Os  Os34  1  0.000096  0.500043  0.500041  1
  Os  Os35  1  0.500057  0.500172  0.499884  1
  Os  Os36  1  0.999921  0.000013  0.000017  1
  Os  Os37  1  0.999921  0.000013  0.499983  1
