# generated using pymatgen
data_P2I7Br3
_symmetry_space_group_name_H-M   'P 1'
_cell_length_a   6.43763100
_cell_length_b   9.29207000
_cell_length_c   19.16796500
_cell_angle_alpha   90.00000000
_cell_angle_beta   90.00000000
_cell_angle_gamma   90.00000000
_symmetry_Int_Tables_number   1
_chemical_formula_structural   P2I7Br3
_chemical_formula_sum   'P4 I14 Br6'
_cell_volume   1146.60692438
_cell_formula_units_Z   2
loop_
 _symmetry_equiv_pos_site_id
 _symmetry_equiv_pos_as_xyz
  1  'x, y, z'
loop_
 _atom_site_type_symbol
 _atom_site_label
 _atom_site_symmetry_multiplicity
 _atom_site_fract_x
 _atom_site_fract_y
 _atom_site_fract_z
 _atom_site_occupancy
  P  P0  1  0.038908  0.750000  0.638922  1
  P  P1  1  0.038908  0.250000  0.861078  1
  P  P2  1  0.972887  0.250000  0.365520  1
  P  P3  1  0.972887  0.750000  0.134480  1
  I  I4  1  0.191409  0.750000  0.241391  1
  I  I5  1  0.191409  0.250000  0.258609  1
  I  I6  1  0.810962  0.250000  0.757787  1
  I  I7  1  0.810962  0.750000  0.742213  1
  I  I8  1  0.754727  0.971804  0.126156  1
  I  I9  1  0.754727  0.028196  0.373844  1
  I  I10  1  0.249331  0.473486  0.866785  1
  I  I11  1  0.249331  0.526514  0.633215  1
  I  I12  1  0.249331  0.026514  0.866785  1
  I  I13  1  0.249331  0.973486  0.633215  1
  I  I14  1  0.754727  0.528196  0.126156  1
  I  I15  1  0.754727  0.471804  0.373844  1
  I  I16  1  0.456811  0.750000  0.390818  1
  I  I17  1  0.456811  0.250000  0.109182  1
  Br  Br18  1  0.509143  0.250000  0.626541  1
  Br  Br19  1  0.509143  0.750000  0.873459  1
  Br  Br20  1  0.828934  0.750000  0.546836  1
  Br  Br21  1  0.828934  0.250000  0.953164  1
  Br  Br22  1  0.182830  0.250000  0.457460  1
  Br  Br23  1  0.182830  0.750000  0.042540  1
