# generated using pymatgen
data_Pr8Lu11Si16Hg
_symmetry_space_group_name_H-M   'P 1'
_cell_length_a   7.37430951
_cell_length_b   7.72461247
_cell_length_c   14.65103900
_cell_angle_alpha   90.00000000
_cell_angle_beta   90.00000000
_cell_angle_gamma   90.07661557
_symmetry_Int_Tables_number   1
_chemical_formula_structural   Pr8Lu11Si16Hg
_chemical_formula_sum   'Pr8 Lu11 Si16 Hg1'
_cell_volume   834.57639803
_cell_formula_units_Z   1
loop_
 _symmetry_equiv_pos_site_id
 _symmetry_equiv_pos_as_xyz
  1  'x, y, z'
loop_
 _atom_site_type_symbol
 _atom_site_label
 _atom_site_symmetry_multiplicity
 _atom_site_fract_x
 _atom_site_fract_y
 _atom_site_fract_z
 _atom_site_occupancy
  Pr  Pr0  1  0.014106  0.174251  0.401682  1
  Pr  Pr1  1  0.511596  0.328538  0.401919  1
  Pr  Pr2  1  0.490247  0.683014  0.898868  1
  Pr  Pr3  1  0.490247  0.683014  0.601132  1
  Pr  Pr4  1  0.977477  0.827914  0.601744  1
  Pr  Pr5  1  0.977477  0.827914  0.898256  1
  Pr  Pr6  1  0.511596  0.328538  0.098081  1
  Pr  Pr7  1  0.014106  0.174251  0.098318  1
  Lu  Lu8  1  0.338360  0.174576  0.624337  1
  Lu  Lu9  1  0.672274  0.819333  0.374993  1
  Lu  Lu10  1  0.173049  0.676643  0.377598  1
  Lu  Lu11  1  0.825236  0.312507  0.875991  1
  Lu  Lu12  1  0.825236  0.312507  0.624009  1
  Lu  Lu13  1  0.839086  0.494280  0.250000  1
  Lu  Lu14  1  0.337757  0.005699  0.250000  1
  Lu  Lu15  1  0.338360  0.174576  0.875663  1
  Lu  Lu16  1  0.173049  0.676643  0.122402  1
  Lu  Lu17  1  0.672274  0.819333  0.125007  1
  Lu  Lu18  1  0.158464  0.502111  0.750000  1
  Si  Si19  1  0.267784  0.876970  0.750000  1
  Si  Si20  1  0.465826  0.617676  0.250000  1
  Si  Si21  1  0.049092  0.120270  0.750000  1
  Si  Si22  1  0.531264  0.401066  0.750000  1
  Si  Si23  1  0.153008  0.468778  0.541698  1
  Si  Si24  1  0.966308  0.878246  0.250000  1
  Si  Si25  1  0.715451  0.122200  0.250000  1
  Si  Si26  1  0.848403  0.531971  0.036818  1
  Si  Si27  1  0.348731  0.966504  0.039376  1
  Si  Si28  1  0.153008  0.468778  0.958302  1
  Si  Si29  1  0.653718  0.038887  0.528192  1
  Si  Si30  1  0.348731  0.966504  0.460624  1
  Si  Si31  1  0.848403  0.531971  0.463182  1
  Si  Si32  1  0.787303  0.600744  0.750000  1
  Si  Si33  1  0.215622  0.377946  0.250000  1
  Si  Si34  1  0.653718  0.038887  0.971808  1
  Hg  Hg35  1  0.653635  0.996957  0.750000  1
