# generated using pymatgen
data_Ac2Tm3Si4
_symmetry_space_group_name_H-M   'P 1'
_cell_length_a   7.65468600
_cell_length_b   7.94418700
_cell_length_c   14.93454500
_cell_angle_alpha   90.00000000
_cell_angle_beta   90.00000000
_cell_angle_gamma   90.00000000
_symmetry_Int_Tables_number   1
_chemical_formula_structural   Ac2Tm3Si4
_chemical_formula_sum   'Ac8 Tm12 Si16'
_cell_volume   908.17351978
_cell_formula_units_Z   4
loop_
 _symmetry_equiv_pos_site_id
 _symmetry_equiv_pos_as_xyz
  1  'x, y, z'
loop_
 _atom_site_type_symbol
 _atom_site_label
 _atom_site_symmetry_multiplicity
 _atom_site_fract_x
 _atom_site_fract_y
 _atom_site_fract_z
 _atom_site_occupancy
  Ac  Ac0  1  0.017036  0.171212  0.401786  1
  Ac  Ac1  1  0.517036  0.328788  0.401786  1
  Ac  Ac2  1  0.482964  0.671212  0.901786  1
  Ac  Ac3  1  0.482964  0.671212  0.598214  1
  Ac  Ac4  1  0.982964  0.828788  0.598214  1
  Ac  Ac5  1  0.982964  0.828788  0.901786  1
  Ac  Ac6  1  0.517036  0.328788  0.098214  1
  Ac  Ac7  1  0.017036  0.171212  0.098214  1
  Tm  Tm8  1  0.322481  0.174785  0.624715  1
  Tm  Tm9  1  0.677519  0.825215  0.375285  1
  Tm  Tm10  1  0.652451  0.999495  0.750000  1
  Tm  Tm11  1  0.177519  0.674785  0.375285  1
  Tm  Tm12  1  0.822481  0.325215  0.875285  1
  Tm  Tm13  1  0.822481  0.325215  0.624715  1
  Tm  Tm14  1  0.847549  0.499495  0.250000  1
  Tm  Tm15  1  0.347549  0.000505  0.250000  1
  Tm  Tm16  1  0.322481  0.174785  0.875285  1
  Tm  Tm17  1  0.177519  0.674785  0.124715  1
  Tm  Tm18  1  0.677519  0.825215  0.124715  1
  Tm  Tm19  1  0.152451  0.500505  0.750000  1
  Si  Si20  1  0.284580  0.883950  0.750000  1
  Si  Si21  1  0.474329  0.631911  0.250000  1
  Si  Si22  1  0.025671  0.131911  0.750000  1
  Si  Si23  1  0.525671  0.368089  0.750000  1
  Si  Si24  1  0.142965  0.465533  0.540370  1
  Si  Si25  1  0.974329  0.868089  0.250000  1
  Si  Si26  1  0.715420  0.116050  0.250000  1
  Si  Si27  1  0.857035  0.534467  0.040370  1
  Si  Si28  1  0.357035  0.965533  0.040370  1
  Si  Si29  1  0.142965  0.465533  0.959630  1
  Si  Si30  1  0.642965  0.034467  0.540370  1
  Si  Si31  1  0.357035  0.965533  0.459630  1
  Si  Si32  1  0.857035  0.534467  0.459630  1
  Si  Si33  1  0.784580  0.616050  0.750000  1
  Si  Si34  1  0.215420  0.383950  0.250000  1
  Si  Si35  1  0.642965  0.034467  0.959630  1
