# generated using pymatgen
data_PuMnCl6
_symmetry_space_group_name_H-M   'P 1'
_cell_length_a   6.60286238
_cell_length_b   6.60286214
_cell_length_c   6.41868954
_cell_angle_alpha   89.97151582
_cell_angle_beta   89.97151734
_cell_angle_gamma   119.98011953
_symmetry_Int_Tables_number   1
_chemical_formula_structural   PuMnCl6
_chemical_formula_sum   'Pu1 Mn1 Cl6'
_cell_volume   242.39755203
_cell_formula_units_Z   1
loop_
 _symmetry_equiv_pos_site_id
 _symmetry_equiv_pos_as_xyz
  1  'x, y, z'
loop_
 _atom_site_type_symbol
 _atom_site_label
 _atom_site_symmetry_multiplicity
 _atom_site_fract_x
 _atom_site_fract_y
 _atom_site_fract_z
 _atom_site_occupancy
  Pu  Pu0  1  0.666449  0.333553  0.000000  1
  Mn  Mn1  1  0.333627  0.666375  0.000000  1
  Cl  Cl2  1  0.637963  0.645554  0.227695  1
  Cl  Cl3  1  0.007498  0.361820  0.227754  1
  Cl  Cl4  1  0.354307  0.992467  0.227677  1
  Cl  Cl5  1  0.638179  0.992501  0.772245  1
  Cl  Cl6  1  0.007532  0.645692  0.772322  1
  Cl  Cl7  1  0.354447  0.362038  0.772305  1
