# generated using pymatgen
data_SmZr(Re2Si)4
_symmetry_space_group_name_H-M   'P 1'
_cell_length_a   7.41081240
_cell_length_b   7.41081300
_cell_length_c   4.12342600
_cell_angle_alpha   90.00000000
_cell_angle_beta   90.00000000
_cell_angle_gamma   91.43466614
_symmetry_Int_Tables_number   1
_chemical_formula_structural   SmZr(Re2Si)4
_chemical_formula_sum   'Sm1 Zr1 Re8 Si4'
_cell_volume   226.38816386
_cell_formula_units_Z   1
loop_
 _symmetry_equiv_pos_site_id
 _symmetry_equiv_pos_as_xyz
  1  'x, y, z'
loop_
 _atom_site_type_symbol
 _atom_site_label
 _atom_site_symmetry_multiplicity
 _atom_site_fract_x
 _atom_site_fract_y
 _atom_site_fract_z
 _atom_site_occupancy
  Sm  Sm0  1  0.000000  0.000000  0.500000  1
  Zr  Zr1  1  0.500000  0.500000  0.000000  1
  Re  Re2  1  0.652508  0.899692  0.000000  1
  Re  Re3  1  0.160346  0.585448  0.500000  1
  Re  Re4  1  0.100308  0.347492  0.000000  1
  Re  Re5  1  0.899692  0.652508  0.000000  1
  Re  Re6  1  0.414552  0.839654  0.500000  1
  Re  Re7  1  0.585448  0.160346  0.500000  1
  Re  Re8  1  0.347492  0.100308  0.000000  1
  Re  Re9  1  0.839654  0.414552  0.500000  1
  Si  Si10  1  0.213583  0.786417  0.000000  1
  Si  Si11  1  0.786417  0.213583  0.000000  1
  Si  Si12  1  0.702299  0.702299  0.500000  1
  Si  Si13  1  0.297701  0.297701  0.500000  1
