# generated using pymatgen
data_Ti5(GaSb)2
_symmetry_space_group_name_H-M   'P 1'
_cell_length_a   8.12210440
_cell_length_b   8.15511992
_cell_length_c   5.50363600
_cell_angle_alpha   90.00000000
_cell_angle_beta   90.00000000
_cell_angle_gamma   120.13455420
_symmetry_Int_Tables_number   1
_chemical_formula_structural   Ti5(GaSb)2
_chemical_formula_sum   'Ti10 Ga4 Sb4'
_cell_volume   315.27447702
_cell_formula_units_Z   2
loop_
 _symmetry_equiv_pos_site_id
 _symmetry_equiv_pos_as_xyz
  1  'x, y, z'
loop_
 _atom_site_type_symbol
 _atom_site_label
 _atom_site_symmetry_multiplicity
 _atom_site_fract_x
 _atom_site_fract_y
 _atom_site_fract_z
 _atom_site_occupancy
  Ti  Ti0  1  0.335319  0.667660  0.000000  1
  Ti  Ti1  1  0.659623  0.329811  0.500000  1
  Ti  Ti2  1  0.659623  0.329811  0.000000  1
  Ti  Ti3  1  0.335319  0.667660  0.500000  1
  Ti  Ti4  1  0.275161  0.011990  0.250000  1
  Ti  Ti5  1  0.275161  0.263171  0.750000  1
  Ti  Ti6  1  0.009069  0.735016  0.750000  1
  Ti  Ti7  1  0.009069  0.274053  0.250000  1
  Ti  Ti8  1  0.722627  0.724302  0.250000  1
  Ti  Ti9  1  0.722627  0.998325  0.750000  1
  Ga  Ga10  1  0.000470  0.000235  0.000000  1
  Ga  Ga11  1  0.000470  0.000235  0.500000  1
  Ga  Ga12  1  0.386077  0.386274  0.250000  1
  Ga  Ga13  1  0.386077  0.999802  0.750000  1
  Sb  Sb14  1  0.610514  0.001432  0.250000  1
  Sb  Sb15  1  0.610514  0.609083  0.750000  1
  Sb  Sb16  1  0.001138  0.385916  0.750000  1
  Sb  Sb17  1  0.001138  0.615222  0.250000  1
