# generated using pymatgen
data_NdIn2Br5
_symmetry_space_group_name_H-M   'P 1'
_cell_length_a   8.63552800
_cell_length_b   9.21595100
_cell_length_c   13.63589400
_cell_angle_alpha   90.00000000
_cell_angle_beta   90.00000000
_cell_angle_gamma   90.00000000
_symmetry_Int_Tables_number   1
_chemical_formula_structural   NdIn2Br5
_chemical_formula_sum   'Nd4 In8 Br20'
_cell_volume   1085.20720927
_cell_formula_units_Z   4
loop_
 _symmetry_equiv_pos_site_id
 _symmetry_equiv_pos_as_xyz
  1  'x, y, z'
loop_
 _atom_site_type_symbol
 _atom_site_label
 _atom_site_symmetry_multiplicity
 _atom_site_fract_x
 _atom_site_fract_y
 _atom_site_fract_z
 _atom_site_occupancy
  Nd  Nd0  1  0.923059  0.750000  0.505162  1
  Nd  Nd1  1  0.076941  0.250000  0.494838  1
  Nd  Nd2  1  0.423059  0.250000  0.994838  1
  Nd  Nd3  1  0.576941  0.750000  0.005162  1
  In  In4  1  0.950703  0.005282  0.826351  1
  In  In5  1  0.049297  0.994718  0.173649  1
  In  In6  1  0.450703  0.994718  0.673649  1
  In  In7  1  0.049297  0.505282  0.173649  1
  In  In8  1  0.549297  0.005282  0.326351  1
  In  In9  1  0.950703  0.494718  0.826351  1
  In  In10  1  0.549297  0.494718  0.326351  1
  In  In11  1  0.450703  0.505282  0.673649  1
  Br  Br12  1  0.122542  0.750000  0.681215  1
  Br  Br13  1  0.877458  0.250000  0.318785  1
  Br  Br14  1  0.622542  0.250000  0.818785  1
  Br  Br15  1  0.377458  0.750000  0.181215  1
  Br  Br16  1  0.834310  0.044604  0.576824  1
  Br  Br17  1  0.165690  0.955396  0.423176  1
  Br  Br18  1  0.334310  0.955396  0.923176  1
  Br  Br19  1  0.165690  0.544604  0.423176  1
  Br  Br20  1  0.665690  0.044604  0.076824  1
  Br  Br21  1  0.834310  0.455396  0.576824  1
  Br  Br22  1  0.665690  0.455396  0.076824  1
  Br  Br23  1  0.334310  0.544604  0.923176  1
  Br  Br24  1  0.576360  0.750000  0.506987  1
  Br  Br25  1  0.423640  0.250000  0.493013  1
  Br  Br26  1  0.076360  0.250000  0.993013  1
  Br  Br27  1  0.923640  0.750000  0.006987  1
  Br  Br28  1  0.661807  0.750000  0.795633  1
  Br  Br29  1  0.338193  0.250000  0.204367  1
  Br  Br30  1  0.161807  0.250000  0.704367  1
  Br  Br31  1  0.838193  0.750000  0.295633  1
