# generated using pymatgen
data_Na2AlCdAu2
_symmetry_space_group_name_H-M   'P 1'
_cell_length_a   4.22011100
_cell_length_b   7.59956907
_cell_length_c   8.18926600
_cell_angle_alpha   89.12752826
_cell_angle_beta   90.00000000
_cell_angle_gamma   90.00000000
_symmetry_Int_Tables_number   1
_chemical_formula_structural   Na2AlCdAu2
_chemical_formula_sum   'Na4 Al2 Cd2 Au4'
_cell_volume   262.60770541
_cell_formula_units_Z   2
loop_
 _symmetry_equiv_pos_site_id
 _symmetry_equiv_pos_as_xyz
  1  'x, y, z'
loop_
 _atom_site_type_symbol
 _atom_site_label
 _atom_site_symmetry_multiplicity
 _atom_site_fract_x
 _atom_site_fract_y
 _atom_site_fract_z
 _atom_site_occupancy
  Na  Na0  1  0.250000  0.015080  0.338719  1
  Na  Na1  1  0.250000  0.522722  0.168187  1
  Na  Na2  1  0.750000  0.984920  0.661281  1
  Na  Na3  1  0.750000  0.477278  0.831813  1
  Al  Al4  1  0.250000  0.636417  0.558870  1
  Al  Al5  1  0.750000  0.363583  0.441130  1
  Cd  Cd6  1  0.750000  0.854474  0.070019  1
  Cd  Cd7  1  0.250000  0.145526  0.929981  1
  Au  Au8  1  0.250000  0.770658  0.842289  1
  Au  Au9  1  0.750000  0.229342  0.157711  1
  Au  Au10  1  0.750000  0.702660  0.391053  1
  Au  Au11  1  0.250000  0.297340  0.608947  1
