# generated using pymatgen
data_Ac3CuSiS7
_symmetry_space_group_name_H-M   'P 1'
_cell_length_a   10.68088500
_cell_length_b   10.68073233
_cell_length_c   5.94987700
_cell_angle_alpha   90.00000000
_cell_angle_beta   90.00000000
_cell_angle_gamma   120.00050988
_symmetry_Int_Tables_number   1
_chemical_formula_structural   Ac3CuSiS7
_chemical_formula_sum   'Ac6 Cu2 Si2 S14'
_cell_volume   587.82040596
_cell_formula_units_Z   2
loop_
 _symmetry_equiv_pos_site_id
 _symmetry_equiv_pos_as_xyz
  1  'x, y, z'
loop_
 _atom_site_type_symbol
 _atom_site_label
 _atom_site_symmetry_multiplicity
 _atom_site_fract_x
 _atom_site_fract_y
 _atom_site_fract_z
 _atom_site_occupancy
  Ac  Ac0  1  0.122992  0.357123  0.247790  1
  Ac  Ac1  1  0.234131  0.877011  0.247795  1
  Ac  Ac2  1  0.642882  0.765867  0.247789  1
  Ac  Ac3  1  0.877009  0.642878  0.747792  1
  Ac  Ac4  1  0.765868  0.122988  0.747796  1
  Ac  Ac5  1  0.357118  0.234134  0.747790  1
  Cu  Cu6  1  0.000001  0.999998  0.273899  1
  Cu  Cu7  1  0.999999  0.000002  0.773899  1
  Si  Si8  1  0.666660  0.333332  0.164991  1
  Si  Si9  1  0.333339  0.666667  0.664992  1
  S  S10  1  0.528316  0.120891  0.030208  1
  S  S11  1  0.592570  0.471684  0.030219  1
  S  S12  1  0.879108  0.407431  0.030231  1
  S  S13  1  0.333346  0.666673  0.021366  1
  S  S14  1  0.917105  0.757072  0.260235  1
  S  S15  1  0.839966  0.082901  0.260238  1
  S  S16  1  0.242923  0.160028  0.260234  1
  S  S17  1  0.407429  0.528316  0.530219  1
  S  S18  1  0.471684  0.879109  0.530210  1
  S  S19  1  0.120892  0.592569  0.530231  1
  S  S20  1  0.666654  0.333327  0.521365  1
  S  S21  1  0.082895  0.242928  0.760236  1
  S  S22  1  0.757076  0.839972  0.760234  1
  S  S23  1  0.160035  0.917099  0.760238  1
