# generated using pymatgen
data_Y3In2HgPdPt2
_symmetry_space_group_name_H-M   'P 1'
_cell_length_a   7.82659900
_cell_length_b   7.72920089
_cell_length_c   3.81424700
_cell_angle_alpha   90.00000000
_cell_angle_beta   90.00000000
_cell_angle_gamma   120.41772679
_symmetry_Int_Tables_number   1
_chemical_formula_structural   Y3In2HgPdPt2
_chemical_formula_sum   'Y3 In2 Hg1 Pd1 Pt2'
_cell_volume   198.97733861
_cell_formula_units_Z   1
loop_
 _symmetry_equiv_pos_site_id
 _symmetry_equiv_pos_as_xyz
  1  'x, y, z'
loop_
 _atom_site_type_symbol
 _atom_site_label
 _atom_site_symmetry_multiplicity
 _atom_site_fract_x
 _atom_site_fract_y
 _atom_site_fract_z
 _atom_site_occupancy
  Y  Y0  1  0.413496  0.000000  0.500000  1
  Y  Y1  1  0.994381  0.397275  0.500000  1
  Y  Y2  1  0.597107  0.602725  0.500000  1
  In  In3  1  0.262804  0.258997  0.000000  1
  In  In4  1  0.003806  0.741003  0.000000  1
  Hg  Hg5  1  0.734643  0.000000  0.000000  1
  Pd  Pd6  1  0.007949  0.000000  0.500000  1
  Pt  Pt7  1  0.664347  0.342878  0.000000  1
  Pt  Pt8  1  0.321467  0.657122  0.000000  1
