# generated using pymatgen
data_Er5Tm7(TcRh)2
_symmetry_space_group_name_H-M   'P 1'
_cell_length_a   6.26418860
_cell_length_b   7.28854724
_cell_length_c   9.04970670
_cell_angle_alpha   90.01318938
_cell_angle_beta   90.04309577
_cell_angle_gamma   90.02610306
_symmetry_Int_Tables_number   1
_chemical_formula_structural   Er5Tm7(TcRh)2
_chemical_formula_sum   'Er5 Tm7 Tc2 Rh2'
_cell_volume   413.18079085
_cell_formula_units_Z   1
loop_
 _symmetry_equiv_pos_site_id
 _symmetry_equiv_pos_as_xyz
  1  'x, y, z'
loop_
 _atom_site_type_symbol
 _atom_site_label
 _atom_site_symmetry_multiplicity
 _atom_site_fract_x
 _atom_site_fract_y
 _atom_site_fract_z
 _atom_site_occupancy
  Er  Er0  1  0.669474  0.176014  0.435630  1
  Er  Er1  1  0.868822  0.959823  0.750429  1
  Er  Er2  1  0.369246  0.540273  0.249785  1
  Er  Er3  1  0.628516  0.459646  0.750216  1
  Er  Er4  1  0.129069  0.040026  0.249623  1
  Tm  Tm5  1  0.669397  0.176071  0.064210  1
  Tm  Tm6  1  0.169306  0.324102  0.935596  1
  Tm  Tm7  1  0.834066  0.679154  0.438830  1
  Tm  Tm8  1  0.333597  0.820402  0.561355  1
  Tm  Tm9  1  0.334005  0.820716  0.938735  1
  Tm  Tm10  1  0.834206  0.679079  0.061344  1
  Tm  Tm11  1  0.169120  0.324263  0.564548  1
  Tc  Tc12  1  0.037075  0.612781  0.750119  1
  Tc  Tc13  1  0.537858  0.887702  0.249566  1
  Rh  Rh14  1  0.457420  0.114176  0.750199  1
  Rh  Rh15  1  0.958821  0.385772  0.249815  1
