# generated using pymatgen
data_Dy2Tm2OsWC4
_symmetry_space_group_name_H-M   'P 1'
_cell_length_a   5.07137900
_cell_length_b   6.57890361
_cell_length_c   9.82665164
_cell_angle_alpha   89.30053107
_cell_angle_beta   90.00000000
_cell_angle_gamma   90.00000000
_symmetry_Int_Tables_number   1
_chemical_formula_structural   Dy2Tm2OsWC4
_chemical_formula_sum   'Dy4 Tm4 Os2 W2 C8'
_cell_volume   327.83309060
_cell_formula_units_Z   2
loop_
 _symmetry_equiv_pos_site_id
 _symmetry_equiv_pos_as_xyz
  1  'x, y, z'
loop_
 _atom_site_type_symbol
 _atom_site_label
 _atom_site_symmetry_multiplicity
 _atom_site_fract_x
 _atom_site_fract_y
 _atom_site_fract_z
 _atom_site_occupancy
  Dy  Dy0  1  0.250000  0.540530  0.217519  1
  Dy  Dy1  1  0.750000  0.459470  0.782481  1
  Dy  Dy2  1  0.750000  0.967331  0.715447  1
  Dy  Dy3  1  0.250000  0.032669  0.284553  1
  Tm  Tm4  1  0.250000  0.674767  0.558054  1
  Tm  Tm5  1  0.750000  0.325233  0.441946  1
  Tm  Tm6  1  0.750000  0.826425  0.058477  1
  Tm  Tm7  1  0.250000  0.173575  0.941523  1
  Os  Os8  1  0.750000  0.779802  0.367133  1
  Os  Os9  1  0.250000  0.220198  0.632867  1
  W  W10  1  0.250000  0.716227  0.868328  1
  W  W11  1  0.750000  0.283773  0.131672  1
  C  C12  1  0.250000  0.448579  0.758985  1
  C  C13  1  0.750000  0.551421  0.241015  1
  C  C14  1  0.750000  0.048056  0.260649  1
  C  C15  1  0.250000  0.951944  0.739351  1
  C  C16  1  0.250000  0.828787  0.053696  1
  C  C17  1  0.750000  0.171213  0.946304  1
  C  C18  1  0.750000  0.672620  0.549107  1
  C  C19  1  0.250000  0.327380  0.450893  1
