# generated using pymatgen
data_HoTm3Co3Si4Ru
_symmetry_space_group_name_H-M   'P 1'
_cell_length_a   4.19888300
_cell_length_b   6.82241521
_cell_length_c   7.00336317
_cell_angle_alpha   90.30315484
_cell_angle_beta   90.00000000
_cell_angle_gamma   90.00000000
_symmetry_Int_Tables_number   1
_chemical_formula_structural   HoTm3Co3Si4Ru
_chemical_formula_sum   'Ho1 Tm3 Co3 Si4 Ru1'
_cell_volume   200.61919750
_cell_formula_units_Z   1
loop_
 _symmetry_equiv_pos_site_id
 _symmetry_equiv_pos_as_xyz
  1  'x, y, z'
loop_
 _atom_site_type_symbol
 _atom_site_label
 _atom_site_symmetry_multiplicity
 _atom_site_fract_x
 _atom_site_fract_y
 _atom_site_fract_z
 _atom_site_occupancy
  Ho  Ho0  1  0.750000  0.011959  0.192940  1
  Tm  Tm1  1  0.250000  0.985740  0.803652  1
  Tm  Tm2  1  0.250000  0.482100  0.687338  1
  Tm  Tm3  1  0.750000  0.511021  0.313667  1
  Co  Co4  1  0.750000  0.851723  0.569654  1
  Co  Co5  1  0.250000  0.155375  0.436669  1
  Co  Co6  1  0.750000  0.350432  0.932324  1
  Si  Si7  1  0.250000  0.298757  0.101912  1
  Si  Si8  1  0.750000  0.696104  0.887981  1
  Si  Si9  1  0.250000  0.804485  0.400332  1
  Si  Si10  1  0.750000  0.196859  0.607152  1
  Ru  Ru11  1  0.250000  0.655445  0.066380  1
