# generated using pymatgen
data_Y3MgZn2Si2Ag
_symmetry_space_group_name_H-M   'P 1'
_cell_length_a   6.97942465
_cell_length_b   7.01217329
_cell_length_c   4.32971600
_cell_angle_alpha   90.00000000
_cell_angle_beta   90.00000000
_cell_angle_gamma   120.15533880
_symmetry_Int_Tables_number   1
_chemical_formula_structural   Y3MgZn2Si2Ag
_chemical_formula_sum   'Y3 Mg1 Zn2 Si2 Ag1'
_cell_volume   183.22316260
_cell_formula_units_Z   1
loop_
 _symmetry_equiv_pos_site_id
 _symmetry_equiv_pos_as_xyz
  1  'x, y, z'
loop_
 _atom_site_type_symbol
 _atom_site_label
 _atom_site_symmetry_multiplicity
 _atom_site_fract_x
 _atom_site_fract_y
 _atom_site_fract_z
 _atom_site_occupancy
  Y  Y0  1  0.428994  0.430892  0.500000  1
  Y  Y1  1  0.000000  0.579380  0.500000  1
  Y  Y2  1  0.571006  0.001898  0.500000  1
  Mg  Mg3  1  0.000000  0.235149  0.000000  1
  Zn  Zn4  1  0.748052  0.746931  0.000000  1
  Zn  Zn5  1  0.251948  0.998878  0.000000  1
  Si  Si6  1  0.662057  0.336939  0.000000  1
  Si  Si7  1  0.337943  0.674884  0.000000  1
  Ag  Ag8  1  0.000000  0.995049  0.500000  1
