# generated using pymatgen
data_Tb11Mg(In2Ru)4
_symmetry_space_group_name_H-M   'P 1'
_cell_length_a   3.81925600
_cell_length_b   12.93791929
_cell_length_c   12.93791928
_cell_angle_alpha   112.47222194
_cell_angle_beta   90.00000000
_cell_angle_gamma   90.00000000
_symmetry_Int_Tables_number   1
_chemical_formula_structural   Tb11Mg(In2Ru)4
_chemical_formula_sum   'Tb11 Mg1 In8 Ru4'
_cell_volume   590.75872529
_cell_formula_units_Z   1
loop_
 _symmetry_equiv_pos_site_id
 _symmetry_equiv_pos_as_xyz
  1  'x, y, z'
loop_
 _atom_site_type_symbol
 _atom_site_label
 _atom_site_symmetry_multiplicity
 _atom_site_fract_x
 _atom_site_fract_y
 _atom_site_fract_z
 _atom_site_occupancy
  Tb  Tb0  1  0.000000  0.912314  0.580759  1
  Tb  Tb1  1  0.000000  0.087686  0.419241  1
  Tb  Tb2  1  0.000000  0.580759  0.912314  1
  Tb  Tb3  1  0.000000  0.419241  0.087686  1
  Tb  Tb4  1  0.000000  0.162529  0.837471  1
  Tb  Tb5  1  0.000000  0.837471  0.162529  1
  Tb  Tb6  1  0.000000  0.366970  0.633030  1
  Tb  Tb7  1  0.000000  0.633030  0.366970  1
  Tb  Tb8  1  0.000000  0.698923  0.698923  1
  Tb  Tb9  1  0.000000  0.301077  0.301077  1
  Tb  Tb10  1  0.000000  0.000000  0.000000  1
  Mg  Mg11  1  0.500000  0.500000  0.500000  1
  In  In12  1  0.500000  0.152461  0.631609  1
  In  In13  1  0.500000  0.847539  0.368391  1
  In  In14  1  0.500000  0.631609  0.152461  1
  In  In15  1  0.500000  0.368391  0.847539  1
  In  In16  1  0.500000  0.928463  0.782146  1
  In  In17  1  0.500000  0.071537  0.217854  1
  In  In18  1  0.500000  0.782146  0.928463  1
  In  In19  1  0.500000  0.217854  0.071537  1
  Ru  Ru20  1  0.500000  0.736457  0.546128  1
  Ru  Ru21  1  0.500000  0.263543  0.453872  1
  Ru  Ru22  1  0.500000  0.546128  0.736457  1
  Ru  Ru23  1  0.500000  0.453872  0.263543  1
