# generated using pymatgen
data_Ca3Nd17(InGa5)2
_symmetry_space_group_name_H-M   'P 1'
_cell_length_a   7.99950200
_cell_length_b   7.99950200
_cell_length_c   14.77031000
_cell_angle_alpha   90.00000000
_cell_angle_beta   90.00000000
_cell_angle_gamma   90.00000000
_symmetry_Int_Tables_number   1
_chemical_formula_structural   Ca3Nd17(InGa5)2
_chemical_formula_sum   'Ca3 Nd17 In2 Ga10'
_cell_volume   945.18215383
_cell_formula_units_Z   1
loop_
 _symmetry_equiv_pos_site_id
 _symmetry_equiv_pos_as_xyz
  1  'x, y, z'
loop_
 _atom_site_type_symbol
 _atom_site_label
 _atom_site_symmetry_multiplicity
 _atom_site_fract_x
 _atom_site_fract_y
 _atom_site_fract_z
 _atom_site_occupancy
  Ca  Ca0  1  0.000000  0.500000  0.744720  1
  Ca  Ca1  1  0.000000  0.500000  0.238309  1
  Ca  Ca2  1  0.500000  0.000000  0.247429  1
  Nd  Nd3  1  0.822189  0.834788  0.608954  1
  Nd  Nd4  1  0.174770  0.832020  0.099682  1
  Nd  Nd5  1  0.167162  0.825857  0.390833  1
  Nd  Nd6  1  0.832838  0.174143  0.390833  1
  Nd  Nd7  1  0.674143  0.667162  0.390833  1
  Nd  Nd8  1  0.665212  0.322189  0.608954  1
  Nd  Nd9  1  0.334788  0.677811  0.608954  1
  Nd  Nd10  1  0.667980  0.674770  0.099682  1
  Nd  Nd11  1  0.676788  0.339465  0.899148  1
  Nd  Nd12  1  0.839465  0.823212  0.899148  1
  Nd  Nd13  1  0.325857  0.332838  0.390833  1
  Nd  Nd14  1  0.177811  0.165212  0.608954  1
  Nd  Nd15  1  0.825230  0.167980  0.099682  1
  Nd  Nd16  1  0.323212  0.660535  0.899148  1
  Nd  Nd17  1  0.332020  0.325230  0.099682  1
  Nd  Nd18  1  0.160535  0.176788  0.899148  1
  Nd  Nd19  1  0.500000  0.000000  0.786365  1
  In  In20  1  0.000000  0.500000  0.503241  1
  In  In21  1  0.500000  0.000000  0.492408  1
  Ga  Ga22  1  0.617577  0.382560  0.245582  1
  Ga  Ga23  1  0.120262  0.882525  0.752004  1
  Ga  Ga24  1  0.382525  0.379738  0.752004  1
  Ga  Ga25  1  0.382423  0.617440  0.245582  1
  Ga  Ga26  1  0.882560  0.882423  0.245582  1
  Ga  Ga27  1  0.617475  0.620262  0.752004  1
  Ga  Ga28  1  0.879738  0.117475  0.752004  1
  Ga  Ga29  1  0.500000  0.000000  0.000446  1
  Ga  Ga30  1  0.117440  0.117577  0.245582  1
  Ga  Ga31  1  0.000000  0.500000  0.002276  1
