# generated using pymatgen
data_Sc12Pt3Br16
_symmetry_space_group_name_H-M   'P 1'
_cell_length_a   9.37756261
_cell_length_b   10.91667395
_cell_length_c   11.54487439
_cell_angle_alpha   116.64785959
_cell_angle_beta   102.51060527
_cell_angle_gamma   102.05280186
_symmetry_Int_Tables_number   1
_chemical_formula_structural   Sc12Pt3Br16
_chemical_formula_sum   'Sc12 Pt3 Br16'
_cell_volume   965.76935915
_cell_formula_units_Z   1
loop_
 _symmetry_equiv_pos_site_id
 _symmetry_equiv_pos_as_xyz
  1  'x, y, z'
loop_
 _atom_site_type_symbol
 _atom_site_label
 _atom_site_symmetry_multiplicity
 _atom_site_fract_x
 _atom_site_fract_y
 _atom_site_fract_z
 _atom_site_occupancy
  Sc  Sc0  1  0.081161  0.255352  0.349479  1
  Sc  Sc1  1  0.918839  0.744648  0.650521  1
  Sc  Sc2  1  0.777394  0.537468  0.319014  1
  Sc  Sc3  1  0.222606  0.462532  0.680986  1
  Sc  Sc4  1  0.282295  0.745485  0.650546  1
  Sc  Sc5  1  0.717705  0.254515  0.349454  1
  Sc  Sc6  1  0.140825  0.537313  0.319620  1
  Sc  Sc7  1  0.859175  0.462687  0.680380  1
  Sc  Sc8  1  0.398000  0.346347  0.255322  1
  Sc  Sc9  1  0.602000  0.653653  0.744678  1
  Sc  Sc10  1  0.454514  0.292238  0.521930  1
  Sc  Sc11  1  0.545486  0.707762  0.478070  1
  Pt  Pt12  1  0.000000  0.500000  0.500000  1
  Pt  Pt13  1  0.347771  0.500321  0.498476  1
  Pt  Pt14  1  0.652230  0.499679  0.501524  1
  Br  Br15  1  0.401509  0.746942  0.892403  1
  Br  Br16  1  0.598491  0.253058  0.107597  1
  Br  Br17  1  0.191213  0.971611  0.786236  1
  Br  Br18  1  0.808787  0.028389  0.213764  1
  Br  Br19  1  0.333683  0.081451  0.242491  1
  Br  Br20  1  0.666317  0.918549  0.757509  1
  Br  Br21  1  0.554601  0.436497  0.808136  1
  Br  Br22  1  0.445399  0.563503  0.191864  1
  Br  Br23  1  0.313223  0.833874  0.461944  1
  Br  Br24  1  0.686777  0.166126  0.538056  1
  Br  Br25  1  0.167507  0.165097  0.533308  1
  Br  Br26  1  0.832493  0.834903  0.466692  1
  Br  Br27  1  0.926287  0.578753  0.158917  1
  Br  Br28  1  0.073713  0.421247  0.841083  1
  Br  Br29  1  0.925137  0.745443  0.892607  1
  Br  Br30  1  0.074863  0.254557  0.107393  1
