# generated using pymatgen
data_Cs4EuBr6
_symmetry_space_group_name_H-M   'P 1'
_cell_length_a   10.00763374
_cell_length_b   10.00763405
_cell_length_c   10.00763344
_cell_angle_alpha   89.16976488
_cell_angle_beta   89.16976185
_cell_angle_gamma   89.16976471
_symmetry_Int_Tables_number   1
_chemical_formula_structural   Cs4EuBr6
_chemical_formula_sum   'Cs8 Eu2 Br12'
_cell_volume   1001.97921603
_cell_formula_units_Z   2
loop_
 _symmetry_equiv_pos_site_id
 _symmetry_equiv_pos_as_xyz
  1  'x, y, z'
loop_
 _atom_site_type_symbol
 _atom_site_label
 _atom_site_symmetry_multiplicity
 _atom_site_fract_x
 _atom_site_fract_y
 _atom_site_fract_z
 _atom_site_occupancy
  Cs  Cs0  1  0.250000  0.250000  0.250000  1
  Cs  Cs1  1  0.750000  0.750000  0.750000  1
  Cs  Cs2  1  0.250000  0.624770  0.875230  1
  Cs  Cs3  1  0.875230  0.250000  0.624770  1
  Cs  Cs4  1  0.624770  0.875230  0.250000  1
  Cs  Cs5  1  0.750000  0.375230  0.124770  1
  Cs  Cs6  1  0.124770  0.750000  0.375230  1
  Cs  Cs7  1  0.375230  0.124770  0.750000  1
  Eu  Eu8  1  0.000000  0.000000  0.000000  1
  Eu  Eu9  1  0.500000  0.500000  0.500000  1
  Br  Br10  1  0.560064  0.210875  0.428019  1
  Br  Br11  1  0.428019  0.560064  0.210875  1
  Br  Br12  1  0.210875  0.428019  0.560064  1
  Br  Br13  1  0.939936  0.071981  0.289125  1
  Br  Br14  1  0.289125  0.939936  0.071981  1
  Br  Br15  1  0.071981  0.289125  0.939936  1
  Br  Br16  1  0.439936  0.789125  0.571981  1
  Br  Br17  1  0.571981  0.439936  0.789125  1
  Br  Br18  1  0.789125  0.571981  0.439936  1
  Br  Br19  1  0.060064  0.928019  0.710875  1
  Br  Br20  1  0.928019  0.710875  0.060064  1
  Br  Br21  1  0.710875  0.060064  0.928019  1
