# generated using pymatgen
data_Ho4Pd3PtF28
_symmetry_space_group_name_H-M   'P 1'
_cell_length_a   5.51641433
_cell_length_b   8.82425751
_cell_length_c   11.91616271
_cell_angle_alpha   62.54371106
_cell_angle_beta   90.01127657
_cell_angle_gamma   89.97155215
_symmetry_Int_Tables_number   1
_chemical_formula_structural   Ho4Pd3PtF28
_chemical_formula_sum   'Ho4 Pd3 Pt1 F28'
_cell_volume   514.72185931
_cell_formula_units_Z   1
loop_
 _symmetry_equiv_pos_site_id
 _symmetry_equiv_pos_as_xyz
  1  'x, y, z'
loop_
 _atom_site_type_symbol
 _atom_site_label
 _atom_site_symmetry_multiplicity
 _atom_site_fract_x
 _atom_site_fract_y
 _atom_site_fract_z
 _atom_site_occupancy
  Ho  Ho0  1  0.762150  0.813371  0.764329  1
  Ho  Ho1  1  0.261275  0.186107  0.736337  1
  Ho  Ho2  1  0.237799  0.186304  0.234640  1
  Ho  Ho3  1  0.738139  0.814567  0.264013  1
  Pd  Pd4  1  0.758737  0.272312  0.956911  1
  Pd  Pd5  1  0.259335  0.727546  0.543182  1
  Pd  Pd6  1  0.241007  0.727738  0.043058  1
  Pt  Pt7  1  0.741048  0.272666  0.456762  1
  F  F8  1  0.434725  0.702482  0.916399  1
  F  F9  1  0.936129  0.297749  0.585082  1
  F  F10  1  0.565207  0.297474  0.083662  1
  F  F11  1  0.065317  0.702516  0.416376  1
  F  F12  1  0.437879  0.278083  0.542372  1
  F  F13  1  0.940466  0.721836  0.958285  1
  F  F14  1  0.559715  0.722003  0.458058  1
  F  F15  1  0.059526  0.278230  0.041421  1
  F  F16  1  0.775327  0.520575  0.858692  1
  F  F17  1  0.276591  0.479252  0.641885  1
  F  F18  1  0.224489  0.479455  0.141130  1
  F  F19  1  0.725458  0.523211  0.357832  1
  F  F20  1  0.753910  0.024710  0.049227  1
  F  F21  1  0.253730  0.975319  0.450522  1
  F  F22  1  0.246164  0.975384  0.950894  1
  F  F23  1  0.745725  0.022639  0.550145  1
  F  F24  1  0.966751  0.723790  0.635855  1
  F  F25  1  0.465847  0.275240  0.864811  1
  F  F26  1  0.036653  0.274929  0.363881  1
  F  F27  1  0.533929  0.724724  0.135360  1
  F  F28  1  0.052705  0.745852  0.175431  1
  F  F29  1  0.551517  0.253868  0.323485  1
  F  F30  1  0.946848  0.254158  0.824748  1
  F  F31  1  0.447088  0.745382  0.675839  1
  F  F32  1  0.413899  0.969804  0.232017  1
  F  F33  1  0.913871  0.030562  0.267639  1
  F  F34  1  0.585589  0.030100  0.767392  1
  F  F35  1  0.085454  0.970059  0.732331  1
