# generated using pymatgen
data_Ho3IrI3
_symmetry_space_group_name_H-M   'P 1'
_cell_length_a   4.27357200
_cell_length_b   8.80552105
_cell_length_c   12.25261558
_cell_angle_alpha   86.36726298
_cell_angle_beta   90.00000000
_cell_angle_gamma   90.00000000
_symmetry_Int_Tables_number   1
_chemical_formula_structural   Ho3IrI3
_chemical_formula_sum   'Ho6 Ir2 I6'
_cell_volume   460.15207271
_cell_formula_units_Z   2
loop_
 _symmetry_equiv_pos_site_id
 _symmetry_equiv_pos_as_xyz
  1  'x, y, z'
loop_
 _atom_site_type_symbol
 _atom_site_label
 _atom_site_symmetry_multiplicity
 _atom_site_fract_x
 _atom_site_fract_y
 _atom_site_fract_z
 _atom_site_occupancy
  Ho  Ho0  1  0.750000  0.140489  0.129824  1
  Ho  Ho1  1  0.250000  0.859511  0.870176  1
  Ho  Ho2  1  0.750000  0.096540  0.684958  1
  Ho  Ho3  1  0.250000  0.903460  0.315042  1
  Ho  Ho4  1  0.250000  0.248861  0.900047  1
  Ho  Ho5  1  0.750000  0.751139  0.099953  1
  Ir  Ir6  1  0.750000  0.048653  0.908130  1
  Ir  Ir7  1  0.250000  0.951347  0.091870  1
  I  I8  1  0.250000  0.428103  0.133429  1
  I  I9  1  0.750000  0.571897  0.866571  1
  I  I10  1  0.250000  0.350250  0.638157  1
  I  I11  1  0.750000  0.649750  0.361843  1
  I  I12  1  0.750000  0.142318  0.394563  1
  I  I13  1  0.250000  0.857682  0.605437  1
