# generated using pymatgen
data_Nd8YLuPb6
_symmetry_space_group_name_H-M   'P 1'
_cell_length_a   9.30875700
_cell_length_b   9.30875672
_cell_length_c   6.82911800
_cell_angle_alpha   90.00000000
_cell_angle_beta   90.00000000
_cell_angle_gamma   119.99999746
_symmetry_Int_Tables_number   1
_chemical_formula_structural   Nd8YLuPb6
_chemical_formula_sum   'Nd8 Y1 Lu1 Pb6'
_cell_volume   512.48202026
_cell_formula_units_Z   1
loop_
 _symmetry_equiv_pos_site_id
 _symmetry_equiv_pos_as_xyz
  1  'x, y, z'
loop_
 _atom_site_type_symbol
 _atom_site_label
 _atom_site_symmetry_multiplicity
 _atom_site_fract_x
 _atom_site_fract_y
 _atom_site_fract_z
 _atom_site_occupancy
  Nd  Nd0  1  0.333333  0.666667  0.500000  1
  Nd  Nd1  1  0.666667  0.333333  0.500000  1
  Nd  Nd2  1  0.760039  0.760248  0.751761  1
  Nd  Nd3  1  0.239752  0.999791  0.751761  1
  Nd  Nd4  1  0.000209  0.239961  0.751761  1
  Nd  Nd5  1  0.239752  0.239961  0.248239  1
  Nd  Nd6  1  0.760039  0.999791  0.248239  1
  Nd  Nd7  1  0.000209  0.760248  0.248239  1
  Y  Y8  1  0.666667  0.333333  0.000000  1
  Lu  Lu9  1  0.333333  0.666667  0.000000  1
  Pb  Pb10  1  0.396020  0.397075  0.758037  1
  Pb  Pb11  1  0.602925  0.998945  0.758037  1
  Pb  Pb12  1  0.001055  0.603980  0.758037  1
  Pb  Pb13  1  0.602925  0.603980  0.241963  1
  Pb  Pb14  1  0.396020  0.998945  0.241963  1
  Pb  Pb15  1  0.001055  0.397075  0.241963  1
