# generated using pymatgen
data_PrHo7Sc12Si15Tc
_symmetry_space_group_name_H-M   'P 1'
_cell_length_a   7.08996086
_cell_length_b   7.45321764
_cell_length_c   13.95562834
_cell_angle_alpha   90.09823907
_cell_angle_beta   90.04716923
_cell_angle_gamma   90.27283183
_symmetry_Int_Tables_number   1
_chemical_formula_structural   PrHo7Sc12Si15Tc
_chemical_formula_sum   'Pr1 Ho7 Sc12 Si15 Tc1'
_cell_volume   737.44786622
_cell_formula_units_Z   1
loop_
 _symmetry_equiv_pos_site_id
 _symmetry_equiv_pos_as_xyz
  1  'x, y, z'
loop_
 _atom_site_type_symbol
 _atom_site_label
 _atom_site_symmetry_multiplicity
 _atom_site_fract_x
 _atom_site_fract_y
 _atom_site_fract_z
 _atom_site_occupancy
  Pr  Pr0  1  0.010483  0.176398  0.093826  1
  Ho  Ho1  1  0.990932  0.826582  0.902635  1
  Ho  Ho2  1  0.489883  0.676426  0.903296  1
  Ho  Ho3  1  0.991109  0.826866  0.596439  1
  Ho  Ho4  1  0.510334  0.323330  0.095728  1
  Ho  Ho5  1  0.011589  0.179218  0.403718  1
  Ho  Ho6  1  0.510937  0.322656  0.405162  1
  Ho  Ho7  1  0.488995  0.676473  0.595994  1
  Sc  Sc8  1  0.156535  0.499552  0.749922  1
  Sc  Sc9  1  0.838464  0.495516  0.250839  1
  Sc  Sc10  1  0.339174  0.005145  0.250864  1
  Sc  Sc11  1  0.668388  0.998589  0.750016  1
  Sc  Sc12  1  0.315725  0.171188  0.628230  1
  Sc  Sc13  1  0.671198  0.826008  0.374660  1
  Sc  Sc14  1  0.171975  0.677553  0.374576  1
  Sc  Sc15  1  0.671185  0.825221  0.126568  1
  Sc  Sc16  1  0.837930  0.319257  0.627671  1
  Sc  Sc17  1  0.317110  0.171097  0.870935  1
  Sc  Sc18  1  0.836149  0.321321  0.871681  1
  Sc  Sc19  1  0.172157  0.677221  0.126358  1
  Si  Si20  1  0.967918  0.880938  0.251641  1
  Si  Si21  1  0.470404  0.613169  0.250501  1
  Si  Si22  1  0.529029  0.389192  0.749575  1
  Si  Si23  1  0.286537  0.866739  0.749451  1
  Si  Si24  1  0.709982  0.128658  0.252470  1
  Si  Si25  1  0.217252  0.372605  0.252249  1
  Si  Si26  1  0.780056  0.628922  0.749735  1
  Si  Si27  1  0.160205  0.468490  0.536996  1
  Si  Si28  1  0.844565  0.535890  0.461656  1
  Si  Si29  1  0.343916  0.965898  0.460039  1
  Si  Si30  1  0.842507  0.540973  0.036965  1
  Si  Si31  1  0.655205  0.033777  0.539189  1
  Si  Si32  1  0.161137  0.472965  0.961312  1
  Si  Si33  1  0.653826  0.032879  0.959809  1
  Si  Si34  1  0.349392  0.962547  0.038963  1
  Tc  Tc35  1  0.027815  0.110742  0.750330  1
