# generated using pymatgen
data_Eu8Tm12Si15Se
_symmetry_space_group_name_H-M   'P 1'
_cell_length_a   7.59725716
_cell_length_b   7.76595228
_cell_length_c   14.80357200
_cell_angle_alpha   89.68368922
_cell_angle_beta   86.44962044
_cell_angle_gamma   89.85082637
_symmetry_Int_Tables_number   1
_chemical_formula_structural   Eu8Tm12Si15Se
_chemical_formula_sum   'Eu8 Tm12 Si15 Se1'
_cell_volume   871.71798083
_cell_formula_units_Z   1
loop_
 _symmetry_equiv_pos_site_id
 _symmetry_equiv_pos_as_xyz
  1  'x, y, z'
loop_
 _atom_site_type_symbol
 _atom_site_label
 _atom_site_symmetry_multiplicity
 _atom_site_fract_x
 _atom_site_fract_y
 _atom_site_fract_z
 _atom_site_occupancy
  Eu  Eu0  1  0.016157  0.177177  0.096179  1
  Eu  Eu1  1  0.984287  0.825474  0.903537  1
  Eu  Eu2  1  0.485439  0.677773  0.903094  1
  Eu  Eu3  1  0.005877  0.823985  0.596962  1
  Eu  Eu4  1  0.515956  0.322966  0.096813  1
  Eu  Eu5  1  0.988249  0.174362  0.401014  1
  Eu  Eu6  1  0.496329  0.312333  0.401407  1
  Eu  Eu7  1  0.513071  0.684701  0.598018  1
  Tm  Tm8  1  0.175338  0.511150  0.752820  1
  Tm  Tm9  1  0.824030  0.490847  0.254325  1
  Tm  Tm10  1  0.322300  0.006843  0.253731  1
  Tm  Tm11  1  0.678492  0.993712  0.746685  1
  Tm  Tm12  1  0.358900  0.157959  0.618778  1
  Tm  Tm13  1  0.643323  0.835962  0.382074  1
  Tm  Tm14  1  0.140421  0.663525  0.382063  1
  Tm  Tm15  1  0.669162  0.821632  0.120573  1
  Tm  Tm16  1  0.851539  0.338645  0.615686  1
  Tm  Tm17  1  0.330149  0.177492  0.878323  1
  Tm  Tm18  1  0.829558  0.323872  0.878541  1
  Tm  Tm19  1  0.170059  0.676162  0.120744  1
  Si  Si20  1  0.051934  0.121500  0.750643  1
  Si  Si21  1  0.948852  0.879941  0.246417  1
  Si  Si22  1  0.447569  0.617481  0.248230  1
  Si  Si23  1  0.550695  0.383099  0.750483  1
  Si  Si24  1  0.286270  0.887383  0.750742  1
  Si  Si25  1  0.713956  0.109772  0.248112  1
  Si  Si26  1  0.213667  0.387908  0.250225  1
  Si  Si27  1  0.789767  0.612346  0.750403  1
  Si  Si28  1  0.797928  0.538177  0.452306  1
  Si  Si29  1  0.301110  0.958526  0.454767  1
  Si  Si30  1  0.856283  0.531520  0.041497  1
  Si  Si31  1  0.695453  0.041785  0.547136  1
  Si  Si32  1  0.143677  0.469995  0.957632  1
  Si  Si33  1  0.642803  0.032599  0.957843  1
  Si  Si34  1  0.355868  0.968882  0.041721  1
  Se  Se35  1  0.205530  0.462513  0.550479  1
