# generated using pymatgen
data_HoSn6IrRu3
_symmetry_space_group_name_H-M   'P 1'
_cell_length_a   6.96723451
_cell_length_b   6.96726671
_cell_length_c   6.96792992
_cell_angle_alpha   120.41003882
_cell_angle_beta   120.40989261
_cell_angle_gamma   89.28571768
_symmetry_Int_Tables_number   1
_chemical_formula_structural   HoSn6IrRu3
_chemical_formula_sum   'Ho1 Sn6 Ir1 Ru3'
_cell_volume   237.68253130
_cell_formula_units_Z   1
loop_
 _symmetry_equiv_pos_site_id
 _symmetry_equiv_pos_as_xyz
  1  'x, y, z'
loop_
 _atom_site_type_symbol
 _atom_site_label
 _atom_site_symmetry_multiplicity
 _atom_site_fract_x
 _atom_site_fract_y
 _atom_site_fract_z
 _atom_site_occupancy
  Ho  Ho0  1  0.000327  0.998392  0.000000  1
  Sn  Sn1  1  0.876742  0.532799  0.000000  1
  Sn  Sn2  1  0.536472  0.881121  0.000000  1
  Sn  Sn3  1  0.120211  0.115158  0.649609  1
  Sn  Sn4  1  0.000725  0.499681  0.495277  1
  Sn  Sn5  1  0.470602  0.465549  0.350391  1
  Sn  Sn6  1  0.505448  0.004404  0.504723  1
  Ir  Ir7  1  0.243291  0.600694  0.000000  1
  Ru  Ru8  1  0.401175  0.403462  0.652441  1
  Ru  Ru9  1  0.596273  0.247720  0.000000  1
  Ru  Ru10  1  0.748734  0.751021  0.347559  1
