# generated using pymatgen
data_Ho3Zr7Sn6
_symmetry_space_group_name_H-M   'P 1'
_cell_length_a   8.61139950
_cell_length_b   8.73932692
_cell_length_c   5.95377600
_cell_angle_alpha   90.00000000
_cell_angle_beta   90.00000000
_cell_angle_gamma   119.96332536
_symmetry_Int_Tables_number   1
_chemical_formula_structural   Ho3Zr7Sn6
_chemical_formula_sum   'Ho3 Zr7 Sn6'
_cell_volume   388.18184905
_cell_formula_units_Z   1
loop_
 _symmetry_equiv_pos_site_id
 _symmetry_equiv_pos_as_xyz
  1  'x, y, z'
loop_
 _atom_site_type_symbol
 _atom_site_label
 _atom_site_symmetry_multiplicity
 _atom_site_fract_x
 _atom_site_fract_y
 _atom_site_fract_z
 _atom_site_occupancy
  Ho  Ho0  1  0.763342  0.998569  0.750000  1
  Ho  Ho1  1  0.242183  0.241714  0.750000  1
  Ho  Ho2  1  0.233309  0.999099  0.250000  1
  Zr  Zr3  1  0.998522  0.747101  0.750000  1
  Zr  Zr4  1  0.998443  0.254229  0.250000  1
  Zr  Zr5  1  0.752580  0.752227  0.250000  1
  Zr  Zr6  1  0.334948  0.667813  0.499116  1
  Zr  Zr7  1  0.668160  0.334038  0.000968  1
  Zr  Zr8  1  0.668160  0.334038  0.499032  1
  Zr  Zr9  1  0.334948  0.667813  0.000884  1
  Sn  Sn10  1  0.393154  0.995346  0.750000  1
  Sn  Sn11  1  0.394644  0.398382  0.250000  1
  Sn  Sn12  1  0.997864  0.605100  0.250000  1
  Sn  Sn13  1  0.001112  0.400495  0.750000  1
  Sn  Sn14  1  0.608512  0.604121  0.750000  1
  Sn  Sn15  1  0.610122  0.999913  0.250000  1
