# generated using pymatgen
data_La6Sm3Er(Sn3Cl)2
_symmetry_space_group_name_H-M   'P 1'
_cell_length_a   9.53597600
_cell_length_b   9.53597596
_cell_length_c   6.79141600
_cell_angle_alpha   90.00000000
_cell_angle_beta   90.00000000
_cell_angle_gamma   119.99999319
_symmetry_Int_Tables_number   1
_chemical_formula_structural   La6Sm3Er(Sn3Cl)2
_chemical_formula_sum   'La6 Sm3 Er1 Sn6 Cl2'
_cell_volume   534.83681268
_cell_formula_units_Z   1
loop_
 _symmetry_equiv_pos_site_id
 _symmetry_equiv_pos_as_xyz
  1  'x, y, z'
loop_
 _atom_site_type_symbol
 _atom_site_label
 _atom_site_symmetry_multiplicity
 _atom_site_fract_x
 _atom_site_fract_y
 _atom_site_fract_z
 _atom_site_occupancy
  La  La0  1  0.738294  0.999866  0.750387  1
  La  La1  1  0.738294  0.738428  0.249613  1
  La  La2  1  0.000134  0.261706  0.249613  1
  La  La3  1  0.000134  0.738428  0.750387  1
  La  La4  1  0.261572  0.261706  0.750387  1
  La  La5  1  0.261572  0.999866  0.249613  1
  Sm  Sm6  1  0.666667  0.333333  0.000000  1
  Sm  Sm7  1  0.333333  0.666667  0.500000  1
  Sm  Sm8  1  0.666667  0.333333  0.500000  1
  Er  Er9  1  0.333333  0.666667  0.000000  1
  Sn  Sn10  1  0.607531  0.609589  0.751462  1
  Sn  Sn11  1  0.002057  0.609589  0.248538  1
  Sn  Sn12  1  0.607531  0.997943  0.248538  1
  Sn  Sn13  1  0.390411  0.997943  0.751462  1
  Sn  Sn14  1  0.002057  0.392469  0.751462  1
  Sn  Sn15  1  0.390411  0.392469  0.248538  1
  Cl  Cl16  1  0.000000  0.000000  0.500000  1
  Cl  Cl17  1  0.000000  0.000000  0.000000  1
