# generated using pymatgen
data_Sc10Sn5Bi
_symmetry_space_group_name_H-M   'P 1'
_cell_length_a   8.49331100
_cell_length_b   8.48280413
_cell_length_c   6.08965400
_cell_angle_alpha   90.00000000
_cell_angle_beta   90.00000000
_cell_angle_gamma   120.04098521
_symmetry_Int_Tables_number   1
_chemical_formula_structural   Sc10Sn5Bi
_chemical_formula_sum   'Sc10 Sn5 Bi1'
_cell_volume   379.80458745
_cell_formula_units_Z   1
loop_
 _symmetry_equiv_pos_site_id
 _symmetry_equiv_pos_as_xyz
  1  'x, y, z'
loop_
 _atom_site_type_symbol
 _atom_site_label
 _atom_site_symmetry_multiplicity
 _atom_site_fract_x
 _atom_site_fract_y
 _atom_site_fract_z
 _atom_site_occupancy
  Sc  Sc0  1  0.332632  0.662852  0.498534  1
  Sc  Sc1  1  0.669781  0.337148  0.001466  1
  Sc  Sc2  1  0.669781  0.337148  0.498534  1
  Sc  Sc3  1  0.332632  0.662852  0.001466  1
  Sc  Sc4  1  0.766898  0.000000  0.750000  1
  Sc  Sc5  1  0.763412  0.763020  0.250000  1
  Sc  Sc6  1  0.235257  0.000000  0.250000  1
  Sc  Sc7  1  0.234949  0.240578  0.750000  1
  Sc  Sc8  1  0.994371  0.759422  0.750000  1
  Sc  Sc9  1  0.000392  0.236980  0.250000  1
  Sn  Sn10  1  0.393952  0.392775  0.250000  1
  Sn  Sn11  1  0.001178  0.607225  0.250000  1
  Sn  Sn12  1  0.999636  0.394555  0.750000  1
  Sn  Sn13  1  0.605080  0.605445  0.750000  1
  Sn  Sn14  1  0.607971  0.000000  0.250000  1
  Bi  Bi15  1  0.392078  0.000000  0.750000  1
