# generated using pymatgen
data_Mn3V(NiP)4
_symmetry_space_group_name_H-M   'P 1'
_cell_length_a   3.48068500
_cell_length_b   5.86468760
_cell_length_c   6.79176640
_cell_angle_alpha   90.14398883
_cell_angle_beta   90.00000000
_cell_angle_gamma   90.00000000
_symmetry_Int_Tables_number   1
_chemical_formula_structural   Mn3V(NiP)4
_chemical_formula_sum   'Mn3 V1 Ni4 P4'
_cell_volume   138.64077366
_cell_formula_units_Z   1
loop_
 _symmetry_equiv_pos_site_id
 _symmetry_equiv_pos_as_xyz
  1  'x, y, z'
loop_
 _atom_site_type_symbol
 _atom_site_label
 _atom_site_symmetry_multiplicity
 _atom_site_fract_x
 _atom_site_fract_y
 _atom_site_fract_z
 _atom_site_occupancy
  Mn  Mn0  1  0.750000  0.467804  0.661408  1
  Mn  Mn1  1  0.750000  0.969811  0.835245  1
  Mn  Mn2  1  0.250000  0.529659  0.336113  1
  V  V3  1  0.250000  0.033324  0.166660  1
  Ni  Ni4  1  0.750000  0.363259  0.063586  1
  Ni  Ni5  1  0.750000  0.855039  0.438379  1
  Ni  Ni6  1  0.250000  0.642917  0.933419  1
  Ni  Ni7  1  0.250000  0.141296  0.565671  1
  P  P8  1  0.750000  0.739660  0.128759  1
  P  P9  1  0.750000  0.237894  0.372203  1
  P  P10  1  0.250000  0.260385  0.872145  1
  P  P11  1  0.250000  0.758951  0.626412  1
