# generated using pymatgen
data_Pr3TlCd3PbAu
_symmetry_space_group_name_H-M   'P 1'
_cell_length_a   7.82524500
_cell_length_b   7.82524392
_cell_length_c   4.62413000
_cell_angle_alpha   90.00000000
_cell_angle_beta   90.00000000
_cell_angle_gamma   120.00000035
_symmetry_Int_Tables_number   1
_chemical_formula_structural   Pr3TlCd3PbAu
_chemical_formula_sum   'Pr3 Tl1 Cd3 Pb1 Au1'
_cell_volume   245.22034135
_cell_formula_units_Z   1
loop_
 _symmetry_equiv_pos_site_id
 _symmetry_equiv_pos_as_xyz
  1  'x, y, z'
loop_
 _atom_site_type_symbol
 _atom_site_label
 _atom_site_symmetry_multiplicity
 _atom_site_fract_x
 _atom_site_fract_y
 _atom_site_fract_z
 _atom_site_occupancy
  Pr  Pr0  1  0.596515  0.997036  0.000000  1
  Pr  Pr1  1  0.002964  0.599480  0.000000  1
  Pr  Pr2  1  0.400520  0.403485  0.000000  1
  Tl  Tl3  1  0.333333  0.666667  0.500000  1
  Cd  Cd4  1  0.234133  0.995452  0.500000  1
  Cd  Cd5  1  0.004548  0.238681  0.500000  1
  Cd  Cd6  1  0.761319  0.765867  0.500000  1
  Pb  Pb7  1  0.666667  0.333333  0.500000  1
  Au  Au8  1  0.000000  0.000000  0.000000  1
