# generated using pymatgen
data_Sc21Pa3Fe8
_symmetry_space_group_name_H-M   'P 1'
_cell_length_a   5.88122403
_cell_length_b   8.61343600
_cell_length_c   13.18271800
_cell_angle_alpha   90.00000000
_cell_angle_beta   90.51440229
_cell_angle_gamma   90.00000000
_symmetry_Int_Tables_number   1
_chemical_formula_structural   Sc21Pa3Fe8
_chemical_formula_sum   'Sc21 Pa3 Fe8'
_cell_volume   667.77723943
_cell_formula_units_Z   1
loop_
 _symmetry_equiv_pos_site_id
 _symmetry_equiv_pos_as_xyz
  1  'x, y, z'
loop_
 _atom_site_type_symbol
 _atom_site_label
 _atom_site_symmetry_multiplicity
 _atom_site_fract_x
 _atom_site_fract_y
 _atom_site_fract_z
 _atom_site_occupancy
  Sc  Sc0  1  0.946838  0.750000  0.854340  1
  Sc  Sc1  1  0.786489  0.750000  0.102315  1
  Sc  Sc2  1  0.312975  0.250000  0.395036  1
  Sc  Sc3  1  0.190163  0.250000  0.895092  1
  Sc  Sc4  1  0.698265  0.750000  0.610982  1
  Sc  Sc5  1  0.398942  0.929905  0.791219  1
  Sc  Sc6  1  0.906110  0.061831  0.711725  1
  Sc  Sc7  1  0.595562  0.433025  0.208099  1
  Sc  Sc8  1  0.096345  0.567301  0.292035  1
  Sc  Sc9  1  0.595562  0.066975  0.208099  1
  Sc  Sc10  1  0.096345  0.932699  0.292035  1
  Sc  Sc11  1  0.398942  0.570095  0.791219  1
  Sc  Sc12  1  0.906110  0.438169  0.711725  1
  Sc  Sc13  1  0.239277  0.932555  0.535545  1
  Sc  Sc14  1  0.729806  0.062343  0.961884  1
  Sc  Sc15  1  0.771366  0.433433  0.466440  1
  Sc  Sc16  1  0.256716  0.569090  0.034873  1
  Sc  Sc17  1  0.771366  0.066567  0.466440  1
  Sc  Sc18  1  0.256716  0.930910  0.034873  1
  Sc  Sc19  1  0.239277  0.567445  0.535545  1
  Sc  Sc20  1  0.729806  0.437657  0.961884  1
  Pa  Pa21  1  0.583660  0.750000  0.349677  1
  Pa  Pa22  1  0.074368  0.250000  0.149375  1
  Pa  Pa23  1  0.428147  0.250000  0.649367  1
  Fe  Fe24  1  0.915552  0.750000  0.440062  1
  Fe  Fe25  1  0.412482  0.250000  0.061817  1
  Fe  Fe26  1  0.088525  0.250000  0.562846  1
  Fe  Fe27  1  0.914436  0.250000  0.302744  1
  Fe  Fe28  1  0.586665  0.250000  0.803530  1
  Fe  Fe29  1  0.554975  0.750000  0.940760  1
  Fe  Fe30  1  0.406632  0.750000  0.196883  1
  Fe  Fe31  1  0.111584  0.750000  0.681533  1
