# generated using pymatgen
data_Tb2Zn14Cu3
_symmetry_space_group_name_H-M   'P 1'
_cell_length_a   8.91920200
_cell_length_b   8.91920156
_cell_length_c   8.69067700
_cell_angle_alpha   90.00000000
_cell_angle_beta   90.00000000
_cell_angle_gamma   120.00000165
_symmetry_Int_Tables_number   1
_chemical_formula_structural   Tb2Zn14Cu3
_chemical_formula_sum   'Tb4 Zn28 Cu6'
_cell_volume   598.73715807
_cell_formula_units_Z   2
loop_
 _symmetry_equiv_pos_site_id
 _symmetry_equiv_pos_as_xyz
  1  'x, y, z'
loop_
 _atom_site_type_symbol
 _atom_site_label
 _atom_site_symmetry_multiplicity
 _atom_site_fract_x
 _atom_site_fract_y
 _atom_site_fract_z
 _atom_site_occupancy
  Tb  Tb0  1  0.000000  0.000000  0.250000  1
  Tb  Tb1  1  0.000000  0.000000  0.750000  1
  Tb  Tb2  1  0.333333  0.666667  0.750000  1
  Tb  Tb3  1  0.666667  0.333333  0.250000  1
  Zn  Zn4  1  0.333333  0.666667  0.403706  1
  Zn  Zn5  1  0.666667  0.333333  0.596294  1
  Zn  Zn6  1  0.666667  0.333333  0.903706  1
  Zn  Zn7  1  0.333333  0.666667  0.096294  1
  Zn  Zn8  1  0.333113  0.369451  0.250000  1
  Zn  Zn9  1  0.630549  0.963663  0.250000  1
  Zn  Zn10  1  0.036337  0.666887  0.250000  1
  Zn  Zn11  1  0.630549  0.666887  0.250000  1
  Zn  Zn12  1  0.036337  0.369451  0.250000  1
  Zn  Zn13  1  0.333113  0.963663  0.250000  1
  Zn  Zn14  1  0.666887  0.630549  0.750000  1
  Zn  Zn15  1  0.369451  0.036337  0.750000  1
  Zn  Zn16  1  0.963663  0.333113  0.750000  1
  Zn  Zn17  1  0.369451  0.333113  0.750000  1
  Zn  Zn18  1  0.963663  0.630549  0.750000  1
  Zn  Zn19  1  0.666887  0.036337  0.750000  1
  Zn  Zn20  1  0.164539  0.835461  0.520259  1
  Zn  Zn21  1  0.164539  0.329079  0.520259  1
  Zn  Zn22  1  0.670921  0.835461  0.520259  1
  Zn  Zn23  1  0.835461  0.164539  0.479741  1
  Zn  Zn24  1  0.835461  0.670921  0.479741  1
  Zn  Zn25  1  0.329079  0.164539  0.479741  1
  Zn  Zn26  1  0.835461  0.164539  0.020259  1
  Zn  Zn27  1  0.835461  0.670921  0.020259  1
  Zn  Zn28  1  0.329079  0.164539  0.020259  1
  Zn  Zn29  1  0.164539  0.835461  0.979741  1
  Zn  Zn30  1  0.164539  0.329079  0.979741  1
  Zn  Zn31  1  0.670921  0.835461  0.979741  1
  Cu  Cu32  1  0.500000  0.500000  0.500000  1
  Cu  Cu33  1  0.500000  0.000000  0.500000  1
  Cu  Cu34  1  0.000000  0.500000  0.500000  1
  Cu  Cu35  1  0.500000  0.500000  0.000000  1
  Cu  Cu36  1  0.500000  0.000000  0.000000  1
  Cu  Cu37  1  0.000000  0.500000  0.000000  1
