# generated using pymatgen
data_Tb7HoCd2CoPd
_symmetry_space_group_name_H-M   'P 1'
_cell_length_a   9.63359965
_cell_length_b   9.63153269
_cell_length_c   9.63392777
_cell_angle_alpha   60.13070485
_cell_angle_beta   60.01797180
_cell_angle_gamma   60.02349661
_symmetry_Int_Tables_number   1
_chemical_formula_structural   Tb7HoCd2CoPd
_chemical_formula_sum   'Tb14 Ho2 Cd4 Co2 Pd2'
_cell_volume   632.90109804
_cell_formula_units_Z   2
loop_
 _symmetry_equiv_pos_site_id
 _symmetry_equiv_pos_as_xyz
  1  'x, y, z'
loop_
 _atom_site_type_symbol
 _atom_site_label
 _atom_site_symmetry_multiplicity
 _atom_site_fract_x
 _atom_site_fract_y
 _atom_site_fract_z
 _atom_site_occupancy
  Tb  Tb0  1  0.934385  0.937241  0.564681  1
  Tb  Tb1  1  0.809347  0.190752  0.191409  1
  Tb  Tb2  1  0.934559  0.565947  0.565166  1
  Tb  Tb3  1  0.934012  0.565048  0.937481  1
  Tb  Tb4  1  0.821414  0.799917  0.188909  1
  Tb  Tb5  1  0.336734  0.353037  0.351499  1
  Tb  Tb6  1  0.561326  0.938180  0.938617  1
  Tb  Tb7  1  0.563567  0.937389  0.564970  1
  Tb  Tb8  1  0.188245  0.811835  0.812685  1
  Tb  Tb9  1  0.190406  0.188059  0.801199  1
  Tb  Tb10  1  0.344964  0.364023  0.945663  1
  Tb  Tb11  1  0.344969  0.945212  0.363906  1
  Tb  Tb12  1  0.820634  0.188823  0.799982  1
  Tb  Tb13  1  0.563130  0.565350  0.937487  1
  Ho  Ho14  1  0.190234  0.801036  0.188552  1
  Ho  Ho15  1  0.959464  0.351622  0.351493  1
  Cd  Cd16  1  0.581876  0.579287  0.257147  1
  Cd  Cd17  1  0.255574  0.580772  0.580333  1
  Cd  Cd18  1  0.583647  0.580248  0.580303  1
  Cd  Cd19  1  0.582146  0.257202  0.579085  1
  Co  Co20  1  0.141571  0.574406  0.141798  1
  Co  Co21  1  0.141497  0.141828  0.573869  1
  Pd  Pd22  1  0.570871  0.141510  0.141430  1
  Pd  Pd23  1  0.145436  0.141281  0.142339  1
