# generated using pymatgen
data_BaCo6(BIr)6
_symmetry_space_group_name_H-M   'P 1'
_cell_length_a   6.33915594
_cell_length_b   6.33915582
_cell_length_c   6.33915702
_cell_angle_alpha   103.29154198
_cell_angle_beta   103.29154460
_cell_angle_gamma   103.29152350
_symmetry_Int_Tables_number   1
_chemical_formula_structural   BaCo6(BIr)6
_chemical_formula_sum   'Ba1 Co6 B6 Ir6'
_cell_volume   230.27074475
_cell_formula_units_Z   1
loop_
 _symmetry_equiv_pos_site_id
 _symmetry_equiv_pos_as_xyz
  1  'x, y, z'
loop_
 _atom_site_type_symbol
 _atom_site_label
 _atom_site_symmetry_multiplicity
 _atom_site_fract_x
 _atom_site_fract_y
 _atom_site_fract_z
 _atom_site_occupancy
  Ba  Ba0  1  0.000000  0.000000  0.000000  1
  Co  Co1  1  0.538730  0.799950  0.538730  1
  Co  Co2  1  0.538730  0.538730  0.799950  1
  Co  Co3  1  0.799950  0.538730  0.538730  1
  Co  Co4  1  0.461270  0.200050  0.461270  1
  Co  Co5  1  0.461270  0.461270  0.200050  1
  Co  Co6  1  0.200050  0.461270  0.461270  1
  B  B7  1  0.766914  0.346329  0.766914  1
  B  B8  1  0.766914  0.766914  0.346329  1
  B  B9  1  0.346329  0.766914  0.766914  1
  B  B10  1  0.233086  0.653671  0.233086  1
  B  B11  1  0.233086  0.233086  0.653671  1
  B  B12  1  0.653671  0.233086  0.233086  1
  Ir  Ir13  1  0.138759  0.861241  0.500000  1
  Ir  Ir14  1  0.500000  0.138759  0.861241  1
  Ir  Ir15  1  0.861241  0.500000  0.138759  1
  Ir  Ir16  1  0.500000  0.861241  0.138759  1
  Ir  Ir17  1  0.138759  0.500000  0.861241  1
  Ir  Ir18  1  0.861241  0.138759  0.500000  1
