# generated using pymatgen
data_Sc2Mn4Ni8P7
_symmetry_space_group_name_H-M   'P 1'
_cell_length_a   9.05172872
_cell_length_b   9.07209372
_cell_length_c   3.58360000
_cell_angle_alpha   90.00000000
_cell_angle_beta   90.00000000
_cell_angle_gamma   119.99603453
_symmetry_Int_Tables_number   1
_chemical_formula_structural   Sc2Mn4Ni8P7
_chemical_formula_sum   'Sc2 Mn4 Ni8 P7'
_cell_volume   254.86287030
_cell_formula_units_Z   1
loop_
 _symmetry_equiv_pos_site_id
 _symmetry_equiv_pos_as_xyz
  1  'x, y, z'
loop_
 _atom_site_type_symbol
 _atom_site_label
 _atom_site_symmetry_multiplicity
 _atom_site_fract_x
 _atom_site_fract_y
 _atom_site_fract_z
 _atom_site_occupancy
  Sc  Sc0  1  0.001043  0.997415  0.000000  1
  Sc  Sc1  1  0.668454  0.335445  0.500000  1
  Mn  Mn2  1  0.214165  0.826635  0.000000  1
  Mn  Mn3  1  0.430002  0.542457  0.500000  1
  Mn  Mn4  1  0.108710  0.566524  0.500000  1
  Mn  Mn5  1  0.460299  0.891798  0.500000  1
  Ni  Ni6  1  0.395404  0.290864  0.000000  1
  Ni  Ni7  1  0.893900  0.601204  0.000000  1
  Ni  Ni8  1  0.706355  0.103236  0.000000  1
  Ni  Ni9  1  0.612611  0.788391  0.000000  1
  Ni  Ni10  1  0.176169  0.386646  0.000000  1
  Ni  Ni11  1  0.773326  0.720506  0.500000  1
  Ni  Ni12  1  0.946667  0.227016  0.500000  1
  Ni  Ni13  1  0.281048  0.054453  0.500000  1
  P  P14  1  0.625427  0.547238  0.000000  1
  P  P15  1  0.921727  0.373745  0.000000  1
  P  P16  1  0.451226  0.078186  0.000000  1
  P  P17  1  0.744202  0.957013  0.500000  1
  P  P18  1  0.213196  0.257339  0.500000  1
  P  P19  1  0.045419  0.786169  0.500000  1
  P  P20  1  0.330651  0.667719  0.000000  1
