# generated using pymatgen
data_Hf4Zr6Sn5Ge2Sb
_symmetry_space_group_name_H-M   'P 1'
_cell_length_a   8.68589279
_cell_length_b   8.68787454
_cell_length_c   5.89364200
_cell_angle_alpha   90.00000000
_cell_angle_beta   90.00000000
_cell_angle_gamma   120.00755720
_symmetry_Int_Tables_number   1
_chemical_formula_structural   Hf4Zr6Sn5Ge2Sb
_chemical_formula_sum   'Hf4 Zr6 Sn5 Ge2 Sb1'
_cell_volume   385.13174016
_cell_formula_units_Z   1
loop_
 _symmetry_equiv_pos_site_id
 _symmetry_equiv_pos_as_xyz
  1  'x, y, z'
loop_
 _atom_site_type_symbol
 _atom_site_label
 _atom_site_symmetry_multiplicity
 _atom_site_fract_x
 _atom_site_fract_y
 _atom_site_fract_z
 _atom_site_occupancy
  Hf  Hf0  1  0.667711  0.333660  0.999553  1
  Hf  Hf1  1  0.332289  0.665951  0.999553  1
  Hf  Hf2  1  0.332289  0.665951  0.500447  1
  Hf  Hf3  1  0.667711  0.333660  0.500447  1
  Zr  Zr4  1  0.736952  0.736414  0.750000  1
  Zr  Zr5  1  0.263048  0.999461  0.750000  1
  Zr  Zr6  1  0.000000  0.263998  0.750000  1
  Zr  Zr7  1  0.262370  0.262988  0.250000  1
  Zr  Zr8  1  0.737630  0.000618  0.250000  1
  Zr  Zr9  1  0.000000  0.736226  0.250000  1
  Sn  Sn10  1  0.393853  0.393160  0.750000  1
  Sn  Sn11  1  0.606147  0.999307  0.750000  1
  Sn  Sn12  1  0.000000  0.607889  0.750000  1
  Sn  Sn13  1  0.606539  0.606590  0.250000  1
  Sn  Sn14  1  0.393461  0.000051  0.250000  1
  Ge  Ge15  1  0.000000  0.999564  0.999603  1
  Ge  Ge16  1  0.000000  0.999564  0.500397  1
  Sb  Sb17  1  0.000000  0.394949  0.250000  1
