# generated using pymatgen
data_DyY5MnFeB14
_symmetry_space_group_name_H-M   'P 1'
_cell_length_a   8.05637004
_cell_length_b   8.05636930
_cell_length_c   9.32012404
_cell_angle_alpha   90.01027464
_cell_angle_beta   89.98972594
_cell_angle_gamma   155.33088024
_symmetry_Int_Tables_number   1
_chemical_formula_structural   DyY5MnFeB14
_chemical_formula_sum   'Dy1 Y5 Mn1 Fe1 B14'
_cell_volume   252.48137484
_cell_formula_units_Z   1
loop_
 _symmetry_equiv_pos_site_id
 _symmetry_equiv_pos_as_xyz
  1  'x, y, z'
loop_
 _atom_site_type_symbol
 _atom_site_label
 _atom_site_symmetry_multiplicity
 _atom_site_fract_x
 _atom_site_fract_y
 _atom_site_fract_z
 _atom_site_occupancy
  Dy  Dy0  1  0.895493  0.104507  0.559561  1
  Y  Y1  1  0.758338  0.241662  0.249980  1
  Y  Y2  1  0.242134  0.757866  0.749938  1
  Y  Y3  1  0.104475  0.895525  0.438379  1
  Y  Y4  1  0.104513  0.895487  0.061596  1
  Y  Y5  1  0.895423  0.104577  0.940146  1
  Mn  Mn6  1  0.946530  0.053470  0.250093  1
  Fe  Fe7  1  0.054311  0.945689  0.749971  1
  B  B8  1  0.539917  0.460083  0.250033  1
  B  B9  1  0.460582  0.539418  0.749900  1
  B  B10  1  0.521700  0.478300  0.901441  1
  B  B11  1  0.478245  0.521755  0.098670  1
  B  B12  1  0.478160  0.521840  0.401437  1
  B  B13  1  0.521623  0.478377  0.598605  1
  B  B14  1  0.629768  0.370232  0.846709  1
  B  B15  1  0.369879  0.630121  0.153281  1
  B  B16  1  0.727273  0.272727  0.966443  1
  B  B17  1  0.272291  0.727709  0.032593  1
  B  B18  1  0.272365  0.727635  0.467466  1
  B  B19  1  0.727323  0.272677  0.533579  1
  B  B20  1  0.629769  0.370231  0.653286  1
  B  B21  1  0.369890  0.630110  0.346894  1
