# generated using pymatgen
data_Pr2In6Hg2Ir
_symmetry_space_group_name_H-M   'P 1'
_cell_length_a   4.73883700
_cell_length_b   4.73883700
_cell_length_c   12.26161700
_cell_angle_alpha   90.00000000
_cell_angle_beta   90.00000000
_cell_angle_gamma   90.00000000
_symmetry_Int_Tables_number   1
_chemical_formula_structural   Pr2In6Hg2Ir
_chemical_formula_sum   'Pr2 In6 Hg2 Ir1'
_cell_volume   275.35393542
_cell_formula_units_Z   1
loop_
 _symmetry_equiv_pos_site_id
 _symmetry_equiv_pos_as_xyz
  1  'x, y, z'
loop_
 _atom_site_type_symbol
 _atom_site_label
 _atom_site_symmetry_multiplicity
 _atom_site_fract_x
 _atom_site_fract_y
 _atom_site_fract_z
 _atom_site_occupancy
  Pr  Pr0  1  0.000000  0.000000  0.304010  1
  Pr  Pr1  1  0.000000  0.000000  0.695990  1
  In  In2  1  0.500000  0.000000  0.120673  1
  In  In3  1  0.000000  0.500000  0.120673  1
  In  In4  1  0.500000  0.500000  0.310439  1
  In  In5  1  0.500000  0.500000  0.689561  1
  In  In6  1  0.500000  0.000000  0.879327  1
  In  In7  1  0.000000  0.500000  0.879327  1
  Hg  Hg8  1  0.500000  0.000000  0.500000  1
  Hg  Hg9  1  0.000000  0.500000  0.500000  1
  Ir  Ir10  1  0.000000  0.000000  0.000000  1
