# generated using pymatgen
data_LiTm3Lu5(B8Rh)3
_symmetry_space_group_name_H-M   'P 1'
_cell_length_a   3.60222800
_cell_length_b   9.06425520
_cell_length_c   11.40510504
_cell_angle_alpha   89.90314624
_cell_angle_beta   90.00000000
_cell_angle_gamma   90.00000000
_symmetry_Int_Tables_number   1
_chemical_formula_structural   LiTm3Lu5(B8Rh)3
_chemical_formula_sum   'Li1 Tm3 Lu5 B24 Rh3'
_cell_volume   372.39341330
_cell_formula_units_Z   1
loop_
 _symmetry_equiv_pos_site_id
 _symmetry_equiv_pos_as_xyz
  1  'x, y, z'
loop_
 _atom_site_type_symbol
 _atom_site_label
 _atom_site_symmetry_multiplicity
 _atom_site_fract_x
 _atom_site_fract_y
 _atom_site_fract_z
 _atom_site_occupancy
  Li  Li0  1  0.500000  0.138265  0.177969  1
  Tm  Tm1  1  0.500000  0.320597  0.412431  1
  Tm  Tm2  1  0.500000  0.678110  0.585374  1
  Tm  Tm3  1  0.500000  0.176493  0.917549  1
  Lu  Lu4  1  0.500000  0.826139  0.086888  1
  Lu  Lu5  1  0.500000  0.440760  0.128227  1
  Lu  Lu6  1  0.500000  0.556327  0.873534  1
  Lu  Lu7  1  0.500000  0.056202  0.627662  1
  Lu  Lu8  1  0.500000  0.946605  0.369984  1
  B  B9  1  0.000000  0.106665  0.470384  1
  B  B10  1  0.000000  0.895772  0.528001  1
  B  B11  1  0.000000  0.392250  0.971554  1
  B  B12  1  0.000000  0.606241  0.029479  1
  B  B13  1  0.000000  0.133868  0.316751  1
  B  B14  1  0.000000  0.866911  0.682223  1
  B  B15  1  0.000000  0.367083  0.817207  1
  B  B16  1  0.000000  0.631865  0.184166  1
  B  B17  1  0.000000  0.052527  0.065980  1
  B  B18  1  0.000000  0.947650  0.936486  1
  B  B19  1  0.000000  0.446111  0.565204  1
  B  B20  1  0.000000  0.554398  0.433681  1
  B  B21  1  0.000000  0.479888  0.287124  1
  B  B22  1  0.000000  0.518142  0.713074  1
  B  B23  1  0.000000  0.017038  0.788007  1
  B  B24  1  0.000000  0.981859  0.211351  1
  B  B25  1  0.000000  0.248770  0.079994  1
  B  B26  1  0.000000  0.751033  0.921608  1
  B  B27  1  0.000000  0.250045  0.579199  1
  B  B28  1  0.000000  0.752087  0.419209  1
  B  B29  1  0.000000  0.294619  0.237404  1
  B  B30  1  0.000000  0.705303  0.763169  1
  B  B31  1  0.000000  0.205171  0.736611  1
  B  B32  1  0.000000  0.796433  0.263040  1
  Rh  Rh33  1  0.500000  0.858002  0.817875  1
  Rh  Rh34  1  0.500000  0.360822  0.679694  1
  Rh  Rh35  1  0.500000  0.639951  0.321906  1
