# generated using pymatgen
data_CeTh2(ZnNi)3
_symmetry_space_group_name_H-M   'P 1'
_cell_length_a   7.12642300
_cell_length_b   7.12845077
_cell_length_c   3.86876500
_cell_angle_alpha   90.00000000
_cell_angle_beta   90.00000000
_cell_angle_gamma   119.99058590
_symmetry_Int_Tables_number   1
_chemical_formula_structural   CeTh2(ZnNi)3
_chemical_formula_sum   'Ce1 Th2 Zn3 Ni3'
_cell_volume   170.22013244
_cell_formula_units_Z   1
loop_
 _symmetry_equiv_pos_site_id
 _symmetry_equiv_pos_as_xyz
  1  'x, y, z'
loop_
 _atom_site_type_symbol
 _atom_site_label
 _atom_site_symmetry_multiplicity
 _atom_site_fract_x
 _atom_site_fract_y
 _atom_site_fract_z
 _atom_site_occupancy
  Ce  Ce0  1  0.413599  0.000000  0.500000  1
  Th  Th1  1  0.999750  0.413253  0.500000  1
  Th  Th2  1  0.586497  0.586747  0.500000  1
  Zn  Zn3  1  0.004962  0.768535  0.000000  1
  Zn  Zn4  1  0.236427  0.231465  0.000000  1
  Zn  Zn5  1  0.760772  0.000000  0.000000  1
  Ni  Ni6  1  0.334112  0.668272  0.000000  1
  Ni  Ni7  1  0.665841  0.331728  0.000000  1
  Ni  Ni8  1  0.998042  0.000000  0.500000  1
