# generated using pymatgen
data_Ca(Ga3Se5)2
_symmetry_space_group_name_H-M   'P 1'
_cell_length_a   9.79535375
_cell_length_b   9.79535333
_cell_length_c   9.67356599
_cell_angle_alpha   89.83868400
_cell_angle_beta   89.83868778
_cell_angle_gamma   89.25326715
_symmetry_Int_Tables_number   1
_chemical_formula_structural   Ca(Ga3Se5)2
_chemical_formula_sum   'Ca2 Ga12 Se20'
_cell_volume   928.08242004
_cell_formula_units_Z   2
loop_
 _symmetry_equiv_pos_site_id
 _symmetry_equiv_pos_as_xyz
  1  'x, y, z'
loop_
 _atom_site_type_symbol
 _atom_site_label
 _atom_site_symmetry_multiplicity
 _atom_site_fract_x
 _atom_site_fract_y
 _atom_site_fract_z
 _atom_site_occupancy
  Ca  Ca0  1  0.997801  0.742246  0.746715  1
  Ca  Ca1  1  0.257754  0.002199  0.253285  1
  Ga  Ga2  1  0.906114  0.999812  0.166996  1
  Ga  Ga3  1  0.821489  0.617526  0.159695  1
  Ga  Ga4  1  0.683458  0.903549  0.879103  1
  Ga  Ga5  1  0.598186  0.911499  0.256055  1
  Ga  Ga6  1  0.509181  0.576398  0.334315  1
  Ga  Ga7  1  0.423602  0.490819  0.665685  1
  Ga  Ga8  1  0.417579  0.867046  0.574759  1
  Ga  Ga9  1  0.382474  0.178511  0.840305  1
  Ga  Ga10  1  0.132954  0.582421  0.425241  1
  Ga  Ga11  1  0.096451  0.316542  0.120897  1
  Ga  Ga12  1  0.088501  0.401814  0.743945  1
  Ga  Ga13  1  0.000188  0.093886  0.833004  1
  Se  Se14  1  0.945323  0.500616  0.566400  1
  Se  Se15  1  0.930330  0.317397  0.928387  1
  Se  Se16  1  0.824801  0.815778  0.321628  1
  Se  Se17  1  0.826822  0.992125  0.691948  1
  Se  Se18  1  0.755427  0.667634  0.919492  1
  Se  Se19  1  0.691948  0.435994  0.255675  1
  Se  Se20  1  0.682603  0.069670  0.071613  1
  Se  Se21  1  0.573938  0.671468  0.569311  1
  Se  Se22  1  0.564006  0.308052  0.744325  1
  Se  Se23  1  0.499384  0.054677  0.433600  1
  Se  Se24  1  0.432415  0.924367  0.825941  1
  Se  Se25  1  0.433325  0.751908  0.171416  1
  Se  Se26  1  0.332366  0.244573  0.080508  1
  Se  Se27  1  0.328532  0.426062  0.430689  1
  Se  Se28  1  0.248092  0.566675  0.828584  1
  Se  Se29  1  0.184222  0.175199  0.678372  1
  Se  Se30  1  0.177999  0.822001  0.500000  1
  Se  Se31  1  0.078418  0.921582  0.000000  1
  Se  Se32  1  0.075633  0.567585  0.174059  1
  Se  Se33  1  0.007875  0.173178  0.308052  1
