# generated using pymatgen
data_Yb2Y3Tm(Si3Ru)8
_symmetry_space_group_name_H-M   'P 1'
_cell_length_a   10.14455844
_cell_length_b   10.14455901
_cell_length_c   8.14372156
_cell_angle_alpha   90.00805191
_cell_angle_beta   90.00804556
_cell_angle_gamma   132.66404072
_symmetry_Int_Tables_number   1
_chemical_formula_structural   Yb2Y3Tm(Si3Ru)8
_chemical_formula_sum   'Yb2 Y3 Tm1 Si24 Ru8'
_cell_volume   616.27910314
_cell_formula_units_Z   1
loop_
 _symmetry_equiv_pos_site_id
 _symmetry_equiv_pos_as_xyz
  1  'x, y, z'
loop_
 _atom_site_type_symbol
 _atom_site_label
 _atom_site_symmetry_multiplicity
 _atom_site_fract_x
 _atom_site_fract_y
 _atom_site_fract_z
 _atom_site_occupancy
  Yb  Yb0  1  0.000816  0.500946  0.250064  1
  Yb  Yb1  1  0.499054  0.999184  0.749936  1
  Y  Y2  1  0.500055  0.499945  0.500000  1
  Y  Y3  1  0.997336  0.497206  0.749882  1
  Y  Y4  1  0.502794  0.002664  0.250118  1
  Tm  Tm5  1  0.999882  0.000118  0.000000  1
  Si  Si6  1  0.294122  0.705878  0.000000  1
  Si  Si7  1  0.793968  0.206032  0.500000  1
  Si  Si8  1  0.706143  0.293857  0.000000  1
  Si  Si9  1  0.205785  0.794215  0.500000  1
  Si  Si10  1  0.829897  0.836832  0.332381  1
  Si  Si11  1  0.163168  0.170103  0.667619  1
  Si  Si12  1  0.670942  0.664129  0.833292  1
  Si  Si13  1  0.335871  0.329058  0.166708  1
  Si  Si14  1  0.622780  0.388754  0.227410  1
  Si  Si15  1  0.611246  0.377220  0.772590  1
  Si  Si16  1  0.110623  0.876738  0.728127  1
  Si  Si17  1  0.123262  0.889377  0.271873  1
  Si  Si18  1  0.376461  0.610878  0.772398  1
  Si  Si19  1  0.389122  0.623539  0.227602  1
  Si  Si20  1  0.888993  0.122550  0.272110  1
  Si  Si21  1  0.877450  0.111007  0.727890  1
  Si  Si22  1  0.844526  0.611267  0.004141  1
  Si  Si23  1  0.388733  0.155474  0.995859  1
  Si  Si24  1  0.889488  0.655541  0.504766  1
  Si  Si25  1  0.344459  0.110512  0.495234  1
  Si  Si26  1  0.155261  0.388582  0.994948  1
  Si  Si27  1  0.611418  0.844739  0.005052  1
  Si  Si28  1  0.110408  0.344166  0.496271  1
  Si  Si29  1  0.655834  0.889592  0.503729  1
  Ru  Ru30  1  0.169191  0.830809  0.000000  1
  Ru  Ru31  1  0.668742  0.331258  0.500000  1
  Ru  Ru32  1  0.831597  0.168403  0.000000  1
  Ru  Ru33  1  0.330484  0.669516  0.500000  1
  Ru  Ru34  1  0.625698  0.627850  0.125958  1
  Ru  Ru35  1  0.372150  0.374302  0.874042  1
  Ru  Ru36  1  0.874998  0.872755  0.626615  1
  Ru  Ru37  1  0.127245  0.125002  0.373385  1
