# generated using pymatgen
data_Th6Al24Ir3Ru5
_symmetry_space_group_name_H-M   'P 1'
_cell_length_a   8.97964400
_cell_length_b   8.98084998
_cell_length_c   9.55686901
_cell_angle_alpha   89.86217993
_cell_angle_beta   90.00000000
_cell_angle_gamma   119.99555067
_symmetry_Int_Tables_number   1
_chemical_formula_structural   Th6Al24Ir3Ru5
_chemical_formula_sum   'Th6 Al24 Ir3 Ru5'
_cell_volume   667.48363244
_cell_formula_units_Z   1
loop_
 _symmetry_equiv_pos_site_id
 _symmetry_equiv_pos_as_xyz
  1  'x, y, z'
loop_
 _atom_site_type_symbol
 _atom_site_label
 _atom_site_symmetry_multiplicity
 _atom_site_fract_x
 _atom_site_fract_y
 _atom_site_fract_z
 _atom_site_occupancy
  Th  Th0  1  0.806684  0.613367  0.748883  1
  Th  Th1  1  0.193320  0.806753  0.250648  1
  Th  Th2  1  0.613435  0.806753  0.250648  1
  Th  Th3  1  0.386565  0.193247  0.749352  1
  Th  Th4  1  0.806680  0.193247  0.749352  1
  Th  Th5  1  0.193316  0.386633  0.251117  1
  Al  Al6  1  0.332340  0.664681  0.485131  1
  Al  Al7  1  0.665629  0.331259  0.983552  1
  Al  Al8  1  0.667660  0.335319  0.514869  1
  Al  Al9  1  0.334371  0.668741  0.016448  1
  Al  Al10  1  0.162779  0.325558  0.578099  1
  Al  Al11  1  0.674554  0.835948  0.577155  1
  Al  Al12  1  0.161394  0.835948  0.577155  1
  Al  Al13  1  0.836089  0.161203  0.077467  1
  Al  Al14  1  0.838606  0.164052  0.422845  1
  Al  Al15  1  0.837555  0.675110  0.076841  1
  Al  Al16  1  0.325115  0.161203  0.077467  1
  Al  Al17  1  0.674885  0.838797  0.922533  1
  Al  Al18  1  0.162445  0.324890  0.923159  1
  Al  Al19  1  0.837221  0.674442  0.421901  1
  Al  Al20  1  0.000039  0.000076  0.250052  1
  Al  Al21  1  0.999961  0.999924  0.749948  1
  Al  Al22  1  0.564051  0.128102  0.248137  1
  Al  Al23  1  0.435859  0.563934  0.748676  1
  Al  Al24  1  0.128075  0.563934  0.748676  1
  Al  Al25  1  0.871925  0.436066  0.251324  1
  Al  Al26  1  0.564141  0.436066  0.251324  1
  Al  Al27  1  0.435949  0.871898  0.751863  1
  Al  Al28  1  0.163911  0.838797  0.922533  1
  Al  Al29  1  0.325446  0.164052  0.422845  1
  Ir  Ir30  1  0.500000  0.000000  0.500000  1
  Ir  Ir31  1  0.500000  0.500000  0.000000  1
  Ir  Ir32  1  0.000000  0.500000  0.000000  1
  Ru  Ru33  1  0.000000  0.000000  0.500000  1
  Ru  Ru34  1  0.000000  0.000000  0.000000  1
  Ru  Ru35  1  0.000000  0.500000  0.500000  1
  Ru  Ru36  1  0.500000  0.500000  0.500000  1
  Ru  Ru37  1  0.500000  0.000000  0.000000  1
