# generated using pymatgen
data_Tb6Pr4Sn5Pb3
_symmetry_space_group_name_H-M   'P 1'
_cell_length_a   8.27854200
_cell_length_b   8.47357475
_cell_length_c   15.90693600
_cell_angle_alpha   90.06068628
_cell_angle_beta   90.00000000
_cell_angle_gamma   90.00000000
_symmetry_Int_Tables_number   1
_chemical_formula_structural   Tb6Pr4Sn5Pb3
_chemical_formula_sum   'Tb12 Pr8 Sn10 Pb6'
_cell_volume   1115.85255376
_cell_formula_units_Z   2
loop_
 _symmetry_equiv_pos_site_id
 _symmetry_equiv_pos_as_xyz
  1  'x, y, z'
loop_
 _atom_site_type_symbol
 _atom_site_label
 _atom_site_symmetry_multiplicity
 _atom_site_fract_x
 _atom_site_fract_y
 _atom_site_fract_z
 _atom_site_occupancy
  Tb  Tb0  1  0.348347  0.837064  0.873791  1
  Tb  Tb1  1  0.848347  0.662936  0.626209  1
  Tb  Tb2  1  0.649025  0.162962  0.374120  1
  Tb  Tb3  1  0.149025  0.337038  0.125880  1
  Tb  Tb4  1  0.652103  0.165783  0.125587  1
  Tb  Tb5  1  0.152103  0.334217  0.374413  1
  Tb  Tb6  1  0.348512  0.838486  0.625410  1
  Tb  Tb7  1  0.848512  0.661514  0.874590  1
  Tb  Tb8  1  0.182190  0.501144  0.750250  1
  Tb  Tb9  1  0.682190  0.998856  0.749750  1
  Tb  Tb10  1  0.817706  0.498702  0.248272  1
  Tb  Tb11  1  0.317706  0.001298  0.251728  1
  Pr  Pr12  1  0.512311  0.323703  0.901185  1
  Pr  Pr13  1  0.012311  0.176297  0.598815  1
  Pr  Pr14  1  0.488982  0.679799  0.400281  1
  Pr  Pr15  1  0.988982  0.820201  0.099719  1
  Pr  Pr16  1  0.492001  0.675392  0.099579  1
  Pr  Pr17  1  0.992001  0.824608  0.400421  1
  Pr  Pr18  1  0.509088  0.320744  0.599112  1
  Pr  Pr19  1  0.009088  0.179256  0.900888  1
  Sn  Sn20  1  0.310951  0.041324  0.457818  1
  Sn  Sn21  1  0.810951  0.458676  0.042182  1
  Sn  Sn22  1  0.544577  0.624870  0.749712  1
  Sn  Sn23  1  0.044577  0.875130  0.750288  1
  Sn  Sn24  1  0.454471  0.375972  0.250245  1
  Sn  Sn25  1  0.954471  0.124028  0.249755  1
  Sn  Sn26  1  0.316265  0.146493  0.750241  1
  Sn  Sn27  1  0.816265  0.353507  0.749759  1
  Sn  Sn28  1  0.684239  0.854381  0.249974  1
  Sn  Sn29  1  0.184239  0.645619  0.250026  1
  Pb  Pb30  1  0.310438  0.041870  0.042092  1
  Pb  Pb31  1  0.810438  0.458130  0.457908  1
  Pb  Pb32  1  0.689348  0.957828  0.541617  1
  Pb  Pb33  1  0.189348  0.542172  0.958383  1
  Pb  Pb34  1  0.689446  0.957869  0.958210  1
  Pb  Pb35  1  0.189446  0.542131  0.541790  1
