# generated using pymatgen
data_Zr3Sc4Ru8W
_symmetry_space_group_name_H-M   'P 1'
_cell_length_a   6.42548400
_cell_length_b   4.56424700
_cell_length_c   9.15574400
_cell_angle_alpha   90.00010027
_cell_angle_beta   89.99787504
_cell_angle_gamma   89.99984443
_symmetry_Int_Tables_number   1
_chemical_formula_structural   Zr3Sc4Ru8W
_chemical_formula_sum   'Zr3 Sc4 Ru8 W1'
_cell_volume   268.51504609
_cell_formula_units_Z   1
loop_
 _symmetry_equiv_pos_site_id
 _symmetry_equiv_pos_as_xyz
  1  'x, y, z'
loop_
 _atom_site_type_symbol
 _atom_site_label
 _atom_site_symmetry_multiplicity
 _atom_site_fract_x
 _atom_site_fract_y
 _atom_site_fract_z
 _atom_site_occupancy
  Zr  Zr0  1  0.249916  0.750001  0.374628  1
  Zr  Zr1  1  0.750077  0.250001  0.625026  1
  Zr  Zr2  1  0.250075  0.749999  0.875411  1
  Sc  Sc3  1  0.249872  0.250002  0.125009  1
  Sc  Sc4  1  0.749892  0.750003  0.373072  1
  Sc  Sc5  1  0.250081  0.249999  0.625009  1
  Sc  Sc6  1  0.750111  0.749989  0.876993  1
  Ru  Ru7  1  0.512290  0.749998  0.124976  1
  Ru  Ru8  1  0.987604  0.750001  0.124982  1
  Ru  Ru9  1  0.506420  0.250003  0.365889  1
  Ru  Ru10  1  0.993465  0.250002  0.365906  1
  Ru  Ru11  1  0.000178  0.750002  0.624988  1
  Ru  Ru12  1  0.499956  0.749996  0.624999  1
  Ru  Ru13  1  0.993676  0.250002  0.884025  1
  Ru  Ru14  1  0.506488  0.249999  0.884065  1
  W  W15  1  0.749897  0.250002  0.125022  1
