# generated using pymatgen
data_EuYLuTaO7
_symmetry_space_group_name_H-M   'P 1'
_cell_length_a   6.46698565
_cell_length_b   6.44231118
_cell_length_c   7.53652500
_cell_angle_alpha   90.00000000
_cell_angle_beta   90.00000000
_cell_angle_gamma   108.92071031
_symmetry_Int_Tables_number   1
_chemical_formula_structural   EuYLuTaO7
_chemical_formula_sum   'Eu2 Y2 Lu2 Ta2 O14'
_cell_volume   297.02382262
_cell_formula_units_Z   2
loop_
 _symmetry_equiv_pos_site_id
 _symmetry_equiv_pos_as_xyz
  1  'x, y, z'
loop_
 _atom_site_type_symbol
 _atom_site_label
 _atom_site_symmetry_multiplicity
 _atom_site_fract_x
 _atom_site_fract_y
 _atom_site_fract_z
 _atom_site_occupancy
  Eu  Eu0  1  0.500276  0.499875  0.499903  1
  Eu  Eu1  1  0.499724  0.500125  0.999903  1
  Y  Y2  1  0.533534  0.999474  0.750306  1
  Y  Y3  1  0.466466  0.000526  0.250306  1
  Lu  Lu4  1  0.998240  0.468147  0.749773  1
  Lu  Lu5  1  0.001760  0.531853  0.249773  1
  Ta  Ta6  1  0.000019  0.000102  0.500165  1
  Ta  Ta7  1  0.999981  0.999898  0.000165  1
  O  O8  1  0.646342  0.362733  0.750147  1
  O  O9  1  0.353658  0.637267  0.250147  1
  O  O10  1  0.937741  0.072839  0.750064  1
  O  O11  1  0.062259  0.927161  0.250064  1
  O  O12  1  0.941638  0.680602  0.537315  1
  O  O13  1  0.058362  0.319398  0.037315  1
  O  O14  1  0.322616  0.075804  0.969466  1
  O  O15  1  0.677384  0.924196  0.469466  1
  O  O16  1  0.357350  0.628458  0.749860  1
  O  O17  1  0.642650  0.371542  0.249860  1
  O  O18  1  0.942548  0.681470  0.961759  1
  O  O19  1  0.057452  0.318530  0.461759  1
  O  O20  1  0.322156  0.075589  0.531240  1
  O  O21  1  0.677844  0.924411  0.031240  1
