# generated using pymatgen
data_Tm3Al12Ru3Rh
_symmetry_space_group_name_H-M   'P 1'
_cell_length_a   8.75485786
_cell_length_b   8.75485767
_cell_length_c   9.54899900
_cell_angle_alpha   90.00000000
_cell_angle_beta   90.00000000
_cell_angle_gamma   119.81140674
_symmetry_Int_Tables_number   1
_chemical_formula_structural   Tm3Al12Ru3Rh
_chemical_formula_sum   'Tm6 Al24 Ru6 Rh2'
_cell_volume   635.05138139
_cell_formula_units_Z   2
loop_
 _symmetry_equiv_pos_site_id
 _symmetry_equiv_pos_as_xyz
  1  'x, y, z'
loop_
 _atom_site_type_symbol
 _atom_site_label
 _atom_site_symmetry_multiplicity
 _atom_site_fract_x
 _atom_site_fract_y
 _atom_site_fract_z
 _atom_site_occupancy
  Tm  Tm0  1  0.804998  0.195002  0.750000  1
  Tm  Tm1  1  0.195002  0.804998  0.250000  1
  Tm  Tm2  1  0.387011  0.189694  0.750000  1
  Tm  Tm3  1  0.612989  0.810306  0.250000  1
  Tm  Tm4  1  0.810306  0.612989  0.750000  1
  Tm  Tm5  1  0.189694  0.387011  0.250000  1
  Al  Al6  1  0.667241  0.332759  0.978728  1
  Al  Al7  1  0.332759  0.667241  0.021272  1
  Al  Al8  1  0.332759  0.667241  0.478728  1
  Al  Al9  1  0.667241  0.332759  0.521272  1
  Al  Al10  1  0.837002  0.162998  0.421835  1
  Al  Al11  1  0.162998  0.837002  0.578165  1
  Al  Al12  1  0.324915  0.161442  0.421260  1
  Al  Al13  1  0.162998  0.837002  0.921835  1
  Al  Al14  1  0.675085  0.838558  0.578740  1
  Al  Al15  1  0.837002  0.162998  0.078165  1
  Al  Al16  1  0.838558  0.675085  0.421260  1
  Al  Al17  1  0.675085  0.838558  0.921260  1
  Al  Al18  1  0.161442  0.324915  0.578740  1
  Al  Al19  1  0.324915  0.161442  0.078740  1
  Al  Al20  1  0.161442  0.324915  0.921260  1
  Al  Al21  1  0.838558  0.675085  0.078740  1
  Al  Al22  1  0.438815  0.561185  0.750000  1
  Al  Al23  1  0.561185  0.438815  0.250000  1
  Al  Al24  1  0.123664  0.561053  0.750000  1
  Al  Al25  1  0.876336  0.438947  0.250000  1
  Al  Al26  1  0.438947  0.876336  0.750000  1
  Al  Al27  1  0.561053  0.123664  0.250000  1
  Al  Al28  1  0.000456  0.999544  0.750000  1
  Al  Al29  1  0.999544  0.000456  0.250000  1
  Ru  Ru30  1  0.000000  0.500000  0.000000  1
  Ru  Ru31  1  0.500000  0.000000  0.000000  1
  Ru  Ru32  1  0.000000  0.500000  0.500000  1
  Ru  Ru33  1  0.500000  0.000000  0.500000  1
  Ru  Ru34  1  0.000000  0.000000  0.000000  1
  Ru  Ru35  1  0.000000  0.000000  0.500000  1
  Rh  Rh36  1  0.500000  0.500000  0.000000  1
  Rh  Rh37  1  0.500000  0.500000  0.500000  1
