# generated using pymatgen
data_Tb2TmHf(Al3Rh)6
_symmetry_space_group_name_H-M   'P 1'
_cell_length_a   7.53285179
_cell_length_b   7.51968705
_cell_length_c   9.39680900
_cell_angle_alpha   90.00000000
_cell_angle_beta   90.00000000
_cell_angle_gamma   119.48943634
_symmetry_Int_Tables_number   1
_chemical_formula_structural   Tb2TmHf(Al3Rh)6
_chemical_formula_sum   'Tb2 Tm1 Hf1 Al18 Rh6'
_cell_volume   463.32064992
_cell_formula_units_Z   1
loop_
 _symmetry_equiv_pos_site_id
 _symmetry_equiv_pos_as_xyz
  1  'x, y, z'
loop_
 _atom_site_type_symbol
 _atom_site_label
 _atom_site_symmetry_multiplicity
 _atom_site_fract_x
 _atom_site_fract_y
 _atom_site_fract_z
 _atom_site_occupancy
  Tb  Tb0  1  0.006249  0.327339  0.750000  1
  Tb  Tb1  1  0.328208  0.006440  0.750000  1
  Tm  Tm2  1  0.672932  0.995912  0.250000  1
  Hf  Hf3  1  0.996159  0.673185  0.250000  1
  Al  Al4  1  0.124316  0.122105  0.250000  1
  Al  Al5  1  0.870141  0.869059  0.750000  1
  Al  Al6  1  0.999447  0.338791  0.081649  1
  Al  Al7  1  0.999095  0.664599  0.929645  1
  Al  Al8  1  0.999095  0.664599  0.570355  1
  Al  Al9  1  0.332793  0.997148  0.418295  1
  Al  Al10  1  0.999447  0.338791  0.418351  1
  Al  Al11  1  0.664292  0.998011  0.573449  1
  Al  Al12  1  0.664292  0.998011  0.926551  1
  Al  Al13  1  0.332793  0.997148  0.081705  1
  Al  Al14  1  0.333883  0.333904  0.546014  1
  Al  Al15  1  0.669854  0.667745  0.441877  1
  Al  Al16  1  0.669854  0.667745  0.058123  1
  Al  Al17  1  0.333883  0.333904  0.953986  1
  Al  Al18  1  0.336597  0.552557  0.250000  1
  Al  Al19  1  0.660752  0.451200  0.750000  1
  Al  Al20  1  0.557306  0.344543  0.250000  1
  Al  Al21  1  0.450001  0.658972  0.750000  1
  Rh  Rh22  1  0.672990  0.328552  0.002498  1
  Rh  Rh23  1  0.327702  0.672834  0.003025  1
  Rh  Rh24  1  0.327702  0.672834  0.496975  1
  Rh  Rh25  1  0.672990  0.328552  0.497502  1
  Rh  Rh26  1  0.998613  0.997756  0.002962  1
  Rh  Rh27  1  0.998613  0.997756  0.497038  1
