# generated using pymatgen
data_DyY4OsRu
_symmetry_space_group_name_H-M   'P 1'
_cell_length_a   8.51171573
_cell_length_b   8.51171684
_cell_length_c   7.32798968
_cell_angle_alpha   83.27973142
_cell_angle_beta   83.27973855
_cell_angle_gamma   44.11495826
_symmetry_Int_Tables_number   1
_chemical_formula_structural   DyY4OsRu
_chemical_formula_sum   'Dy2 Y8 Os2 Ru2'
_cell_volume   366.60734547
_cell_formula_units_Z   2
loop_
 _symmetry_equiv_pos_site_id
 _symmetry_equiv_pos_as_xyz
  1  'x, y, z'
loop_
 _atom_site_type_symbol
 _atom_site_label
 _atom_site_symmetry_multiplicity
 _atom_site_fract_x
 _atom_site_fract_y
 _atom_site_fract_z
 _atom_site_occupancy
  Dy  Dy0  1  0.576224  0.423776  0.750000  1
  Dy  Dy1  1  0.422626  0.577374  0.250000  1
  Y  Y2  1  0.206987  0.977850  0.584536  1
  Y  Y3  1  0.022150  0.793013  0.915464  1
  Y  Y4  1  0.205620  0.359647  0.315322  1
  Y  Y5  1  0.640353  0.794380  0.184678  1
  Y  Y6  1  0.794716  0.640485  0.684690  1
  Y  Y7  1  0.359515  0.205284  0.815310  1
  Y  Y8  1  0.978418  0.207611  0.084863  1
  Y  Y9  1  0.792389  0.021582  0.415137  1
  Os  Os10  1  0.179093  0.601908  0.574785  1
  Os  Os11  1  0.398092  0.820907  0.925215  1
  Ru  Ru12  1  0.821303  0.397487  0.425380  1
  Ru  Ru13  1  0.602513  0.178697  0.074620  1
