# generated using pymatgen
data_Hf6Fe2Co16Si7P5
_symmetry_space_group_name_H-M   'P 1'
_cell_length_a   11.97033778
_cell_length_b   12.01431397
_cell_length_c   3.62938600
_cell_angle_alpha   90.00000000
_cell_angle_beta   90.00000000
_cell_angle_gamma   120.12160671
_symmetry_Int_Tables_number   1
_chemical_formula_structural   Hf6Fe2Co16Si7P5
_chemical_formula_sum   'Hf6 Fe2 Co16 Si7 P5'
_cell_volume   451.47706057
_cell_formula_units_Z   1
loop_
 _symmetry_equiv_pos_site_id
 _symmetry_equiv_pos_as_xyz
  1  'x, y, z'
loop_
 _atom_site_type_symbol
 _atom_site_label
 _atom_site_symmetry_multiplicity
 _atom_site_fract_x
 _atom_site_fract_y
 _atom_site_fract_z
 _atom_site_occupancy
  Hf  Hf0  1  0.814340  0.813664  0.500000  1
  Hf  Hf1  1  0.000000  0.177054  0.500000  1
  Hf  Hf2  1  0.334131  0.663610  0.000000  1
  Hf  Hf3  1  0.665869  0.329478  0.000000  1
  Hf  Hf4  1  0.000000  0.557845  0.000000  1
  Hf  Hf5  1  0.185660  0.999324  0.500000  1
  Fe  Fe6  1  0.449081  0.451375  0.000000  1
  Fe  Fe7  1  0.550919  0.002295  0.000000  1
  Co  Co8  1  0.625219  0.821570  0.000000  1
  Co  Co9  1  0.374781  0.196351  0.000000  1
  Co  Co10  1  0.000000  0.726448  0.500000  1
  Co  Co11  1  0.278076  0.272673  0.500000  1
  Co  Co12  1  0.871235  0.350581  0.500000  1
  Co  Co13  1  0.721924  0.994596  0.500000  1
  Co  Co14  1  0.816554  0.631813  0.000000  1
  Co  Co15  1  0.183446  0.815259  0.000000  1
  Co  Co16  1  0.359526  0.886325  0.500000  1
  Co  Co17  1  0.128765  0.479346  0.500000  1
  Co  Co18  1  0.640474  0.526799  0.500000  1
  Co  Co19  1  0.000000  0.000354  0.000000  1
  Co  Co20  1  0.519972  0.647500  0.500000  1
  Co  Co21  1  0.480028  0.127528  0.500000  1
  Co  Co22  1  0.199622  0.366577  0.000000  1
  Co  Co23  1  0.800378  0.166955  0.000000  1
  Si  Si24  1  0.000000  0.345661  0.000000  1
  Si  Si25  1  0.821168  0.515155  0.500000  1
  Si  Si26  1  0.680979  0.158827  0.500000  1
  Si  Si27  1  0.516130  0.838360  0.500000  1
  Si  Si28  1  0.178832  0.693986  0.500000  1
  Si  Si29  1  0.483870  0.322231  0.500000  1
  Si  Si30  1  0.319021  0.477846  0.500000  1
  P  P31  1  0.178320  0.173995  0.000000  1
  P  P32  1  0.634025  0.640843  0.000000  1
  P  P33  1  0.821680  0.995675  0.000000  1
  P  P34  1  0.365975  0.006819  0.000000  1
  P  P35  1  0.000000  0.825283  0.000000  1
