# generated using pymatgen
data_Gd6Er4(GaSb)3
_symmetry_space_group_name_H-M   'P 1'
_cell_length_a   8.77479800
_cell_length_b   8.78535215
_cell_length_c   6.45864100
_cell_angle_alpha   90.00000000
_cell_angle_beta   90.00000000
_cell_angle_gamma   119.96026059
_symmetry_Int_Tables_number   1
_chemical_formula_structural   Gd6Er4(GaSb)3
_chemical_formula_sum   'Gd6 Er4 Ga3 Sb3'
_cell_volume   431.36196482
_cell_formula_units_Z   1
loop_
 _symmetry_equiv_pos_site_id
 _symmetry_equiv_pos_as_xyz
  1  'x, y, z'
loop_
 _atom_site_type_symbol
 _atom_site_label
 _atom_site_symmetry_multiplicity
 _atom_site_fract_x
 _atom_site_fract_y
 _atom_site_fract_z
 _atom_site_occupancy
  Gd  Gd0  1  0.011489  0.765603  0.750000  1
  Gd  Gd1  1  0.012221  0.252949  0.250000  1
  Gd  Gd2  1  0.759271  0.747051  0.250000  1
  Gd  Gd3  1  0.749744  0.000000  0.750000  1
  Gd  Gd4  1  0.245886  0.234397  0.750000  1
  Gd  Gd5  1  0.238562  0.000000  0.250000  1
  Er  Er6  1  0.326871  0.666866  0.497227  1
  Er  Er7  1  0.660007  0.333134  0.002773  1
  Er  Er8  1  0.660007  0.333134  0.497227  1
  Er  Er9  1  0.326871  0.666866  0.002773  1
  Ga  Ga10  1  0.400726  0.000000  0.750000  1
  Ga  Ga11  1  0.398425  0.398982  0.250000  1
  Ga  Ga12  1  0.999442  0.601018  0.250000  1
  Sb  Sb13  1  0.997591  0.393509  0.750000  1
  Sb  Sb14  1  0.604081  0.606491  0.750000  1
  Sb  Sb15  1  0.608807  0.000000  0.250000  1
