# generated using pymatgen
data_TbGdErTaO7
_symmetry_space_group_name_H-M   'P 1'
_cell_length_a   6.49217152
_cell_length_b   6.49217123
_cell_length_c   7.51659181
_cell_angle_alpha   89.95515413
_cell_angle_beta   89.95514711
_cell_angle_gamma   108.79319491
_symmetry_Int_Tables_number   1
_chemical_formula_structural   TbGdErTaO7
_chemical_formula_sum   'Tb2 Gd2 Er2 Ta2 O14'
_cell_volume   299.92121080
_cell_formula_units_Z   2
loop_
 _symmetry_equiv_pos_site_id
 _symmetry_equiv_pos_as_xyz
  1  'x, y, z'
loop_
 _atom_site_type_symbol
 _atom_site_label
 _atom_site_symmetry_multiplicity
 _atom_site_fract_x
 _atom_site_fract_y
 _atom_site_fract_z
 _atom_site_occupancy
  Tb  Tb0  1  0.999774  0.465949  0.744625  1
  Tb  Tb1  1  0.534051  0.000226  0.755375  1
  Gd  Gd2  1  0.527428  0.526187  0.498412  1
  Gd  Gd3  1  0.473813  0.472572  0.001588  1
  Er  Er4  1  0.464908  0.999365  0.255811  1
  Er  Er5  1  0.000635  0.535092  0.244189  1
  Ta  Ta6  1  0.002384  0.003012  0.498140  1
  Ta  Ta7  1  0.996988  0.997616  0.001860  1
  O  O8  1  0.069292  0.930708  0.250000  1
  O  O9  1  0.053057  0.310975  0.456761  1
  O  O10  1  0.076570  0.324807  0.030102  1
  O  O11  1  0.357454  0.642546  0.250000  1
  O  O12  1  0.369197  0.630803  0.750000  1
  O  O13  1  0.326380  0.079083  0.975533  1
  O  O14  1  0.313407  0.058050  0.536699  1
  O  O15  1  0.689025  0.946943  0.043239  1
  O  O16  1  0.675193  0.923430  0.469898  1
  O  O17  1  0.632738  0.367262  0.250000  1
  O  O18  1  0.639104  0.360896  0.750000  1
  O  O19  1  0.920917  0.673620  0.524467  1
  O  O20  1  0.941950  0.686593  0.963301  1
  O  O21  1  0.935737  0.064263  0.750000  1
