# generated using pymatgen
data_La5SiAsC2
_symmetry_space_group_name_H-M   'P 1'
_cell_length_a   8.20419600
_cell_length_b   12.94220800
_cell_length_c   4.28331400
_cell_angle_alpha   90.00000000
_cell_angle_beta   90.00000000
_cell_angle_gamma   90.00000000
_symmetry_Int_Tables_number   1
_chemical_formula_structural   La5SiAsC2
_chemical_formula_sum   'La10 Si2 As2 C4'
_cell_volume   454.80404141
_cell_formula_units_Z   2
loop_
 _symmetry_equiv_pos_site_id
 _symmetry_equiv_pos_as_xyz
  1  'x, y, z'
loop_
 _atom_site_type_symbol
 _atom_site_label
 _atom_site_symmetry_multiplicity
 _atom_site_fract_x
 _atom_site_fract_y
 _atom_site_fract_z
 _atom_site_occupancy
  La  La0  1  0.500031  0.995957  0.000000  1
  La  La1  1  0.174657  0.212180  0.000000  1
  La  La2  1  0.674658  0.287820  0.000000  1
  La  La3  1  0.000031  0.504043  0.000000  1
  La  La4  1  0.323975  0.713027  0.000000  1
  La  La5  1  0.823975  0.786973  0.000000  1
  La  La6  1  0.831651  0.060810  0.499998  1
  La  La7  1  0.331651  0.439190  0.499998  1
  La  La8  1  0.668088  0.561646  0.499998  1
  La  La9  1  0.168088  0.938354  0.499998  1
  Si  Si10  1  0.045407  0.670381  0.499998  1
  Si  Si11  1  0.545409  0.829619  0.499998  1
  As  As12  1  0.453776  0.173726  0.499998  1
  As  As13  1  0.953776  0.326274  0.499998  1
  C  C14  1  0.043340  0.046193  0.000000  1
  C  C15  1  0.543339  0.453807  0.000000  1
  C  C16  1  0.459074  0.545706  0.000000  1
  C  C17  1  0.959075  0.954294  0.000000  1
