# generated using pymatgen
data_In4SbP16W3O56
_symmetry_space_group_name_H-M   'P 1'
_cell_length_a   8.11791784
_cell_length_b   8.20980445
_cell_length_c   16.51773825
_cell_angle_alpha   90.04894840
_cell_angle_beta   90.19006597
_cell_angle_gamma   90.07376275
_symmetry_Int_Tables_number   1
_chemical_formula_structural   In4SbP16W3O56
_chemical_formula_sum   'In4 Sb1 P16 W3 O56'
_cell_volume   1100.84236579
_cell_formula_units_Z   1
loop_
 _symmetry_equiv_pos_site_id
 _symmetry_equiv_pos_as_xyz
  1  'x, y, z'
loop_
 _atom_site_type_symbol
 _atom_site_label
 _atom_site_symmetry_multiplicity
 _atom_site_fract_x
 _atom_site_fract_y
 _atom_site_fract_z
 _atom_site_occupancy
  In  In0  1  0.984694  0.243954  0.372434  1
  In  In1  1  0.015268  0.743919  0.626347  1
  In  In2  1  0.515900  0.744204  0.872755  1
  In  In3  1  0.485345  0.244473  0.127298  1
  Sb  Sb4  1  0.483896  0.748415  0.377705  1
  P  P5  1  0.089606  0.366672  0.068922  1
  P  P6  1  0.911439  0.866522  0.931694  1
  P  P7  1  0.410016  0.864665  0.567248  1
  P  P8  1  0.588864  0.370465  0.430706  1
  P  P9  1  0.891615  0.133467  0.171922  1
  P  P10  1  0.109354  0.633526  0.828023  1
  P  P11  1  0.608896  0.632890  0.671168  1
  P  P12  1  0.392092  0.131205  0.329131  1
  P  P13  1  0.098504  0.641591  0.316261  1
  P  P14  1  0.903726  0.140409  0.684469  1
  P  P15  1  0.404314  0.140366  0.814500  1
  P  P16  1  0.595820  0.643355  0.186753  1
  P  P17  1  0.877687  0.843986  0.425544  1
  P  P18  1  0.118740  0.344317  0.573814  1
  P  P19  1  0.620885  0.345141  0.925746  1
  P  P20  1  0.380042  0.844657  0.074880  1
  W  W21  1  0.983944  0.746447  0.124335  1
  W  W22  1  0.017104  0.247054  0.876700  1
  W  W23  1  0.515758  0.246546  0.622097  1
  O  O24  1  0.131375  0.523592  0.590965  1
  O  O25  1  0.864263  0.022713  0.405496  1
  O  O26  1  0.368487  0.024360  0.091430  1
  O  O27  1  0.632847  0.524354  0.908154  1
  O  O28  1  0.026147  0.284445  0.501261  1
  O  O29  1  0.975530  0.791497  0.498145  1
  O  O30  1  0.472060  0.784356  0.002525  1
  O  O31  1  0.529414  0.287147  0.998689  1
  O  O32  1  0.926128  0.140244  0.776671  1
  O  O33  1  0.070611  0.637831  0.223783  1
  O  O34  1  0.577925  0.640876  0.279647  1
  O  O35  1  0.428514  0.137898  0.722320  1
  O  O36  1  0.043710  0.260388  0.654389  1
  O  O37  1  0.953137  0.756195  0.345850  1
  O  O38  1  0.455273  0.762020  0.156388  1
  O  O39  1  0.544194  0.260389  0.845316  1
  O  O40  1  0.238254  0.225508  0.831589  1
  O  O41  1  0.761057  0.727837  0.167570  1
  O  O42  1  0.260650  0.735431  0.330310  1
  O  O43  1  0.737668  0.224483  0.665640  1
  O  O44  1  0.471879  0.520334  0.419544  1
  O  O45  1  0.519853  0.019073  0.573850  1
  O  O46  1  0.022586  0.019343  0.922350  1
  O  O47  1  0.977967  0.518813  0.077969  1
  O  O48  1  0.199955  0.773879  0.076440  1
  O  O49  1  0.800956  0.274334  0.924341  1
  O  O50  1  0.299095  0.273860  0.575316  1
  O  O51  1  0.700674  0.767020  0.431611  1
  O  O52  1  0.024664  0.717656  0.906432  1
  O  O53  1  0.976512  0.217044  0.093422  1
  O  O54  1  0.476927  0.218790  0.406874  1
  O  O55  1  0.524214  0.716584  0.592161  1
  O  O56  1  0.098642  0.477323  0.355260  1
  O  O57  1  0.907410  0.976839  0.645484  1
  O  O58  1  0.407537  0.977317  0.854207  1
  O  O59  1  0.591203  0.478556  0.148732  1
  O  O60  1  0.514383  0.466088  0.675339  1
  O  O61  1  0.491319  0.965514  0.324244  1
  O  O62  1  0.986237  0.967331  0.176507  1
  O  O63  1  0.014570  0.466907  0.824079  1
  O  O64  1  0.072132  0.734489  0.754018  1
  O  O65  1  0.928859  0.236309  0.245485  1
  O  O66  1  0.430116  0.229653  0.254658  1
  O  O67  1  0.571078  0.734658  0.744785  1
  O  O68  1  0.372031  0.833162  0.475808  1
  O  O69  1  0.612357  0.347187  0.522833  1
  O  O70  1  0.115389  0.340960  0.976984  1
  O  O71  1  0.886609  0.840600  0.023501  1
  O  O72  1  0.249176  0.373456  0.114920  1
  O  O73  1  0.751674  0.873253  0.885803  1
  O  O74  1  0.252581  0.872755  0.614452  1
  O  O75  1  0.748182  0.377320  0.385362  1
  O  O76  1  0.288717  0.611576  0.850970  1
  O  O77  1  0.712166  0.111820  0.149035  1
  O  O78  1  0.213387  0.108872  0.351834  1
  O  O79  1  0.788210  0.611114  0.648799  1
