# generated using pymatgen
data_Yb3Pr4Y3Sn8
_symmetry_space_group_name_H-M   'P 1'
_cell_length_a   8.04337600
_cell_length_b   8.40135716
_cell_length_c   15.86500629
_cell_angle_alpha   90.02190978
_cell_angle_beta   90.00000000
_cell_angle_gamma   90.00000000
_symmetry_Int_Tables_number   1
_chemical_formula_structural   Yb3Pr4Y3Sn8
_chemical_formula_sum   'Yb6 Pr8 Y6 Sn16'
_cell_volume   1072.08207655
_cell_formula_units_Z   2
loop_
 _symmetry_equiv_pos_site_id
 _symmetry_equiv_pos_as_xyz
  1  'x, y, z'
loop_
 _atom_site_type_symbol
 _atom_site_label
 _atom_site_symmetry_multiplicity
 _atom_site_fract_x
 _atom_site_fract_y
 _atom_site_fract_z
 _atom_site_occupancy
  Yb  Yb0  1  0.333522  0.829233  0.622973  1
  Yb  Yb1  1  0.833522  0.670767  0.877027  1
  Yb  Yb2  1  0.164382  0.501521  0.750336  1
  Yb  Yb3  1  0.664382  0.998479  0.749664  1
  Yb  Yb4  1  0.834663  0.501977  0.250106  1
  Yb  Yb5  1  0.334663  0.998023  0.249894  1
  Pr  Pr6  1  0.492605  0.317546  0.904386  1
  Pr  Pr7  1  0.992605  0.182454  0.595614  1
  Pr  Pr8  1  0.506703  0.681443  0.403110  1
  Pr  Pr9  1  0.006703  0.818557  0.096890  1
  Pr  Pr10  1  0.507066  0.680564  0.096378  1
  Pr  Pr11  1  0.007066  0.819436  0.403622  1
  Pr  Pr12  1  0.492341  0.317003  0.595535  1
  Pr  Pr13  1  0.992341  0.182997  0.904465  1
  Y  Y14  1  0.335126  0.827411  0.875863  1
  Y  Y15  1  0.835126  0.672589  0.624137  1
  Y  Y16  1  0.665686  0.170487  0.374697  1
  Y  Y17  1  0.165686  0.329513  0.125303  1
  Y  Y18  1  0.667087  0.171903  0.125234  1
  Y  Y19  1  0.167087  0.328097  0.374766  1
  Sn  Sn20  1  0.327022  0.038601  0.038396  1
  Sn  Sn21  1  0.827022  0.461399  0.461604  1
  Sn  Sn22  1  0.676481  0.961495  0.536489  1
  Sn  Sn23  1  0.176481  0.538505  0.963511  1
  Sn  Sn24  1  0.669861  0.963560  0.962003  1
  Sn  Sn25  1  0.169861  0.536440  0.537997  1
  Sn  Sn26  1  0.328562  0.039381  0.460474  1
  Sn  Sn27  1  0.828562  0.460619  0.039526  1
  Sn  Sn28  1  0.534391  0.610232  0.748143  1
  Sn  Sn29  1  0.034391  0.889768  0.751857  1
  Sn  Sn30  1  0.468137  0.386560  0.250348  1
  Sn  Sn31  1  0.968137  0.113440  0.249652  1
  Sn  Sn32  1  0.291554  0.138365  0.750456  1
  Sn  Sn33  1  0.791554  0.361635  0.749544  1
  Sn  Sn34  1  0.704810  0.862333  0.250086  1
  Sn  Sn35  1  0.204810  0.637667  0.249914  1
