# generated using pymatgen
data_Gd6Si2Hg
_symmetry_space_group_name_H-M   'P 1'
_cell_length_a   8.54114413
_cell_length_b   8.54112489
_cell_length_c   8.54114500
_cell_angle_alpha   111.61695754
_cell_angle_beta   110.71489816
_cell_angle_gamma   106.13393903
_symmetry_Int_Tables_number   1
_chemical_formula_structural   Gd6Si2Hg
_chemical_formula_sum   'Gd12 Si4 Hg2'
_cell_volume   478.40746649
_cell_formula_units_Z   2
loop_
 _symmetry_equiv_pos_site_id
 _symmetry_equiv_pos_as_xyz
  1  'x, y, z'
loop_
 _atom_site_type_symbol
 _atom_site_label
 _atom_site_symmetry_multiplicity
 _atom_site_fract_x
 _atom_site_fract_y
 _atom_site_fract_z
 _atom_site_occupancy
  Gd  Gd0  1  0.447109  0.244412  0.202199  1
  Gd  Gd1  1  0.552891  0.755588  0.797801  1
  Gd  Gd2  1  0.042214  0.244412  0.797304  1
  Gd  Gd3  1  0.957786  0.755588  0.202696  1
  Gd  Gd4  1  0.182702  0.275248  0.457250  1
  Gd  Gd5  1  0.817298  0.724752  0.542750  1
  Gd  Gd6  1  0.181999  0.724752  0.907454  1
  Gd  Gd7  1  0.818001  0.275248  0.092546  1
  Gd  Gd8  1  0.323449  0.619221  0.295773  1
  Gd  Gd9  1  0.676551  0.380779  0.704227  1
  Gd  Gd10  1  0.323133  0.027696  0.704563  1
  Gd  Gd11  1  0.676867  0.972304  0.295437  1
  Si  Si12  1  0.364101  0.000000  0.364101  1
  Si  Si13  1  0.635899  0.000000  0.635899  1
  Si  Si14  1  0.116692  0.616823  0.500131  1
  Si  Si15  1  0.883308  0.383177  0.499869  1
  Hg  Hg16  1  0.500000  0.500000  0.000000  1
  Hg  Hg17  1  0.000000  0.000000  0.000000  1
