# generated using pymatgen
data_CsSmY9(C2Br9)2
_symmetry_space_group_name_H-M   'P 1'
_cell_length_a   10.73787866
_cell_length_b   10.81670177
_cell_length_c   10.92281547
_cell_angle_alpha   113.26208306
_cell_angle_beta   87.50207353
_cell_angle_gamma   118.91870792
_symmetry_Int_Tables_number   1
_chemical_formula_structural   CsSmY9(C2Br9)2
_chemical_formula_sum   'Cs1 Sm1 Y9 C4 Br18'
_cell_volume   1002.91671307
_cell_formula_units_Z   1
loop_
 _symmetry_equiv_pos_site_id
 _symmetry_equiv_pos_as_xyz
  1  'x, y, z'
loop_
 _atom_site_type_symbol
 _atom_site_label
 _atom_site_symmetry_multiplicity
 _atom_site_fract_x
 _atom_site_fract_y
 _atom_site_fract_z
 _atom_site_occupancy
  Cs  Cs0  1  0.499930  0.999859  0.500245  1
  Sm  Sm1  1  0.885216  0.058991  0.999168  1
  Y  Y2  1  0.661659  0.715911  0.701518  1
  Y  Y3  1  0.282096  0.364849  0.012919  1
  Y  Y4  1  0.093973  0.408008  0.302065  1
  Y  Y5  1  0.961297  0.037462  0.333603  1
  Y  Y6  1  0.906746  0.591314  0.697680  1
  Y  Y7  1  0.111574  0.942130  0.001028  1
  Y  Y8  1  0.039402  0.962106  0.666403  1
  Y  Y9  1  0.339404  0.284067  0.298664  1
  Y  Y10  1  0.718495  0.634745  0.986995  1
  C  C11  1  0.158748  0.229366  0.125818  1
  C  C12  1  0.842968  0.769526  0.874052  1
  C  C13  1  0.921004  0.848054  0.794099  1
  C  C14  1  0.080758  0.150861  0.205846  1
  Br  Br15  1  0.450996  0.529878  0.834063  1
  Br  Br16  1  0.382706  0.039461  0.160155  1
  Br  Br17  1  0.778119  0.857833  0.500522  1
  Br  Br18  1  0.838273  0.317544  0.159080  1
  Br  Br19  1  0.549599  0.470449  0.166074  1
  Br  Br20  1  0.222328  0.142094  0.499796  1
  Br  Br21  1  0.313945  0.099782  0.829725  1
  Br  Br22  1  0.685292  0.898916  0.171631  1
  Br  Br23  1  0.975022  0.761602  0.172749  1
  Br  Br24  1  0.931998  0.301795  0.500985  1
  Br  Br25  1  0.027011  0.239654  0.825757  1
  Br  Br26  1  0.068449  0.698116  0.498994  1
  Br  Br27  1  0.260672  0.623847  0.188017  1
  Br  Br28  1  0.739297  0.375514  0.811775  1
  Br  Br29  1  0.638193  0.433184  0.499407  1
  Br  Br30  1  0.161833  0.689507  0.845827  1
  Br  Br31  1  0.611352  0.957132  0.834895  1
  Br  Br32  1  0.361645  0.566445  0.500448  1
