# generated using pymatgen
data_Ca5Hg2Ir
_symmetry_space_group_name_H-M   'P 1'
_cell_length_a   7.97156655
_cell_length_b   8.04078078
_cell_length_c   9.24027142
_cell_angle_alpha   115.79129255
_cell_angle_beta   115.55320570
_cell_angle_gamma   90.00000191
_symmetry_Int_Tables_number   1
_chemical_formula_structural   Ca5Hg2Ir
_chemical_formula_sum   'Ca10 Hg4 Ir2'
_cell_volume   468.09971328
_cell_formula_units_Z   2
loop_
 _symmetry_equiv_pos_site_id
 _symmetry_equiv_pos_as_xyz
  1  'x, y, z'
loop_
 _atom_site_type_symbol
 _atom_site_label
 _atom_site_symmetry_multiplicity
 _atom_site_fract_x
 _atom_site_fract_y
 _atom_site_fract_z
 _atom_site_occupancy
  Ca  Ca0  1  0.993907  0.018108  0.000000  1
  Ca  Ca1  1  0.493907  0.481892  0.000000  1
  Ca  Ca2  1  0.465795  0.317036  0.268514  1
  Ca  Ca3  1  0.965795  0.451479  0.268514  1
  Ca  Ca4  1  0.308804  0.787514  0.278764  1
  Ca  Ca5  1  0.808803  0.991250  0.278764  1
  Ca  Ca6  1  0.197282  0.048521  0.731487  1
  Ca  Ca7  1  0.697283  0.182965  0.731487  1
  Ca  Ca8  1  0.030039  0.508751  0.721237  1
  Ca  Ca9  1  0.530040  0.712487  0.721237  1
  Hg  Hg10  1  0.870223  0.628646  0.000000  1
  Hg  Hg11  1  0.370223  0.871354  0.000000  1
  Hg  Hg12  1  0.257978  0.250000  0.500000  1
  Hg  Hg13  1  0.757977  0.749999  0.500000  1
  Ir  Ir14  1  0.625973  0.124334  0.000000  1
  Ir  Ir15  1  0.125974  0.375667  0.000000  1
