# generated using pymatgen
data_Hf7ZrCoSi16Ni11
_symmetry_space_group_name_H-M   'P 1'
_cell_length_a   5.20612200
_cell_length_b   6.88041042
_cell_length_c   13.65771546
_cell_angle_alpha   90.04387344
_cell_angle_beta   89.99923311
_cell_angle_gamma   90.00020783
_symmetry_Int_Tables_number   1
_chemical_formula_structural   Hf7ZrCoSi16Ni11
_chemical_formula_sum   'Hf7 Zr1 Co1 Si16 Ni11'
_cell_volume   489.22272107
_cell_formula_units_Z   1
loop_
 _symmetry_equiv_pos_site_id
 _symmetry_equiv_pos_as_xyz
  1  'x, y, z'
loop_
 _atom_site_type_symbol
 _atom_site_label
 _atom_site_symmetry_multiplicity
 _atom_site_fract_x
 _atom_site_fract_y
 _atom_site_fract_z
 _atom_site_occupancy
  Hf  Hf0  1  0.747547  0.095568  0.145609  1
  Hf  Hf1  1  0.252427  0.097126  0.645941  1
  Hf  Hf2  1  0.752460  0.403974  0.645818  1
  Hf  Hf3  1  0.247621  0.597873  0.354840  1
  Hf  Hf4  1  0.747532  0.904021  0.354513  1
  Hf  Hf5  1  0.252398  0.902662  0.853839  1
  Hf  Hf6  1  0.752496  0.596079  0.854093  1
  Zr  Zr7  1  0.247625  0.402719  0.145810  1
  Co  Co8  1  0.253460  0.500078  0.749995  1
  Si  Si9  1  0.247185  0.020769  0.068589  1
  Si  Si10  1  0.747251  0.524431  0.431740  1
  Si  Si11  1  0.752717  0.024369  0.569185  1
  Si  Si12  1  0.497757  0.751073  0.188794  1
  Si  Si13  1  0.004686  0.251900  0.810523  1
  Si  Si14  1  0.501339  0.251137  0.810522  1
  Si  Si15  1  0.247181  0.979055  0.431273  1
  Si  Si16  1  0.252733  0.520317  0.928622  1
  Si  Si17  1  0.996425  0.750457  0.188804  1
  Si  Si18  1  0.747220  0.475546  0.067976  1
  Si  Si19  1  0.252726  0.479582  0.571438  1
  Si  Si20  1  0.497825  0.249644  0.311665  1
  Si  Si21  1  0.004652  0.747958  0.689214  1
  Si  Si22  1  0.752696  0.975430  0.930738  1
  Si  Si23  1  0.501351  0.748732  0.689224  1
  Si  Si24  1  0.996379  0.250260  0.311661  1
  Ni  Ni25  1  0.999006  0.248751  0.978649  1
  Ni  Ni26  1  0.499914  0.250870  0.480015  1
  Ni  Ni27  1  0.753508  0.999832  0.749914  1
  Ni  Ni28  1  0.500098  0.245380  0.978662  1
  Ni  Ni29  1  0.746796  0.500827  0.250632  1
  Ni  Ni30  1  0.499561  0.753686  0.520573  1
  Ni  Ni31  1  0.000640  0.253857  0.479997  1
  Ni  Ni32  1  0.000483  0.746395  0.020080  1
  Ni  Ni33  1  0.246755  0.999968  0.250412  1
  Ni  Ni34  1  0.499961  0.749326  0.020068  1
  Ni  Ni35  1  0.999590  0.750351  0.520572  1
