# generated using pymatgen
data_Tb6Ni16As13Pd4
_symmetry_space_group_name_H-M   'P 1'
_cell_length_a   13.28336100
_cell_length_b   13.28336205
_cell_length_c   3.92797200
_cell_angle_alpha   90.00000000
_cell_angle_beta   90.00000000
_cell_angle_gamma   119.99999987
_symmetry_Int_Tables_number   1
_chemical_formula_structural   Tb6Ni16As13Pd4
_chemical_formula_sum   'Tb6 Ni16 As13 Pd4'
_cell_volume   600.22627265
_cell_formula_units_Z   1
loop_
 _symmetry_equiv_pos_site_id
 _symmetry_equiv_pos_as_xyz
  1  'x, y, z'
loop_
 _atom_site_type_symbol
 _atom_site_label
 _atom_site_symmetry_multiplicity
 _atom_site_fract_x
 _atom_site_fract_y
 _atom_site_fract_z
 _atom_site_occupancy
  Tb  Tb0  1  0.186122  0.469025  0.000000  1
  Tb  Tb1  1  0.530975  0.717097  0.000000  1
  Tb  Tb2  1  0.282903  0.813878  0.000000  1
  Tb  Tb3  1  0.719552  0.188658  0.500000  1
  Tb  Tb4  1  0.811342  0.530893  0.500000  1
  Tb  Tb5  1  0.469107  0.280448  0.500000  1
  Ni  Ni6  1  0.090795  0.201324  0.000000  1
  Ni  Ni7  1  0.798676  0.889469  0.000000  1
  Ni  Ni8  1  0.110531  0.909205  0.000000  1
  Ni  Ni9  1  0.666667  0.333333  0.000000  1
  Ni  Ni10  1  0.421100  0.439871  0.000000  1
  Ni  Ni11  1  0.560129  0.981228  0.000000  1
  Ni  Ni12  1  0.018772  0.578900  0.000000  1
  Ni  Ni13  1  0.243304  0.316593  0.500000  1
  Ni  Ni14  1  0.683407  0.926711  0.500000  1
  Ni  Ni15  1  0.073289  0.756696  0.500000  1
  Ni  Ni16  1  0.439098  0.026689  0.500000  1
  Ni  Ni17  1  0.973311  0.412408  0.500000  1
  Ni  Ni18  1  0.587592  0.560902  0.500000  1
  Ni  Ni19  1  0.922008  0.244560  0.000000  1
  Ni  Ni20  1  0.755440  0.677448  0.000000  1
  Ni  Ni21  1  0.322552  0.077992  0.000000  1
  As  As22  1  0.388127  0.516776  0.500000  1
  As  As23  1  0.483224  0.871350  0.500000  1
  As  As24  1  0.128650  0.611873  0.500000  1
  As  As25  1  0.049456  0.287661  0.500000  1
  As  As26  1  0.712339  0.761794  0.500000  1
  As  As27  1  0.238206  0.950544  0.500000  1
  As  As28  1  0.525332  0.141066  0.000000  1
  As  As29  1  0.858934  0.384266  0.000000  1
  As  As30  1  0.615734  0.474668  0.000000  1
  As  As31  1  0.760959  0.046948  0.000000  1
  As  As32  1  0.953052  0.714011  0.000000  1
  As  As33  1  0.285989  0.239041  0.000000  1
  As  As34  1  0.000000  0.000000  0.000000  1
  Pd  Pd35  1  0.333333  0.666667  0.500000  1
  Pd  Pd36  1  0.917678  0.071622  0.500000  1
  Pd  Pd37  1  0.928378  0.846056  0.500000  1
  Pd  Pd38  1  0.153944  0.082322  0.500000  1
