# generated using pymatgen
data_Ce2Nd2TmIr3
_symmetry_space_group_name_H-M   'P 1'
_cell_length_a   11.16880900
_cell_length_b   11.16880900
_cell_length_c   6.30634100
_cell_angle_alpha   90.00000000
_cell_angle_beta   90.00000000
_cell_angle_gamma   90.00000000
_symmetry_Int_Tables_number   1
_chemical_formula_structural   Ce2Nd2TmIr3
_chemical_formula_sum   'Ce8 Nd8 Tm4 Ir12'
_cell_volume   786.66744610
_cell_formula_units_Z   4
loop_
 _symmetry_equiv_pos_site_id
 _symmetry_equiv_pos_as_xyz
  1  'x, y, z'
loop_
 _atom_site_type_symbol
 _atom_site_label
 _atom_site_symmetry_multiplicity
 _atom_site_fract_x
 _atom_site_fract_y
 _atom_site_fract_z
 _atom_site_occupancy
  Ce  Ce0  1  0.288790  0.088201  0.384927  1
  Ce  Ce1  1  0.288790  0.911799  0.884927  1
  Ce  Ce2  1  0.711210  0.088201  0.884927  1
  Ce  Ce3  1  0.711210  0.911799  0.384927  1
  Ce  Ce4  1  0.588201  0.788790  0.884927  1
  Ce  Ce5  1  0.588201  0.211210  0.384927  1
  Ce  Ce6  1  0.411799  0.788790  0.384927  1
  Ce  Ce7  1  0.411799  0.211210  0.884927  1
  Nd  Nd8  1  0.212636  0.411001  0.620463  1
  Nd  Nd9  1  0.212636  0.588999  0.120463  1
  Nd  Nd10  1  0.787364  0.411001  0.120463  1
  Nd  Nd11  1  0.787364  0.588999  0.620463  1
  Nd  Nd12  1  0.911001  0.712636  0.120463  1
  Nd  Nd13  1  0.911001  0.287364  0.620463  1
  Nd  Nd14  1  0.088999  0.712636  0.620463  1
  Nd  Nd15  1  0.088999  0.287364  0.120463  1
  Tm  Tm16  1  0.000000  0.000000  0.497708  1
  Tm  Tm17  1  0.000000  0.000000  0.997708  1
  Tm  Tm18  1  0.500000  0.500000  0.997708  1
  Tm  Tm19  1  0.500000  0.500000  0.497708  1
  Ir  Ir20  1  0.840355  0.142716  0.244691  1
  Ir  Ir21  1  0.840355  0.857284  0.744691  1
  Ir  Ir22  1  0.159645  0.142716  0.744691  1
  Ir  Ir23  1  0.159645  0.857284  0.244691  1
  Ir  Ir24  1  0.642716  0.340355  0.744691  1
  Ir  Ir25  1  0.642716  0.659645  0.244691  1
  Ir  Ir26  1  0.357284  0.340355  0.244691  1
  Ir  Ir27  1  0.357284  0.659645  0.744691  1
  Ir  Ir28  1  0.500000  0.000000  0.122243  1
  Ir  Ir29  1  0.500000  0.000000  0.622243  1
  Ir  Ir30  1  0.000000  0.500000  0.882019  1
  Ir  Ir31  1  0.000000  0.500000  0.382019  1
