# generated using pymatgen
data_Pm2MnTc3
_symmetry_space_group_name_H-M   'P 1'
_cell_length_a   5.60181317
_cell_length_b   5.60181295
_cell_length_c   5.60181402
_cell_angle_alpha   56.82102984
_cell_angle_beta   56.82103047
_cell_angle_gamma   56.82102276
_symmetry_Int_Tables_number   1
_chemical_formula_structural   Pm2MnTc3
_chemical_formula_sum   'Pm2 Mn1 Tc3'
_cell_volume   115.18076804
_cell_formula_units_Z   1
loop_
 _symmetry_equiv_pos_site_id
 _symmetry_equiv_pos_as_xyz
  1  'x, y, z'
loop_
 _atom_site_type_symbol
 _atom_site_label
 _atom_site_symmetry_multiplicity
 _atom_site_fract_x
 _atom_site_fract_y
 _atom_site_fract_z
 _atom_site_occupancy
  Pm  Pm0  1  0.747825  0.747825  0.747825  1
  Pm  Pm1  1  0.502175  0.502175  0.502175  1
  Mn  Mn2  1  0.125000  0.125000  0.125000  1
  Tc  Tc3  1  0.625000  0.125000  0.125000  1
  Tc  Tc4  1  0.125000  0.625000  0.125000  1
  Tc  Tc5  1  0.125000  0.125000  0.625000  1
