# generated using pymatgen
data_Sc6AlCo2
_symmetry_space_group_name_H-M   'P 1'
_cell_length_a   7.73262401
_cell_length_b   7.73262390
_cell_length_c   7.73262374
_cell_angle_alpha   106.23532047
_cell_angle_beta   110.89008797
_cell_angle_gamma   111.33624660
_symmetry_Int_Tables_number   1
_chemical_formula_structural   Sc6AlCo2
_chemical_formula_sum   'Sc12 Al2 Co4'
_cell_volume   355.07419332
_cell_formula_units_Z   2
loop_
 _symmetry_equiv_pos_site_id
 _symmetry_equiv_pos_as_xyz
  1  'x, y, z'
loop_
 _atom_site_type_symbol
 _atom_site_label
 _atom_site_symmetry_multiplicity
 _atom_site_fract_x
 _atom_site_fract_y
 _atom_site_fract_z
 _atom_site_occupancy
  Sc  Sc0  1  0.705433  0.263196  0.968629  1
  Sc  Sc1  1  0.294567  0.736804  0.031371  1
  Sc  Sc2  1  0.705433  0.736804  0.442237  1
  Sc  Sc3  1  0.294567  0.263196  0.557763  1
  Sc  Sc4  1  0.799846  0.116250  0.316404  1
  Sc  Sc5  1  0.799846  0.483443  0.683596  1
  Sc  Sc6  1  0.200154  0.883750  0.683596  1
  Sc  Sc7  1  0.200154  0.516557  0.316404  1
  Sc  Sc8  1  0.593909  0.780908  0.813001  1
  Sc  Sc9  1  0.967907  0.780908  0.186999  1
  Sc  Sc10  1  0.032093  0.219092  0.813001  1
  Sc  Sc11  1  0.406091  0.219092  0.186999  1
  Al  Al12  1  0.500000  0.500000  0.000000  1
  Al  Al13  1  0.500000  0.000000  0.500000  1
  Co  Co14  1  0.858242  0.500000  0.358242  1
  Co  Co15  1  0.141758  0.500000  0.641758  1
  Co  Co16  1  0.000000  0.119712  0.119712  1
  Co  Co17  1  0.000000  0.880288  0.880288  1
