# generated using pymatgen
data_Tb3Ho5Cd2IrPd
_symmetry_space_group_name_H-M   'P 1'
_cell_length_a   9.65208028
_cell_length_b   9.65208040
_cell_length_c   9.62796500
_cell_angle_alpha   60.08261082
_cell_angle_beta   60.08261042
_cell_angle_gamma   60.23024277
_symmetry_Int_Tables_number   1
_chemical_formula_structural   Tb3Ho5Cd2IrPd
_chemical_formula_sum   'Tb6 Ho10 Cd4 Ir2 Pd2'
_cell_volume   636.14250354
_cell_formula_units_Z   2
loop_
 _symmetry_equiv_pos_site_id
 _symmetry_equiv_pos_as_xyz
  1  'x, y, z'
loop_
 _atom_site_type_symbol
 _atom_site_label
 _atom_site_symmetry_multiplicity
 _atom_site_fract_x
 _atom_site_fract_y
 _atom_site_fract_z
 _atom_site_occupancy
  Tb  Tb0  1  0.187207  0.815892  0.811581  1
  Tb  Tb1  1  0.815892  0.187207  0.185320  1
  Tb  Tb2  1  0.815892  0.187207  0.811581  1
  Tb  Tb3  1  0.187207  0.815892  0.185320  1
  Tb  Tb4  1  0.813723  0.813723  0.186277  1
  Tb  Tb5  1  0.186472  0.186472  0.813528  1
  Ho  Ho6  1  0.601452  0.601452  0.594916  1
  Ho  Ho7  1  0.601452  0.601452  0.202182  1
  Ho  Ho8  1  0.608516  0.191928  0.599779  1
  Ho  Ho9  1  0.191928  0.608516  0.599779  1
  Ho  Ho10  1  0.056073  0.439795  0.439491  1
  Ho  Ho11  1  0.439795  0.056073  0.064641  1
  Ho  Ho12  1  0.439795  0.056073  0.439491  1
  Ho  Ho13  1  0.056073  0.439795  0.064641  1
  Ho  Ho14  1  0.440935  0.440935  0.059065  1
  Ho  Ho15  1  0.061744  0.061744  0.438256  1
  Cd  Cd16  1  0.831037  0.831037  0.832201  1
  Cd  Cd17  1  0.831037  0.831037  0.505726  1
  Cd  Cd18  1  0.830177  0.506022  0.831900  1
  Cd  Cd19  1  0.506022  0.830177  0.831900  1
  Ir  Ir20  1  0.390535  0.822560  0.393453  1
  Ir  Ir21  1  0.822560  0.390535  0.393453  1
  Pd  Pd22  1  0.392241  0.392241  0.396066  1
  Pd  Pd23  1  0.392241  0.392241  0.819453  1
