# generated using pymatgen
data_TaNbP6(SeO12)2
_symmetry_space_group_name_H-M   'P 1'
_cell_length_a   8.68403245
_cell_length_b   8.68031125
_cell_length_c   9.06776783
_cell_angle_alpha   90.08151989
_cell_angle_beta   118.44786167
_cell_angle_gamma   120.02894169
_symmetry_Int_Tables_number   1
_chemical_formula_structural   TaNbP6(SeO12)2
_chemical_formula_sum   'Ta1 Nb1 P6 Se2 O24'
_cell_volume   493.83005995
_cell_formula_units_Z   1
loop_
 _symmetry_equiv_pos_site_id
 _symmetry_equiv_pos_as_xyz
  1  'x, y, z'
loop_
 _atom_site_type_symbol
 _atom_site_label
 _atom_site_symmetry_multiplicity
 _atom_site_fract_x
 _atom_site_fract_y
 _atom_site_fract_z
 _atom_site_occupancy
  Ta  Ta0  1  0.208870  0.354845  0.563449  1
  Nb  Nb1  1  0.786432  0.142886  0.928643  1
  P  P2  1  0.997208  0.958275  0.246816  1
  P  P3  1  0.289654  0.540774  0.251072  1
  P  P4  1  0.278407  0.749422  0.747082  1
  P  P5  1  0.709268  0.248113  0.252368  1
  P  P6  1  0.722162  0.472889  0.749083  1
  P  P7  1  0.003967  0.031003  0.753902  1
  Se  Se8  1  0.217178  0.862624  0.077862  1
  Se  Se9  1  0.790556  0.640977  0.434143  1
  O  O10  1  0.311697  0.726686  0.237456  1
  O  O11  1  0.873720  0.994880  0.076639  1
  O  O12  1  0.840570  0.847362  0.599604  1
  O  O13  1  0.832392  0.790937  0.266434  1
  O  O14  1  0.155586  0.927094  0.241087  1
  O  O15  1  0.475321  0.540098  0.271746  1
  O  O16  1  0.104871  0.749115  0.579720  1
  O  O17  1  0.895123  0.643949  0.914548  1
  O  O18  1  0.274213  0.763645  0.912095  1
  O  O19  1  0.492860  0.917023  0.780545  1
  O  O20  1  0.743861  0.479118  0.589297  1
  O  O21  1  0.722156  0.432192  0.265464  1
  O  O22  1  0.271005  0.569928  0.709586  1
  O  O23  1  0.270028  0.505614  0.411192  1
  O  O24  1  0.512344  0.084459  0.243586  1
  O  O25  1  0.708183  0.202264  0.086820  1
  O  O26  1  0.081900  0.373711  0.085056  1
  O  O27  1  0.907079  0.273057  0.416245  1
  O  O28  1  0.506726  0.437685  0.698682  1
  O  O29  1  0.869481  0.082338  0.782045  1
  O  O30  1  0.139377  0.195017  0.705407  1
  O  O31  1  0.134905  0.137809  0.404626  1
  O  O32  1  0.163776  0.030283  0.928832  1
  O  O33  1  0.709123  0.293930  0.788864  1
