# generated using pymatgen
data_Tm4Lu8InTc3Pb
_symmetry_space_group_name_H-M   'P 1'
_cell_length_a   8.34222457
_cell_length_b   8.34251827
_cell_length_c   8.34222321
_cell_angle_alpha   108.84736458
_cell_angle_beta   108.93124549
_cell_angle_gamma   110.63996938
_symmetry_Int_Tables_number   1
_chemical_formula_structural   Tm4Lu8InTc3Pb
_chemical_formula_sum   'Tm4 Lu8 In1 Tc3 Pb1'
_cell_volume   446.79732507
_cell_formula_units_Z   1
loop_
 _symmetry_equiv_pos_site_id
 _symmetry_equiv_pos_as_xyz
  1  'x, y, z'
loop_
 _atom_site_type_symbol
 _atom_site_label
 _atom_site_symmetry_multiplicity
 _atom_site_fract_x
 _atom_site_fract_y
 _atom_site_fract_z
 _atom_site_occupancy
  Tm  Tm0  1  0.303244  0.307197  0.610448  1
  Tm  Tm1  1  0.696756  0.692803  0.389552  1
  Tm  Tm2  1  0.696749  0.307197  0.003954  1
  Tm  Tm3  1  0.303251  0.692803  0.996046  1
  Lu  Lu4  1  0.188831  0.427261  0.238432  1
  Lu  Lu5  1  0.811169  0.572739  0.761568  1
  Lu  Lu6  1  0.188851  0.950429  0.761576  1
  Lu  Lu7  1  0.953627  0.190683  0.762948  1
  Lu  Lu8  1  0.811149  0.049571  0.238424  1
  Lu  Lu9  1  0.046373  0.809317  0.237052  1
  Lu  Lu10  1  0.427735  0.190683  0.237057  1
  Lu  Lu11  1  0.572265  0.809317  0.762943  1
  In  In12  1  0.000000  0.500000  0.500000  1
  Tc  Tc13  1  0.370867  0.370880  0.000014  1
  Tc  Tc14  1  0.629133  0.629120  0.999986  1
  Tc  Tc15  1  0.000000  0.000000  0.000000  1
  Pb  Pb16  1  0.500000  0.000000  0.500000  1
