# generated using pymatgen
data_Er4BeB7Ru10
_symmetry_space_group_name_H-M   'P 1'
_cell_length_a   3.07450600
_cell_length_b   8.75629346
_cell_length_c   10.25864300
_cell_angle_alpha   90.12307133
_cell_angle_beta   90.00000000
_cell_angle_gamma   90.00000000
_symmetry_Int_Tables_number   1
_chemical_formula_structural   Er4BeB7Ru10
_chemical_formula_sum   'Er4 Be1 B7 Ru10'
_cell_volume   276.17513043
_cell_formula_units_Z   1
loop_
 _symmetry_equiv_pos_site_id
 _symmetry_equiv_pos_as_xyz
  1  'x, y, z'
loop_
 _atom_site_type_symbol
 _atom_site_label
 _atom_site_symmetry_multiplicity
 _atom_site_fract_x
 _atom_site_fract_y
 _atom_site_fract_z
 _atom_site_occupancy
  Er  Er0  1  0.500000  0.840321  0.182823  1
  Er  Er1  1  0.500000  0.158302  0.818250  1
  Er  Er2  1  0.500000  0.658131  0.682699  1
  Er  Er3  1  0.500000  0.341562  0.319436  1
  Be  Be4  1  0.500000  0.965321  0.589674  1
  B  B5  1  0.500000  0.036077  0.407647  1
  B  B6  1  0.500000  0.852677  0.898733  1
  B  B7  1  0.500000  0.147115  0.099958  1
  B  B8  1  0.500000  0.650700  0.400683  1
  B  B9  1  0.500000  0.350368  0.597836  1
  B  B10  1  0.500000  0.466687  0.911409  1
  B  B11  1  0.500000  0.532946  0.088643  1
  Ru  Ru12  1  0.000000  0.655479  0.956520  1
  Ru  Ru13  1  0.000000  0.341691  0.045660  1
  Ru  Ru14  1  0.000000  0.839859  0.446421  1
  Ru  Ru15  1  0.000000  0.165818  0.542963  1
  Ru  Ru16  1  0.000000  0.000465  0.002578  1
  Ru  Ru17  1  0.000000  0.406126  0.760774  1
  Ru  Ru18  1  0.000000  0.592160  0.238733  1
  Ru  Ru19  1  0.000000  0.502102  0.499912  1
  Ru  Ru20  1  0.000000  0.900896  0.748664  1
  Ru  Ru21  1  0.000000  0.095196  0.259984  1
