# generated using pymatgen
data_TbDy3Co3CuOs4
_symmetry_space_group_name_H-M   'P 1'
_cell_length_a   5.23339108
_cell_length_b   5.10035854
_cell_length_c   9.19463033
_cell_angle_alpha   73.89759104
_cell_angle_beta   90.23390854
_cell_angle_gamma   119.16260906
_symmetry_Int_Tables_number   1
_chemical_formula_structural   TbDy3Co3CuOs4
_chemical_formula_sum   'Tb1 Dy3 Co3 Cu1 Os4'
_cell_volume   203.37835210
_cell_formula_units_Z   1
loop_
 _symmetry_equiv_pos_site_id
 _symmetry_equiv_pos_as_xyz
  1  'x, y, z'
loop_
 _atom_site_type_symbol
 _atom_site_label
 _atom_site_symmetry_multiplicity
 _atom_site_fract_x
 _atom_site_fract_y
 _atom_site_fract_z
 _atom_site_occupancy
  Tb  Tb0  1  0.881871  0.756431  0.369008  1
  Dy  Dy1  1  0.377476  0.751764  0.873947  1
  Dy  Dy2  1  0.997075  0.997642  0.001791  1
  Dy  Dy3  1  0.493195  0.993737  0.505721  1
  Co  Co4  1  0.687990  0.375132  0.937726  1
  Co  Co5  1  0.942946  0.380709  0.181526  1
  Co  Co6  1  0.432346  0.369565  0.693218  1
  Cu  Cu7  1  0.186668  0.374802  0.437062  1
  Os  Os8  1  0.442065  0.378937  0.184680  1
  Os  Os9  1  0.933152  0.371110  0.690320  1
  Os  Os10  1  0.442065  0.878449  0.184680  1
  Os  Os11  1  0.933152  0.871722  0.690320  1
