# generated using pymatgen
data_Tb5Ho10Tm(Ga3Co)2
_symmetry_space_group_name_H-M   'P 1'
_cell_length_a   9.97093506
_cell_length_b   9.97089591
_cell_length_c   6.94941800
_cell_angle_alpha   90.00203922
_cell_angle_beta   89.99837363
_cell_angle_gamma   119.98753178
_symmetry_Int_Tables_number   1
_chemical_formula_structural   Tb5Ho10Tm(Ga3Co)2
_chemical_formula_sum   'Tb5 Ho10 Tm1 Ga6 Co2'
_cell_volume   598.41667516
_cell_formula_units_Z   1
loop_
 _symmetry_equiv_pos_site_id
 _symmetry_equiv_pos_as_xyz
  1  'x, y, z'
loop_
 _atom_site_type_symbol
 _atom_site_label
 _atom_site_symmetry_multiplicity
 _atom_site_fract_x
 _atom_site_fract_y
 _atom_site_fract_z
 _atom_site_occupancy
  Tb  Tb0  1  0.464115  0.928218  0.291669  1
  Tb  Tb1  1  0.071781  0.535880  0.291673  1
  Tb  Tb2  1  0.464185  0.535814  0.291725  1
  Tb  Tb3  1  0.000011  0.999984  0.769101  1
  Tb  Tb4  1  0.999971  0.000032  0.269306  1
  Ho  Ho5  1  0.826274  0.652808  0.490070  1
  Ho  Ho6  1  0.347188  0.173727  0.490070  1
  Ho  Ho7  1  0.826515  0.173485  0.489863  1
  Ho  Ho8  1  0.173534  0.346669  0.986654  1
  Ho  Ho9  1  0.653332  0.826461  0.986661  1
  Ho  Ho10  1  0.173301  0.826703  0.986839  1
  Ho  Ho11  1  0.666536  0.333462  0.171714  1
  Ho  Ho12  1  0.333437  0.666570  0.673169  1
  Ho  Ho13  1  0.537206  0.074554  0.792538  1
  Ho  Ho14  1  0.925441  0.462798  0.792534  1
  Tm  Tm15  1  0.537392  0.462607  0.792710  1
  Ga  Ga16  1  0.835721  0.671677  0.040782  1
  Ga  Ga17  1  0.328325  0.164279  0.040781  1
  Ga  Ga18  1  0.835919  0.164082  0.040973  1
  Ga  Ga19  1  0.163546  0.327068  0.542498  1
  Ga  Ga20  1  0.672932  0.836457  0.542497  1
  Ga  Ga21  1  0.163529  0.836471  0.542379  1
  Co  Co22  1  0.666476  0.333526  0.556014  1
  Co  Co23  1  0.333333  0.666666  0.053856  1
