# generated using pymatgen
data_Y17Mg3Ir5Pt7
_symmetry_space_group_name_H-M   'P 1'
_cell_length_a   10.93795119
_cell_length_b   10.92533982
_cell_length_c   6.29648000
_cell_angle_alpha   90.08158039
_cell_angle_beta   89.97331633
_cell_angle_gamma   90.14452913
_symmetry_Int_Tables_number   1
_chemical_formula_structural   Y17Mg3Ir5Pt7
_chemical_formula_sum   'Y17 Mg3 Ir5 Pt7'
_cell_volume   752.43137177
_cell_formula_units_Z   1
loop_
 _symmetry_equiv_pos_site_id
 _symmetry_equiv_pos_as_xyz
  1  'x, y, z'
loop_
 _atom_site_type_symbol
 _atom_site_label
 _atom_site_symmetry_multiplicity
 _atom_site_fract_x
 _atom_site_fract_y
 _atom_site_fract_z
 _atom_site_occupancy
  Y  Y0  1  0.287100  0.086296  0.378337  1
  Y  Y1  1  0.287912  0.912468  0.875521  1
  Y  Y2  1  0.712500  0.082638  0.876076  1
  Y  Y3  1  0.712374  0.912845  0.378186  1
  Y  Y4  1  0.580927  0.785493  0.873912  1
  Y  Y5  1  0.588985  0.206670  0.376083  1
  Y  Y6  1  0.409283  0.792514  0.379926  1
  Y  Y7  1  0.414998  0.211449  0.875147  1
  Y  Y8  1  0.206801  0.414206  0.625043  1
  Y  Y9  1  0.215222  0.586711  0.120771  1
  Y  Y10  1  0.787790  0.415161  0.124622  1
  Y  Y11  1  0.795285  0.589306  0.624875  1
  Y  Y12  1  0.917576  0.712566  0.124307  1
  Y  Y13  1  0.913362  0.287305  0.622047  1
  Y  Y14  1  0.090254  0.712449  0.620968  1
  Y  Y15  1  0.083613  0.287885  0.124432  1
  Y  Y16  1  0.499022  0.502357  0.502651  1
  Mg  Mg17  1  0.999618  0.999836  0.500563  1
  Mg  Mg18  1  0.000332  0.000212  0.999283  1
  Mg  Mg19  1  0.498837  0.500605  0.000324  1
  Ir  Ir20  1  0.343671  0.652448  0.745446  1
  Ir  Ir21  1  0.500211  0.000218  0.120124  1
  Ir  Ir22  1  0.500070  0.000635  0.621209  1
  Ir  Ir23  1  0.999761  0.499904  0.881559  1
  Ir  Ir24  1  0.999824  0.499818  0.376566  1
  Pt  Pt25  1  0.850080  0.150613  0.247577  1
  Pt  Pt26  1  0.848824  0.849833  0.752477  1
  Pt  Pt27  1  0.151332  0.150015  0.752771  1
  Pt  Pt28  1  0.148716  0.850573  0.247181  1
  Pt  Pt29  1  0.654845  0.347480  0.749884  1
  Pt  Pt30  1  0.653522  0.655397  0.250815  1
  Pt  Pt31  1  0.347352  0.344092  0.251316  1
