# generated using pymatgen
data_NaTb2(B3Rh4)2
_symmetry_space_group_name_H-M   'P 1'
_cell_length_a   9.88329092
_cell_length_b   9.03741401
_cell_length_c   5.58252275
_cell_angle_alpha   81.35899953
_cell_angle_beta   64.69349378
_cell_angle_gamma   33.94749638
_symmetry_Int_Tables_number   1
_chemical_formula_structural   NaTb2(B3Rh4)2
_chemical_formula_sum   'Na1 Tb2 B6 Rh8'
_cell_volume   230.18243473
_cell_formula_units_Z   1
loop_
 _symmetry_equiv_pos_site_id
 _symmetry_equiv_pos_as_xyz
  1  'x, y, z'
loop_
 _atom_site_type_symbol
 _atom_site_label
 _atom_site_symmetry_multiplicity
 _atom_site_fract_x
 _atom_site_fract_y
 _atom_site_fract_z
 _atom_site_occupancy
  Na  Na0  1  0.684948  0.684948  0.315052  1
  Tb  Tb1  1  0.316352  0.316352  0.683648  1
  Tb  Tb2  1  0.507503  0.507503  0.492497  1
  B  B3  1  0.669965  0.981971  0.018029  1
  B  B4  1  0.981971  0.669965  0.330035  1
  B  B5  1  0.328516  0.014181  0.985819  1
  B  B6  1  0.014181  0.328516  0.671484  1
  B  B7  1  0.167785  0.831720  0.168280  1
  B  B8  1  0.831720  0.167785  0.832215  1
  Rh  Rh9  1  0.585444  0.585444  0.914556  1
  Rh  Rh10  1  0.913515  0.913515  0.086485  1
  Rh  Rh11  1  0.414412  0.414412  0.085588  1
  Rh  Rh12  1  0.085444  0.085444  0.414556  1
  Rh  Rh13  1  0.914412  0.914412  0.585588  1
  Rh  Rh14  1  0.248646  0.248646  0.251354  1
  Rh  Rh15  1  0.086542  0.086542  0.913458  1
  Rh  Rh16  1  0.748646  0.748646  0.751354  1
