# generated using pymatgen
data_Pr2Tm2IrRh3O14
_symmetry_space_group_name_H-M   'P 1'
_cell_length_a   7.30081075
_cell_length_b   7.35556493
_cell_length_c   7.30081080
_cell_angle_alpha   59.69000742
_cell_angle_beta   59.48056124
_cell_angle_gamma   59.69000654
_symmetry_Int_Tables_number   1
_chemical_formula_structural   Pr2Tm2IrRh3O14
_chemical_formula_sum   'Pr2 Tm2 Ir1 Rh3 O14'
_cell_volume   274.83650254
_cell_formula_units_Z   1
loop_
 _symmetry_equiv_pos_site_id
 _symmetry_equiv_pos_as_xyz
  1  'x, y, z'
loop_
 _atom_site_type_symbol
 _atom_site_label
 _atom_site_symmetry_multiplicity
 _atom_site_fract_x
 _atom_site_fract_y
 _atom_site_fract_z
 _atom_site_occupancy
  Pr  Pr0  1  0.125000  0.125000  0.125000  1
  Pr  Pr1  1  0.125000  0.625000  0.125000  1
  Tm  Tm2  1  0.125000  0.125000  0.625000  1
  Tm  Tm3  1  0.625000  0.125000  0.125000  1
  Ir  Ir4  1  0.625000  0.625000  0.625000  1
  Rh  Rh5  1  0.125000  0.625000  0.625000  1
  Rh  Rh6  1  0.625000  0.125000  0.625000  1
  Rh  Rh7  1  0.625000  0.625000  0.125000  1
  O  O8  1  0.955658  0.530524  0.552116  1
  O  O9  1  0.289139  0.287697  0.697931  1
  O  O10  1  0.960908  0.541128  0.960908  1
  O  O11  1  0.697931  0.287697  0.289139  1
  O  O12  1  0.552116  0.530524  0.955658  1
  O  O13  1  0.542108  0.955621  0.542108  1
  O  O14  1  0.552069  0.962303  0.960861  1
  O  O15  1  0.261709  0.239293  0.261709  1
  O  O16  1  0.294342  0.719476  0.697884  1
  O  O17  1  0.707892  0.294379  0.707892  1
  O  O18  1  0.988291  0.010707  0.988291  1
  O  O19  1  0.960861  0.962303  0.552069  1
  O  O20  1  0.289092  0.708872  0.289092  1
  O  O21  1  0.697884  0.719476  0.294342  1
