# generated using pymatgen
data_Ni(AuF6)2
_symmetry_space_group_name_H-M   'P 1'
_cell_length_a   6.89863808
_cell_length_b   6.89863783
_cell_length_c   10.00091191
_cell_angle_alpha   68.65256156
_cell_angle_beta   68.65256687
_cell_angle_gamma   77.56414743
_symmetry_Int_Tables_number   1
_chemical_formula_structural   Ni(AuF6)2
_chemical_formula_sum   'Ni2 Au4 F24'
_cell_volume   410.99885737
_cell_formula_units_Z   2
loop_
 _symmetry_equiv_pos_site_id
 _symmetry_equiv_pos_as_xyz
  1  'x, y, z'
loop_
 _atom_site_type_symbol
 _atom_site_label
 _atom_site_symmetry_multiplicity
 _atom_site_fract_x
 _atom_site_fract_y
 _atom_site_fract_z
 _atom_site_occupancy
  Ni  Ni0  1  0.168118  0.831882  0.750000  1
  Ni  Ni1  1  0.831882  0.168118  0.250000  1
  Au  Au2  1  0.249710  0.245574  0.375079  1
  Au  Au3  1  0.245574  0.249710  0.875079  1
  Au  Au4  1  0.750290  0.754426  0.624921  1
  Au  Au5  1  0.754426  0.750290  0.124921  1
  F  F6  1  0.874312  0.876330  0.226229  1
  F  F7  1  0.125688  0.123670  0.773771  1
  F  F8  1  0.288750  0.961234  0.520391  1
  F  F9  1  0.974215  0.285047  0.510121  1
  F  F10  1  0.285047  0.974215  0.010121  1
  F  F11  1  0.371533  0.360338  0.471322  1
  F  F12  1  0.360338  0.371533  0.971322  1
  F  F13  1  0.876330  0.874312  0.726229  1
  F  F14  1  0.795331  0.462828  0.265857  1
  F  F15  1  0.038766  0.711250  0.979609  1
  F  F16  1  0.711250  0.038766  0.479609  1
  F  F17  1  0.961234  0.288750  0.020391  1
  F  F18  1  0.517840  0.214332  0.734973  1
  F  F19  1  0.628467  0.639662  0.528678  1
  F  F20  1  0.204669  0.537172  0.734143  1
  F  F21  1  0.639662  0.628467  0.028678  1
  F  F22  1  0.462828  0.795331  0.765857  1
  F  F23  1  0.785668  0.482160  0.765027  1
  F  F24  1  0.537172  0.204669  0.234143  1
  F  F25  1  0.482160  0.785668  0.265027  1
  F  F26  1  0.214332  0.517840  0.234973  1
  F  F27  1  0.714953  0.025785  0.989879  1
  F  F28  1  0.123670  0.125688  0.273771  1
  F  F29  1  0.025785  0.714953  0.489879  1
