# generated using pymatgen
data_Zr8ZnCd(CoN)2
_symmetry_space_group_name_H-M   'P 1'
_cell_length_a   8.81867510
_cell_length_b   8.81820709
_cell_length_c   8.80131300
_cell_angle_alpha   60.06615041
_cell_angle_beta   60.06779621
_cell_angle_gamma   60.15879829
_symmetry_Int_Tables_number   1
_chemical_formula_structural   Zr8ZnCd(CoN)2
_chemical_formula_sum   'Zr16 Zn2 Cd2 Co4 N4'
_cell_volume   485.03664519
_cell_formula_units_Z   2
loop_
 _symmetry_equiv_pos_site_id
 _symmetry_equiv_pos_as_xyz
  1  'x, y, z'
loop_
 _atom_site_type_symbol
 _atom_site_label
 _atom_site_symmetry_multiplicity
 _atom_site_fract_x
 _atom_site_fract_y
 _atom_site_fract_z
 _atom_site_occupancy
  Zr  Zr0  1  0.058924  0.644092  0.648437  1
  Zr  Zr1  1  0.644121  0.058918  0.648425  1
  Zr  Zr2  1  0.647960  0.647923  0.052797  1
  Zr  Zr3  1  0.648027  0.647987  0.651257  1
  Zr  Zr4  1  0.818995  0.818992  0.181069  1
  Zr  Zr5  1  0.182668  0.182741  0.817296  1
  Zr  Zr6  1  0.818482  0.181687  0.818203  1
  Zr  Zr7  1  0.181590  0.818479  0.181731  1
  Zr  Zr8  1  0.181665  0.818472  0.818193  1
  Zr  Zr9  1  0.818488  0.181613  0.181691  1
  Zr  Zr10  1  0.431171  0.431149  0.068830  1
  Zr  Zr11  1  0.069500  0.069509  0.430480  1
  Zr  Zr12  1  0.431039  0.072695  0.430369  1
  Zr  Zr13  1  0.072681  0.431027  0.065882  1
  Zr  Zr14  1  0.072674  0.431041  0.430394  1
  Zr  Zr15  1  0.431025  0.072701  0.065888  1
  Zn  Zn16  1  0.416033  0.416032  0.748178  1
  Zn  Zn17  1  0.416031  0.416027  0.419748  1
  Cd  Cd18  1  0.739615  0.417068  0.421666  1
  Cd  Cd19  1  0.417077  0.739627  0.421655  1
  Co  Co20  1  0.435783  0.855927  0.854155  1
  Co  Co21  1  0.855934  0.435801  0.854143  1
  Co  Co22  1  0.854811  0.854787  0.438083  1
  Co  Co23  1  0.854795  0.854772  0.852341  1
  N  N24  1  0.622238  0.126274  0.125744  1
  N  N25  1  0.126270  0.622235  0.125747  1
  N  N26  1  0.126198  0.126209  0.622047  1
  N  N27  1  0.126202  0.126212  0.125551  1
