# generated using pymatgen
data_H7PdSe
_symmetry_space_group_name_H-M   'P 1'
_cell_length_a   4.28142072
_cell_length_b   4.28695148
_cell_length_c   7.48878432
_cell_angle_alpha   101.33845984
_cell_angle_beta   81.26255919
_cell_angle_gamma   118.47747034
_symmetry_Int_Tables_number   1
_chemical_formula_structural   H7PdSe
_chemical_formula_sum   'H7 Pd1 Se1'
_cell_volume   118.19191452
_cell_formula_units_Z   1
loop_
 _symmetry_equiv_pos_site_id
 _symmetry_equiv_pos_as_xyz
  1  'x, y, z'
loop_
 _atom_site_type_symbol
 _atom_site_label
 _atom_site_symmetry_multiplicity
 _atom_site_fract_x
 _atom_site_fract_y
 _atom_site_fract_z
 _atom_site_occupancy
  H  H0  1  0.135313  0.045984  0.862557  1
  H  H1  1  0.797186  0.295026  0.808365  1
  H  H2  1  0.261298  0.764841  0.095694  1
  H  H3  1  0.123310  0.882033  0.800549  1
  H  H4  1  0.542462  0.657805  0.696865  1
  H  H5  1  0.434219  0.513653  0.624372  1
  H  H6  1  0.772315  0.320647  0.910273  1
  Pd  Pd7  1  0.892442  0.165337  0.320575  1
  Se  Se8  1  0.232504  0.821875  0.299532  1
