# generated using pymatgen
data_Dy2Tm8Si5Sn
_symmetry_space_group_name_H-M   'P 1'
_cell_length_a   8.44992619
_cell_length_b   8.44992504
_cell_length_c   6.29819800
_cell_angle_alpha   90.00000000
_cell_angle_beta   90.00000000
_cell_angle_gamma   120.30851003
_symmetry_Int_Tables_number   1
_chemical_formula_structural   Dy2Tm8Si5Sn
_chemical_formula_sum   'Dy2 Tm8 Si5 Sn1'
_cell_volume   388.23455495
_cell_formula_units_Z   1
loop_
 _symmetry_equiv_pos_site_id
 _symmetry_equiv_pos_as_xyz
  1  'x, y, z'
loop_
 _atom_site_type_symbol
 _atom_site_label
 _atom_site_symmetry_multiplicity
 _atom_site_fract_x
 _atom_site_fract_y
 _atom_site_fract_z
 _atom_site_occupancy
  Dy  Dy0  1  0.766088  0.766088  0.250000  1
  Dy  Dy1  1  0.240180  0.240180  0.750000  1
  Tm  Tm2  1  0.673918  0.331371  0.502901  1
  Tm  Tm3  1  0.331371  0.673918  0.502901  1
  Tm  Tm4  1  0.331371  0.673918  0.997099  1
  Tm  Tm5  1  0.673918  0.331371  0.997099  1
  Tm  Tm6  1  0.240501  0.989291  0.250000  1
  Tm  Tm7  1  0.989291  0.240501  0.250000  1
  Tm  Tm8  1  0.756171  0.998801  0.750000  1
  Tm  Tm9  1  0.998801  0.756171  0.750000  1
  Si  Si10  1  0.603738  0.999051  0.250000  1
  Si  Si11  1  0.999051  0.603738  0.250000  1
  Si  Si12  1  0.606077  0.606077  0.750000  1
  Si  Si13  1  0.394243  0.000945  0.750000  1
  Si  Si14  1  0.000945  0.394243  0.750000  1
  Sn  Sn15  1  0.394337  0.394337  0.250000  1
