# generated using pymatgen
data_Dy7Th(AlRu)2
_symmetry_space_group_name_H-M   'P 1'
_cell_length_a   9.55856701
_cell_length_b   9.55862916
_cell_length_c   9.58695400
_cell_angle_alpha   59.90209550
_cell_angle_beta   59.90178163
_cell_angle_gamma   60.04615597
_symmetry_Int_Tables_number   1
_chemical_formula_structural   Dy7Th(AlRu)2
_chemical_formula_sum   'Dy14 Th2 Al4 Ru4'
_cell_volume   618.67071138
_cell_formula_units_Z   2
loop_
 _symmetry_equiv_pos_site_id
 _symmetry_equiv_pos_as_xyz
  1  'x, y, z'
loop_
 _atom_site_type_symbol
 _atom_site_label
 _atom_site_symmetry_multiplicity
 _atom_site_fract_x
 _atom_site_fract_y
 _atom_site_fract_z
 _atom_site_occupancy
  Dy  Dy0  1  0.603791  0.192467  0.601871  1
  Dy  Dy1  1  0.192468  0.603791  0.601871  1
  Dy  Dy2  1  0.057834  0.442186  0.444079  1
  Dy  Dy3  1  0.442185  0.057834  0.055902  1
  Dy  Dy4  1  0.442185  0.057833  0.444079  1
  Dy  Dy5  1  0.057834  0.442186  0.055902  1
  Dy  Dy6  1  0.442019  0.442019  0.057981  1
  Dy  Dy7  1  0.055045  0.055044  0.444955  1
  Dy  Dy8  1  0.187887  0.813320  0.811701  1
  Dy  Dy9  1  0.813320  0.187888  0.187091  1
  Dy  Dy10  1  0.813320  0.187888  0.811701  1
  Dy  Dy11  1  0.187887  0.813320  0.187091  1
  Dy  Dy12  1  0.814814  0.814815  0.185185  1
  Dy  Dy13  1  0.190660  0.190660  0.809340  1
  Th  Th14  1  0.597252  0.597252  0.598862  1
  Th  Th15  1  0.597252  0.597251  0.206635  1
  Al  Al16  1  0.827036  0.827036  0.828005  1
  Al  Al17  1  0.827036  0.827036  0.517923  1
  Al  Al18  1  0.826483  0.518288  0.827614  1
  Al  Al19  1  0.518288  0.826483  0.827614  1
  Ru  Ru20  1  0.392509  0.392508  0.389523  1
  Ru  Ru21  1  0.392509  0.392509  0.825459  1
  Ru  Ru22  1  0.395119  0.825267  0.389807  1
  Ru  Ru23  1  0.825266  0.395119  0.389808  1
