# generated using pymatgen
data_HoLuZr2(NiAs)4
_symmetry_space_group_name_H-M   'P 1'
_cell_length_a   3.99675700
_cell_length_b   3.99675717
_cell_length_c   14.68652500
_cell_angle_alpha   90.00000000
_cell_angle_beta   90.00000000
_cell_angle_gamma   120.00000689
_symmetry_Int_Tables_number   1
_chemical_formula_structural   HoLuZr2(NiAs)4
_chemical_formula_sum   'Ho1 Lu1 Zr2 Ni4 As4'
_cell_volume   203.17260886
_cell_formula_units_Z   1
loop_
 _symmetry_equiv_pos_site_id
 _symmetry_equiv_pos_as_xyz
  1  'x, y, z'
loop_
 _atom_site_type_symbol
 _atom_site_label
 _atom_site_symmetry_multiplicity
 _atom_site_fract_x
 _atom_site_fract_y
 _atom_site_fract_z
 _atom_site_occupancy
  Ho  Ho0  1  0.000000  0.000000  0.500000  1
  Lu  Lu1  1  0.000000  0.000000  0.000000  1
  Zr  Zr2  1  0.000000  0.000000  0.249177  1
  Zr  Zr3  1  0.000000  0.000000  0.750823  1
  Ni  Ni4  1  0.333333  0.666667  0.152499  1
  Ni  Ni5  1  0.666667  0.333333  0.847501  1
  Ni  Ni6  1  0.666667  0.333333  0.654263  1
  Ni  Ni7  1  0.333333  0.666667  0.345737  1
  As  As8  1  0.333333  0.666667  0.621199  1
  As  As9  1  0.666667  0.333333  0.378801  1
  As  As10  1  0.666667  0.333333  0.118809  1
  As  As11  1  0.333333  0.666667  0.881191  1
