# generated using pymatgen
data_Al8TcPd4Ru3
_symmetry_space_group_name_H-M   'P 1'
_cell_length_a   5.99101000
_cell_length_b   5.99113900
_cell_length_c   6.24627400
_cell_angle_alpha   90.00000000
_cell_angle_beta   89.99653493
_cell_angle_gamma   90.00000000
_symmetry_Int_Tables_number   1
_chemical_formula_structural   Al8TcPd4Ru3
_chemical_formula_sum   'Al8 Tc1 Pd4 Ru3'
_cell_volume   224.19734795
_cell_formula_units_Z   1
loop_
 _symmetry_equiv_pos_site_id
 _symmetry_equiv_pos_as_xyz
  1  'x, y, z'
loop_
 _atom_site_type_symbol
 _atom_site_label
 _atom_site_symmetry_multiplicity
 _atom_site_fract_x
 _atom_site_fract_y
 _atom_site_fract_z
 _atom_site_occupancy
  Al  Al0  1  0.001480  0.001476  0.249230  1
  Al  Al1  1  0.001480  0.498523  0.249230  1
  Al  Al2  1  0.498521  0.001484  0.249245  1
  Al  Al3  1  0.498521  0.498517  0.249245  1
  Al  Al4  1  0.498519  0.001475  0.750753  1
  Al  Al5  1  0.498519  0.498524  0.750753  1
  Al  Al6  1  0.001479  0.001484  0.750771  1
  Al  Al7  1  0.001479  0.498517  0.750771  1
  Tc  Tc8  1  0.250008  0.250000  0.000001  1
  Pd  Pd9  1  0.749994  0.250000  0.999999  1
  Pd  Pd10  1  0.250007  0.750001  0.000000  1
  Pd  Pd11  1  0.249993  0.750001  0.499998  1
  Pd  Pd12  1  0.750007  0.250000  0.500002  1
  Ru  Ru13  1  0.749992  0.750001  0.000001  1
  Ru  Ru14  1  0.750007  0.750001  0.499999  1
  Ru  Ru15  1  0.249992  0.250000  0.499999  1
