# generated using pymatgen
data_Dy2Zn(Co2B)3
_symmetry_space_group_name_H-M   'P 1'
_cell_length_a   5.09482929
_cell_length_b   5.09933553
_cell_length_c   12.65536000
_cell_angle_alpha   89.99999668
_cell_angle_beta   89.99997970
_cell_angle_gamma   119.93215220
_symmetry_Int_Tables_number   1
_chemical_formula_structural   Dy2Zn(Co2B)3
_chemical_formula_sum   'Dy4 Zn2 Co12 B6'
_cell_volume   284.93439279
_cell_formula_units_Z   2
loop_
 _symmetry_equiv_pos_site_id
 _symmetry_equiv_pos_as_xyz
  1  'x, y, z'
loop_
 _atom_site_type_symbol
 _atom_site_label
 _atom_site_symmetry_multiplicity
 _atom_site_fract_x
 _atom_site_fract_y
 _atom_site_fract_z
 _atom_site_occupancy
  Dy  Dy0  1  0.000000  0.000000  0.260700  1
  Dy  Dy1  1  0.000000  0.000000  0.500096  1
  Dy  Dy2  1  0.000000  0.000000  0.999941  1
  Dy  Dy3  1  0.000000  0.000000  0.739339  1
  Zn  Zn4  1  0.333363  0.666696  0.999941  1
  Zn  Zn5  1  0.666637  0.333304  0.999941  1
  Co  Co6  1  0.500000  0.000001  0.613716  1
  Co  Co7  1  0.500000  0.000000  0.838182  1
  Co  Co8  1  0.500000  0.500000  0.838217  1
  Co  Co9  1  0.500000  0.500000  0.386339  1
  Co  Co10  1  0.000000  0.500000  0.613683  1
  Co  Co11  1  0.000000  0.500000  0.161780  1
  Co  Co12  1  0.000000  0.500000  0.838190  1
  Co  Co13  1  0.500000  0.500000  0.161763  1
  Co  Co14  1  0.500000  0.000000  0.386355  1
  Co  Co15  1  0.500000  0.000000  0.161744  1
  Co  Co16  1  0.500000  0.500000  0.613706  1
  Co  Co17  1  0.000000  0.500000  0.386354  1
  B  B18  1  0.666775  0.333581  0.730347  1
  B  B19  1  0.333225  0.666419  0.730347  1
  B  B20  1  0.333393  0.666526  0.269606  1
  B  B21  1  0.666636  0.333414  0.500054  1
  B  B22  1  0.666606  0.333474  0.269606  1
  B  B23  1  0.333364  0.666585  0.500054  1
