# generated using pymatgen
data_Ho3TmCd2Si3Ge
_symmetry_space_group_name_H-M   'P 1'
_cell_length_a   7.16820144
_cell_length_b   7.16820098
_cell_length_c   4.17326200
_cell_angle_alpha   90.00000000
_cell_angle_beta   90.00000000
_cell_angle_gamma   89.99076003
_symmetry_Int_Tables_number   1
_chemical_formula_structural   Ho3TmCd2Si3Ge
_chemical_formula_sum   'Ho3 Tm1 Cd2 Si3 Ge1'
_cell_volume   214.43517170
_cell_formula_units_Z   1
loop_
 _symmetry_equiv_pos_site_id
 _symmetry_equiv_pos_as_xyz
  1  'x, y, z'
loop_
 _atom_site_type_symbol
 _atom_site_label
 _atom_site_symmetry_multiplicity
 _atom_site_fract_x
 _atom_site_fract_y
 _atom_site_fract_z
 _atom_site_occupancy
  Ho  Ho0  1  0.680205  0.177524  0.500000  1
  Ho  Ho1  1  0.322476  0.819795  0.500000  1
  Ho  Ho2  1  0.175467  0.324533  0.500000  1
  Tm  Tm3  1  0.823004  0.676996  0.500000  1
  Cd  Cd4  1  0.501750  0.503385  0.000000  1
  Cd  Cd5  1  0.996615  0.998250  0.000000  1
  Si  Si6  1  0.116607  0.617920  0.000000  1
  Si  Si7  1  0.882080  0.383393  0.000000  1
  Si  Si8  1  0.621152  0.878848  0.000000  1
  Ge  Ge9  1  0.380642  0.119358  0.000000  1
