# generated using pymatgen
data_TbHo2Co3(PRu)6
_symmetry_space_group_name_H-M   'P 1'
_cell_length_a   3.88276100
_cell_length_b   10.77398700
_cell_length_c   12.60128800
_cell_angle_alpha   90.00000000
_cell_angle_beta   90.00000000
_cell_angle_gamma   90.00000000
_symmetry_Int_Tables_number   1
_chemical_formula_structural   TbHo2Co3(PRu)6
_chemical_formula_sum   'Tb2 Ho4 Co6 P12 Ru12'
_cell_volume   527.14736905
_cell_formula_units_Z   2
loop_
 _symmetry_equiv_pos_site_id
 _symmetry_equiv_pos_as_xyz
  1  'x, y, z'
loop_
 _atom_site_type_symbol
 _atom_site_label
 _atom_site_symmetry_multiplicity
 _atom_site_fract_x
 _atom_site_fract_y
 _atom_site_fract_z
 _atom_site_occupancy
  Tb  Tb0  1  0.000000  0.500000  0.526832  1
  Tb  Tb1  1  0.500000  0.000000  0.471763  1
  Ho  Ho2  1  0.500000  0.822268  0.203311  1
  Ho  Ho3  1  0.500000  0.177732  0.203311  1
  Ho  Ho4  1  0.000000  0.680940  0.797489  1
  Ho  Ho5  1  0.000000  0.319060  0.797489  1
  Co  Co6  1  0.000000  0.500000  0.985546  1
  Co  Co7  1  0.500000  0.000000  0.015956  1
  Co  Co8  1  0.000000  0.161150  0.012779  1
  Co  Co9  1  0.000000  0.838850  0.012779  1
  Co  Co10  1  0.500000  0.500000  0.700814  1
  Co  Co11  1  0.000000  0.000000  0.298795  1
  P  P12  1  0.500000  0.313083  0.618029  1
  P  P13  1  0.500000  0.686917  0.618029  1
  P  P14  1  0.000000  0.187458  0.381918  1
  P  P15  1  0.000000  0.812542  0.381918  1
  P  P16  1  0.500000  0.500000  0.879066  1
  P  P17  1  0.000000  0.000000  0.120562  1
  P  P18  1  0.500000  0.852500  0.896396  1
  P  P19  1  0.500000  0.147500  0.896396  1
  P  P20  1  0.000000  0.656185  0.100686  1
  P  P21  1  0.000000  0.343815  0.100686  1
  P  P22  1  0.500000  0.500000  0.338641  1
  P  P23  1  0.000000  0.000000  0.661087  1
  Ru  Ru24  1  0.500000  0.298608  0.428153  1
  Ru  Ru25  1  0.500000  0.701392  0.428153  1
  Ru  Ru26  1  0.000000  0.201781  0.571830  1
  Ru  Ru27  1  0.000000  0.798219  0.571830  1
  Ru  Ru28  1  0.500000  0.876305  0.715350  1
  Ru  Ru29  1  0.500000  0.123695  0.715350  1
  Ru  Ru30  1  0.000000  0.625506  0.282232  1
  Ru  Ru31  1  0.000000  0.374494  0.282232  1
  Ru  Ru32  1  0.500000  0.327723  0.990397  1
  Ru  Ru33  1  0.500000  0.672277  0.990397  1
  Ru  Ru34  1  0.500000  0.500000  0.152380  1
  Ru  Ru35  1  0.000000  0.000000  0.851419  1
