# generated using pymatgen
data_Pr3Nd5(Ho3Pb4)4
_symmetry_space_group_name_H-M   'P 1'
_cell_length_a   8.27124344
_cell_length_b   8.38853827
_cell_length_c   15.79423937
_cell_angle_alpha   90.00611101
_cell_angle_beta   90.02405547
_cell_angle_gamma   89.97143333
_symmetry_Int_Tables_number   1
_chemical_formula_structural   Pr3Nd5(Ho3Pb4)4
_chemical_formula_sum   'Pr3 Nd5 Ho12 Pb16'
_cell_volume   1095.86161354
_cell_formula_units_Z   1
loop_
 _symmetry_equiv_pos_site_id
 _symmetry_equiv_pos_as_xyz
  1  'x, y, z'
loop_
 _atom_site_type_symbol
 _atom_site_label
 _atom_site_symmetry_multiplicity
 _atom_site_fract_x
 _atom_site_fract_y
 _atom_site_fract_z
 _atom_site_occupancy
  Pr  Pr0  1  0.023668  0.177739  0.097220  1
  Pr  Pr1  1  0.476340  0.677670  0.902872  1
  Pr  Pr2  1  0.976307  0.822340  0.597113  1
  Nd  Nd3  1  0.476064  0.677578  0.597373  1
  Nd  Nd4  1  0.976102  0.822275  0.902552  1
  Nd  Nd5  1  0.523849  0.322302  0.097406  1
  Nd  Nd6  1  0.023882  0.177833  0.402553  1
  Nd  Nd7  1  0.523844  0.322340  0.402719  1
  Ho  Ho8  1  0.633300  0.158374  0.622215  1
  Ho  Ho9  1  0.133418  0.341713  0.877690  1
  Ho  Ho10  1  0.366592  0.841761  0.122401  1
  Ho  Ho11  1  0.866549  0.658165  0.377722  1
  Ho  Ho12  1  0.366570  0.841779  0.377704  1
  Ho  Ho13  1  0.866488  0.658245  0.122321  1
  Ho  Ho14  1  0.633510  0.158251  0.877703  1
  Ho  Ho15  1  0.133416  0.341726  0.622229  1
  Ho  Ho16  1  0.798921  0.494912  0.749944  1
  Ho  Ho17  1  0.298957  0.005121  0.749988  1
  Ho  Ho18  1  0.201144  0.504999  0.250101  1
  Ho  Ho19  1  0.700988  0.994946  0.250127  1
  Pb  Pb20  1  0.705765  0.959708  0.456404  1
  Pb  Pb21  1  0.205887  0.540670  0.043565  1
  Pb  Pb22  1  0.294080  0.040635  0.956454  1
  Pb  Pb23  1  0.793616  0.459115  0.543331  1
  Pb  Pb24  1  0.294330  0.040927  0.543250  1
  Pb  Pb25  1  0.794267  0.459136  0.956693  1
  Pb  Pb26  1  0.705723  0.959141  0.043316  1
  Pb  Pb27  1  0.206245  0.540485  0.456588  1
  Pb  Pb28  1  0.436869  0.370872  0.749915  1
  Pb  Pb29  1  0.936844  0.129148  0.750052  1
  Pb  Pb30  1  0.563128  0.629026  0.250004  1
  Pb  Pb31  1  0.063150  0.870757  0.250071  1
  Pb  Pb32  1  0.663583  0.850238  0.749785  1
  Pb  Pb33  1  0.163603  0.649692  0.750190  1
  Pb  Pb34  1  0.336893  0.150130  0.250117  1
  Pb  Pb35  1  0.836110  0.350252  0.250314  1
