# generated using pymatgen
data_Nd4Ga4IrPtRh2
_symmetry_space_group_name_H-M   'P 1'
_cell_length_a   4.45082300
_cell_length_b   7.06609770
_cell_length_c   7.87690220
_cell_angle_alpha   89.93747359
_cell_angle_beta   90.00000000
_cell_angle_gamma   90.00000000
_symmetry_Int_Tables_number   1
_chemical_formula_structural   Nd4Ga4IrPtRh2
_chemical_formula_sum   'Nd4 Ga4 Ir1 Pt1 Rh2'
_cell_volume   247.72803405
_cell_formula_units_Z   1
loop_
 _symmetry_equiv_pos_site_id
 _symmetry_equiv_pos_as_xyz
  1  'x, y, z'
loop_
 _atom_site_type_symbol
 _atom_site_label
 _atom_site_symmetry_multiplicity
 _atom_site_fract_x
 _atom_site_fract_y
 _atom_site_fract_z
 _atom_site_occupancy
  Nd  Nd0  1  0.250000  0.026355  0.686345  1
  Nd  Nd1  1  0.250000  0.530034  0.811936  1
  Nd  Nd2  1  0.750000  0.973688  0.311603  1
  Nd  Nd3  1  0.750000  0.474653  0.192561  1
  Ga  Ga4  1  0.250000  0.151678  0.073053  1
  Ga  Ga5  1  0.250000  0.653252  0.430302  1
  Ga  Ga6  1  0.750000  0.842671  0.930218  1
  Ga  Ga7  1  0.750000  0.348181  0.567332  1
  Ir  Ir8  1  0.250000  0.275383  0.389785  1
  Pt  Pt9  1  0.750000  0.223396  0.890034  1
  Rh  Rh10  1  0.250000  0.776042  0.107794  1
  Rh  Rh11  1  0.750000  0.724666  0.609037  1
