# generated using pymatgen
data_SrLi(SiNi)2
_symmetry_space_group_name_H-M   'P 1'
_cell_length_a   4.04271500
_cell_length_b   4.04271585
_cell_length_c   14.29286700
_cell_angle_alpha   90.00000000
_cell_angle_beta   90.00000000
_cell_angle_gamma   120.00001763
_symmetry_Int_Tables_number   1
_chemical_formula_structural   SrLi(SiNi)2
_chemical_formula_sum   'Sr2 Li2 Si4 Ni4'
_cell_volume   202.30017084
_cell_formula_units_Z   2
loop_
 _symmetry_equiv_pos_site_id
 _symmetry_equiv_pos_as_xyz
  1  'x, y, z'
loop_
 _atom_site_type_symbol
 _atom_site_label
 _atom_site_symmetry_multiplicity
 _atom_site_fract_x
 _atom_site_fract_y
 _atom_site_fract_z
 _atom_site_occupancy
  Sr  Sr0  1  0.000000  0.000000  0.750000  1
  Sr  Sr1  1  0.000000  0.000000  0.250000  1
  Li  Li2  1  0.000000  0.000000  0.500000  1
  Li  Li3  1  0.000000  0.000000  0.000000  1
  Si  Si4  1  0.333333  0.666667  0.594529  1
  Si  Si5  1  0.666667  0.333333  0.405471  1
  Si  Si6  1  0.666667  0.333333  0.094529  1
  Si  Si7  1  0.333333  0.666667  0.905471  1
  Ni  Ni8  1  0.333333  0.666667  0.434735  1
  Ni  Ni9  1  0.666667  0.333333  0.934735  1
  Ni  Ni10  1  0.333333  0.666667  0.065265  1
  Ni  Ni11  1  0.666667  0.333333  0.565265  1
