# generated using pymatgen
data_TbDy5B14OsW
_symmetry_space_group_name_H-M   'P 1'
_cell_length_a   8.11667307
_cell_length_b   8.11667298
_cell_length_c   9.40007700
_cell_angle_alpha   90.00000000
_cell_angle_beta   90.00000000
_cell_angle_gamma   155.09655726
_symmetry_Int_Tables_number   1
_chemical_formula_structural   TbDy5B14OsW
_chemical_formula_sum   'Tb1 Dy5 B14 Os1 W1'
_cell_volume   260.77308526
_cell_formula_units_Z   1
loop_
 _symmetry_equiv_pos_site_id
 _symmetry_equiv_pos_as_xyz
  1  'x, y, z'
loop_
 _atom_site_type_symbol
 _atom_site_label
 _atom_site_symmetry_multiplicity
 _atom_site_fract_x
 _atom_site_fract_y
 _atom_site_fract_z
 _atom_site_occupancy
  Tb  Tb0  1  0.754371  0.245629  0.750000  1
  Dy  Dy1  1  0.894095  0.105905  0.437494  1
  Dy  Dy2  1  0.106976  0.893024  0.558219  1
  Dy  Dy3  1  0.894095  0.105905  0.062506  1
  Dy  Dy4  1  0.106976  0.893024  0.941781  1
  Dy  Dy5  1  0.243368  0.756632  0.250000  1
  B  B6  1  0.726548  0.273452  0.464604  1
  B  B7  1  0.272077  0.727923  0.531036  1
  B  B8  1  0.726548  0.273452  0.035396  1
  B  B9  1  0.272077  0.727923  0.968964  1
  B  B10  1  0.631824  0.368176  0.151438  1
  B  B11  1  0.365343  0.634657  0.853036  1
  B  B12  1  0.631824  0.368176  0.348562  1
  B  B13  1  0.365343  0.634657  0.646964  1
  B  B14  1  0.521346  0.478654  0.096702  1
  B  B15  1  0.480258  0.519742  0.908962  1
  B  B16  1  0.521346  0.478654  0.403298  1
  B  B17  1  0.480258  0.519742  0.591038  1
  B  B18  1  0.458519  0.541481  0.250000  1
  B  B19  1  0.545188  0.454812  0.750000  1
  Os  Os20  1  0.054292  0.945708  0.250000  1
  W  W21  1  0.947327  0.052673  0.750000  1
