# generated using pymatgen
data_Sm2Er3Sn3Pb
_symmetry_space_group_name_H-M   'P 1'
_cell_length_a   8.09179600
_cell_length_b   8.23866100
_cell_length_c   15.55534400
_cell_angle_alpha   90.00000000
_cell_angle_beta   90.00000000
_cell_angle_gamma   90.00000000
_symmetry_Int_Tables_number   1
_chemical_formula_structural   Sm2Er3Sn3Pb
_chemical_formula_sum   'Sm8 Er12 Sn12 Pb4'
_cell_volume   1037.00578292
_cell_formula_units_Z   4
loop_
 _symmetry_equiv_pos_site_id
 _symmetry_equiv_pos_as_xyz
  1  'x, y, z'
loop_
 _atom_site_type_symbol
 _atom_site_label
 _atom_site_symmetry_multiplicity
 _atom_site_fract_x
 _atom_site_fract_y
 _atom_site_fract_z
 _atom_site_occupancy
  Sm  Sm0  1  0.521543  0.320549  0.901774  1
  Sm  Sm1  1  0.021543  0.179451  0.598226  1
  Sm  Sm2  1  0.478457  0.679451  0.401774  1
  Sm  Sm3  1  0.978457  0.820549  0.098226  1
  Sm  Sm4  1  0.483218  0.678216  0.098456  1
  Sm  Sm5  1  0.983218  0.821784  0.401544  1
  Sm  Sm6  1  0.516782  0.321784  0.598456  1
  Sm  Sm7  1  0.016782  0.178216  0.901544  1
  Er  Er8  1  0.366685  0.837038  0.875869  1
  Er  Er9  1  0.866685  0.662962  0.624131  1
  Er  Er10  1  0.633315  0.162962  0.375869  1
  Er  Er11  1  0.133315  0.337038  0.124131  1
  Er  Er12  1  0.636381  0.164072  0.122993  1
  Er  Er13  1  0.136381  0.335928  0.377007  1
  Er  Er14  1  0.363619  0.835928  0.622993  1
  Er  Er15  1  0.863619  0.664072  0.877007  1
  Er  Er16  1  0.197275  0.503462  0.748863  1
  Er  Er17  1  0.697275  0.996538  0.751137  1
  Er  Er18  1  0.802725  0.496538  0.248863  1
  Er  Er19  1  0.302725  0.003462  0.251137  1
  Sn  Sn20  1  0.702876  0.961280  0.958134  1
  Sn  Sn21  1  0.202876  0.538720  0.541866  1
  Sn  Sn22  1  0.297124  0.038720  0.458134  1
  Sn  Sn23  1  0.797124  0.461280  0.041866  1
  Sn  Sn24  1  0.563072  0.622683  0.750001  1
  Sn  Sn25  1  0.063072  0.877317  0.749999  1
  Sn  Sn26  1  0.436928  0.377317  0.250001  1
  Sn  Sn27  1  0.936928  0.122683  0.249999  1
  Sn  Sn28  1  0.327705  0.144985  0.750130  1
  Sn  Sn29  1  0.827705  0.355015  0.749870  1
  Sn  Sn30  1  0.672295  0.855015  0.250130  1
  Sn  Sn31  1  0.172295  0.644985  0.249870  1
  Pb  Pb32  1  0.296928  0.039393  0.041360  1
  Pb  Pb33  1  0.796928  0.460607  0.458640  1
  Pb  Pb34  1  0.703072  0.960607  0.541360  1
  Pb  Pb35  1  0.203072  0.539393  0.958640  1
