# generated using pymatgen
data_NdErB(Pd2Rh)2
_symmetry_space_group_name_H-M   'P 1'
_cell_length_a   4.23697200
_cell_length_b   4.23697200
_cell_length_c   8.25221000
_cell_angle_alpha   90.00000000
_cell_angle_beta   90.00000000
_cell_angle_gamma   90.00000000
_symmetry_Int_Tables_number   1
_chemical_formula_structural   NdErB(Pd2Rh)2
_chemical_formula_sum   'Nd1 Er1 B1 Pd4 Rh2'
_cell_volume   148.14311053
_cell_formula_units_Z   1
loop_
 _symmetry_equiv_pos_site_id
 _symmetry_equiv_pos_as_xyz
  1  'x, y, z'
loop_
 _atom_site_type_symbol
 _atom_site_label
 _atom_site_symmetry_multiplicity
 _atom_site_fract_x
 _atom_site_fract_y
 _atom_site_fract_z
 _atom_site_occupancy
  Nd  Nd0  1  0.000000  0.000000  0.999349  1
  Er  Er1  1  0.000000  0.000000  0.501771  1
  B  B2  1  0.500000  0.500000  0.246953  1
  Pd  Pd3  1  0.500000  0.500000  0.988641  1
  Pd  Pd4  1  0.500000  0.500000  0.508620  1
  Pd  Pd5  1  0.500000  0.000000  0.743946  1
  Pd  Pd6  1  0.000000  0.500000  0.743946  1
  Rh  Rh7  1  0.500000  0.000000  0.258387  1
  Rh  Rh8  1  0.000000  0.500000  0.258387  1
