# generated using pymatgen
data_Tb3Dy2IrPb3
_symmetry_space_group_name_H-M   'P 1'
_cell_length_a   9.24597201
_cell_length_b   9.24597116
_cell_length_c   6.88530500
_cell_angle_alpha   90.00000000
_cell_angle_beta   90.00000000
_cell_angle_gamma   120.00641866
_symmetry_Int_Tables_number   1
_chemical_formula_structural   Tb3Dy2IrPb3
_chemical_formula_sum   'Tb6 Dy4 Ir2 Pb6'
_cell_volume   509.71900981
_cell_formula_units_Z   2
loop_
 _symmetry_equiv_pos_site_id
 _symmetry_equiv_pos_as_xyz
  1  'x, y, z'
loop_
 _atom_site_type_symbol
 _atom_site_label
 _atom_site_symmetry_multiplicity
 _atom_site_fract_x
 _atom_site_fract_y
 _atom_site_fract_z
 _atom_site_occupancy
  Tb  Tb0  1  0.235336  0.999956  0.250000  1
  Tb  Tb1  1  0.000044  0.764664  0.750000  1
  Tb  Tb2  1  0.333505  0.666495  0.500000  1
  Tb  Tb3  1  0.666786  0.333214  0.500000  1
  Tb  Tb4  1  0.333505  0.666495  0.000000  1
  Tb  Tb5  1  0.666786  0.333214  0.000000  1
  Dy  Dy6  1  0.999992  0.235256  0.250000  1
  Dy  Dy7  1  0.764744  0.000008  0.750000  1
  Dy  Dy8  1  0.235221  0.235196  0.750000  1
  Dy  Dy9  1  0.764804  0.764779  0.250000  1
  Ir  Ir10  1  0.999493  0.000507  0.000000  1
  Ir  Ir11  1  0.999493  0.000507  0.500000  1
  Pb  Pb12  1  0.593863  0.999957  0.250000  1
  Pb  Pb13  1  0.406214  0.999946  0.750000  1
  Pb  Pb14  1  0.000054  0.593786  0.250000  1
  Pb  Pb15  1  0.593816  0.593699  0.750000  1
  Pb  Pb16  1  0.406301  0.406184  0.250000  1
  Pb  Pb17  1  0.000043  0.406137  0.750000  1
