# generated using pymatgen
data_Y4Ho(CoO6)2
_symmetry_space_group_name_H-M   'P 1'
_cell_length_a   6.75552074
_cell_length_b   6.75552127
_cell_length_c   7.20313598
_cell_angle_alpha   74.59028673
_cell_angle_beta   74.59028772
_cell_angle_gamma   50.52194169
_symmetry_Int_Tables_number   1
_chemical_formula_structural   Y4Ho(CoO6)2
_chemical_formula_sum   'Y4 Ho1 Co2 O12'
_cell_volume   242.53676660
_cell_formula_units_Z   1
loop_
 _symmetry_equiv_pos_site_id
 _symmetry_equiv_pos_as_xyz
  1  'x, y, z'
loop_
 _atom_site_type_symbol
 _atom_site_label
 _atom_site_symmetry_multiplicity
 _atom_site_fract_x
 _atom_site_fract_y
 _atom_site_fract_z
 _atom_site_occupancy
  Y  Y0  1  0.306124  0.306124  0.355015  1
  Y  Y1  1  0.693952  0.693952  0.643965  1
  Y  Y2  1  0.307854  0.307854  0.835905  1
  Y  Y3  1  0.000178  0.000178  0.499438  1
  Ho  Ho4  1  0.691976  0.691976  0.164374  1
  Co  Co5  1  0.756007  0.243939  0.000336  1
  Co  Co6  1  0.243939  0.756007  0.000336  1
  O  O7  1  0.900118  0.417761  0.922784  1
  O  O8  1  0.417761  0.900118  0.922784  1
  O  O9  1  0.097106  0.584328  0.079032  1
  O  O10  1  0.584328  0.097106  0.079032  1
  O  O11  1  0.097164  0.598361  0.576100  1
  O  O12  1  0.598361  0.097164  0.576100  1
  O  O13  1  0.901783  0.402788  0.421979  1
  O  O14  1  0.402788  0.901783  0.421979  1
  O  O15  1  0.000756  0.000756  0.829293  1
  O  O16  1  0.999590  0.999590  0.170309  1
  O  O17  1  0.499988  0.499988  0.826792  1
  O  O18  1  0.500225  0.500225  0.174446  1
