# generated using pymatgen
data_Ac2PuCu6Ni7B2
_symmetry_space_group_name_H-M   'P 1'
_cell_length_a   5.16612500
_cell_length_b   5.16178095
_cell_length_c   10.95048700
_cell_angle_alpha   90.00000000
_cell_angle_beta   90.00000000
_cell_angle_gamma   120.02783671
_symmetry_Int_Tables_number   1
_chemical_formula_structural   Ac2PuCu6Ni7B2
_chemical_formula_sum   'Ac2 Pu1 Cu6 Ni7 B2'
_cell_volume   252.81722381
_cell_formula_units_Z   1
loop_
 _symmetry_equiv_pos_site_id
 _symmetry_equiv_pos_as_xyz
  1  'x, y, z'
loop_
 _atom_site_type_symbol
 _atom_site_label
 _atom_site_symmetry_multiplicity
 _atom_site_fract_x
 _atom_site_fract_y
 _atom_site_fract_z
 _atom_site_occupancy
  Ac  Ac0  1  0.000000  0.000000  0.316307  1
  Ac  Ac1  1  0.000000  0.000000  0.683693  1
  Pu  Pu2  1  0.000000  0.000000  0.000000  1
  Cu  Cu3  1  0.500000  0.500000  0.500000  1
  Cu  Cu4  1  0.000000  0.500000  0.500000  1
  Cu  Cu5  1  0.335254  0.670510  0.313011  1
  Cu  Cu6  1  0.664746  0.329490  0.313011  1
  Cu  Cu7  1  0.664746  0.329490  0.686989  1
  Cu  Cu8  1  0.335254  0.670510  0.686989  1
  Ni  Ni9  1  0.500000  0.000000  0.500000  1
  Ni  Ni10  1  0.500000  0.000000  0.125075  1
  Ni  Ni11  1  0.500000  0.500000  0.125332  1
  Ni  Ni12  1  0.000000  0.500000  0.125332  1
  Ni  Ni13  1  0.500000  0.000000  0.874925  1
  Ni  Ni14  1  0.500000  0.500000  0.874668  1
  Ni  Ni15  1  0.000000  0.500000  0.874668  1
  B  B16  1  0.333152  0.666306  0.000000  1
  B  B17  1  0.666848  0.333694  0.000000  1
