# generated using pymatgen
data_Sr5Cu5Pt
_symmetry_space_group_name_H-M   'P 1'
_cell_length_a   15.45454931
_cell_length_b   15.45454878
_cell_length_c   4.43948100
_cell_angle_alpha   90.00000000
_cell_angle_beta   90.00000000
_cell_angle_gamma   164.15820686
_symmetry_Int_Tables_number   1
_chemical_formula_structural   Sr5Cu5Pt
_chemical_formula_sum   'Sr5 Cu5 Pt1'
_cell_volume   289.45360032
_cell_formula_units_Z   1
loop_
 _symmetry_equiv_pos_site_id
 _symmetry_equiv_pos_as_xyz
  1  'x, y, z'
loop_
 _atom_site_type_symbol
 _atom_site_label
 _atom_site_symmetry_multiplicity
 _atom_site_fract_x
 _atom_site_fract_y
 _atom_site_fract_z
 _atom_site_occupancy
  Sr  Sr0  1  0.000072  0.999928  0.000000  1
  Sr  Sr1  1  0.616851  0.383147  0.000000  1
  Sr  Sr2  1  0.386064  0.613934  0.000000  1
  Sr  Sr3  1  0.800486  0.199512  0.500001  1
  Sr  Sr4  1  0.197964  0.802034  0.500001  1
  Cu  Cu5  1  0.272426  0.727572  0.000000  1
  Cu  Cu6  1  0.918635  0.081364  0.500001  1
  Cu  Cu7  1  0.541397  0.458601  0.500001  1
  Cu  Cu8  1  0.459738  0.540260  0.500001  1
  Cu  Cu9  1  0.081015  0.918984  0.500001  1
  Pt  Pt10  1  0.725342  0.274656  0.000000  1
