# generated using pymatgen
data_Rb9ScSe7
_symmetry_space_group_name_H-M   'P 1'
_cell_length_a   8.75321200
_cell_length_b   11.88141350
_cell_length_c   26.36095100
_cell_angle_alpha   77.06204219
_cell_angle_beta   90.00000000
_cell_angle_gamma   90.00000000
_symmetry_Int_Tables_number   1
_chemical_formula_structural   Rb9ScSe7
_chemical_formula_sum   'Rb36 Sc4 Se28'
_cell_volume   2671.95332188
_cell_formula_units_Z   4
loop_
 _symmetry_equiv_pos_site_id
 _symmetry_equiv_pos_as_xyz
  1  'x, y, z'
loop_
 _atom_site_type_symbol
 _atom_site_label
 _atom_site_symmetry_multiplicity
 _atom_site_fract_x
 _atom_site_fract_y
 _atom_site_fract_z
 _atom_site_occupancy
  Rb  Rb0  1  0.095059  0.989758  0.273893  1
  Rb  Rb1  1  0.595059  0.010242  0.226107  1
  Rb  Rb2  1  0.904941  0.010242  0.726107  1
  Rb  Rb3  1  0.404941  0.989758  0.773893  1
  Rb  Rb4  1  0.034218  0.835414  0.063113  1
  Rb  Rb5  1  0.534218  0.164586  0.436887  1
  Rb  Rb6  1  0.965782  0.164586  0.936887  1
  Rb  Rb7  1  0.465782  0.835414  0.563113  1
  Rb  Rb8  1  0.258909  0.545217  0.165051  1
  Rb  Rb9  1  0.758909  0.454783  0.334949  1
  Rb  Rb10  1  0.741091  0.454783  0.834949  1
  Rb  Rb11  1  0.241091  0.545217  0.665051  1
  Rb  Rb12  1  0.549770  0.771908  0.087232  1
  Rb  Rb13  1  0.049770  0.228092  0.412768  1
  Rb  Rb14  1  0.450230  0.228092  0.912768  1
  Rb  Rb15  1  0.950230  0.771908  0.587232  1
  Rb  Rb16  1  0.056443  0.576607  0.420266  1
  Rb  Rb17  1  0.556443  0.423393  0.079734  1
  Rb  Rb18  1  0.943557  0.423393  0.579734  1
  Rb  Rb19  1  0.443557  0.576607  0.920266  1
  Rb  Rb20  1  0.141236  0.885343  0.447722  1
  Rb  Rb21  1  0.641236  0.114657  0.052278  1
  Rb  Rb22  1  0.858764  0.114657  0.552278  1
  Rb  Rb23  1  0.358764  0.885343  0.947722  1
  Rb  Rb24  1  0.439243  0.262459  0.281233  1
  Rb  Rb25  1  0.939243  0.737541  0.218767  1
  Rb  Rb26  1  0.560757  0.737541  0.718767  1
  Rb  Rb27  1  0.060757  0.262459  0.781233  1
  Rb  Rb28  1  0.435302  0.706701  0.293935  1
  Rb  Rb29  1  0.935302  0.293299  0.206065  1
  Rb  Rb30  1  0.564698  0.293299  0.706065  1
  Rb  Rb31  1  0.064698  0.706701  0.793935  1
  Rb  Rb32  1  0.079080  0.353451  0.045898  1
  Rb  Rb33  1  0.579080  0.646549  0.454102  1
  Rb  Rb34  1  0.920920  0.646549  0.954102  1
  Rb  Rb35  1  0.420920  0.353451  0.545898  1
  Sc  Sc36  1  0.700715  0.945998  0.372118  1
  Sc  Sc37  1  0.200715  0.054002  0.127882  1
  Sc  Sc38  1  0.299285  0.054002  0.627882  1
  Sc  Sc39  1  0.799285  0.945998  0.872118  1
  Se  Se40  1  0.310714  0.221806  0.164902  1
  Se  Se41  1  0.810714  0.778194  0.335098  1
  Se  Se42  1  0.689286  0.778194  0.835098  1
  Se  Se43  1  0.189286  0.221806  0.664902  1
  Se  Se44  1  0.304211  0.854886  0.176723  1
  Se  Se45  1  0.804211  0.145114  0.323277  1
  Se  Se46  1  0.695789  0.145114  0.823277  1
  Se  Se47  1  0.195789  0.854886  0.676723  1
  Se  Se48  1  0.409960  0.956184  0.353732  1
  Se  Se49  1  0.909960  0.043816  0.146268  1
  Se  Se50  1  0.590040  0.043816  0.646268  1
  Se  Se51  1  0.090040  0.956184  0.853732  1
  Se  Se52  1  0.758601  0.913926  0.470952  1
  Se  Se53  1  0.258601  0.086074  0.029048  1
  Se  Se54  1  0.241399  0.086074  0.529048  1
  Se  Se55  1  0.741399  0.913926  0.970952  1
  Se  Se56  1  0.158822  0.469958  0.301841  1
  Se  Se57  1  0.658822  0.530042  0.198159  1
  Se  Se58  1  0.841178  0.530042  0.698159  1
  Se  Se59  1  0.341178  0.469958  0.801841  1
  Se  Se60  1  0.357329  0.434176  0.369219  1
  Se  Se61  1  0.857329  0.565824  0.130781  1
  Se  Se62  1  0.642671  0.565824  0.630781  1
  Se  Se63  1  0.142671  0.434176  0.869219  1
  Se  Se64  1  0.268105  0.623857  0.030452  1
  Se  Se65  1  0.768105  0.376143  0.469548  1
  Se  Se66  1  0.731895  0.376143  0.969548  1
  Se  Se67  1  0.231895  0.623857  0.530452  1
