# generated using pymatgen
data_Y3Lu3(Si3Os)8
_symmetry_space_group_name_H-M   'P 1'
_cell_length_a   10.12356361
_cell_length_b   10.12356326
_cell_length_c   8.14548302
_cell_angle_alpha   90.02582341
_cell_angle_beta   90.02581350
_cell_angle_gamma   132.56312903
_symmetry_Int_Tables_number   1
_chemical_formula_structural   Y3Lu3(Si3Os)8
_chemical_formula_sum   'Y3 Lu3 Si24 Os8'
_cell_volume   614.85868611
_cell_formula_units_Z   1
loop_
 _symmetry_equiv_pos_site_id
 _symmetry_equiv_pos_as_xyz
  1  'x, y, z'
loop_
 _atom_site_type_symbol
 _atom_site_label
 _atom_site_symmetry_multiplicity
 _atom_site_fract_x
 _atom_site_fract_y
 _atom_site_fract_z
 _atom_site_occupancy
  Y  Y0  1  0.500017  0.499983  0.500000  1
  Y  Y1  1  0.998993  0.499263  0.750788  1
  Y  Y2  1  0.500737  0.001007  0.249212  1
  Lu  Lu3  1  0.000003  0.999997  0.000000  1
  Lu  Lu4  1  0.001266  0.501100  0.249321  1
  Lu  Lu5  1  0.498900  0.998734  0.750679  1
  Si  Si6  1  0.295004  0.704996  0.000000  1
  Si  Si7  1  0.796000  0.204000  0.500000  1
  Si  Si8  1  0.704894  0.295106  0.000000  1
  Si  Si9  1  0.204131  0.795869  0.500000  1
  Si  Si10  1  0.831772  0.832844  0.332719  1
  Si  Si11  1  0.167156  0.168228  0.667281  1
  Si  Si12  1  0.668257  0.666777  0.833188  1
  Si  Si13  1  0.333223  0.331743  0.166812  1
  Si  Si14  1  0.622004  0.386578  0.227655  1
  Si  Si15  1  0.613422  0.377996  0.772345  1
  Si  Si16  1  0.113809  0.880114  0.728335  1
  Si  Si17  1  0.119886  0.886191  0.271665  1
  Si  Si18  1  0.382192  0.617295  0.772930  1
  Si  Si19  1  0.382705  0.617808  0.227070  1
  Si  Si20  1  0.890192  0.124440  0.270928  1
  Si  Si21  1  0.875560  0.109808  0.729072  1
  Si  Si22  1  0.845426  0.611195  0.005883  1
  Si  Si23  1  0.388805  0.154574  0.994117  1
  Si  Si24  1  0.888541  0.654726  0.502075  1
  Si  Si25  1  0.345274  0.111459  0.497925  1
  Si  Si26  1  0.155340  0.389168  0.998281  1
  Si  Si27  1  0.610832  0.844660  0.001719  1
  Si  Si28  1  0.111922  0.346191  0.493354  1
  Si  Si29  1  0.653809  0.888078  0.506646  1
  Os  Os30  1  0.168993  0.831007  0.000000  1
  Os  Os31  1  0.670265  0.329735  0.500000  1
  Os  Os32  1  0.830909  0.169091  0.000000  1
  Os  Os33  1  0.329794  0.670206  0.500000  1
  Os  Os34  1  0.627871  0.628073  0.126490  1
  Os  Os35  1  0.371927  0.372129  0.873510  1
  Os  Os36  1  0.873639  0.873468  0.629214  1
  Os  Os37  1  0.126532  0.126361  0.370786  1
