# generated using pymatgen
data_Li2La16Cd2IrRu3
_symmetry_space_group_name_H-M   'P 1'
_cell_length_a   10.13212140
_cell_length_b   10.08616849
_cell_length_c   10.11622614
_cell_angle_alpha   60.09824076
_cell_angle_beta   59.94554424
_cell_angle_gamma   60.14991595
_symmetry_Int_Tables_number   1
_chemical_formula_structural   Li2La16Cd2IrRu3
_chemical_formula_sum   'Li2 La16 Cd2 Ir1 Ru3'
_cell_volume   732.08615360
_cell_formula_units_Z   1
loop_
 _symmetry_equiv_pos_site_id
 _symmetry_equiv_pos_as_xyz
  1  'x, y, z'
loop_
 _atom_site_type_symbol
 _atom_site_label
 _atom_site_symmetry_multiplicity
 _atom_site_fract_x
 _atom_site_fract_y
 _atom_site_fract_z
 _atom_site_occupancy
  Li  Li0  1  0.673538  0.679787  0.966887  1
  Li  Li1  1  0.967130  0.679551  0.673767  1
  La  La2  1  0.904804  0.905465  0.906935  1
  La  La3  1  0.438939  0.437384  0.060153  1
  La  La4  1  0.060268  0.062528  0.436648  1
  La  La5  1  0.438939  0.063524  0.060153  1
  La  La6  1  0.308315  0.690436  0.310813  1
  La  La7  1  0.689428  0.693382  0.311091  1
  La  La8  1  0.689428  0.306099  0.311091  1
  La  La9  1  0.287373  0.902176  0.908276  1
  La  La10  1  0.904804  0.282798  0.906935  1
  La  La11  1  0.311298  0.692909  0.689341  1
  La  La12  1  0.906472  0.903595  0.286338  1
  La  La13  1  0.065487  0.434874  0.064765  1
  La  La14  1  0.311298  0.306452  0.689341  1
  La  La15  1  0.060268  0.440556  0.436648  1
  La  La16  1  0.442855  0.060025  0.437096  1
  La  La17  1  0.686654  0.313313  0.686719  1
  Cd  Cd18  1  0.671119  0.988594  0.671610  1
  Cd  Cd19  1  0.671119  0.668676  0.671610  1
  Ir  Ir20  1  0.113300  0.107127  0.672445  1
  Ru  Ru21  1  0.115272  0.112068  0.113556  1
  Ru  Ru22  1  0.115272  0.659103  0.113556  1
  Ru  Ru23  1  0.666619  0.109578  0.114224  1
