# generated using pymatgen
data_Zr10AlZnSnBi5
_symmetry_space_group_name_H-M   'P 1'
_cell_length_a   8.87790088
_cell_length_b   8.87790097
_cell_length_c   5.93374881
_cell_angle_alpha   89.98368635
_cell_angle_beta   89.98369590
_cell_angle_gamma   120.21136203
_symmetry_Int_Tables_number   1
_chemical_formula_structural   Zr10AlZnSnBi5
_chemical_formula_sum   'Zr10 Al1 Zn1 Sn1 Bi5'
_cell_volume   404.15819585
_cell_formula_units_Z   1
loop_
 _symmetry_equiv_pos_site_id
 _symmetry_equiv_pos_as_xyz
  1  'x, y, z'
loop_
 _atom_site_type_symbol
 _atom_site_label
 _atom_site_symmetry_multiplicity
 _atom_site_fract_x
 _atom_site_fract_y
 _atom_site_fract_z
 _atom_site_occupancy
  Zr  Zr0  1  0.999836  0.264968  0.252195  1
  Zr  Zr1  1  0.730004  0.995241  0.748510  1
  Zr  Zr2  1  0.734195  0.734195  0.250499  1
  Zr  Zr3  1  0.665649  0.336664  0.501884  1
  Zr  Zr4  1  0.995241  0.730004  0.748510  1
  Zr  Zr5  1  0.270951  0.270951  0.747916  1
  Zr  Zr6  1  0.336683  0.665785  0.998036  1
  Zr  Zr7  1  0.665785  0.336683  0.998036  1
  Zr  Zr8  1  0.336664  0.665649  0.501884  1
  Zr  Zr9  1  0.264968  0.999836  0.252195  1
  Al  Al10  1  0.999841  0.999841  0.503491  1
  Zn  Zn11  1  0.999747  0.999747  0.997308  1
  Sn  Sn12  1  0.615179  0.615179  0.750520  1
  Bi  Bi13  1  0.612546  0.000276  0.248996  1
  Bi  Bi14  1  0.384684  0.000053  0.751450  1
  Bi  Bi15  1  0.387694  0.387694  0.248125  1
  Bi  Bi16  1  0.000276  0.612546  0.248996  1
  Bi  Bi17  1  0.000053  0.384684  0.751450  1
