# generated using pymatgen
data_Ta4BTe4
_symmetry_space_group_name_H-M   'P 1'
_cell_length_a   4.75078100
_cell_length_b   10.78029600
_cell_length_c   18.61694500
_cell_angle_alpha   90.00000000
_cell_angle_beta   90.00000000
_cell_angle_gamma   90.00000000
_symmetry_Int_Tables_number   1
_chemical_formula_structural   Ta4BTe4
_chemical_formula_sum   'Ta16 B4 Te16'
_cell_volume   953.46358786
_cell_formula_units_Z   4
loop_
 _symmetry_equiv_pos_site_id
 _symmetry_equiv_pos_as_xyz
  1  'x, y, z'
loop_
 _atom_site_type_symbol
 _atom_site_label
 _atom_site_symmetry_multiplicity
 _atom_site_fract_x
 _atom_site_fract_y
 _atom_site_fract_z
 _atom_site_occupancy
  Ta  Ta0  1  0.500000  0.558655  0.392292  1
  Ta  Ta1  1  0.500000  0.441345  0.607708  1
  Ta  Ta2  1  0.500000  0.058655  0.107708  1
  Ta  Ta3  1  0.500000  0.941345  0.892292  1
  Ta  Ta4  1  0.500000  0.687657  0.533180  1
  Ta  Ta5  1  0.500000  0.312343  0.466820  1
  Ta  Ta6  1  0.500000  0.187657  0.966820  1
  Ta  Ta7  1  0.500000  0.812343  0.033180  1
  Ta  Ta8  1  0.000000  0.681001  0.444945  1
  Ta  Ta9  1  0.000000  0.318999  0.555055  1
  Ta  Ta10  1  0.000000  0.181001  0.055055  1
  Ta  Ta11  1  0.000000  0.818999  0.944945  1
  Ta  Ta12  1  0.000000  0.405020  0.395926  1
  Ta  Ta13  1  0.000000  0.594980  0.604074  1
  Ta  Ta14  1  0.000000  0.905020  0.104074  1
  Ta  Ta15  1  0.000000  0.094980  0.895926  1
  B  B16  1  0.217798  0.500000  0.500000  1
  B  B17  1  0.782202  0.000000  0.000000  1
  B  B18  1  0.782202  0.500000  0.500000  1
  B  B19  1  0.217798  0.000000  0.000000  1
  Te  Te20  1  0.000000  0.849201  0.562832  1
  Te  Te21  1  0.000000  0.150799  0.437168  1
  Te  Te22  1  0.000000  0.349201  0.937168  1
  Te  Te23  1  0.000000  0.650799  0.062832  1
  Te  Te24  1  0.500000  0.331063  0.313551  1
  Te  Te25  1  0.500000  0.668937  0.686449  1
  Te  Te26  1  0.500000  0.831063  0.186449  1
  Te  Te27  1  0.500000  0.168937  0.813551  1
  Te  Te28  1  0.500000  0.824291  0.400965  1
  Te  Te29  1  0.500000  0.175709  0.599035  1
  Te  Te30  1  0.500000  0.324291  0.099035  1
  Te  Te31  1  0.500000  0.675709  0.900965  1
  Te  Te32  1  0.000000  0.607499  0.298459  1
  Te  Te33  1  0.000000  0.392501  0.701541  1
  Te  Te34  1  0.000000  0.107499  0.201541  1
  Te  Te35  1  0.000000  0.892501  0.798459  1
