# generated using pymatgen
data_Er12TcOs3
_symmetry_space_group_name_H-M   'P 1'
_cell_length_a   6.24554936
_cell_length_b   7.35681560
_cell_length_c   8.98494000
_cell_angle_alpha   90.00000000
_cell_angle_beta   90.00000000
_cell_angle_gamma   90.07565126
_symmetry_Int_Tables_number   1
_chemical_formula_structural   Er12TcOs3
_chemical_formula_sum   'Er12 Tc1 Os3'
_cell_volume   412.83386788
_cell_formula_units_Z   1
loop_
 _symmetry_equiv_pos_site_id
 _symmetry_equiv_pos_as_xyz
  1  'x, y, z'
loop_
 _atom_site_type_symbol
 _atom_site_label
 _atom_site_symmetry_multiplicity
 _atom_site_fract_x
 _atom_site_fract_y
 _atom_site_fract_z
 _atom_site_occupancy
  Er  Er0  1  0.334424  0.675344  0.062546  1
  Er  Er1  1  0.166255  0.175620  0.437393  1
  Er  Er2  1  0.666886  0.324082  0.562319  1
  Er  Er3  1  0.833920  0.824561  0.937259  1
  Er  Er4  1  0.666886  0.324082  0.937681  1
  Er  Er5  1  0.833920  0.824561  0.562741  1
  Er  Er6  1  0.334424  0.675344  0.437454  1
  Er  Er7  1  0.166255  0.175620  0.062607  1
  Er  Er8  1  0.870572  0.538682  0.250000  1
  Er  Er9  1  0.628002  0.039004  0.250000  1
  Er  Er10  1  0.130023  0.460729  0.750000  1
  Er  Er11  1  0.369564  0.961399  0.750000  1
  Tc  Tc12  1  0.039891  0.882734  0.250000  1
  Os  Os13  1  0.459572  0.381963  0.250000  1
  Os  Os14  1  0.959168  0.118633  0.750000  1
  Os  Os15  1  0.540237  0.617643  0.750000  1
