# generated using pymatgen
data_Ac(In2Ag)2
_symmetry_space_group_name_H-M   'P 1'
_cell_length_a   5.01676900
_cell_length_b   7.34587700
_cell_length_c   19.32766000
_cell_angle_alpha   90.00000000
_cell_angle_beta   90.00000000
_cell_angle_gamma   90.00000000
_symmetry_Int_Tables_number   1
_chemical_formula_structural   Ac(In2Ag)2
_chemical_formula_sum   'Ac4 In16 Ag8'
_cell_volume   712.27390465
_cell_formula_units_Z   4
loop_
 _symmetry_equiv_pos_site_id
 _symmetry_equiv_pos_as_xyz
  1  'x, y, z'
loop_
 _atom_site_type_symbol
 _atom_site_label
 _atom_site_symmetry_multiplicity
 _atom_site_fract_x
 _atom_site_fract_y
 _atom_site_fract_z
 _atom_site_occupancy
  Ac  Ac0  1  0.250000  0.520283  0.862487  1
  Ac  Ac1  1  0.750000  0.020283  0.637513  1
  Ac  Ac2  1  0.750000  0.479717  0.137513  1
  Ac  Ac3  1  0.250000  0.979717  0.362487  1
  In  In4  1  0.750000  0.265169  0.307373  1
  In  In5  1  0.750000  0.504967  0.574559  1
  In  In6  1  0.750000  0.667379  0.318119  1
  In  In7  1  0.250000  0.004967  0.925441  1
  In  In8  1  0.750000  0.315670  0.963854  1
  In  In9  1  0.250000  0.765169  0.192627  1
  In  In10  1  0.250000  0.684330  0.036146  1
  In  In11  1  0.250000  0.815670  0.536146  1
  In  In12  1  0.750000  0.234831  0.807373  1
  In  In13  1  0.250000  0.495033  0.425441  1
  In  In14  1  0.250000  0.167379  0.181881  1
  In  In15  1  0.750000  0.832621  0.818119  1
  In  In16  1  0.250000  0.734831  0.692627  1
  In  In17  1  0.750000  0.995033  0.074559  1
  In  In18  1  0.250000  0.332621  0.681881  1
  In  In19  1  0.750000  0.184330  0.463854  1
  Ag  Ag20  1  0.250000  0.234565  0.537640  1
  Ag  Ag21  1  0.750000  0.542601  0.720368  1
  Ag  Ag22  1  0.750000  0.765435  0.462360  1
  Ag  Ag23  1  0.250000  0.265435  0.037640  1
  Ag  Ag24  1  0.750000  0.734565  0.962360  1
  Ag  Ag25  1  0.250000  0.457399  0.279632  1
  Ag  Ag26  1  0.750000  0.957399  0.220368  1
  Ag  Ag27  1  0.250000  0.042601  0.779632  1
