# generated using pymatgen
data_Tb7(DyRh3)2
_symmetry_space_group_name_H-M   'P 1'
_cell_length_a   7.44967794
_cell_length_b   7.44967737
_cell_length_c   7.44967800
_cell_angle_alpha   70.85692856
_cell_angle_beta   70.85693822
_cell_angle_gamma   70.85692968
_symmetry_Int_Tables_number   1
_chemical_formula_structural   Tb7(DyRh3)2
_chemical_formula_sum   'Tb7 Dy2 Rh6'
_cell_volume   357.55224604
_cell_formula_units_Z   1
loop_
 _symmetry_equiv_pos_site_id
 _symmetry_equiv_pos_as_xyz
  1  'x, y, z'
loop_
 _atom_site_type_symbol
 _atom_site_label
 _atom_site_symmetry_multiplicity
 _atom_site_fract_x
 _atom_site_fract_y
 _atom_site_fract_z
 _atom_site_occupancy
  Tb  Tb0  1  0.158649  0.392649  0.667643  1
  Tb  Tb1  1  0.667643  0.158649  0.392649  1
  Tb  Tb2  1  0.392649  0.667643  0.158649  1
  Tb  Tb3  1  0.841762  0.606854  0.332151  1
  Tb  Tb4  1  0.332151  0.841762  0.606854  1
  Tb  Tb5  1  0.606854  0.332151  0.841762  1
  Tb  Tb6  1  0.798762  0.798762  0.798762  1
  Dy  Dy7  1  0.999957  0.999957  0.999957  1
  Dy  Dy8  1  0.201226  0.201226  0.201226  1
  Rh  Rh9  1  0.955823  0.166622  0.590521  1
  Rh  Rh10  1  0.590521  0.955823  0.166622  1
  Rh  Rh11  1  0.166622  0.590521  0.955823  1
  Rh  Rh12  1  0.044266  0.834301  0.408813  1
  Rh  Rh13  1  0.408813  0.044266  0.834301  1
  Rh  Rh14  1  0.834301  0.408813  0.044266  1
