# generated using pymatgen
data_TbPr4P12Pd3Ru16
_symmetry_space_group_name_H-M   'P 1'
_cell_length_a   4.02027400
_cell_length_b   12.70465551
_cell_length_c   12.70413204
_cell_angle_alpha   120.00264214
_cell_angle_beta   90.00000000
_cell_angle_gamma   90.00000000
_symmetry_Int_Tables_number   1
_chemical_formula_structural   TbPr4P12Pd3Ru16
_chemical_formula_sum   'Tb1 Pr4 P12 Pd3 Ru16'
_cell_volume   561.93051177
_cell_formula_units_Z   1
loop_
 _symmetry_equiv_pos_site_id
 _symmetry_equiv_pos_as_xyz
  1  'x, y, z'
loop_
 _atom_site_type_symbol
 _atom_site_label
 _atom_site_symmetry_multiplicity
 _atom_site_fract_x
 _atom_site_fract_y
 _atom_site_fract_z
 _atom_site_occupancy
  Tb  Tb0  1  0.000000  0.666668  0.333350  1
  Pr  Pr1  1  0.500000  0.999843  0.181961  1
  Pr  Pr2  1  0.500000  0.182072  0.000124  1
  Pr  Pr3  1  0.500000  0.818023  0.817967  1
  Pr  Pr4  1  0.000000  0.333289  0.666623  1
  P  P5  1  0.000000  0.998932  0.810036  1
  P  P6  1  0.000000  0.811117  0.001128  1
  P  P7  1  0.000000  0.190024  0.188830  1
  P  P8  1  0.500000  0.299259  0.477526  1
  P  P9  1  0.500000  0.178274  0.700731  1
  P  P10  1  0.500000  0.522444  0.821732  1
  P  P11  1  0.500000  0.818557  0.518736  1
  P  P12  1  0.500000  0.481298  0.299851  1
  P  P13  1  0.500000  0.700173  0.181455  1
  P  P14  1  0.000000  0.000175  0.369165  1
  P  P15  1  0.000000  0.369019  0.999792  1
  P  P16  1  0.000000  0.630809  0.630995  1
  Pd  Pd17  1  0.000000  0.000061  0.553379  1
  Pd  Pd18  1  0.000000  0.553321  0.999973  1
  Pd  Pd19  1  0.000000  0.446629  0.446677  1
  Ru  Ru20  1  0.500000  0.998702  0.708931  1
  Ru  Ru21  1  0.500000  0.710208  0.001305  1
  Ru  Ru22  1  0.500000  0.291085  0.289769  1
  Ru  Ru23  1  0.000000  0.194605  0.379532  1
  Ru  Ru24  1  0.000000  0.184964  0.805391  1
  Ru  Ru25  1  0.000000  0.620391  0.815020  1
  Ru  Ru26  1  0.000000  0.812624  0.617224  1
  Ru  Ru27  1  0.000000  0.382794  0.195399  1
  Ru  Ru28  1  0.000000  0.804591  0.187377  1
  Ru  Ru29  1  0.500000  0.121577  0.490964  1
  Ru  Ru30  1  0.500000  0.369382  0.878407  1
  Ru  Ru31  1  0.500000  0.508965  0.630572  1
  Ru  Ru32  1  0.500000  0.629606  0.505182  1
  Ru  Ru33  1  0.500000  0.494860  0.124442  1
  Ru  Ru34  1  0.500000  0.875567  0.370454  1
  Ru  Ru35  1  0.000000  0.999991  0.000000  1
