# generated using pymatgen
data_Ac5La5Si8
_symmetry_space_group_name_H-M   'P 1'
_cell_length_a   8.14603801
_cell_length_b   8.15898022
_cell_length_c   15.95135700
_cell_angle_alpha   90.00000000
_cell_angle_beta   90.00000000
_cell_angle_gamma   90.01633207
_symmetry_Int_Tables_number   1
_chemical_formula_structural   Ac5La5Si8
_chemical_formula_sum   'Ac10 La10 Si16'
_cell_volume   1060.18078737
_cell_formula_units_Z   2
loop_
 _symmetry_equiv_pos_site_id
 _symmetry_equiv_pos_as_xyz
  1  'x, y, z'
loop_
 _atom_site_type_symbol
 _atom_site_label
 _atom_site_symmetry_multiplicity
 _atom_site_fract_x
 _atom_site_fract_y
 _atom_site_fract_z
 _atom_site_occupancy
  Ac  Ac0  1  0.124444  0.486060  0.448940  1
  Ac  Ac1  1  0.875556  0.513941  0.948940  1
  Ac  Ac2  1  0.625128  0.014664  0.301149  1
  Ac  Ac3  1  0.374872  0.985335  0.801149  1
  Ac  Ac4  1  0.515328  0.876761  0.052474  1
  Ac  Ac5  1  0.484673  0.123239  0.552474  1
  Ac  Ac6  1  0.986685  0.376926  0.197628  1
  Ac  Ac7  1  0.013314  0.623074  0.697628  1
  Ac  Ac8  1  0.126612  0.022408  0.372530  1
  Ac  Ac9  1  0.873388  0.977592  0.872529  1
  La  La10  1  0.628210  0.480431  0.377057  1
  La  La11  1  0.371790  0.519569  0.877057  1
  La  La12  1  0.980796  0.871695  0.126841  1
  La  La13  1  0.019204  0.128305  0.626840  1
  La  La14  1  0.520445  0.373876  0.122617  1
  La  La15  1  0.479555  0.626124  0.622616  1
  La  La16  1  0.190365  0.190654  0.000172  1
  La  La17  1  0.809635  0.809346  0.500172  1
  La  La18  1  0.689962  0.310341  0.750348  1
  La  La19  1  0.310038  0.689659  0.250348  1
  Si  Si20  1  0.289348  0.081577  0.187606  1
  Si  Si21  1  0.710653  0.918423  0.687605  1
  Si  Si22  1  0.783271  0.421188  0.560645  1
  Si  Si23  1  0.216727  0.578812  0.060644  1
  Si  Si24  1  0.917523  0.710637  0.309245  1
  Si  Si25  1  0.082477  0.289364  0.809246  1
  Si  Si26  1  0.578019  0.217683  0.941443  1
  Si  Si27  1  0.421981  0.782315  0.441443  1
  Si  Si28  1  0.337315  0.308833  0.290618  1
  Si  Si29  1  0.662685  0.691167  0.790618  1
  Si  Si30  1  0.828814  0.198004  0.459102  1
  Si  Si31  1  0.171186  0.801996  0.959102  1
  Si  Si32  1  0.695954  0.665802  0.206089  1
  Si  Si33  1  0.304046  0.334198  0.706089  1
  Si  Si34  1  0.803569  0.168388  0.045499  1
  Si  Si35  1  0.196431  0.831612  0.545499  1
