# generated using pymatgen
data_Y3Si2Ir3
_symmetry_space_group_name_H-M   'P 1'
_cell_length_a   5.53498400
_cell_length_b   7.56516000
_cell_length_c   14.89669600
_cell_angle_alpha   90.00000000
_cell_angle_beta   90.00000000
_cell_angle_gamma   90.00000000
_symmetry_Int_Tables_number   1
_chemical_formula_structural   Y3Si2Ir3
_chemical_formula_sum   'Y12 Si8 Ir12'
_cell_volume   623.76994088
_cell_formula_units_Z   4
loop_
 _symmetry_equiv_pos_site_id
 _symmetry_equiv_pos_as_xyz
  1  'x, y, z'
loop_
 _atom_site_type_symbol
 _atom_site_label
 _atom_site_symmetry_multiplicity
 _atom_site_fract_x
 _atom_site_fract_y
 _atom_site_fract_z
 _atom_site_occupancy
  Y  Y0  1  0.900765  0.828537  0.750000  1
  Y  Y1  1  0.870017  0.526299  0.391619  1
  Y  Y2  1  0.370017  0.973701  0.608381  1
  Y  Y3  1  0.129983  0.473701  0.891619  1
  Y  Y4  1  0.629983  0.026300  0.108381  1
  Y  Y5  1  0.099235  0.171463  0.250000  1
  Y  Y6  1  0.129983  0.473701  0.608381  1
  Y  Y7  1  0.629983  0.026300  0.391619  1
  Y  Y8  1  0.400765  0.671463  0.250000  1
  Y  Y9  1  0.370017  0.973701  0.891619  1
  Y  Y10  1  0.599235  0.328537  0.750000  1
  Y  Y11  1  0.870017  0.526299  0.108381  1
  Si  Si12  1  0.619265  0.624934  0.896906  1
  Si  Si13  1  0.880735  0.124934  0.603094  1
  Si  Si14  1  0.119265  0.875066  0.103094  1
  Si  Si15  1  0.119265  0.875066  0.396906  1
  Si  Si16  1  0.619265  0.624934  0.603094  1
  Si  Si17  1  0.880735  0.124934  0.896906  1
  Si  Si18  1  0.380735  0.375066  0.103094  1
  Si  Si19  1  0.380735  0.375066  0.396906  1
  Ir  Ir20  1  0.601796  0.331948  0.959960  1
  Ir  Ir21  1  0.101796  0.168052  0.459960  1
  Ir  Ir22  1  0.101796  0.168052  0.040040  1
  Ir  Ir23  1  0.414689  0.680791  0.750000  1
  Ir  Ir24  1  0.898204  0.831948  0.959960  1
  Ir  Ir25  1  0.585311  0.319209  0.250000  1
  Ir  Ir26  1  0.898204  0.831948  0.540040  1
  Ir  Ir27  1  0.914689  0.819209  0.250000  1
  Ir  Ir28  1  0.601796  0.331948  0.540040  1
  Ir  Ir29  1  0.398204  0.668052  0.459960  1
  Ir  Ir30  1  0.085311  0.180791  0.750000  1
  Ir  Ir31  1  0.398204  0.668052  0.040040  1
