# generated using pymatgen
data_Tm2Lu6Nb11Si16Mo
_symmetry_space_group_name_H-M   'P 1'
_cell_length_a   6.80814351
_cell_length_b   7.01750077
_cell_length_c   13.29505041
_cell_angle_alpha   90.01235025
_cell_angle_beta   89.94411114
_cell_angle_gamma   89.91287163
_symmetry_Int_Tables_number   1
_chemical_formula_structural   Tm2Lu6Nb11Si16Mo
_chemical_formula_sum   'Tm2 Lu6 Nb11 Si16 Mo1'
_cell_volume   635.18530238
_cell_formula_units_Z   1
loop_
 _symmetry_equiv_pos_site_id
 _symmetry_equiv_pos_as_xyz
  1  'x, y, z'
loop_
 _atom_site_type_symbol
 _atom_site_label
 _atom_site_symmetry_multiplicity
 _atom_site_fract_x
 _atom_site_fract_y
 _atom_site_fract_z
 _atom_site_occupancy
  Tm  Tm0  1  0.503209  0.327753  0.095689  1
  Tm  Tm1  1  0.001313  0.173005  0.404445  1
  Lu  Lu2  1  0.496919  0.672626  0.595347  1
  Lu  Lu3  1  0.998034  0.827516  0.903827  1
  Lu  Lu4  1  0.497182  0.672293  0.903345  1
  Lu  Lu5  1  0.997964  0.827351  0.595589  1
  Lu  Lu6  1  0.502578  0.327551  0.405603  1
  Lu  Lu7  1  0.003089  0.172841  0.095998  1
  Nb  Nb8  1  0.837901  0.325148  0.624475  1
  Nb  Nb9  1  0.337563  0.174448  0.873554  1
  Nb  Nb10  1  0.163205  0.675129  0.125481  1
  Nb  Nb11  1  0.660991  0.826725  0.375524  1
  Nb  Nb12  1  0.165140  0.675431  0.376457  1
  Nb  Nb13  1  0.663450  0.825205  0.125442  1
  Nb  Nb14  1  0.836717  0.324460  0.873352  1
  Nb  Nb15  1  0.662224  0.006792  0.748899  1
  Nb  Nb16  1  0.161904  0.493305  0.749025  1
  Nb  Nb17  1  0.337663  0.994892  0.250718  1
  Nb  Nb18  1  0.837860  0.506455  0.250347  1
  Si  Si19  1  0.660676  0.036186  0.542018  1
  Si  Si20  1  0.164402  0.464352  0.958877  1
  Si  Si21  1  0.335428  0.964475  0.040556  1
  Si  Si22  1  0.835451  0.536118  0.459158  1
  Si  Si23  1  0.333468  0.966400  0.462088  1
  Si  Si24  1  0.835797  0.535374  0.040044  1
  Si  Si25  1  0.664791  0.034975  0.959387  1
  Si  Si26  1  0.166740  0.460174  0.541981  1
  Si  Si27  1  0.538420  0.378179  0.747867  1
  Si  Si28  1  0.042945  0.120503  0.748579  1
  Si  Si29  1  0.460366  0.620127  0.250498  1
  Si  Si30  1  0.959706  0.879312  0.250591  1
  Si  Si31  1  0.794043  0.630651  0.749423  1
  Si  Si32  1  0.296324  0.869893  0.749231  1
  Si  Si33  1  0.205449  0.369694  0.250601  1
  Si  Si34  1  0.704496  0.131525  0.250037  1
  Mo  Mo35  1  0.336591  0.173135  0.625951  1
