# generated using pymatgen
data_Na6Np2MoBr18
_symmetry_space_group_name_H-M   'P 1'
_cell_length_a   12.56397500
_cell_length_b   12.56397516
_cell_length_c   6.67110000
_cell_angle_alpha   90.00000000
_cell_angle_beta   90.00000000
_cell_angle_gamma   119.99999694
_symmetry_Int_Tables_number   1
_chemical_formula_structural   Na6Np2MoBr18
_chemical_formula_sum   'Na6 Np2 Mo1 Br18'
_cell_volume   911.97352063
_cell_formula_units_Z   1
loop_
 _symmetry_equiv_pos_site_id
 _symmetry_equiv_pos_as_xyz
  1  'x, y, z'
loop_
 _atom_site_type_symbol
 _atom_site_label
 _atom_site_symmetry_multiplicity
 _atom_site_fract_x
 _atom_site_fract_y
 _atom_site_fract_z
 _atom_site_occupancy
  Na  Na0  1  0.000000  0.335656  0.000000  1
  Na  Na1  1  0.664344  0.664344  0.000000  1
  Na  Na2  1  0.335656  0.000000  0.000000  1
  Na  Na3  1  0.000000  0.664344  0.000000  1
  Na  Na4  1  0.335656  0.335656  0.000000  1
  Na  Na5  1  0.664344  0.000000  0.000000  1
  Np  Np6  1  0.333333  0.666667  0.494777  1
  Np  Np7  1  0.666667  0.333333  0.505223  1
  Mo  Mo8  1  0.000000  0.000000  0.000000  1
  Br  Br9  1  0.437988  0.562012  0.253130  1
  Br  Br10  1  0.772187  0.227813  0.271292  1
  Br  Br11  1  0.227813  0.772187  0.728708  1
  Br  Br12  1  0.772187  0.544374  0.271292  1
  Br  Br13  1  0.192961  0.096480  0.777012  1
  Br  Br14  1  0.455626  0.227813  0.271292  1
  Br  Br15  1  0.544374  0.772187  0.728708  1
  Br  Br16  1  0.903520  0.807039  0.777012  1
  Br  Br17  1  0.562012  0.437988  0.746870  1
  Br  Br18  1  0.562012  0.124024  0.746870  1
  Br  Br19  1  0.875976  0.437988  0.746870  1
  Br  Br20  1  0.124024  0.562012  0.253130  1
  Br  Br21  1  0.437988  0.875976  0.253130  1
  Br  Br22  1  0.227813  0.455626  0.728708  1
  Br  Br23  1  0.096480  0.192961  0.222988  1
  Br  Br24  1  0.096480  0.903520  0.222988  1
  Br  Br25  1  0.807039  0.903520  0.222988  1
  Br  Br26  1  0.903520  0.096480  0.777012  1
