# generated using pymatgen
data_Hf3MgSc4(Si4Ru3)4
_symmetry_space_group_name_H-M   'P 1'
_cell_length_a   9.92110845
_cell_length_b   9.91817721
_cell_length_c   13.41163170
_cell_angle_alpha   53.76381506
_cell_angle_beta   53.64437643
_cell_angle_gamma   31.06153020
_symmetry_Int_Tables_number   1
_chemical_formula_structural   Hf3MgSc4(Si4Ru3)4
_chemical_formula_sum   'Hf3 Mg1 Sc4 Si16 Ru12'
_cell_volume   537.23444486
_cell_formula_units_Z   1
loop_
 _symmetry_equiv_pos_site_id
 _symmetry_equiv_pos_as_xyz
  1  'x, y, z'
loop_
 _atom_site_type_symbol
 _atom_site_label
 _atom_site_symmetry_multiplicity
 _atom_site_fract_x
 _atom_site_fract_y
 _atom_site_fract_z
 _atom_site_occupancy
  Hf  Hf0  1  0.707665  0.961051  0.863359  1
  Hf  Hf1  1  0.960783  0.703765  0.365077  1
  Hf  Hf2  1  0.294846  0.039371  0.135488  1
  Mg  Mg3  1  0.305845  0.559702  0.639061  1
  Sc  Sc4  1  0.439217  0.707816  0.853651  1
  Sc  Sc5  1  0.701672  0.442117  0.356062  1
  Sc  Sc6  1  0.560973  0.291951  0.146671  1
  Sc  Sc7  1  0.037989  0.291999  0.638711  1
  Si  Si8  1  0.874771  0.125005  0.249727  1
  Si  Si9  1  0.127534  0.871715  0.750273  1
  Si  Si10  1  0.384086  0.617231  0.248544  1
  Si  Si11  1  0.619494  0.379538  0.750298  1
  Si  Si12  1  0.970139  0.255714  0.893899  1
  Si  Si13  1  0.747117  0.023706  0.606779  1
  Si  Si14  1  0.025909  0.745822  0.110108  1
  Si  Si15  1  0.246390  0.981750  0.389460  1
  Si  Si16  1  0.574274  0.082316  0.067463  1
  Si  Si17  1  0.916382  0.422753  0.436348  1
  Si  Si18  1  0.425086  0.920108  0.931722  1
  Si  Si19  1  0.083488  0.573979  0.566980  1
  Si  Si20  1  0.383766  0.145765  0.396948  1
  Si  Si21  1  0.853507  0.613556  0.105524  1
  Si  Si22  1  0.614377  0.857122  0.602292  1
  Si  Si23  1  0.144609  0.390305  0.894763  1
  Ru  Ru24  1  0.646512  0.829524  0.284248  1
  Ru  Ru25  1  0.168122  0.351363  0.218259  1
  Ru  Ru26  1  0.760045  0.484675  0.068102  1
  Ru  Ru27  1  0.829965  0.649140  0.782703  1
  Ru  Ru28  1  0.901088  0.132992  0.587924  1
  Ru  Ru29  1  0.857506  0.101280  0.915306  1
  Ru  Ru30  1  0.100635  0.858772  0.412256  1
  Ru  Ru31  1  0.145180  0.897175  0.085134  1
  Ru  Ru32  1  0.241191  0.514247  0.933000  1
  Ru  Ru33  1  0.490847  0.754871  0.569783  1
  Ru  Ru34  1  0.509703  0.248187  0.427250  1
  Ru  Ru35  1  0.349288  0.173617  0.716830  1
