# generated using pymatgen
data_Sc22CoRu2Rh5
_symmetry_space_group_name_H-M   'P 1'
_cell_length_a   9.49565974
_cell_length_b   9.49565900
_cell_length_c   9.54484200
_cell_angle_alpha   59.82850730
_cell_angle_beta   59.82850991
_cell_angle_gamma   59.74593746
_symmetry_Int_Tables_number   1
_chemical_formula_structural   Sc22CoRu2Rh5
_chemical_formula_sum   'Sc22 Co1 Ru2 Rh5'
_cell_volume   605.81064565
_cell_formula_units_Z   1
loop_
 _symmetry_equiv_pos_site_id
 _symmetry_equiv_pos_as_xyz
  1  'x, y, z'
loop_
 _atom_site_type_symbol
 _atom_site_label
 _atom_site_symmetry_multiplicity
 _atom_site_fract_x
 _atom_site_fract_y
 _atom_site_fract_z
 _atom_site_occupancy
  Sc  Sc0  1  0.808082  0.808082  0.191918  1
  Sc  Sc1  1  0.191933  0.808067  0.192297  1
  Sc  Sc2  1  0.808067  0.191933  0.192297  1
  Sc  Sc3  1  0.191918  0.191918  0.808082  1
  Sc  Sc4  1  0.808067  0.191933  0.807703  1
  Sc  Sc5  1  0.191933  0.808067  0.807703  1
  Sc  Sc6  1  0.616282  0.616282  0.153377  1
  Sc  Sc7  1  0.619389  0.151577  0.614518  1
  Sc  Sc8  1  0.151577  0.619389  0.614518  1
  Sc  Sc9  1  0.616282  0.616282  0.614060  1
  Sc  Sc10  1  0.383718  0.383718  0.846623  1
  Sc  Sc11  1  0.380611  0.848423  0.385482  1
  Sc  Sc12  1  0.848423  0.380611  0.385482  1
  Sc  Sc13  1  0.383718  0.383718  0.385940  1
  Sc  Sc14  1  0.842050  0.842050  0.474324  1
  Sc  Sc15  1  0.840031  0.475713  0.842128  1
  Sc  Sc16  1  0.475713  0.840031  0.842128  1
  Sc  Sc17  1  0.842050  0.842050  0.841576  1
  Sc  Sc18  1  0.157950  0.157950  0.525676  1
  Sc  Sc19  1  0.159969  0.524287  0.157872  1
  Sc  Sc20  1  0.524287  0.159969  0.157872  1
  Sc  Sc21  1  0.157950  0.157950  0.158424  1
  Co  Co22  1  0.000000  0.000000  0.000000  1
  Ru  Ru23  1  0.500000  0.500000  0.500000  1
  Ru  Ru24  1  0.000000  0.000000  0.500000  1
  Rh  Rh25  1  0.500000  0.000000  0.500000  1
  Rh  Rh26  1  0.000000  0.500000  0.500000  1
  Rh  Rh27  1  0.500000  0.500000  0.000000  1
  Rh  Rh28  1  0.000000  0.500000  0.000000  1
  Rh  Rh29  1  0.500000  0.000000  0.000000  1
