# generated using pymatgen
data_Li4Pr6Pd12Rh
_symmetry_space_group_name_H-M   'P 1'
_cell_length_a   8.40363378
_cell_length_b   8.40363351
_cell_length_c   8.40363500
_cell_angle_alpha   109.47121940
_cell_angle_beta   109.47121876
_cell_angle_gamma   109.47122315
_symmetry_Int_Tables_number   1
_chemical_formula_structural   Li4Pr6Pd12Rh
_chemical_formula_sum   'Li4 Pr6 Pd12 Rh1'
_cell_volume   456.85619240
_cell_formula_units_Z   1
loop_
 _symmetry_equiv_pos_site_id
 _symmetry_equiv_pos_as_xyz
  1  'x, y, z'
loop_
 _atom_site_type_symbol
 _atom_site_label
 _atom_site_symmetry_multiplicity
 _atom_site_fract_x
 _atom_site_fract_y
 _atom_site_fract_z
 _atom_site_occupancy
  Li  Li0  1  0.000000  0.000000  0.500000  1
  Li  Li1  1  0.500000  0.000000  0.000000  1
  Li  Li2  1  0.000000  0.500000  0.000000  1
  Li  Li3  1  0.500000  0.500000  0.500000  1
  Pr  Pr4  1  0.000000  0.300352  0.300352  1
  Pr  Pr5  1  0.000000  0.699648  0.699648  1
  Pr  Pr6  1  0.300352  0.000000  0.300352  1
  Pr  Pr7  1  0.699648  0.699648  0.000000  1
  Pr  Pr8  1  0.699648  0.000000  0.699648  1
  Pr  Pr9  1  0.300352  0.300352  0.000000  1
  Pd  Pd10  1  0.333690  0.666310  0.000000  1
  Pd  Pd11  1  0.000000  0.333690  0.666310  1
  Pd  Pd12  1  0.666310  0.000000  0.333690  1
  Pd  Pd13  1  0.332617  0.666310  0.666310  1
  Pd  Pd14  1  0.666310  0.332617  0.666310  1
  Pd  Pd15  1  0.667383  0.333690  0.333690  1
  Pd  Pd16  1  0.333690  0.667383  0.333690  1
  Pd  Pd17  1  0.333690  0.333690  0.667383  1
  Pd  Pd18  1  0.000000  0.666310  0.333690  1
  Pd  Pd19  1  0.666310  0.666310  0.332617  1
  Pd  Pd20  1  0.333690  0.000000  0.666310  1
  Pd  Pd21  1  0.666310  0.333690  0.000000  1
  Rh  Rh22  1  0.000000  0.000000  0.000000  1
