# generated using pymatgen
data_Tb2Er6Ti7Ge16Mo5
_symmetry_space_group_name_H-M   'P 1'
_cell_length_a   6.91283093
_cell_length_b   7.07947525
_cell_length_c   13.37627189
_cell_angle_alpha   90.05773531
_cell_angle_beta   89.89978756
_cell_angle_gamma   90.09655635
_symmetry_Int_Tables_number   1
_chemical_formula_structural   Tb2Er6Ti7Ge16Mo5
_chemical_formula_sum   'Tb2 Er6 Ti7 Ge16 Mo5'
_cell_volume   654.62199083
_cell_formula_units_Z   1
loop_
 _symmetry_equiv_pos_site_id
 _symmetry_equiv_pos_as_xyz
  1  'x, y, z'
loop_
 _atom_site_type_symbol
 _atom_site_label
 _atom_site_symmetry_multiplicity
 _atom_site_fract_x
 _atom_site_fract_y
 _atom_site_fract_z
 _atom_site_occupancy
  Tb  Tb0  1  0.502025  0.328299  0.403912  1
  Tb  Tb1  1  0.005057  0.170048  0.094728  1
  Er  Er2  1  0.003449  0.172899  0.404377  1
  Er  Er3  1  0.504112  0.324694  0.095610  1
  Er  Er4  1  0.496901  0.673531  0.596323  1
  Er  Er5  1  0.995784  0.825793  0.903635  1
  Er  Er6  1  0.996176  0.826268  0.596842  1
  Er  Er7  1  0.495882  0.674174  0.905911  1
  Ti  Ti8  1  0.836571  0.670493  0.371468  1
  Ti  Ti9  1  0.663561  0.167224  0.627657  1
  Ti  Ti10  1  0.163217  0.331917  0.873595  1
  Ti  Ti11  1  0.163366  0.331839  0.627487  1
  Ti  Ti12  1  0.662635  0.167298  0.872937  1
  Ti  Ti13  1  0.841637  0.669124  0.126883  1
  Ti  Ti14  1  0.335324  0.831613  0.371949  1
  Ge  Ge15  1  0.327224  0.041809  0.544310  1
  Ge  Ge16  1  0.826846  0.458319  0.955934  1
  Ge  Ge17  1  0.667956  0.956857  0.043971  1
  Ge  Ge18  1  0.169899  0.544027  0.456434  1
  Ge  Ge19  1  0.175065  0.542916  0.043232  1
  Ge  Ge20  1  0.671181  0.957215  0.456451  1
  Ge  Ge21  1  0.828996  0.457914  0.544936  1
  Ge  Ge22  1  0.326653  0.043113  0.956387  1
  Ge  Ge23  1  0.807214  0.365163  0.249444  1
  Ge  Ge24  1  0.307671  0.134455  0.250240  1
  Ge  Ge25  1  0.693363  0.863417  0.750115  1
  Ge  Ge26  1  0.195898  0.635930  0.750184  1
  Ge  Ge27  1  0.036059  0.873957  0.250793  1
  Ge  Ge28  1  0.535540  0.628713  0.248341  1
  Ge  Ge29  1  0.464519  0.372562  0.750416  1
  Ge  Ge30  1  0.964397  0.127298  0.750434  1
  Mo  Mo31  1  0.334378  0.832266  0.126762  1
  Mo  Mo32  1  0.334695  0.009047  0.750266  1
  Mo  Mo33  1  0.665989  0.987557  0.249092  1
  Mo  Mo34  1  0.164653  0.513299  0.248617  1
  Mo  Mo35  1  0.836104  0.488952  0.750329  1
