# generated using pymatgen
data_Tb11In(Hg2Ir)4
_symmetry_space_group_name_H-M   'P 1'
_cell_length_a   13.06737652
_cell_length_b   13.06737601
_cell_length_c   3.78116800
_cell_angle_alpha   90.00000000
_cell_angle_beta   90.00000000
_cell_angle_gamma   114.52074779
_symmetry_Int_Tables_number   1
_chemical_formula_structural   Tb11In(Hg2Ir)4
_chemical_formula_sum   'Tb11 In1 Hg8 Ir4'
_cell_volume   587.42709045
_cell_formula_units_Z   1
loop_
 _symmetry_equiv_pos_site_id
 _symmetry_equiv_pos_as_xyz
  1  'x, y, z'
loop_
 _atom_site_type_symbol
 _atom_site_label
 _atom_site_symmetry_multiplicity
 _atom_site_fract_x
 _atom_site_fract_y
 _atom_site_fract_z
 _atom_site_occupancy
  Tb  Tb0  1  0.500000  0.500000  0.500000  1
  Tb  Tb1  1  0.796619  0.796619  0.500000  1
  Tb  Tb2  1  0.203381  0.203381  0.500000  1
  Tb  Tb3  1  0.586746  0.918555  0.500000  1
  Tb  Tb4  1  0.413254  0.081445  0.500000  1
  Tb  Tb5  1  0.918555  0.586746  0.500000  1
  Tb  Tb6  1  0.081445  0.413254  0.500000  1
  Tb  Tb7  1  0.130536  0.869464  0.500000  1
  Tb  Tb8  1  0.869464  0.130536  0.500000  1
  Tb  Tb9  1  0.332821  0.667179  0.500000  1
  Tb  Tb10  1  0.667179  0.332821  0.500000  1
  In  In11  1  0.000000  0.000000  0.000000  1
  Hg  Hg12  1  0.351445  0.868239  0.000000  1
  Hg  Hg13  1  0.648555  0.131761  0.000000  1
  Hg  Hg14  1  0.868239  0.351445  0.000000  1
  Hg  Hg15  1  0.131761  0.648555  0.000000  1
  Hg  Hg16  1  0.557138  0.710932  0.000000  1
  Hg  Hg17  1  0.442862  0.289068  0.000000  1
  Hg  Hg18  1  0.710932  0.557138  0.000000  1
  Hg  Hg19  1  0.289068  0.442862  0.000000  1
  Ir  Ir20  1  0.757708  0.949750  0.000000  1
  Ir  Ir21  1  0.242292  0.050250  0.000000  1
  Ir  Ir22  1  0.949750  0.757708  0.000000  1
  Ir  Ir23  1  0.050250  0.242292  0.000000  1
