# generated using pymatgen
data_Tb4Y2Pd7Rh
_symmetry_space_group_name_H-M   'P 1'
_cell_length_a   7.87988299
_cell_length_b   7.87597880
_cell_length_c   7.88484831
_cell_angle_alpha   114.20382904
_cell_angle_beta   114.27010227
_cell_angle_gamma   114.17533213
_symmetry_Int_Tables_number   1
_chemical_formula_structural   Tb4Y2Pd7Rh
_chemical_formula_sum   'Tb4 Y2 Pd7 Rh1'
_cell_volume   292.47190197
_cell_formula_units_Z   1
loop_
 _symmetry_equiv_pos_site_id
 _symmetry_equiv_pos_as_xyz
  1  'x, y, z'
loop_
 _atom_site_type_symbol
 _atom_site_label
 _atom_site_symmetry_multiplicity
 _atom_site_fract_x
 _atom_site_fract_y
 _atom_site_fract_z
 _atom_site_occupancy
  Tb  Tb0  1  0.398213  0.024505  0.272594  1
  Tb  Tb1  1  0.024277  0.272314  0.398289  1
  Tb  Tb2  1  0.272756  0.398190  0.024167  1
  Tb  Tb3  1  0.601432  0.975507  0.727570  1
  Y  Y4  1  0.975814  0.727512  0.601558  1
  Y  Y5  1  0.727369  0.601369  0.975860  1
  Pd  Pd6  1  0.499761  0.499838  0.499817  1
  Pd  Pd7  1  0.229728  0.063850  0.551494  1
  Pd  Pd8  1  0.063812  0.551143  0.229605  1
  Pd  Pd9  1  0.551474  0.229492  0.063365  1
  Pd  Pd10  1  0.770169  0.936110  0.448247  1
  Pd  Pd11  1  0.936354  0.448577  0.770562  1
  Pd  Pd12  1  0.448365  0.770434  0.936080  1
  Rh  Rh13  1  0.000475  0.001159  0.000791  1
