# generated using pymatgen
data_Nd2Pa(GaRh)3
_symmetry_space_group_name_H-M   'P 1'
_cell_length_a   7.32931760
_cell_length_b   7.42545560
_cell_length_c   3.88672700
_cell_angle_alpha   90.00000000
_cell_angle_beta   90.00000000
_cell_angle_gamma   120.43736605
_symmetry_Int_Tables_number   1
_chemical_formula_structural   Nd2Pa(GaRh)3
_chemical_formula_sum   'Nd2 Pa1 Ga3 Rh3'
_cell_volume   182.37713000
_cell_formula_units_Z   1
loop_
 _symmetry_equiv_pos_site_id
 _symmetry_equiv_pos_as_xyz
  1  'x, y, z'
loop_
 _atom_site_type_symbol
 _atom_site_label
 _atom_site_symmetry_multiplicity
 _atom_site_fract_x
 _atom_site_fract_y
 _atom_site_fract_z
 _atom_site_occupancy
  Nd  Nd0  1  0.410069  0.414488  0.500000  1
  Nd  Nd1  1  0.589889  0.004284  0.500000  1
  Pa  Pa2  1  0.999999  0.585792  0.500000  1
  Ga  Ga3  1  0.746895  0.752913  0.000000  1
  Ga  Ga4  1  0.253197  0.006094  0.000000  1
  Ga  Ga5  1  0.999975  0.233939  0.000000  1
  Rh  Rh6  1  0.708529  0.368477  0.000000  1
  Rh  Rh7  1  0.291407  0.659925  0.000000  1
  Rh  Rh8  1  0.000039  0.974087  0.500000  1
