# generated using pymatgen
data_Sm2Nb3As7Rh9
_symmetry_space_group_name_H-M   'P 1'
_cell_length_a   4.03053200
_cell_length_b   9.98658718
_cell_length_c   9.98829718
_cell_angle_alpha   119.95515543
_cell_angle_beta   90.00127886
_cell_angle_gamma   89.99987609
_symmetry_Int_Tables_number   1
_chemical_formula_structural   Sm2Nb3As7Rh9
_chemical_formula_sum   'Sm2 Nb3 As7 Rh9'
_cell_volume   348.33541518
_cell_formula_units_Z   1
loop_
 _symmetry_equiv_pos_site_id
 _symmetry_equiv_pos_as_xyz
  1  'x, y, z'
loop_
 _atom_site_type_symbol
 _atom_site_label
 _atom_site_symmetry_multiplicity
 _atom_site_fract_x
 _atom_site_fract_y
 _atom_site_fract_z
 _atom_site_occupancy
  Sm  Sm0  1  0.261494  0.666663  0.333436  1
  Sm  Sm1  1  0.761993  0.333279  0.666628  1
  Nb  Nb2  1  0.762119  0.096404  0.877211  1
  Nb  Nb3  1  0.762115  0.122730  0.219279  1
  Nb  Nb4  1  0.762125  0.780575  0.903541  1
  As  As5  1  0.262417  0.999985  0.999913  1
  As  As6  1  0.761676  0.879835  0.590041  1
  As  As7  1  0.761669  0.410024  0.289682  1
  As  As8  1  0.761697  0.710341  0.120332  1
  As  As9  1  0.262141  0.116387  0.415106  1
  As  As10  1  0.262141  0.584971  0.701355  1
  As  As11  1  0.262128  0.298727  0.883585  1
  Rh  Rh12  1  0.261901  0.881684  0.160677  1
  Rh  Rh13  1  0.261884  0.839464  0.720971  1
  Rh  Rh14  1  0.261877  0.278981  0.118509  1
  Rh  Rh15  1  0.761871  0.613083  0.562215  1
  Rh  Rh16  1  0.761852  0.437501  0.050712  1
  Rh  Rh17  1  0.761876  0.949174  0.386712  1
  Rh  Rh18  1  0.261679  0.368781  0.435883  1
  Rh  Rh19  1  0.261671  0.564220  0.932722  1
  Rh  Rh20  1  0.261674  0.067192  0.631488  1
