# generated using pymatgen
data_Ta7Ni4MoN2
_symmetry_space_group_name_H-M   'P 1'
_cell_length_a   8.21356453
_cell_length_b   8.17806956
_cell_length_c   8.17792424
_cell_angle_alpha   59.72395160
_cell_angle_beta   59.84922552
_cell_angle_gamma   59.84943909
_symmetry_Int_Tables_number   1
_chemical_formula_structural   Ta7Ni4MoN2
_chemical_formula_sum   'Ta14 Ni8 Mo2 N4'
_cell_volume   386.72980990
_cell_formula_units_Z   2
loop_
 _symmetry_equiv_pos_site_id
 _symmetry_equiv_pos_as_xyz
  1  'x, y, z'
loop_
 _atom_site_type_symbol
 _atom_site_label
 _atom_site_symmetry_multiplicity
 _atom_site_fract_x
 _atom_site_fract_y
 _atom_site_fract_z
 _atom_site_occupancy
  Ta  Ta0  1  0.316167  0.683835  0.683756  1
  Ta  Ta1  1  0.125000  0.125000  0.625000  1
  Ta  Ta2  1  0.565995  0.561818  0.936306  1
  Ta  Ta3  1  0.314113  0.688122  0.313736  1
  Ta  Ta4  1  0.314134  0.313786  0.687977  1
  Ta  Ta5  1  0.686758  0.313210  0.313198  1
  Ta  Ta6  1  0.935866  0.936214  0.562023  1
  Ta  Ta7  1  0.935887  0.561878  0.936264  1
  Ta  Ta8  1  0.933833  0.566165  0.566244  1
  Ta  Ta9  1  0.563242  0.936790  0.936802  1
  Ta  Ta10  1  0.684005  0.688182  0.313694  1
  Ta  Ta11  1  0.684084  0.313753  0.688024  1
  Ta  Ta12  1  0.565916  0.936247  0.561976  1
  Ta  Ta13  1  0.125000  0.625000  0.125000  1
  Ni  Ni14  1  0.006544  0.330186  0.330230  1
  Ni  Ni15  1  0.916901  0.919743  0.919695  1
  Ni  Ni16  1  0.330542  0.327604  0.011421  1
  Ni  Ni17  1  0.919458  0.922396  0.238579  1
  Ni  Ni18  1  0.243456  0.919814  0.919770  1
  Ni  Ni19  1  0.330573  0.011278  0.327673  1
  Ni  Ni20  1  0.919427  0.238722  0.922327  1
  Ni  Ni21  1  0.333099  0.330257  0.330305  1
  Mo  Mo22  1  0.125000  0.125000  0.125000  1
  Mo  Mo23  1  0.625000  0.125000  0.125000  1
  N  N24  1  0.625000  0.125000  0.625000  1
  N  N25  1  0.625000  0.625000  0.125000  1
  N  N26  1  0.125000  0.625000  0.625000  1
  N  N27  1  0.625000  0.625000  0.625000  1
