# generated using pymatgen
data_Li2Ho8Sc10Si15Hg
_symmetry_space_group_name_H-M   'P 1'
_cell_length_a   7.02159956
_cell_length_b   7.36964764
_cell_length_c   14.07497847
_cell_angle_alpha   89.96752122
_cell_angle_beta   89.58015569
_cell_angle_gamma   90.15136432
_symmetry_Int_Tables_number   1
_chemical_formula_structural   Li2Ho8Sc10Si15Hg
_chemical_formula_sum   'Li2 Ho8 Sc10 Si15 Hg1'
_cell_volume   728.31167399
_cell_formula_units_Z   1
loop_
 _symmetry_equiv_pos_site_id
 _symmetry_equiv_pos_as_xyz
  1  'x, y, z'
loop_
 _atom_site_type_symbol
 _atom_site_label
 _atom_site_symmetry_multiplicity
 _atom_site_fract_x
 _atom_site_fract_y
 _atom_site_fract_z
 _atom_site_occupancy
  Li  Li0  1  0.161023  0.503899  0.753366  1
  Li  Li1  1  0.837117  0.496205  0.249212  1
  Ho  Ho2  1  0.011047  0.184231  0.098126  1
  Ho  Ho3  1  0.989522  0.816714  0.902978  1
  Ho  Ho4  1  0.485060  0.675070  0.903425  1
  Ho  Ho5  1  0.990361  0.824900  0.598536  1
  Ho  Ho6  1  0.513422  0.325449  0.097060  1
  Ho  Ho7  1  0.005449  0.179264  0.397757  1
  Ho  Ho8  1  0.516524  0.324015  0.398221  1
  Ho  Ho9  1  0.495065  0.680524  0.601098  1
  Sc  Sc10  1  0.338862  0.001282  0.248963  1
  Sc  Sc11  1  0.664553  0.996261  0.752234  1
  Sc  Sc12  1  0.340177  0.171213  0.629352  1
  Sc  Sc13  1  0.667498  0.819050  0.371977  1
  Sc  Sc14  1  0.160759  0.674268  0.369839  1
  Sc  Sc15  1  0.672212  0.819044  0.125151  1
  Sc  Sc16  1  0.827672  0.326654  0.626569  1
  Sc  Sc17  1  0.326625  0.180424  0.875545  1
  Sc  Sc18  1  0.832894  0.325114  0.875010  1
  Sc  Sc19  1  0.166674  0.673191  0.125465  1
  Si  Si20  1  0.032532  0.107195  0.750765  1
  Si  Si21  1  0.967581  0.895826  0.248039  1
  Si  Si22  1  0.462730  0.613638  0.247890  1
  Si  Si23  1  0.536210  0.388608  0.752288  1
  Si  Si24  1  0.286712  0.878724  0.751876  1
  Si  Si25  1  0.711362  0.120502  0.247708  1
  Si  Si26  1  0.219956  0.371604  0.248952  1
  Si  Si27  1  0.783371  0.628054  0.752458  1
  Si  Si28  1  0.829349  0.542073  0.464878  1
  Si  Si29  1  0.339943  0.964164  0.461215  1
  Si  Si30  1  0.840974  0.538282  0.034090  1
  Si  Si31  1  0.657538  0.034541  0.535767  1
  Si  Si32  1  0.157588  0.461840  0.965621  1
  Si  Si33  1  0.656008  0.033020  0.961464  1
  Si  Si34  1  0.343757  0.966635  0.039064  1
  Hg  Hg35  1  0.171872  0.458522  0.538045  1
