# generated using pymatgen
data_K2Ti(IO3)6
_symmetry_space_group_name_H-M   'P 1'
_cell_length_a   7.71306019
_cell_length_b   7.71305962
_cell_length_c   7.71306113
_cell_angle_alpha   96.86637629
_cell_angle_beta   96.86637465
_cell_angle_gamma   96.86636817
_symmetry_Int_Tables_number   1
_chemical_formula_structural   K2Ti(IO3)6
_chemical_formula_sum   'K2 Ti1 I6 O18'
_cell_volume   448.11213683
_cell_formula_units_Z   1
loop_
 _symmetry_equiv_pos_site_id
 _symmetry_equiv_pos_as_xyz
  1  'x, y, z'
loop_
 _atom_site_type_symbol
 _atom_site_label
 _atom_site_symmetry_multiplicity
 _atom_site_fract_x
 _atom_site_fract_y
 _atom_site_fract_z
 _atom_site_occupancy
  K  K0  1  0.320637  0.320637  0.320637  1
  K  K1  1  0.679363  0.679363  0.679363  1
  Ti  Ti2  1  0.000000  0.000000  0.000000  1
  I  I3  1  0.828364  0.635976  0.206610  1
  I  I4  1  0.635976  0.206610  0.828364  1
  I  I5  1  0.171636  0.364024  0.793390  1
  I  I6  1  0.206610  0.828364  0.635976  1
  I  I7  1  0.364024  0.793390  0.171636  1
  I  I8  1  0.793390  0.171636  0.364024  1
  O  O9  1  0.825816  0.812407  0.054628  1
  O  O10  1  0.589112  0.120064  0.210478  1
  O  O11  1  0.210478  0.589112  0.120064  1
  O  O12  1  0.187593  0.945372  0.174184  1
  O  O13  1  0.588281  0.589800  0.188668  1
  O  O14  1  0.188668  0.588281  0.589800  1
  O  O15  1  0.789522  0.410888  0.879936  1
  O  O16  1  0.410888  0.879936  0.789522  1
  O  O17  1  0.120064  0.210478  0.589112  1
  O  O18  1  0.945372  0.174184  0.187593  1
  O  O19  1  0.054628  0.825816  0.812407  1
  O  O20  1  0.174184  0.187593  0.945372  1
  O  O21  1  0.812407  0.054628  0.825816  1
  O  O22  1  0.589800  0.188668  0.588281  1
  O  O23  1  0.879936  0.789522  0.410888  1
  O  O24  1  0.411719  0.410200  0.811332  1
  O  O25  1  0.410200  0.811332  0.411719  1
  O  O26  1  0.811332  0.411719  0.410200  1
