# generated using pymatgen
data_Rb3Na2HfAs3
_symmetry_space_group_name_H-M   'P 1'
_cell_length_a   11.01807289
_cell_length_b   11.01807294
_cell_length_c   15.99512600
_cell_angle_alpha   90.00000000
_cell_angle_beta   90.00000000
_cell_angle_gamma   142.79789000
_symmetry_Int_Tables_number   1
_chemical_formula_structural   Rb3Na2HfAs3
_chemical_formula_sum   'Rb12 Na8 Hf4 As12'
_cell_volume   1174.05252368
_cell_formula_units_Z   4
loop_
 _symmetry_equiv_pos_site_id
 _symmetry_equiv_pos_as_xyz
  1  'x, y, z'
loop_
 _atom_site_type_symbol
 _atom_site_label
 _atom_site_symmetry_multiplicity
 _atom_site_fract_x
 _atom_site_fract_y
 _atom_site_fract_z
 _atom_site_occupancy
  Rb  Rb0  1  0.947328  0.607460  0.824467  1
  Rb  Rb1  1  0.552672  0.892540  0.324467  1
  Rb  Rb2  1  0.392540  0.052672  0.175533  1
  Rb  Rb3  1  0.052672  0.392540  0.175533  1
  Rb  Rb4  1  0.892540  0.552672  0.324467  1
  Rb  Rb5  1  0.447328  0.107460  0.675533  1
  Rb  Rb6  1  0.607460  0.947328  0.824467  1
  Rb  Rb7  1  0.280255  0.280255  0.316563  1
  Rb  Rb8  1  0.780255  0.780255  0.183437  1
  Rb  Rb9  1  0.219745  0.219745  0.816563  1
  Rb  Rb10  1  0.719745  0.719745  0.683437  1
  Rb  Rb11  1  0.107460  0.447328  0.675533  1
  Na  Na12  1  0.919182  0.080818  0.000000  1
  Na  Na13  1  0.580818  0.419182  0.500000  1
  Na  Na14  1  0.080818  0.919182  0.000000  1
  Na  Na15  1  0.419182  0.580818  0.500000  1
  Na  Na16  1  0.754177  0.245823  0.000000  1
  Na  Na17  1  0.745823  0.254177  0.500000  1
  Na  Na18  1  0.245823  0.754177  0.000000  1
  Na  Na19  1  0.254177  0.745823  0.500000  1
  Hf  Hf20  1  0.585183  0.414817  0.000000  1
  Hf  Hf21  1  0.914817  0.085183  0.500000  1
  Hf  Hf22  1  0.414817  0.585183  0.000000  1
  Hf  Hf23  1  0.085183  0.914817  0.500000  1
  As  As24  1  0.869812  0.558207  0.096560  1
  As  As25  1  0.441793  0.130188  0.903440  1
  As  As26  1  0.630188  0.941793  0.596560  1
  As  As27  1  0.941793  0.630188  0.596560  1
  As  As28  1  0.130188  0.441793  0.903440  1
  As  As29  1  0.558207  0.869812  0.096560  1
  As  As30  1  0.369812  0.058207  0.403440  1
  As  As31  1  0.200046  0.200046  0.588367  1
  As  As32  1  0.700046  0.700046  0.911633  1
  As  As33  1  0.299954  0.299954  0.088367  1
  As  As34  1  0.058207  0.369812  0.403440  1
  As  As35  1  0.799954  0.799954  0.411633  1
