# generated using pymatgen
data_KCuPdF5
_symmetry_space_group_name_H-M   'P 1'
_cell_length_a   6.00798726
_cell_length_b   7.35005802
_cell_length_c   7.35474693
_cell_angle_alpha   99.10630998
_cell_angle_beta   114.10666595
_cell_angle_gamma   114.09755434
_symmetry_Int_Tables_number   1
_chemical_formula_structural   KCuPdF5
_chemical_formula_sum   'K2 Cu2 Pd2 F10'
_cell_volume   249.18031505
_cell_formula_units_Z   2
loop_
 _symmetry_equiv_pos_site_id
 _symmetry_equiv_pos_as_xyz
  1  'x, y, z'
loop_
 _atom_site_type_symbol
 _atom_site_label
 _atom_site_symmetry_multiplicity
 _atom_site_fract_x
 _atom_site_fract_y
 _atom_site_fract_z
 _atom_site_occupancy
  K  K0  1  0.750095  0.338288  0.161676  1
  K  K1  1  0.249905  0.661712  0.838324  1
  Cu  Cu2  1  0.000000  0.000000  0.000000  1
  Cu  Cu3  1  0.500001  0.500001  0.500001  1
  Pd  Pd4  1  0.999998  0.999999  0.500000  1
  Pd  Pd5  1  0.500000  0.999999  0.500000  1
  F  F6  1  0.249521  0.309887  0.189865  1
  F  F7  1  0.807480  0.937761  0.182279  1
  F  F8  1  0.312657  0.937765  0.182422  1
  F  F9  1  0.813185  0.682523  0.437812  1
  F  F10  1  0.308186  0.682496  0.437954  1
  F  F11  1  0.691816  0.317506  0.562048  1
  F  F12  1  0.186817  0.317479  0.562190  1
  F  F13  1  0.687344  0.062236  0.817579  1
  F  F14  1  0.192521  0.062240  0.817722  1
  F  F15  1  0.750479  0.690113  0.810135  1
