# generated using pymatgen
data_ThMn5P3
_symmetry_space_group_name_H-M   'P 1'
_cell_length_a   3.71668900
_cell_length_b   10.68378700
_cell_length_c   12.17628200
_cell_angle_alpha   90.00000000
_cell_angle_beta   90.00000000
_cell_angle_gamma   90.00000000
_symmetry_Int_Tables_number   1
_chemical_formula_structural   ThMn5P3
_chemical_formula_sum   'Th4 Mn20 P12'
_cell_volume   483.49962440
_cell_formula_units_Z   4
loop_
 _symmetry_equiv_pos_site_id
 _symmetry_equiv_pos_as_xyz
  1  'x, y, z'
loop_
 _atom_site_type_symbol
 _atom_site_label
 _atom_site_symmetry_multiplicity
 _atom_site_fract_x
 _atom_site_fract_y
 _atom_site_fract_z
 _atom_site_occupancy
  Th  Th0  1  0.750000  0.415617  0.295464  1
  Th  Th1  1  0.250000  0.584383  0.704536  1
  Th  Th2  1  0.250000  0.915617  0.204536  1
  Th  Th3  1  0.750000  0.084383  0.795464  1
  Mn  Mn4  1  0.750000  0.378780  0.800614  1
  Mn  Mn5  1  0.750000  0.294792  0.011659  1
  Mn  Mn6  1  0.750000  0.593457  0.507113  1
  Mn  Mn7  1  0.250000  0.705208  0.988341  1
  Mn  Mn8  1  0.250000  0.216703  0.176369  1
  Mn  Mn9  1  0.250000  0.621220  0.199386  1
  Mn  Mn10  1  0.250000  0.093457  0.992887  1
  Mn  Mn11  1  0.250000  0.283297  0.676369  1
  Mn  Mn12  1  0.250000  0.878780  0.699386  1
  Mn  Mn13  1  0.750000  0.906543  0.007113  1
  Mn  Mn14  1  0.250000  0.406543  0.492887  1
  Mn  Mn15  1  0.750000  0.967133  0.565894  1
  Mn  Mn16  1  0.750000  0.532867  0.065894  1
  Mn  Mn17  1  0.250000  0.794792  0.488341  1
  Mn  Mn18  1  0.750000  0.783297  0.823631  1
  Mn  Mn19  1  0.750000  0.121220  0.300614  1
  Mn  Mn20  1  0.250000  0.467133  0.934106  1
  Mn  Mn21  1  0.750000  0.716703  0.323631  1
  Mn  Mn22  1  0.750000  0.205208  0.511659  1
  Mn  Mn23  1  0.250000  0.032867  0.434106  1
  P  P24  1  0.250000  0.080631  0.610572  1
  P  P25  1  0.750000  0.729108  0.125066  1
  P  P26  1  0.750000  0.919369  0.389428  1
  P  P27  1  0.250000  0.419369  0.110572  1
  P  P28  1  0.750000  0.580631  0.889428  1
  P  P29  1  0.250000  0.229108  0.374934  1
  P  P30  1  0.250000  0.900750  0.893763  1
  P  P31  1  0.250000  0.599250  0.393763  1
  P  P32  1  0.250000  0.270892  0.874934  1
  P  P33  1  0.750000  0.400750  0.606237  1
  P  P34  1  0.750000  0.099250  0.106237  1
  P  P35  1  0.750000  0.770892  0.625066  1
