# generated using pymatgen
data_Tm(S8Br)3
_symmetry_space_group_name_H-M   'P 1'
_cell_length_a   4.09298343
_cell_length_b   15.35889345
_cell_length_c   15.35889129
_cell_angle_alpha   119.21996227
_cell_angle_beta   95.09628962
_cell_angle_gamma   95.09629289
_symmetry_Int_Tables_number   1
_chemical_formula_structural   Tm(S8Br)3
_chemical_formula_sum   'Tm1 S24 Br3'
_cell_volume   829.56411054
_cell_formula_units_Z   1
loop_
 _symmetry_equiv_pos_site_id
 _symmetry_equiv_pos_as_xyz
  1  'x, y, z'
loop_
 _atom_site_type_symbol
 _atom_site_label
 _atom_site_symmetry_multiplicity
 _atom_site_fract_x
 _atom_site_fract_y
 _atom_site_fract_z
 _atom_site_occupancy
  Tm  Tm0  1  0.551397  0.000000  0.000000  1
  S  S1  1  0.405266  0.407135  0.000000  1
  S  S2  1  0.550330  0.722319  0.000000  1
  S  S3  1  0.260641  0.520522  0.126539  1
  S  S4  1  0.363138  0.741656  0.127851  1
  S  S5  1  0.575303  0.653965  0.177755  1
  S  S6  1  0.621484  0.386195  0.258344  1
  S  S7  1  0.828009  0.277681  0.277681  1
  S  S8  1  0.921336  0.523788  0.346034  1
  S  S9  1  0.134102  0.873462  0.393983  1
  S  S10  1  0.621484  0.258344  0.386195  1
  S  S11  1  0.405266  0.000000  0.407135  1
  S  S12  1  0.397548  0.822246  0.476212  1
  S  S13  1  0.740120  0.606017  0.479479  1
  S  S14  1  0.260641  0.126539  0.520522  1
  S  S15  1  0.921336  0.346034  0.523788  1
  S  S16  1  0.998133  0.592865  0.592865  1
  S  S17  1  0.235289  0.872149  0.613805  1
  S  S18  1  0.740120  0.479479  0.606017  1
  S  S19  1  0.575303  0.177755  0.653965  1
  S  S20  1  0.550330  0.000000  0.722319  1
  S  S21  1  0.363138  0.127851  0.741656  1
  S  S22  1  0.397548  0.476212  0.822246  1
  S  S23  1  0.235289  0.613805  0.872149  1
  S  S24  1  0.134102  0.393983  0.873462  1
  Br  Br25  1  0.099770  0.133048  0.000000  1
  Br  Br26  1  0.099770  0.000000  0.133048  1
  Br  Br27  1  0.966722  0.866952  0.866952  1
