# generated using pymatgen
data_Tb7Nd(AsI6)2
_symmetry_space_group_name_H-M   'P 1'
_cell_length_a   4.28123700
_cell_length_b   14.03692145
_cell_length_c   14.81904121
_cell_angle_alpha   89.84718373
_cell_angle_beta   90.00000000
_cell_angle_gamma   90.00000000
_symmetry_Int_Tables_number   1
_chemical_formula_structural   Tb7Nd(AsI6)2
_chemical_formula_sum   'Tb7 Nd1 As2 I12'
_cell_volume   890.55285605
_cell_formula_units_Z   1
loop_
 _symmetry_equiv_pos_site_id
 _symmetry_equiv_pos_as_xyz
  1  'x, y, z'
loop_
 _atom_site_type_symbol
 _atom_site_label
 _atom_site_symmetry_multiplicity
 _atom_site_fract_x
 _atom_site_fract_y
 _atom_site_fract_z
 _atom_site_occupancy
  Tb  Tb0  1  0.500000  0.115088  0.347538  1
  Tb  Tb1  1  0.500000  0.884926  0.652628  1
  Tb  Tb2  1  0.500000  0.614879  0.152324  1
  Tb  Tb3  1  0.500000  0.385264  0.847650  1
  Tb  Tb4  1  0.000000  0.888649  0.425703  1
  Tb  Tb5  1  0.000000  0.609499  0.926998  1
  Tb  Tb6  1  0.000000  0.390597  0.073135  1
  Nd  Nd7  1  0.000000  0.110853  0.574188  1
  As  As8  1  0.500000  0.995943  0.497374  1
  As  As9  1  0.500000  0.500048  0.000089  1
  I  I10  1  0.500000  0.246945  0.160252  1
  I  I11  1  0.500000  0.752686  0.839518  1
  I  I12  1  0.500000  0.745676  0.338344  1
  I  I13  1  0.500000  0.259513  0.664389  1
  I  I14  1  0.000000  0.259790  0.410066  1
  I  I15  1  0.000000  0.742179  0.585938  1
  I  I16  1  0.000000  0.757520  0.085585  1
  I  I17  1  0.000000  0.242638  0.914682  1
  I  I18  1  0.000000  0.000680  0.241617  1
  I  I19  1  0.000000  0.995886  0.761759  1
  I  I20  1  0.000000  0.500433  0.257898  1
  I  I21  1  0.000000  0.500306  0.742326  1
