# generated using pymatgen
data_CeTh3Tc8
_symmetry_space_group_name_H-M   'P 1'
_cell_length_a   5.26597800
_cell_length_b   5.26597874
_cell_length_c   9.68408400
_cell_angle_alpha   90.00000000
_cell_angle_beta   90.00000000
_cell_angle_gamma   120.00000792
_symmetry_Int_Tables_number   1
_chemical_formula_structural   CeTh3Tc8
_chemical_formula_sum   'Ce1 Th3 Tc8'
_cell_volume   232.56656942
_cell_formula_units_Z   1
loop_
 _symmetry_equiv_pos_site_id
 _symmetry_equiv_pos_as_xyz
  1  'x, y, z'
loop_
 _atom_site_type_symbol
 _atom_site_label
 _atom_site_symmetry_multiplicity
 _atom_site_fract_x
 _atom_site_fract_y
 _atom_site_fract_z
 _atom_site_occupancy
  Ce  Ce0  1  0.333333  0.666667  0.436692  1
  Th  Th1  1  0.666667  0.333333  0.559977  1
  Th  Th2  1  0.666667  0.333333  0.934990  1
  Th  Th3  1  0.333333  0.666667  0.067785  1
  Tc  Tc4  1  0.000000  0.000000  0.498632  1
  Tc  Tc5  1  0.000000  0.000000  0.001060  1
  Tc  Tc6  1  0.830821  0.169179  0.251451  1
  Tc  Tc7  1  0.830821  0.661642  0.251451  1
  Tc  Tc8  1  0.338358  0.169179  0.251451  1
  Tc  Tc9  1  0.169156  0.830844  0.748837  1
  Tc  Tc10  1  0.169156  0.338311  0.748837  1
  Tc  Tc11  1  0.661689  0.830844  0.748837  1
