# generated using pymatgen
data_Dy5Ni2P12Ir16Rh
_symmetry_space_group_name_H-M   'P 1'
_cell_length_a   12.70408900
_cell_length_b   12.71121524
_cell_length_c   3.94911600
_cell_angle_alpha   90.00000000
_cell_angle_beta   90.00000000
_cell_angle_gamma   119.98145376
_symmetry_Int_Tables_number   1
_chemical_formula_structural   Dy5Ni2P12Ir16Rh
_chemical_formula_sum   'Dy5 Ni2 P12 Ir16 Rh1'
_cell_volume   552.38548132
_cell_formula_units_Z   1
loop_
 _symmetry_equiv_pos_site_id
 _symmetry_equiv_pos_as_xyz
  1  'x, y, z'
loop_
 _atom_site_type_symbol
 _atom_site_label
 _atom_site_symmetry_multiplicity
 _atom_site_fract_x
 _atom_site_fract_y
 _atom_site_fract_z
 _atom_site_occupancy
  Dy  Dy0  1  0.333476  0.665424  0.500000  1
  Dy  Dy1  1  0.668054  0.334576  0.500000  1
  Dy  Dy2  1  0.000658  0.811253  0.000000  1
  Dy  Dy3  1  0.189405  0.188747  0.000000  1
  Dy  Dy4  1  0.814228  0.000000  0.000000  1
  Ni  Ni5  1  0.999062  0.462042  0.500000  1
  Ni  Ni6  1  0.537020  0.537958  0.500000  1
  P  P7  1  0.000098  0.634163  0.500000  1
  P  P8  1  0.365935  0.365837  0.500000  1
  P  P9  1  0.640478  0.000000  0.500000  1
  P  P10  1  0.515851  0.685779  0.000000  1
  P  P11  1  0.311184  0.827463  0.000000  1
  P  P12  1  0.170386  0.482419  0.000000  1
  P  P13  1  0.483720  0.172537  0.000000  1
  P  P14  1  0.687967  0.517581  0.000000  1
  P  P15  1  0.830072  0.314221  0.000000  1
  P  P16  1  0.999590  0.179488  0.500000  1
  P  P17  1  0.820103  0.820512  0.500000  1
  P  P18  1  0.178322  0.000000  0.500000  1
  Ir  Ir19  1  0.506725  0.866922  0.000000  1
  Ir  Ir20  1  0.131688  0.638573  0.000000  1
  Ir  Ir21  1  0.359930  0.491088  0.000000  1
  Ir  Ir22  1  0.493117  0.361427  0.000000  1
  Ir  Ir23  1  0.868844  0.508912  0.000000  1
  Ir  Ir24  1  0.639804  0.133078  0.000000  1
  Ir  Ir25  1  0.998932  0.284021  0.000000  1
  Ir  Ir26  1  0.714911  0.715979  0.000000  1
  Ir  Ir27  1  0.282444  0.000000  0.000000  1
  Ir  Ir28  1  0.623816  0.805272  0.500000  1
  Ir  Ir29  1  0.195835  0.820059  0.500000  1
  Ir  Ir30  1  0.179382  0.374575  0.500000  1
  Ir  Ir31  1  0.375776  0.179941  0.500000  1
  Ir  Ir32  1  0.804806  0.625425  0.500000  1
  Ir  Ir33  1  0.818544  0.194728  0.500000  1
  Ir  Ir34  1  0.999120  0.000000  0.500000  1
  Rh  Rh35  1  0.460714  0.000000  0.500000  1
