# generated using pymatgen
data_Tb2Ho6SiPBr12
_symmetry_space_group_name_H-M   'P 1'
_cell_length_a   4.02851800
_cell_length_b   13.16523779
_cell_length_c   13.91541328
_cell_angle_alpha   90.25477432
_cell_angle_beta   90.00000000
_cell_angle_gamma   90.00000000
_symmetry_Int_Tables_number   1
_chemical_formula_structural   Tb2Ho6SiPBr12
_chemical_formula_sum   'Tb2 Ho6 Si1 P1 Br12'
_cell_volume   738.01609281
_cell_formula_units_Z   1
loop_
 _symmetry_equiv_pos_site_id
 _symmetry_equiv_pos_as_xyz
  1  'x, y, z'
loop_
 _atom_site_type_symbol
 _atom_site_label
 _atom_site_symmetry_multiplicity
 _atom_site_fract_x
 _atom_site_fract_y
 _atom_site_fract_z
 _atom_site_occupancy
  Tb  Tb0  1  0.000000  0.614156  0.924179  1
  Tb  Tb1  1  0.000000  0.385844  0.075821  1
  Ho  Ho2  1  0.500000  0.118492  0.340727  1
  Ho  Ho3  1  0.500000  0.881508  0.659273  1
  Ho  Ho4  1  0.500000  0.615912  0.155553  1
  Ho  Ho5  1  0.500000  0.384088  0.844447  1
  Ho  Ho6  1  0.000000  0.118334  0.578769  1
  Ho  Ho7  1  0.000000  0.881666  0.421231  1
  Si  Si8  1  0.500000  0.000000  0.500000  1
  P  P9  1  0.500000  0.500000  0.000000  1
  Br  Br10  1  0.500000  0.243240  0.163752  1
  Br  Br11  1  0.500000  0.756760  0.836248  1
  Br  Br12  1  0.500000  0.744200  0.336451  1
  Br  Br13  1  0.500000  0.255800  0.663549  1
  Br  Br14  1  0.000000  0.255880  0.411610  1
  Br  Br15  1  0.000000  0.744120  0.588390  1
  Br  Br16  1  0.000000  0.755047  0.089740  1
  Br  Br17  1  0.000000  0.244953  0.910260  1
  Br  Br18  1  0.000000  0.001492  0.242522  1
  Br  Br19  1  0.000000  0.998508  0.757478  1
  Br  Br20  1  0.000000  0.503429  0.257145  1
  Br  Br21  1  0.000000  0.496571  0.742855  1
