# generated using pymatgen
data_TbZnSi2Pt
_symmetry_space_group_name_H-M   'P 1'
_cell_length_a   5.93788789
_cell_length_b   5.93788861
_cell_length_c   5.93788796
_cell_angle_alpha   140.07197635
_cell_angle_beta   140.07197759
_cell_angle_gamma   57.74402211
_symmetry_Int_Tables_number   1
_chemical_formula_structural   TbZnSi2Pt
_chemical_formula_sum   'Tb1 Zn1 Si2 Pt1'
_cell_volume   85.48985405
_cell_formula_units_Z   1
loop_
 _symmetry_equiv_pos_site_id
 _symmetry_equiv_pos_as_xyz
  1  'x, y, z'
loop_
 _atom_site_type_symbol
 _atom_site_label
 _atom_site_symmetry_multiplicity
 _atom_site_fract_x
 _atom_site_fract_y
 _atom_site_fract_z
 _atom_site_occupancy
  Tb  Tb0  1  0.000000  0.000000  0.000000  1
  Zn  Zn1  1  0.250000  0.750000  0.500000  1
  Si  Si2  1  0.387578  0.387578  0.000000  1
  Si  Si3  1  0.612422  0.612422  0.000000  1
  Pt  Pt4  1  0.750000  0.250000  0.500000  1
