# generated using pymatgen
data_Sm8Y12Si15Ag
_symmetry_space_group_name_H-M   'P 1'
_cell_length_a   7.49649571
_cell_length_b   7.76734095
_cell_length_c   14.82868164
_cell_angle_alpha   89.78171552
_cell_angle_beta   89.34986949
_cell_angle_gamma   90.16111647
_symmetry_Int_Tables_number   1
_chemical_formula_structural   Sm8Y12Si15Ag
_chemical_formula_sum   'Sm8 Y12 Si15 Ag1'
_cell_volume   863.37670274
_cell_formula_units_Z   1
loop_
 _symmetry_equiv_pos_site_id
 _symmetry_equiv_pos_as_xyz
  1  'x, y, z'
loop_
 _atom_site_type_symbol
 _atom_site_label
 _atom_site_symmetry_multiplicity
 _atom_site_fract_x
 _atom_site_fract_y
 _atom_site_fract_z
 _atom_site_occupancy
  Sm  Sm0  1  0.020292  0.181069  0.099468  1
  Sm  Sm1  1  0.980158  0.820830  0.902949  1
  Sm  Sm2  1  0.479922  0.681049  0.902785  1
  Sm  Sm3  1  0.983422  0.828655  0.598901  1
  Sm  Sm4  1  0.518725  0.318934  0.097536  1
  Sm  Sm5  1  0.013309  0.173530  0.398205  1
  Sm  Sm6  1  0.517863  0.316529  0.399203  1
  Sm  Sm7  1  0.488782  0.684680  0.601264  1
  Y  Y8  1  0.162848  0.511124  0.751882  1
  Y  Y9  1  0.838497  0.489270  0.251524  1
  Y  Y10  1  0.338399  0.007829  0.249227  1
  Y  Y11  1  0.664992  0.988133  0.750863  1
  Y  Y12  1  0.338092  0.175080  0.624063  1
  Y  Y13  1  0.665869  0.821194  0.376493  1
  Y  Y14  1  0.169100  0.675733  0.374555  1
  Y  Y15  1  0.673407  0.821330  0.122771  1
  Y  Y16  1  0.826362  0.324915  0.622230  1
  Y  Y17  1  0.326248  0.179087  0.877911  1
  Y  Y18  1  0.826609  0.319671  0.878386  1
  Y  Y19  1  0.172420  0.678989  0.122696  1
  Si  Si20  1  0.037099  0.113119  0.750769  1
  Si  Si21  1  0.964409  0.890889  0.249101  1
  Si  Si22  1  0.465359  0.605833  0.248014  1
  Si  Si23  1  0.535996  0.394437  0.751839  1
  Si  Si24  1  0.277701  0.878269  0.751159  1
  Si  Si25  1  0.720812  0.123765  0.248207  1
  Si  Si26  1  0.222900  0.373358  0.248508  1
  Si  Si27  1  0.779792  0.623870  0.752928  1
  Si  Si28  1  0.836839  0.532235  0.458578  1
  Si  Si29  1  0.338185  0.966600  0.461107  1
  Si  Si30  1  0.848311  0.531583  0.038377  1
  Si  Si31  1  0.658834  0.032366  0.538004  1
  Si  Si32  1  0.149707  0.468808  0.962349  1
  Si  Si33  1  0.650441  0.029914  0.960956  1
  Si  Si34  1  0.348572  0.969195  0.039365  1
  Ag  Ag35  1  0.159724  0.468130  0.537825  1
