# generated using pymatgen
data_Pa2Ti3Si4
_symmetry_space_group_name_H-M   'P 1'
_cell_length_a   7.03204500
_cell_length_b   7.03204500
_cell_length_c   13.02563900
_cell_angle_alpha   90.00000000
_cell_angle_beta   90.00000000
_cell_angle_gamma   90.00000000
_symmetry_Int_Tables_number   1
_chemical_formula_structural   Pa2Ti3Si4
_chemical_formula_sum   'Pa8 Ti12 Si16'
_cell_volume   644.11337922
_cell_formula_units_Z   4
loop_
 _symmetry_equiv_pos_site_id
 _symmetry_equiv_pos_as_xyz
  1  'x, y, z'
loop_
 _atom_site_type_symbol
 _atom_site_label
 _atom_site_symmetry_multiplicity
 _atom_site_fract_x
 _atom_site_fract_y
 _atom_site_fract_z
 _atom_site_occupancy
  Pa  Pa0  1  0.336335  0.003295  0.468244  1
  Pa  Pa1  1  0.496706  0.836335  0.718244  1
  Pa  Pa2  1  0.503294  0.163665  0.218244  1
  Pa  Pa3  1  0.836335  0.496706  0.281756  1
  Pa  Pa4  1  0.163665  0.503294  0.781756  1
  Pa  Pa5  1  0.663665  0.996706  0.968244  1
  Pa  Pa6  1  0.003295  0.336335  0.531756  1
  Pa  Pa7  1  0.996706  0.663665  0.031756  1
  Ti  Ti8  1  0.330306  0.330306  0.000000  1
  Ti  Ti9  1  0.169694  0.830306  0.250000  1
  Ti  Ti10  1  0.830306  0.169694  0.750000  1
  Ti  Ti11  1  0.669694  0.669694  0.500000  1
  Ti  Ti12  1  0.158237  0.000951  0.875707  1
  Ti  Ti13  1  0.499049  0.658237  0.125707  1
  Ti  Ti14  1  0.500951  0.341763  0.625707  1
  Ti  Ti15  1  0.658237  0.499049  0.874293  1
  Ti  Ti16  1  0.341763  0.500951  0.374293  1
  Ti  Ti17  1  0.841763  0.999049  0.375707  1
  Ti  Ti18  1  0.000951  0.158237  0.124293  1
  Ti  Ti19  1  0.999049  0.841763  0.624293  1
  Si  Si20  1  0.202773  0.127420  0.684393  1
  Si  Si21  1  0.372580  0.702773  0.934393  1
  Si  Si22  1  0.627420  0.297227  0.434393  1
  Si  Si23  1  0.702773  0.372580  0.065607  1
  Si  Si24  1  0.297227  0.627420  0.565607  1
  Si  Si25  1  0.797227  0.872580  0.184393  1
  Si  Si26  1  0.127420  0.202773  0.315607  1
  Si  Si27  1  0.872580  0.797227  0.815607  1
  Si  Si28  1  0.290411  0.959567  0.065905  1
  Si  Si29  1  0.540433  0.790411  0.315905  1
  Si  Si30  1  0.459567  0.209589  0.815905  1
  Si  Si31  1  0.790411  0.540433  0.684095  1
  Si  Si32  1  0.209589  0.459567  0.184095  1
  Si  Si33  1  0.709589  0.040433  0.565905  1
  Si  Si34  1  0.959567  0.290411  0.934095  1
  Si  Si35  1  0.040433  0.709589  0.434095  1
