# generated using pymatgen
data_LaDy10In9Ru4
_symmetry_space_group_name_H-M   'P 1'
_cell_length_a   3.86327400
_cell_length_b   12.90836770
_cell_length_c   12.90836686
_cell_angle_alpha   112.41074603
_cell_angle_beta   90.00000000
_cell_angle_gamma   90.00000000
_symmetry_Int_Tables_number   1
_chemical_formula_structural   LaDy10In9Ru4
_chemical_formula_sum   'La1 Dy10 In9 Ru4'
_cell_volume   595.10431221
_cell_formula_units_Z   1
loop_
 _symmetry_equiv_pos_site_id
 _symmetry_equiv_pos_as_xyz
  1  'x, y, z'
loop_
 _atom_site_type_symbol
 _atom_site_label
 _atom_site_symmetry_multiplicity
 _atom_site_fract_x
 _atom_site_fract_y
 _atom_site_fract_z
 _atom_site_occupancy
  La  La0  1  0.000000  0.000000  0.000000  1
  Dy  Dy1  1  0.000000  0.912955  0.578701  1
  Dy  Dy2  1  0.000000  0.087045  0.421299  1
  Dy  Dy3  1  0.000000  0.578701  0.912955  1
  Dy  Dy4  1  0.000000  0.421299  0.087045  1
  Dy  Dy5  1  0.000000  0.163373  0.836627  1
  Dy  Dy6  1  0.000000  0.836627  0.163373  1
  Dy  Dy7  1  0.000000  0.369802  0.630198  1
  Dy  Dy8  1  0.000000  0.630198  0.369802  1
  Dy  Dy9  1  0.000000  0.691191  0.691191  1
  Dy  Dy10  1  0.000000  0.308809  0.308809  1
  In  In11  1  0.500000  0.153397  0.631597  1
  In  In12  1  0.500000  0.846603  0.368403  1
  In  In13  1  0.500000  0.631597  0.153397  1
  In  In14  1  0.500000  0.368403  0.846603  1
  In  In15  1  0.500000  0.924107  0.774522  1
  In  In16  1  0.500000  0.075893  0.225478  1
  In  In17  1  0.500000  0.774522  0.924107  1
  In  In18  1  0.500000  0.225478  0.075893  1
  In  In19  1  0.500000  0.500000  0.500000  1
  Ru  Ru20  1  0.500000  0.740971  0.545918  1
  Ru  Ru21  1  0.500000  0.259029  0.454082  1
  Ru  Ru22  1  0.500000  0.545918  0.740971  1
  Ru  Ru23  1  0.500000  0.454082  0.259029  1
