# generated using pymatgen
data_PrHo5MgCo17P12
_symmetry_space_group_name_H-M   'P 1'
_cell_length_a   3.71806900
_cell_length_b   10.57699500
_cell_length_c   12.24530200
_cell_angle_alpha   90.00000000
_cell_angle_beta   90.00000000
_cell_angle_gamma   90.00000000
_symmetry_Int_Tables_number   1
_chemical_formula_structural   PrHo5MgCo17P12
_chemical_formula_sum   'Pr1 Ho5 Mg1 Co17 P12'
_cell_volume   481.55871244
_cell_formula_units_Z   1
loop_
 _symmetry_equiv_pos_site_id
 _symmetry_equiv_pos_as_xyz
  1  'x, y, z'
loop_
 _atom_site_type_symbol
 _atom_site_label
 _atom_site_symmetry_multiplicity
 _atom_site_fract_x
 _atom_site_fract_y
 _atom_site_fract_z
 _atom_site_occupancy
  Pr  Pr0  1  0.500000  0.000000  0.476898  1
  Ho  Ho1  1  0.000000  0.500000  0.525426  1
  Ho  Ho2  1  0.500000  0.821260  0.206506  1
  Ho  Ho3  1  0.500000  0.178740  0.206506  1
  Ho  Ho4  1  0.000000  0.682232  0.794681  1
  Ho  Ho5  1  0.000000  0.317768  0.794681  1
  Mg  Mg6  1  0.500000  0.500000  0.153487  1
  Co  Co7  1  0.000000  0.500000  0.986101  1
  Co  Co8  1  0.500000  0.000000  0.011966  1
  Co  Co9  1  0.500000  0.298049  0.432603  1
  Co  Co10  1  0.500000  0.701951  0.432603  1
  Co  Co11  1  0.000000  0.205427  0.571517  1
  Co  Co12  1  0.000000  0.794573  0.571517  1
  Co  Co13  1  0.500000  0.879257  0.710175  1
  Co  Co14  1  0.500000  0.120743  0.710175  1
  Co  Co15  1  0.000000  0.622017  0.292628  1
  Co  Co16  1  0.000000  0.377983  0.292628  1
  Co  Co17  1  0.500000  0.329226  0.993009  1
  Co  Co18  1  0.500000  0.670774  0.993009  1
  Co  Co19  1  0.000000  0.163381  0.001570  1
  Co  Co20  1  0.000000  0.836619  0.001570  1
  Co  Co21  1  0.000000  0.000000  0.840069  1
  Co  Co22  1  0.500000  0.500000  0.704666  1
  Co  Co23  1  0.000000  0.000000  0.292813  1
  P  P24  1  0.500000  0.310401  0.617576  1
  P  P25  1  0.500000  0.689599  0.617576  1
  P  P26  1  0.000000  0.193273  0.384262  1
  P  P27  1  0.000000  0.806727  0.384262  1
  P  P28  1  0.500000  0.500000  0.883335  1
  P  P29  1  0.000000  0.000000  0.115317  1
  P  P30  1  0.500000  0.849016  0.890452  1
  P  P31  1  0.500000  0.150984  0.890452  1
  P  P32  1  0.000000  0.663011  0.103293  1
  P  P33  1  0.000000  0.336989  0.103293  1
  P  P34  1  0.500000  0.500000  0.354352  1
  P  P35  1  0.000000  0.000000  0.659023  1
