# generated using pymatgen
data_HoHf7Ta8(TiSi4)4
_symmetry_space_group_name_H-M   'P 1'
_cell_length_a   6.85734313
_cell_length_b   6.86252163
_cell_length_c   12.63714378
_cell_angle_alpha   89.92656439
_cell_angle_beta   89.99192097
_cell_angle_gamma   89.94376106
_symmetry_Int_Tables_number   1
_chemical_formula_structural   HoHf7Ta8(TiSi4)4
_chemical_formula_sum   'Ho1 Hf7 Ta8 Ti4 Si16'
_cell_volume   594.68634175
_cell_formula_units_Z   1
loop_
 _symmetry_equiv_pos_site_id
 _symmetry_equiv_pos_as_xyz
  1  'x, y, z'
loop_
 _atom_site_type_symbol
 _atom_site_label
 _atom_site_symmetry_multiplicity
 _atom_site_fract_x
 _atom_site_fract_y
 _atom_site_fract_z
 _atom_site_occupancy
  Ho  Ho0  1  0.995575  0.661072  0.030832  1
  Hf  Hf1  1  0.342184  0.999299  0.470662  1
  Hf  Hf2  1  0.500710  0.842406  0.718687  1
  Hf  Hf3  1  0.497182  0.157869  0.221607  1
  Hf  Hf4  1  0.842074  0.502722  0.281513  1
  Hf  Hf5  1  0.160061  0.498792  0.779583  1
  Hf  Hf6  1  0.655310  0.001807  0.969219  1
  Hf  Hf7  1  0.999066  0.341483  0.529215  1
  Ta  Ta8  1  0.332090  0.327955  0.999942  1
  Ta  Ta9  1  0.170029  0.831580  0.251798  1
  Ta  Ta10  1  0.830231  0.169781  0.748019  1
  Ta  Ta11  1  0.670205  0.669604  0.499612  1
  Ta  Ta12  1  0.154781  0.004315  0.871697  1
  Ta  Ta13  1  0.496904  0.651386  0.124976  1
  Ta  Ta14  1  0.504089  0.348459  0.622859  1
  Ta  Ta15  1  0.651301  0.493376  0.874143  1
  Ti  Ti16  1  0.348263  0.503355  0.377939  1
  Ti  Ti17  1  0.847614  0.996387  0.374469  1
  Ti  Ti18  1  0.005716  0.152364  0.127943  1
  Ti  Ti19  1  0.995427  0.848141  0.625554  1
  Si  Si20  1  0.206094  0.133492  0.674000  1
  Si  Si21  1  0.365882  0.706914  0.926380  1
  Si  Si22  1  0.635301  0.291884  0.424545  1
  Si  Si23  1  0.706771  0.357150  0.074755  1
  Si  Si24  1  0.291168  0.638463  0.572585  1
  Si  Si25  1  0.791385  0.871464  0.180971  1
  Si  Si26  1  0.134928  0.207130  0.325162  1
  Si  Si27  1  0.861986  0.795444  0.819060  1
  Si  Si28  1  0.298020  0.957732  0.065711  1
  Si  Si29  1  0.543537  0.798442  0.316141  1
  Si  Si30  1  0.455267  0.199779  0.812301  1
  Si  Si31  1  0.802760  0.546651  0.683901  1
  Si  Si32  1  0.202429  0.451955  0.189242  1
  Si  Si33  1  0.705599  0.043674  0.561585  1
  Si  Si34  1  0.954775  0.293729  0.937145  1
  Si  Si35  1  0.045289  0.703944  0.436243  1
