# generated using pymatgen
data_Gd6Al10Re6Os7
_symmetry_space_group_name_H-M   'P 1'
_cell_length_a   8.97910160
_cell_length_b   8.97910171
_cell_length_c   8.96189800
_cell_angle_alpha   60.06335966
_cell_angle_beta   60.06335923
_cell_angle_gamma   59.71528072
_symmetry_Int_Tables_number   1
_chemical_formula_structural   Gd6Al10Re6Os7
_chemical_formula_sum   'Gd6 Al10 Re6 Os7'
_cell_volume   510.29466793
_cell_formula_units_Z   1
loop_
 _symmetry_equiv_pos_site_id
 _symmetry_equiv_pos_as_xyz
  1  'x, y, z'
loop_
 _atom_site_type_symbol
 _atom_site_label
 _atom_site_symmetry_multiplicity
 _atom_site_fract_x
 _atom_site_fract_y
 _atom_site_fract_z
 _atom_site_occupancy
  Gd  Gd0  1  0.197357  0.801140  0.796887  1
  Gd  Gd1  1  0.801140  0.197357  0.204617  1
  Gd  Gd2  1  0.801140  0.197357  0.796887  1
  Gd  Gd3  1  0.795748  0.795748  0.204252  1
  Gd  Gd4  1  0.197357  0.801140  0.204617  1
  Gd  Gd5  1  0.201684  0.201684  0.798316  1
  Al  Al6  1  0.176267  0.484581  0.169576  1
  Al  Al7  1  0.484581  0.176267  0.169576  1
  Al  Al8  1  0.616869  0.616869  0.615695  1
  Al  Al9  1  0.616869  0.616869  0.150567  1
  Al  Al10  1  0.149124  0.616965  0.616956  1
  Al  Al11  1  0.616965  0.149124  0.616956  1
  Al  Al12  1  0.382463  0.382463  0.379435  1
  Al  Al13  1  0.382463  0.382463  0.855638  1
  Al  Al14  1  0.380046  0.855250  0.382353  1
  Al  Al15  1  0.855250  0.380046  0.382353  1
  Re  Re16  1  0.825278  0.825278  0.825254  1
  Re  Re17  1  0.825278  0.825278  0.524190  1
  Re  Re18  1  0.526660  0.823691  0.824825  1
  Re  Re19  1  0.823691  0.526660  0.824825  1
  Re  Re20  1  0.179493  0.179493  0.173741  1
  Re  Re21  1  0.179493  0.179493  0.467272  1
  Os  Os22  1  0.499845  0.499845  0.500155  1
  Os  Os23  1  0.000136  0.491271  0.508691  1
  Os  Os24  1  0.491271  0.000136  0.999902  1
  Os  Os25  1  0.491271  0.000136  0.508691  1
  Os  Os26  1  0.503003  0.503003  0.996997  1
  Os  Os27  1  0.000136  0.491271  0.999902  1
  Os  Os28  1  0.999123  0.999123  0.500877  1
