# generated using pymatgen
data_Y2Lu3Si3Ir
_symmetry_space_group_name_H-M   'P 1'
_cell_length_a   7.10344600
_cell_length_b   7.83775300
_cell_length_c   14.40610600
_cell_angle_alpha   90.00000000
_cell_angle_beta   90.00000000
_cell_angle_gamma   90.00000000
_symmetry_Int_Tables_number   1
_chemical_formula_structural   Y2Lu3Si3Ir
_chemical_formula_sum   'Y8 Lu12 Si12 Ir4'
_cell_volume   802.06074672
_cell_formula_units_Z   4
loop_
 _symmetry_equiv_pos_site_id
 _symmetry_equiv_pos_as_xyz
  1  'x, y, z'
loop_
 _atom_site_type_symbol
 _atom_site_label
 _atom_site_symmetry_multiplicity
 _atom_site_fract_x
 _atom_site_fract_y
 _atom_site_fract_z
 _atom_site_occupancy
  Y  Y0  1  0.511111  0.682833  0.593695  1
  Y  Y1  1  0.011111  0.817167  0.906305  1
  Y  Y2  1  0.488889  0.317167  0.093695  1
  Y  Y3  1  0.988889  0.182833  0.406305  1
  Y  Y4  1  0.488889  0.317167  0.406305  1
  Y  Y5  1  0.988889  0.182833  0.093695  1
  Y  Y6  1  0.511111  0.682833  0.906305  1
  Y  Y7  1  0.011111  0.817167  0.593695  1
  Lu  Lu8  1  0.687905  0.171897  0.628731  1
  Lu  Lu9  1  0.187905  0.328103  0.871269  1
  Lu  Lu10  1  0.312095  0.828103  0.128731  1
  Lu  Lu11  1  0.812095  0.671897  0.371269  1
  Lu  Lu12  1  0.312095  0.828103  0.371269  1
  Lu  Lu13  1  0.812095  0.671897  0.128731  1
  Lu  Lu14  1  0.687905  0.171897  0.871269  1
  Lu  Lu15  1  0.187905  0.328103  0.628731  1
  Lu  Lu16  1  0.834586  0.509024  0.750000  1
  Lu  Lu17  1  0.334586  0.990976  0.750000  1
  Lu  Lu18  1  0.165414  0.490976  0.250000  1
  Lu  Lu19  1  0.665414  0.009024  0.250000  1
  Si  Si20  1  0.654824  0.970053  0.461624  1
  Si  Si21  1  0.154824  0.529947  0.038376  1
  Si  Si22  1  0.345176  0.029947  0.961624  1
  Si  Si23  1  0.845176  0.470053  0.538376  1
  Si  Si24  1  0.345176  0.029947  0.538376  1
  Si  Si25  1  0.845176  0.470053  0.961624  1
  Si  Si26  1  0.654824  0.970053  0.038376  1
  Si  Si27  1  0.154824  0.529947  0.461624  1
  Si  Si28  1  0.731959  0.865122  0.750000  1
  Si  Si29  1  0.231959  0.634878  0.750000  1
  Si  Si30  1  0.268041  0.134878  0.250000  1
  Si  Si31  1  0.768041  0.365122  0.250000  1
  Ir  Ir32  1  0.481430  0.399715  0.750000  1
  Ir  Ir33  1  0.981430  0.100285  0.750000  1
  Ir  Ir34  1  0.518570  0.600285  0.250000  1
  Ir  Ir35  1  0.018570  0.899715  0.250000  1
