# generated using pymatgen
data_Hf4Co2CuSi4Au
_symmetry_space_group_name_H-M   'P 1'
_cell_length_a   3.84443300
_cell_length_b   6.51912336
_cell_length_c   7.38611621
_cell_angle_alpha   88.18208251
_cell_angle_beta   90.00000000
_cell_angle_gamma   90.00000000
_symmetry_Int_Tables_number   1
_chemical_formula_structural   Hf4Co2CuSi4Au
_chemical_formula_sum   'Hf4 Co2 Cu1 Si4 Au1'
_cell_volume   185.02013419
_cell_formula_units_Z   1
loop_
 _symmetry_equiv_pos_site_id
 _symmetry_equiv_pos_as_xyz
  1  'x, y, z'
loop_
 _atom_site_type_symbol
 _atom_site_label
 _atom_site_symmetry_multiplicity
 _atom_site_fract_x
 _atom_site_fract_y
 _atom_site_fract_z
 _atom_site_occupancy
  Hf  Hf0  1  0.250000  0.016005  0.324724  1
  Hf  Hf1  1  0.250000  0.523768  0.194009  1
  Hf  Hf2  1  0.750000  0.978706  0.669843  1
  Hf  Hf3  1  0.750000  0.482772  0.806096  1
  Co  Co4  1  0.250000  0.637986  0.561398  1
  Co  Co5  1  0.750000  0.364835  0.442834  1
  Cu  Cu6  1  0.750000  0.846146  0.062444  1
  Si  Si7  1  0.250000  0.281425  0.594672  1
  Si  Si8  1  0.250000  0.755083  0.869345  1
  Si  Si9  1  0.750000  0.720459  0.395533  1
  Si  Si10  1  0.750000  0.246497  0.143844  1
  Au  Au11  1  0.250000  0.146321  0.935257  1
