# generated using pymatgen
data_TmZr(SiTc2)4
_symmetry_space_group_name_H-M   'P 1'
_cell_length_a   7.30937019
_cell_length_b   7.30937019
_cell_length_c   4.10656100
_cell_angle_alpha   90.00000000
_cell_angle_beta   90.00000000
_cell_angle_gamma   89.05187005
_symmetry_Int_Tables_number   1
_chemical_formula_structural   TmZr(SiTc2)4
_chemical_formula_sum   'Tm1 Zr1 Si4 Tc8'
_cell_volume   219.37075445
_cell_formula_units_Z   1
loop_
 _symmetry_equiv_pos_site_id
 _symmetry_equiv_pos_as_xyz
  1  'x, y, z'
loop_
 _atom_site_type_symbol
 _atom_site_label
 _atom_site_symmetry_multiplicity
 _atom_site_fract_x
 _atom_site_fract_y
 _atom_site_fract_z
 _atom_site_occupancy
  Tm  Tm0  1  0.500000  0.500000  0.000000  1
  Zr  Zr1  1  0.000000  0.000000  0.500000  1
  Si  Si2  1  0.202423  0.797577  0.000000  1
  Si  Si3  1  0.287721  0.287721  0.500000  1
  Si  Si4  1  0.712279  0.712279  0.500000  1
  Si  Si5  1  0.797577  0.202423  0.000000  1
  Tc  Tc6  1  0.600089  0.152615  0.500000  1
  Tc  Tc7  1  0.399911  0.847385  0.500000  1
  Tc  Tc8  1  0.152615  0.600089  0.500000  1
  Tc  Tc9  1  0.847385  0.399911  0.500000  1
  Tc  Tc10  1  0.088447  0.342414  0.000000  1
  Tc  Tc11  1  0.911553  0.657586  0.000000  1
  Tc  Tc12  1  0.657586  0.911553  0.000000  1
  Tc  Tc13  1  0.342414  0.088447  0.000000  1
