# generated using pymatgen
data_Tb3YbHoIr2
_symmetry_space_group_name_H-M   'P 1'
_cell_length_a   6.52221984
_cell_length_b   7.27613892
_cell_length_c   8.52999107
_cell_angle_alpha   96.66261813
_cell_angle_beta   112.47691506
_cell_angle_gamma   90.00000584
_symmetry_Int_Tables_number   1
_chemical_formula_structural   Tb3YbHoIr2
_chemical_formula_sum   'Tb6 Yb2 Ho2 Ir4'
_cell_volume   371.09238515
_cell_formula_units_Z   2
loop_
 _symmetry_equiv_pos_site_id
 _symmetry_equiv_pos_as_xyz
  1  'x, y, z'
loop_
 _atom_site_type_symbol
 _atom_site_label
 _atom_site_symmetry_multiplicity
 _atom_site_fract_x
 _atom_site_fract_y
 _atom_site_fract_z
 _atom_site_occupancy
  Tb  Tb0  1  0.027938  0.081817  0.817916  1
  Tb  Tb1  1  0.210021  0.418183  0.182084  1
  Tb  Tb2  1  0.652206  0.818067  0.440482  1
  Tb  Tb3  1  0.211723  0.681933  0.559518  1
  Tb  Tb4  1  0.344859  0.182649  0.560498  1
  Tb  Tb5  1  0.784362  0.317351  0.439502  1
  Yb  Yb6  1  0.971525  0.919586  0.180100  1
  Yb  Yb7  1  0.791426  0.580414  0.819900  1
  Ho  Ho8  1  0.433298  0.750000  0.000000  1
  Ho  Ho9  1  0.571726  0.250000  0.000000  1
  Ir  Ir10  1  0.822483  0.568124  0.225722  1
  Ir  Ir11  1  0.596762  0.931876  0.774278  1
  Ir  Ir12  1  0.182486  0.425056  0.783300  1
  Ir  Ir13  1  0.399184  0.074944  0.216700  1
