# generated using pymatgen
data_Sc4Ge2B4Ru9Rh
_symmetry_space_group_name_H-M   'P 1'
_cell_length_a   9.40505524
_cell_length_b   3.02619300
_cell_length_c   9.39347224
_cell_angle_alpha   90.00000000
_cell_angle_beta   90.02598021
_cell_angle_gamma   90.00000000
_symmetry_Int_Tables_number   1
_chemical_formula_structural   Sc4Ge2B4Ru9Rh
_chemical_formula_sum   'Sc4 Ge2 B4 Ru9 Rh1'
_cell_volume   267.35239860
_cell_formula_units_Z   1
loop_
 _symmetry_equiv_pos_site_id
 _symmetry_equiv_pos_as_xyz
  1  'x, y, z'
loop_
 _atom_site_type_symbol
 _atom_site_label
 _atom_site_symmetry_multiplicity
 _atom_site_fract_x
 _atom_site_fract_y
 _atom_site_fract_z
 _atom_site_occupancy
  Sc  Sc0  1  0.326690  0.000000  0.176891  1
  Sc  Sc1  1  0.825489  0.000000  0.325836  1
  Sc  Sc2  1  0.173222  0.000000  0.671111  1
  Sc  Sc3  1  0.674984  0.000000  0.825795  1
  Ge  Ge4  1  0.997316  0.000000  0.000780  1
  Ge  Ge5  1  0.500273  0.000000  0.499651  1
  B  B6  1  0.623558  0.000000  0.124533  1
  B  B7  1  0.124060  0.000000  0.376451  1
  B  B8  1  0.876672  0.000000  0.623330  1
  B  B9  1  0.381289  0.000000  0.874932  1
  Ru  Ru10  1  0.498565  0.500001  0.000401  1
  Ru  Ru11  1  0.785318  0.500001  0.070942  1
  Ru  Ru12  1  0.070524  0.500001  0.212669  1
  Ru  Ru13  1  0.569681  0.500001  0.286828  1
  Ru  Ru14  1  0.286699  0.500001  0.429593  1
  Ru  Ru15  1  0.999990  0.500001  0.499373  1
  Ru  Ru16  1  0.713521  0.500001  0.571616  1
  Ru  Ru17  1  0.428998  0.500001  0.713849  1
  Ru  Ru18  1  0.930019  0.500001  0.787035  1
  Rh  Rh19  1  0.213127  0.500001  0.928381  1
