# generated using pymatgen
data_Tb19LuSn16
_symmetry_space_group_name_H-M   'P 1'
_cell_length_a   8.04809200
_cell_length_b   8.21699201
_cell_length_c   15.50999600
_cell_angle_alpha   90.00000000
_cell_angle_beta   90.00000000
_cell_angle_gamma   89.91957574
_symmetry_Int_Tables_number   1
_chemical_formula_structural   Tb19LuSn16
_chemical_formula_sum   'Tb19 Lu1 Sn16'
_cell_volume   1025.69220427
_cell_formula_units_Z   1
loop_
 _symmetry_equiv_pos_site_id
 _symmetry_equiv_pos_as_xyz
  1  'x, y, z'
loop_
 _atom_site_type_symbol
 _atom_site_label
 _atom_site_symmetry_multiplicity
 _atom_site_fract_x
 _atom_site_fract_y
 _atom_site_fract_z
 _atom_site_occupancy
  Tb  Tb0  1  0.367227  0.835227  0.878358  1
  Tb  Tb1  1  0.868413  0.663850  0.621646  1
  Tb  Tb2  1  0.632385  0.164274  0.378410  1
  Tb  Tb3  1  0.132348  0.335642  0.121385  1
  Tb  Tb4  1  0.632385  0.164274  0.121590  1
  Tb  Tb5  1  0.132348  0.335642  0.378615  1
  Tb  Tb6  1  0.367227  0.835227  0.621642  1
  Tb  Tb7  1  0.868413  0.663850  0.878354  1
  Tb  Tb8  1  0.519824  0.320027  0.902057  1
  Tb  Tb9  1  0.020430  0.180541  0.597866  1
  Tb  Tb10  1  0.479936  0.680239  0.402195  1
  Tb  Tb11  1  0.979764  0.819817  0.097899  1
  Tb  Tb12  1  0.479936  0.680239  0.097805  1
  Tb  Tb13  1  0.979764  0.819817  0.402101  1
  Tb  Tb14  1  0.519824  0.320027  0.597943  1
  Tb  Tb15  1  0.020430  0.180541  0.902134  1
  Tb  Tb16  1  0.698245  0.998036  0.750000  1
  Tb  Tb17  1  0.801502  0.497895  0.250000  1
  Tb  Tb18  1  0.301552  0.002279  0.250000  1
  Lu  Lu19  1  0.199073  0.502457  0.750000  1
  Sn  Sn20  1  0.292109  0.034214  0.041874  1
  Sn  Sn21  1  0.792064  0.465622  0.458099  1
  Sn  Sn22  1  0.707911  0.965835  0.542066  1
  Sn  Sn23  1  0.207858  0.534077  0.957052  1
  Sn  Sn24  1  0.707911  0.965835  0.957934  1
  Sn  Sn25  1  0.207858  0.534077  0.542948  1
  Sn  Sn26  1  0.292109  0.034214  0.458126  1
  Sn  Sn27  1  0.792064  0.465622  0.041901  1
  Sn  Sn28  1  0.563697  0.617949  0.750000  1
  Sn  Sn29  1  0.066048  0.880429  0.750000  1
  Sn  Sn30  1  0.434057  0.381435  0.250000  1
  Sn  Sn31  1  0.934498  0.118725  0.250000  1
  Sn  Sn32  1  0.327712  0.147915  0.750000  1
  Sn  Sn33  1  0.828612  0.354678  0.750000  1
  Sn  Sn34  1  0.672018  0.853947  0.250000  1
  Sn  Sn35  1  0.172450  0.645526  0.250000  1
