# generated using pymatgen
data_Pr2Mn3Tc14C3
_symmetry_space_group_name_H-M   'P 1'
_cell_length_a   6.94813137
_cell_length_b   6.94813286
_cell_length_c   6.94813234
_cell_angle_alpha   82.70880439
_cell_angle_beta   82.70880413
_cell_angle_gamma   82.70880487
_symmetry_Int_Tables_number   1
_chemical_formula_structural   Pr2Mn3Tc14C3
_chemical_formula_sum   'Pr2 Mn3 Tc14 C3'
_cell_volume   327.92950832
_cell_formula_units_Z   1
loop_
 _symmetry_equiv_pos_site_id
 _symmetry_equiv_pos_as_xyz
  1  'x, y, z'
loop_
 _atom_site_type_symbol
 _atom_site_label
 _atom_site_symmetry_multiplicity
 _atom_site_fract_x
 _atom_site_fract_y
 _atom_site_fract_z
 _atom_site_occupancy
  Pr  Pr0  1  0.649705  0.649705  0.649705  1
  Pr  Pr1  1  0.350295  0.350295  0.350295  1
  Mn  Mn2  1  0.000000  0.000000  0.500000  1
  Mn  Mn3  1  0.500000  0.000000  0.000000  1
  Mn  Mn4  1  0.000000  0.500000  0.000000  1
  Tc  Tc5  1  0.723481  0.276519  0.000000  1
  Tc  Tc6  1  0.000000  0.723481  0.276519  1
  Tc  Tc7  1  0.276519  0.000000  0.723481  1
  Tc  Tc8  1  0.000000  0.276519  0.723481  1
  Tc  Tc9  1  0.723481  0.000000  0.276519  1
  Tc  Tc10  1  0.276519  0.723481  0.000000  1
  Tc  Tc11  1  0.346128  0.346128  0.863368  1
  Tc  Tc12  1  0.863368  0.346128  0.346128  1
  Tc  Tc13  1  0.346128  0.863368  0.346128  1
  Tc  Tc14  1  0.653872  0.653872  0.136632  1
  Tc  Tc15  1  0.136632  0.653872  0.653872  1
  Tc  Tc16  1  0.653872  0.136632  0.653872  1
  Tc  Tc17  1  0.901764  0.901764  0.901764  1
  Tc  Tc18  1  0.098236  0.098236  0.098236  1
  C  C19  1  0.500000  0.500000  0.000000  1
  C  C20  1  0.000000  0.500000  0.500000  1
  C  C21  1  0.500000  0.000000  0.500000  1
