# generated using pymatgen
data_Na5Pr3(MoN3)4
_symmetry_space_group_name_H-M   'P 1'
_cell_length_a   6.20787026
_cell_length_b   6.17872896
_cell_length_c   12.25572654
_cell_angle_alpha   89.92340658
_cell_angle_beta   89.35611818
_cell_angle_gamma   122.10201143
_symmetry_Int_Tables_number   1
_chemical_formula_structural   Na5Pr3(MoN3)4
_chemical_formula_sum   'Na5 Pr3 Mo4 N12'
_cell_volume   398.17464655
_cell_formula_units_Z   1
loop_
 _symmetry_equiv_pos_site_id
 _symmetry_equiv_pos_as_xyz
  1  'x, y, z'
loop_
 _atom_site_type_symbol
 _atom_site_label
 _atom_site_symmetry_multiplicity
 _atom_site_fract_x
 _atom_site_fract_y
 _atom_site_fract_z
 _atom_site_occupancy
  Na  Na0  1  0.563116  0.974494  0.861766  1
  Na  Na1  1  0.045888  0.457302  0.620489  1
  Na  Na2  1  0.439973  0.020508  0.134917  1
  Na  Na3  1  0.958427  0.554422  0.372498  1
  Na  Na4  1  0.325558  0.102210  0.580749  1
  Pr  Pr5  1  0.902888  0.682454  0.914054  1
  Pr  Pr6  1  0.674917  0.898425  0.416382  1
  Pr  Pr7  1  0.100086  0.310608  0.090344  1
  Mo  Mo8  1  0.729037  0.750138  0.661749  1
  Mo  Mo9  1  0.256659  0.279854  0.839349  1
  Mo  Mo10  1  0.271176  0.248634  0.340805  1
  Mo  Mo11  1  0.744081  0.718317  0.160976  1
  N  N12  1  0.579414  0.450776  0.761656  1
  N  N13  1  0.430964  0.566888  0.249534  1
  N  N14  1  0.517387  0.846428  0.614481  1
  N  N15  1  0.152262  0.488948  0.894135  1
  N  N16  1  0.491632  0.151048  0.378719  1
  N  N17  1  0.856440  0.512884  0.109185  1
  N  N18  1  0.717002  0.881126  0.038629  1
  N  N19  1  0.099918  0.285964  0.454899  1
  N  N20  1  0.286512  0.117460  0.959933  1
  N  N21  1  0.861989  0.701464  0.538874  1
  N  N22  1  0.998214  0.011594  0.754445  1
  N  N23  1  0.996461  0.988052  0.251435  1
