# generated using pymatgen
data_Y2Ta3Co9AsP6
_symmetry_space_group_name_H-M   'P 1'
_cell_length_a   3.69887300
_cell_length_b   9.26714040
_cell_length_c   9.27169804
_cell_angle_alpha   120.10893118
_cell_angle_beta   90.00000000
_cell_angle_gamma   90.00000000
_symmetry_Int_Tables_number   1
_chemical_formula_structural   Y2Ta3Co9AsP6
_chemical_formula_sum   'Y2 Ta3 Co9 As1 P6'
_cell_volume   274.93328257
_cell_formula_units_Z   1
loop_
 _symmetry_equiv_pos_site_id
 _symmetry_equiv_pos_as_xyz
  1  'x, y, z'
loop_
 _atom_site_type_symbol
 _atom_site_label
 _atom_site_symmetry_multiplicity
 _atom_site_fract_x
 _atom_site_fract_y
 _atom_site_fract_z
 _atom_site_occupancy
  Y  Y0  1  0.000000  0.660327  0.325650  1
  Y  Y1  1  0.500000  0.333987  0.667046  1
  Ta  Ta2  1  0.500000  0.774338  0.897864  1
  Ta  Ta3  1  0.500000  0.122961  0.224470  1
  Ta  Ta4  1  0.500000  0.107318  0.883575  1
  Co  Co5  1  0.000000  0.568322  0.936687  1
  Co  Co6  1  0.000000  0.367261  0.431756  1
  Co  Co7  1  0.000000  0.070039  0.634606  1
  Co  Co8  1  0.000000  0.878311  0.159068  1
  Co  Co9  1  0.000000  0.283003  0.121642  1
  Co  Co10  1  0.000000  0.838760  0.724372  1
  Co  Co11  1  0.500000  0.950579  0.380876  1
  Co  Co12  1  0.500000  0.440444  0.053438  1
  Co  Co13  1  0.500000  0.605984  0.560957  1
  As  As14  1  0.500000  0.873624  0.581591  1
  P  P15  1  0.000000  0.000282  0.001597  1
  P  P16  1  0.500000  0.709762  0.123251  1
  P  P17  1  0.500000  0.413514  0.290811  1
  P  P18  1  0.000000  0.580477  0.691207  1
  P  P19  1  0.000000  0.109909  0.417301  1
  P  P20  1  0.000000  0.310796  0.892235  1
