# generated using pymatgen
data_DyHo15CdHg3Pt4
_symmetry_space_group_name_H-M   'P 1'
_cell_length_a   9.62141155
_cell_length_b   9.62781704
_cell_length_c   9.62294800
_cell_angle_alpha   60.01672787
_cell_angle_beta   59.99471732
_cell_angle_gamma   60.02829701
_symmetry_Int_Tables_number   1
_chemical_formula_structural   DyHo15CdHg3Pt4
_chemical_formula_sum   'Dy1 Ho15 Cd1 Hg3 Pt4'
_cell_volume   630.50726464
_cell_formula_units_Z   1
loop_
 _symmetry_equiv_pos_site_id
 _symmetry_equiv_pos_as_xyz
  1  'x, y, z'
loop_
 _atom_site_type_symbol
 _atom_site_label
 _atom_site_symmetry_multiplicity
 _atom_site_fract_x
 _atom_site_fract_y
 _atom_site_fract_z
 _atom_site_occupancy
  Dy  Dy0  1  0.935905  0.937171  0.563462  1
  Ho  Ho1  1  0.354021  0.353541  0.351324  1
  Ho  Ho2  1  0.354021  0.353541  0.941115  1
  Ho  Ho3  1  0.357270  0.935097  0.353817  1
  Ho  Ho4  1  0.932638  0.357472  0.354946  1
  Ho  Ho5  1  0.810397  0.189770  0.190279  1
  Ho  Ho6  1  0.188142  0.811364  0.810495  1
  Ho  Ho7  1  0.188142  0.811364  0.190000  1
  Ho  Ho8  1  0.810397  0.189770  0.809555  1
  Ho  Ho9  1  0.189294  0.190405  0.810151  1
  Ho  Ho10  1  0.810601  0.810989  0.189206  1
  Ho  Ho11  1  0.934906  0.564239  0.564786  1
  Ho  Ho12  1  0.563157  0.936473  0.935818  1
  Ho  Ho13  1  0.563157  0.936473  0.564552  1
  Ho  Ho14  1  0.934906  0.564238  0.936070  1
  Ho  Ho15  1  0.564668  0.565177  0.935078  1
  Cd  Cd16  1  0.255384  0.580090  0.582263  1
  Hg  Hg17  1  0.585059  0.586899  0.587775  1
  Hg  Hg18  1  0.585059  0.586899  0.240265  1
  Hg  Hg19  1  0.584925  0.239928  0.587572  1
  Pt  Pt20  1  0.143290  0.143740  0.145769  1
  Pt  Pt21  1  0.143290  0.143740  0.567201  1
  Pt  Pt22  1  0.141892  0.569232  0.144438  1
  Pt  Pt23  1  0.569481  0.142391  0.144064  1
