# generated using pymatgen
data_Ho7Er3Si5Ge
_symmetry_space_group_name_H-M   'P 1'
_cell_length_a   8.40628700
_cell_length_b   8.40802122
_cell_length_c   6.31231800
_cell_angle_alpha   89.99957919
_cell_angle_beta   90.00026565
_cell_angle_gamma   119.99344344
_symmetry_Int_Tables_number   1
_chemical_formula_structural   Ho7Er3Si5Ge
_chemical_formula_sum   'Ho7 Er3 Si5 Ge1'
_cell_volume   386.40808299
_cell_formula_units_Z   1
loop_
 _symmetry_equiv_pos_site_id
 _symmetry_equiv_pos_as_xyz
  1  'x, y, z'
loop_
 _atom_site_type_symbol
 _atom_site_label
 _atom_site_symmetry_multiplicity
 _atom_site_fract_x
 _atom_site_fract_y
 _atom_site_fract_z
 _atom_site_occupancy
  Ho  Ho0  1  0.998786  0.756236  0.750040  1
  Ho  Ho1  1  0.999893  0.242813  0.249975  1
  Ho  Ho2  1  0.757120  0.757156  0.249969  1
  Ho  Ho3  1  0.758056  0.000030  0.750032  1
  Ho  Ho4  1  0.242585  0.243734  0.750034  1
  Ho  Ho5  1  0.242509  0.000028  0.249961  1
  Ho  Ho6  1  0.333177  0.665723  0.499308  1
  Er  Er7  1  0.667455  0.334273  0.000702  1
  Er  Er8  1  0.667459  0.334291  0.499286  1
  Er  Er9  1  0.333168  0.665717  0.000692  1
  Si  Si10  1  0.394520  0.394355  0.249915  1
  Si  Si11  1  0.999966  0.605545  0.249916  1
  Si  Si12  1  0.999856  0.394423  0.750081  1
  Si  Si13  1  0.605531  0.605479  0.750086  1
  Si  Si14  1  0.605730  0.000099  0.249917  1
  Ge  Ge15  1  0.394191  0.000098  0.750086  1
