# generated using pymatgen
data_CaPr(Tm2Rh9)2
_symmetry_space_group_name_H-M   'P 1'
_cell_length_a   5.26896300
_cell_length_b   5.26896155
_cell_length_c   17.49462300
_cell_angle_alpha   90.00000000
_cell_angle_beta   90.00000000
_cell_angle_gamma   119.99999028
_symmetry_Int_Tables_number   1
_chemical_formula_structural   CaPr(Tm2Rh9)2
_chemical_formula_sum   'Ca1 Pr1 Tm4 Rh18'
_cell_volume   420.61566245
_cell_formula_units_Z   1
loop_
 _symmetry_equiv_pos_site_id
 _symmetry_equiv_pos_as_xyz
  1  'x, y, z'
loop_
 _atom_site_type_symbol
 _atom_site_label
 _atom_site_symmetry_multiplicity
 _atom_site_fract_x
 _atom_site_fract_y
 _atom_site_fract_z
 _atom_site_occupancy
  Ca  Ca0  1  0.666659  0.333322  0.250000  1
  Pr  Pr1  1  0.333330  0.666662  0.750000  1
  Tm  Tm2  1  0.333342  0.666672  0.539704  1
  Tm  Tm3  1  0.666673  0.333330  0.043723  1
  Tm  Tm4  1  0.666673  0.333330  0.456277  1
  Tm  Tm5  1  0.333342  0.666672  0.960296  1
  Rh  Rh6  1  0.167224  0.334447  0.124815  1
  Rh  Rh7  1  0.832407  0.664804  0.624084  1
  Rh  Rh8  1  0.665525  0.832748  0.124817  1
  Rh  Rh9  1  0.167224  0.832752  0.124813  1
  Rh  Rh10  1  0.832382  0.167579  0.624063  1
  Rh  Rh11  1  0.335182  0.167582  0.624083  1
  Rh  Rh12  1  0.832407  0.664804  0.875916  1
  Rh  Rh13  1  0.832382  0.167579  0.875937  1
  Rh  Rh14  1  0.335182  0.167582  0.875917  1
  Rh  Rh15  1  0.665525  0.832748  0.375183  1
  Rh  Rh16  1  0.167224  0.832752  0.375187  1
  Rh  Rh17  1  0.167224  0.334447  0.375185  1
  Rh  Rh18  1  0.000095  0.000191  0.250000  1
  Rh  Rh19  1  0.999938  0.000058  0.750000  1
  Rh  Rh20  1  0.333234  0.666447  0.250000  1
  Rh  Rh21  1  0.666721  0.333203  0.750000  1
  Rh  Rh22  1  0.000052  0.000147  0.000056  1
  Rh  Rh23  1  0.000052  0.000147  0.499944  1
