# generated using pymatgen
data_Tm4Co5P12(Ru2Rh3)3
_symmetry_space_group_name_H-M   'P 1'
_cell_length_a   3.81847800
_cell_length_b   10.78253995
_cell_length_c   12.19596596
_cell_angle_alpha   89.93494836
_cell_angle_beta   90.00000000
_cell_angle_gamma   90.00000000
_symmetry_Int_Tables_number   1
_chemical_formula_structural   Tm4Co5P12(Ru2Rh3)3
_chemical_formula_sum   'Tm4 Co5 P12 Ru6 Rh9'
_cell_volume   502.14286027
_cell_formula_units_Z   1
loop_
 _symmetry_equiv_pos_site_id
 _symmetry_equiv_pos_as_xyz
  1  'x, y, z'
loop_
 _atom_site_type_symbol
 _atom_site_label
 _atom_site_symmetry_multiplicity
 _atom_site_fract_x
 _atom_site_fract_y
 _atom_site_fract_z
 _atom_site_occupancy
  Tm  Tm0  1  0.250000  0.584861  0.706790  1
  Tm  Tm1  1  0.250000  0.912395  0.205367  1
  Tm  Tm2  1  0.750000  0.414046  0.294415  1
  Tm  Tm3  1  0.750000  0.088403  0.793992  1
  Co  Co4  1  0.750000  0.388149  0.801078  1
  Co  Co5  1  0.250000  0.464386  0.929861  1
  Co  Co6  1  0.250000  0.035320  0.434437  1
  Co  Co7  1  0.750000  0.535415  0.064030  1
  Co  Co8  1  0.750000  0.965203  0.567254  1
  P  P9  1  0.250000  0.424226  0.105491  1
  P  P10  1  0.250000  0.079071  0.608273  1
  P  P11  1  0.750000  0.568472  0.886933  1
  P  P12  1  0.750000  0.923507  0.393260  1
  P  P13  1  0.250000  0.274887  0.874193  1
  P  P14  1  0.250000  0.228567  0.377084  1
  P  P15  1  0.750000  0.730271  0.120799  1
  P  P16  1  0.750000  0.769037  0.622464  1
  P  P17  1  0.250000  0.597519  0.393594  1
  P  P18  1  0.250000  0.901449  0.892563  1
  P  P19  1  0.750000  0.404285  0.616963  1
  P  P20  1  0.750000  0.096295  0.108355  1
  Ru  Ru21  1  0.250000  0.715646  0.990753  1
  Ru  Ru22  1  0.250000  0.783976  0.491030  1
  Ru  Ru23  1  0.750000  0.283886  0.006565  1
  Ru  Ru24  1  0.750000  0.217899  0.512803  1
  Ru  Ru25  1  0.750000  0.591392  0.512532  1
  Ru  Ru26  1  0.750000  0.907867  0.009609  1
  Rh  Rh27  1  0.250000  0.405727  0.487396  1
  Rh  Rh28  1  0.250000  0.095318  0.985344  1
  Rh  Rh29  1  0.250000  0.232216  0.180747  1
  Rh  Rh30  1  0.250000  0.273825  0.684420  1
  Rh  Rh31  1  0.750000  0.764866  0.818295  1
  Rh  Rh32  1  0.750000  0.731678  0.318656  1
  Rh  Rh33  1  0.250000  0.892868  0.703114  1
  Rh  Rh34  1  0.250000  0.607512  0.202401  1
  Rh  Rh35  1  0.750000  0.109560  0.299141  1
