# generated using pymatgen
data_Tb20Cd3Co2Ag3
_symmetry_space_group_name_H-M   'P 1'
_cell_length_a   9.62113000
_cell_length_b   9.62113087
_cell_length_c   9.63640400
_cell_angle_alpha   90.00000000
_cell_angle_beta   90.00000000
_cell_angle_gamma   119.99999700
_symmetry_Int_Tables_number   1
_chemical_formula_structural   Tb20Cd3Co2Ag3
_chemical_formula_sum   'Tb20 Cd3 Co2 Ag3'
_cell_volume   772.49886336
_cell_formula_units_Z   1
loop_
 _symmetry_equiv_pos_site_id
 _symmetry_equiv_pos_as_xyz
  1  'x, y, z'
loop_
 _atom_site_type_symbol
 _atom_site_label
 _atom_site_symmetry_multiplicity
 _atom_site_fract_x
 _atom_site_fract_y
 _atom_site_fract_z
 _atom_site_occupancy
  Tb  Tb0  1  0.000000  0.000000  0.472612  1
  Tb  Tb1  1  0.000000  0.000000  0.027388  1
  Tb  Tb2  1  0.542173  0.457827  0.250000  1
  Tb  Tb3  1  0.542173  0.084345  0.250000  1
  Tb  Tb4  1  0.915655  0.457827  0.250000  1
  Tb  Tb5  1  0.457007  0.542993  0.750000  1
  Tb  Tb6  1  0.457007  0.914014  0.750000  1
  Tb  Tb7  1  0.085986  0.542993  0.750000  1
  Tb  Tb8  1  0.211762  0.788238  0.437132  1
  Tb  Tb9  1  0.211762  0.423525  0.437132  1
  Tb  Tb10  1  0.576475  0.788238  0.437132  1
  Tb  Tb11  1  0.789123  0.210877  0.563320  1
  Tb  Tb12  1  0.789123  0.578245  0.563320  1
  Tb  Tb13  1  0.421755  0.210877  0.563320  1
  Tb  Tb14  1  0.789123  0.210877  0.936680  1
  Tb  Tb15  1  0.789123  0.578245  0.936680  1
  Tb  Tb16  1  0.421755  0.210877  0.936680  1
  Tb  Tb17  1  0.211762  0.788238  0.062868  1
  Tb  Tb18  1  0.211762  0.423525  0.062868  1
  Tb  Tb19  1  0.576475  0.788238  0.062868  1
  Cd  Cd20  1  0.110808  0.889192  0.750000  1
  Cd  Cd21  1  0.110808  0.221614  0.750000  1
  Cd  Cd22  1  0.778386  0.889192  0.750000  1
  Co  Co23  1  0.333333  0.666667  0.250000  1
  Co  Co24  1  0.666667  0.333333  0.750000  1
  Ag  Ag25  1  0.875180  0.124820  0.250000  1
  Ag  Ag26  1  0.875180  0.750360  0.250000  1
  Ag  Ag27  1  0.249640  0.124820  0.250000  1
