# generated using pymatgen
data_Eu2Si2NiPd3
_symmetry_space_group_name_H-M   'P 1'
_cell_length_a   4.05988170
_cell_length_b   4.11791800
_cell_length_c   9.26178364
_cell_angle_alpha   90.00000000
_cell_angle_beta   102.66049331
_cell_angle_gamma   90.00000000
_symmetry_Int_Tables_number   1
_chemical_formula_structural   Eu2Si2NiPd3
_chemical_formula_sum   'Eu2 Si2 Ni1 Pd3'
_cell_volume   151.07608905
_cell_formula_units_Z   1
loop_
 _symmetry_equiv_pos_site_id
 _symmetry_equiv_pos_as_xyz
  1  'x, y, z'
loop_
 _atom_site_type_symbol
 _atom_site_label
 _atom_site_symmetry_multiplicity
 _atom_site_fract_x
 _atom_site_fract_y
 _atom_site_fract_z
 _atom_site_occupancy
  Eu  Eu0  1  0.603521  0.250000  0.207041  1
  Eu  Eu1  1  0.396318  0.750000  0.792637  1
  Si  Si2  1  0.819407  0.250000  0.638813  1
  Si  Si3  1  0.180851  0.750000  0.361701  1
  Ni  Ni4  1  0.750001  0.750000  0.500004  1
  Pd  Pd5  1  0.952095  0.250000  0.904190  1
  Pd  Pd6  1  0.048047  0.750000  0.096095  1
  Pd  Pd7  1  0.249760  0.250000  0.499520  1
