# generated using pymatgen
data_Y8Co17Si10Rh
_symmetry_space_group_name_H-M   'P 1'
_cell_length_a   5.22897787
_cell_length_b   5.22897680
_cell_length_c   21.96037120
_cell_angle_alpha   89.88254149
_cell_angle_beta   90.11745896
_cell_angle_gamma   120.38054656
_symmetry_Int_Tables_number   1
_chemical_formula_structural   Y8Co17Si10Rh
_chemical_formula_sum   'Y8 Co17 Si10 Rh1'
_cell_volume   517.99366325
_cell_formula_units_Z   1
loop_
 _symmetry_equiv_pos_site_id
 _symmetry_equiv_pos_as_xyz
  1  'x, y, z'
loop_
 _atom_site_type_symbol
 _atom_site_label
 _atom_site_symmetry_multiplicity
 _atom_site_fract_x
 _atom_site_fract_y
 _atom_site_fract_z
 _atom_site_occupancy
  Y  Y0  1  0.333665  0.666335  0.529929  1
  Y  Y1  1  0.665491  0.334509  0.473965  1
  Y  Y2  1  0.666726  0.333274  0.027689  1
  Y  Y3  1  0.333384  0.666616  0.971943  1
  Y  Y4  1  0.333108  0.666892  0.675317  1
  Y  Y5  1  0.667469  0.332531  0.325320  1
  Y  Y6  1  0.666752  0.333248  0.173948  1
  Y  Y7  1  0.333395  0.666605  0.825871  1
  Co  Co8  1  0.166367  0.332523  0.087624  1
  Co  Co9  1  0.833296  0.667280  0.911713  1
  Co  Co10  1  0.667477  0.833633  0.087624  1
  Co  Co11  1  0.833295  0.667678  0.589369  1
  Co  Co12  1  0.332720  0.166704  0.911713  1
  Co  Co13  1  0.165636  0.330492  0.412083  1
  Co  Co14  1  0.165995  0.834005  0.087830  1
  Co  Co15  1  0.332322  0.166705  0.589369  1
  Co  Co16  1  0.834093  0.165907  0.911181  1
  Co  Co17  1  0.669508  0.834364  0.412083  1
  Co  Co18  1  0.832757  0.167243  0.589995  1
  Co  Co19  1  0.167924  0.334875  0.247899  1
  Co  Co20  1  0.832735  0.665057  0.750430  1
  Co  Co21  1  0.665125  0.832076  0.247899  1
  Co  Co22  1  0.334943  0.167265  0.750430  1
  Co  Co23  1  0.167602  0.832398  0.250007  1
  Co  Co24  1  0.832685  0.167315  0.750555  1
  Si  Si25  1  0.999892  0.000108  0.999696  1
  Si  Si26  1  0.995714  0.004286  0.502679  1
  Si  Si27  1  0.332315  0.667685  0.167001  1
  Si  Si28  1  0.666048  0.333952  0.831969  1
  Si  Si29  1  0.666004  0.333996  0.669046  1
  Si  Si30  1  0.342625  0.657375  0.329534  1
  Si  Si31  1  0.000982  0.999018  0.168006  1
  Si  Si32  1  0.000875  0.999125  0.831037  1
  Si  Si33  1  0.000079  0.999921  0.669805  1
  Si  Si34  1  0.992495  0.007505  0.328554  1
  Rh  Rh35  1  0.168501  0.831499  0.410888  1
