# generated using pymatgen
data_NaCa3(NdSn)16
_symmetry_space_group_name_H-M   'P 1'
_cell_length_a   8.06131572
_cell_length_b   8.47649836
_cell_length_c   16.15922800
_cell_angle_alpha   90.00000000
_cell_angle_beta   90.00000000
_cell_angle_gamma   90.01664478
_symmetry_Int_Tables_number   1
_chemical_formula_structural   NaCa3(NdSn)16
_chemical_formula_sum   'Na1 Ca3 Nd16 Sn16'
_cell_volume   1104.18794877
_cell_formula_units_Z   1
loop_
 _symmetry_equiv_pos_site_id
 _symmetry_equiv_pos_as_xyz
  1  'x, y, z'
loop_
 _atom_site_type_symbol
 _atom_site_label
 _atom_site_symmetry_multiplicity
 _atom_site_fract_x
 _atom_site_fract_y
 _atom_site_fract_z
 _atom_site_occupancy
  Na  Na0  1  0.823450  0.507314  0.750000  1
  Ca  Ca1  1  0.175647  0.494633  0.250000  1
  Ca  Ca2  1  0.674734  0.005134  0.250000  1
  Ca  Ca3  1  0.327224  0.996121  0.750000  1
  Nd  Nd4  1  0.998826  0.182352  0.403791  1
  Nd  Nd5  1  0.343785  0.828154  0.123413  1
  Nd  Nd6  1  0.151265  0.330757  0.626025  1
  Nd  Nd7  1  0.503718  0.680708  0.904004  1
  Nd  Nd8  1  0.845107  0.674301  0.125020  1
  Nd  Nd9  1  0.151265  0.330757  0.873975  1
  Nd  Nd10  1  0.503718  0.680708  0.595996  1
  Nd  Nd11  1  0.657375  0.175784  0.625818  1
  Nd  Nd12  1  0.845107  0.674301  0.374980  1
  Nd  Nd13  1  0.998826  0.182352  0.096209  1
  Nd  Nd14  1  0.000581  0.811462  0.902808  1
  Nd  Nd15  1  0.657375  0.175784  0.874182  1
  Nd  Nd16  1  0.499085  0.317870  0.096550  1
  Nd  Nd17  1  0.343785  0.828154  0.376587  1
  Nd  Nd18  1  0.000581  0.811462  0.597192  1
  Nd  Nd19  1  0.499085  0.317870  0.403450  1
  Sn  Sn20  1  0.817104  0.459078  0.532642  1
  Sn  Sn21  1  0.680869  0.963065  0.464901  1
  Sn  Sn22  1  0.695408  0.859713  0.750000  1
  Sn  Sn23  1  0.181193  0.536634  0.463858  1
  Sn  Sn24  1  0.317709  0.038312  0.961892  1
  Sn  Sn25  1  0.803647  0.359407  0.250000  1
  Sn  Sn26  1  0.817104  0.459078  0.967358  1
  Sn  Sn27  1  0.543191  0.606363  0.250000  1
  Sn  Sn28  1  0.181193  0.536634  0.036142  1
  Sn  Sn29  1  0.456848  0.398034  0.750000  1
  Sn  Sn30  1  0.198700  0.641354  0.750000  1
  Sn  Sn31  1  0.958323  0.095821  0.750000  1
  Sn  Sn32  1  0.317709  0.038312  0.538108  1
  Sn  Sn33  1  0.680869  0.963065  0.035099  1
  Sn  Sn34  1  0.305779  0.140560  0.250000  1
  Sn  Sn35  1  0.043817  0.898589  0.250000  1
