# generated using pymatgen
data_Cs2LaP2S7
_symmetry_space_group_name_H-M   'P 1'
_cell_length_a   6.93482200
_cell_length_b   9.27285858
_cell_length_c   20.34495500
_cell_angle_alpha   96.70539864
_cell_angle_beta   90.00000000
_cell_angle_gamma   90.00000000
_symmetry_Int_Tables_number   1
_chemical_formula_structural   Cs2LaP2S7
_chemical_formula_sum   'Cs8 La4 P8 S28'
_cell_volume   1299.34582681
_cell_formula_units_Z   4
loop_
 _symmetry_equiv_pos_site_id
 _symmetry_equiv_pos_as_xyz
  1  'x, y, z'
loop_
 _atom_site_type_symbol
 _atom_site_label
 _atom_site_symmetry_multiplicity
 _atom_site_fract_x
 _atom_site_fract_y
 _atom_site_fract_z
 _atom_site_occupancy
  Cs  Cs0  1  0.978981  0.150995  0.801872  1
  Cs  Cs1  1  0.478981  0.349005  0.698128  1
  Cs  Cs2  1  0.021019  0.849005  0.198128  1
  Cs  Cs3  1  0.521019  0.650995  0.301872  1
  Cs  Cs4  1  0.495376  0.235961  0.987266  1
  Cs  Cs5  1  0.995376  0.264039  0.512734  1
  Cs  Cs6  1  0.504624  0.764039  0.012734  1
  Cs  Cs7  1  0.004624  0.735961  0.487266  1
  La  La8  1  0.021276  0.688440  0.848181  1
  La  La9  1  0.521276  0.811560  0.651819  1
  La  La10  1  0.978724  0.311560  0.151819  1
  La  La11  1  0.478724  0.188440  0.348181  1
  P  P12  1  0.480458  0.894122  0.831681  1
  P  P13  1  0.980458  0.605878  0.668319  1
  P  P14  1  0.519542  0.105878  0.168319  1
  P  P15  1  0.019542  0.394122  0.331681  1
  P  P16  1  0.994229  0.418860  0.955081  1
  P  P17  1  0.494229  0.081140  0.544919  1
  P  P18  1  0.005771  0.581140  0.044919  1
  P  P19  1  0.505771  0.918860  0.455081  1
  S  S20  1  0.015656  0.774132  0.009268  1
  S  S21  1  0.515656  0.725868  0.490732  1
  S  S22  1  0.984344  0.225868  0.990733  1
  S  S23  1  0.484344  0.274132  0.509267  1
  S  S24  1  0.427996  0.691291  0.782068  1
  S  S25  1  0.927996  0.808709  0.717932  1
  S  S26  1  0.572004  0.308709  0.217932  1
  S  S27  1  0.072004  0.191291  0.282068  1
  S  S28  1  0.992793  0.462253  0.737283  1
  S  S29  1  0.492793  0.037747  0.762717  1
  S  S30  1  0.007207  0.537747  0.262717  1
  S  S31  1  0.507207  0.962253  0.237283  1
  S  S32  1  0.726485  0.909374  0.887170  1
  S  S33  1  0.226485  0.590626  0.612830  1
  S  S34  1  0.273515  0.090626  0.112830  1
  S  S35  1  0.773515  0.409374  0.387170  1
  S  S36  1  0.234193  0.455260  0.900814  1
  S  S37  1  0.734193  0.044740  0.599186  1
  S  S38  1  0.765807  0.544740  0.099186  1
  S  S39  1  0.265807  0.955260  0.400814  1
  S  S40  1  0.759805  0.475138  0.903110  1
  S  S41  1  0.259805  0.024862  0.596890  1
  S  S42  1  0.240195  0.524862  0.096890  1
  S  S43  1  0.740195  0.975138  0.403110  1
  S  S44  1  0.254248  0.944779  0.894107  1
  S  S45  1  0.754248  0.555221  0.605893  1
  S  S46  1  0.745752  0.055221  0.105893  1
  S  S47  1  0.245752  0.444779  0.394107  1
