# generated using pymatgen
data_Ti8VBi4Se
_symmetry_space_group_name_H-M   'P 1'
_cell_length_a   7.89373226
_cell_length_b   7.89373256
_cell_length_c   7.89373130
_cell_angle_alpha   95.82944720
_cell_angle_beta   95.82945373
_cell_angle_gamma   142.83172840
_symmetry_Int_Tables_number   1
_chemical_formula_structural   Ti8VBi4Se
_chemical_formula_sum   'Ti8 V1 Bi4 Se1'
_cell_volume   281.66982108
_cell_formula_units_Z   1
loop_
 _symmetry_equiv_pos_site_id
 _symmetry_equiv_pos_as_xyz
  1  'x, y, z'
loop_
 _atom_site_type_symbol
 _atom_site_label
 _atom_site_symmetry_multiplicity
 _atom_site_fract_x
 _atom_site_fract_y
 _atom_site_fract_z
 _atom_site_occupancy
  Ti  Ti0  1  0.587513  0.703009  0.281062  1
  Ti  Ti1  1  0.912487  0.193549  0.115497  1
  Ti  Ti2  1  0.306451  0.587513  0.884503  1
  Ti  Ti3  1  0.796991  0.912487  0.718938  1
  Ti  Ti4  1  0.703009  0.421948  0.115497  1
  Ti  Ti5  1  0.078052  0.796991  0.884503  1
  Ti  Ti6  1  0.421948  0.306451  0.718938  1
  Ti  Ti7  1  0.193549  0.078052  0.281062  1
  V  V8  1  0.750000  0.750000  0.000000  1
  Bi  Bi9  1  0.359810  0.859810  0.219620  1
  Bi  Bi10  1  0.140190  0.359810  0.500000  1
  Bi  Bi11  1  0.640190  0.140190  0.780380  1
  Bi  Bi12  1  0.859810  0.640190  0.500000  1
  Se  Se13  1  0.250000  0.250000  0.000000  1
