# generated using pymatgen
data_Np3U(Nb3Si4)2
_symmetry_space_group_name_H-M   'P 1'
_cell_length_a   7.06162535
_cell_length_b   7.06189968
_cell_length_c   12.98694500
_cell_angle_alpha   90.00000000
_cell_angle_beta   90.00000000
_cell_angle_gamma   90.00317863
_symmetry_Int_Tables_number   1
_chemical_formula_structural   Np3U(Nb3Si4)2
_chemical_formula_sum   'Np6 U2 Nb12 Si16'
_cell_volume   647.63933269
_cell_formula_units_Z   2
loop_
 _symmetry_equiv_pos_site_id
 _symmetry_equiv_pos_as_xyz
  1  'x, y, z'
loop_
 _atom_site_type_symbol
 _atom_site_label
 _atom_site_symmetry_multiplicity
 _atom_site_fract_x
 _atom_site_fract_y
 _atom_site_fract_z
 _atom_site_occupancy
  Np  Np0  1  0.992947  0.334968  0.218169  1
  Np  Np1  1  0.007053  0.665032  0.718169  1
  Np  Np2  1  0.165076  0.493040  0.469044  1
  Np  Np3  1  0.507536  0.834469  0.030517  1
  Np  Np4  1  0.834924  0.506960  0.969044  1
  Np  Np5  1  0.492464  0.165531  0.530517  1
  U  U6  1  0.335435  0.994527  0.781828  1
  U  U7  1  0.664565  0.005473  0.281828  1
  Nb  Nb8  1  0.170290  0.169421  0.999671  1
  Nb  Nb9  1  0.829710  0.830579  0.499671  1
  Nb  Nb10  1  0.330802  0.670264  0.250174  1
  Nb  Nb11  1  0.669198  0.329736  0.750174  1
  Nb  Nb12  1  0.154245  0.996830  0.374567  1
  Nb  Nb13  1  0.845755  0.003170  0.874567  1
  Nb  Nb14  1  0.501988  0.655262  0.625585  1
  Nb  Nb15  1  0.345862  0.497892  0.874440  1
  Nb  Nb16  1  0.498012  0.344738  0.125585  1
  Nb  Nb17  1  0.654138  0.502108  0.374440  1
  Nb  Nb18  1  0.997583  0.154691  0.625536  1
  Nb  Nb19  1  0.002417  0.845309  0.125536  1
  Si  Si20  1  0.295627  0.042113  0.184672  1
  Si  Si21  1  0.704373  0.957887  0.684672  1
  Si  Si22  1  0.457075  0.794940  0.435441  1
  Si  Si23  1  0.205333  0.542132  0.064949  1
  Si  Si24  1  0.542925  0.205060  0.935441  1
  Si  Si25  1  0.794667  0.457868  0.564949  1
  Si  Si26  1  0.042498  0.296495  0.815066  1
  Si  Si27  1  0.957502  0.703505  0.315066  1
  Si  Si28  1  0.367363  0.293918  0.316163  1
  Si  Si29  1  0.632637  0.706082  0.816163  1
  Si  Si30  1  0.205613  0.868697  0.566595  1
  Si  Si31  1  0.131366  0.794035  0.933808  1
  Si  Si32  1  0.794387  0.131303  0.066595  1
  Si  Si33  1  0.868634  0.205965  0.433808  1
  Si  Si34  1  0.294586  0.368038  0.683775  1
  Si  Si35  1  0.705414  0.631962  0.183775  1
