# generated using pymatgen
data_Tl5Au6
_symmetry_space_group_name_H-M   'P 1'
_cell_length_a   16.52041800
_cell_length_b   16.52041819
_cell_length_c   4.16316800
_cell_angle_alpha   90.00000000
_cell_angle_beta   90.00000000
_cell_angle_gamma   166.04117245
_symmetry_Int_Tables_number   1
_chemical_formula_structural   Tl5Au6
_chemical_formula_sum   'Tl5 Au6'
_cell_volume   274.08645295
_cell_formula_units_Z   1
loop_
 _symmetry_equiv_pos_site_id
 _symmetry_equiv_pos_as_xyz
  1  'x, y, z'
loop_
 _atom_site_type_symbol
 _atom_site_label
 _atom_site_symmetry_multiplicity
 _atom_site_fract_x
 _atom_site_fract_y
 _atom_site_fract_z
 _atom_site_occupancy
  Tl  Tl0  1  0.000000  0.000000  0.000000  1
  Tl  Tl1  1  0.617540  0.382460  0.000000  1
  Tl  Tl2  1  0.382460  0.617540  0.000000  1
  Tl  Tl3  1  0.802960  0.197039  0.500000  1
  Tl  Tl4  1  0.197039  0.802960  0.500000  1
  Au  Au5  1  0.717213  0.282787  0.000000  1
  Au  Au6  1  0.282787  0.717213  0.000000  1
  Au  Au7  1  0.897670  0.102330  0.500000  1
  Au  Au8  1  0.541337  0.458662  0.500000  1
  Au  Au9  1  0.458662  0.541337  0.500000  1
  Au  Au10  1  0.102330  0.897670  0.500000  1
