# generated using pymatgen
data_NaTm2Al3Si2Au
_symmetry_space_group_name_H-M   'P 1'
_cell_length_a   6.87837350
_cell_length_b   6.87837350
_cell_length_c   4.25201400
_cell_angle_alpha   90.00000000
_cell_angle_beta   90.00000000
_cell_angle_gamma   120.02111023
_symmetry_Int_Tables_number   1
_chemical_formula_structural   NaTm2Al3Si2Au
_chemical_formula_sum   'Na1 Tm2 Al3 Si2 Au1'
_cell_volume   174.18245382
_cell_formula_units_Z   1
loop_
 _symmetry_equiv_pos_site_id
 _symmetry_equiv_pos_as_xyz
  1  'x, y, z'
loop_
 _atom_site_type_symbol
 _atom_site_label
 _atom_site_symmetry_multiplicity
 _atom_site_fract_x
 _atom_site_fract_y
 _atom_site_fract_z
 _atom_site_occupancy
  Na  Na0  1  0.422601  0.422601  0.500000  1
  Tm  Tm1  1  0.577838  0.001663  0.500000  1
  Tm  Tm2  1  0.001663  0.577838  0.500000  1
  Al  Al3  1  0.754837  0.754837  0.000000  1
  Al  Al4  1  0.241181  0.992714  0.000000  1
  Al  Al5  1  0.992714  0.241181  0.000000  1
  Si  Si6  1  0.674268  0.332775  0.000000  1
  Si  Si7  1  0.332775  0.674268  0.000000  1
  Au  Au8  1  0.002126  0.002126  0.500000  1
