# generated using pymatgen
data_Tb3Dy3Al24Os7Au
_symmetry_space_group_name_H-M   'P 1'
_cell_length_a   8.86919259
_cell_length_b   8.86533703
_cell_length_c   9.55226691
_cell_angle_alpha   89.80784090
_cell_angle_beta   90.18539421
_cell_angle_gamma   120.00089528
_symmetry_Int_Tables_number   1
_chemical_formula_structural   Tb3Dy3Al24Os7Au
_chemical_formula_sum   'Tb3 Dy3 Al24 Os7 Au1'
_cell_volume   650.44316308
_cell_formula_units_Z   1
loop_
 _symmetry_equiv_pos_site_id
 _symmetry_equiv_pos_as_xyz
  1  'x, y, z'
loop_
 _atom_site_type_symbol
 _atom_site_label
 _atom_site_symmetry_multiplicity
 _atom_site_fract_x
 _atom_site_fract_y
 _atom_site_fract_z
 _atom_site_occupancy
  Tb  Tb0  1  0.190100  0.385628  0.251088  1
  Tb  Tb1  1  0.809844  0.614334  0.748895  1
  Tb  Tb2  1  0.614407  0.809923  0.251096  1
  Dy  Dy3  1  0.385921  0.190133  0.748781  1
  Dy  Dy4  1  0.194096  0.805857  0.253668  1
  Dy  Dy5  1  0.805806  0.194145  0.746313  1
  Al  Al6  1  0.328623  0.671338  0.020767  1
  Al  Al7  1  0.671265  0.328623  0.979169  1
  Al  Al8  1  0.666321  0.333592  0.517218  1
  Al  Al9  1  0.333538  0.666334  0.482829  1
  Al  Al10  1  0.162665  0.325659  0.575512  1
  Al  Al11  1  0.837434  0.674283  0.424536  1
  Al  Al12  1  0.674361  0.837458  0.575512  1
  Al  Al13  1  0.848578  0.677639  0.079303  1
  Al  Al14  1  0.325662  0.162522  0.424623  1
  Al  Al15  1  0.151469  0.322327  0.920669  1
  Al  Al16  1  0.163175  0.837021  0.575118  1
  Al  Al17  1  0.322327  0.151406  0.079227  1
  Al  Al18  1  0.836872  0.163100  0.424912  1
  Al  Al19  1  0.677679  0.848587  0.920675  1
  Al  Al20  1  0.836858  0.163145  0.075426  1
  Al  Al21  1  0.163209  0.836970  0.924529  1
  Al  Al22  1  0.560681  0.121303  0.249087  1
  Al  Al23  1  0.439270  0.878879  0.750906  1
  Al  Al24  1  0.878705  0.439314  0.249101  1
  Al  Al25  1  0.121308  0.560701  0.750913  1
  Al  Al26  1  0.563690  0.436287  0.255705  1
  Al  Al27  1  0.436274  0.563521  0.744337  1
  Al  Al28  1  0.999494  0.000521  0.250379  1
  Al  Al29  1  0.000692  0.999586  0.749634  1
  Os  Os30  1  0.499964  0.000135  0.999845  1
  Os  Os31  1  0.999917  0.499934  0.999947  1
  Os  Os32  1  0.499938  0.000059  0.500133  1
  Os  Os33  1  0.999930  0.499954  0.500066  1
  Os  Os34  1  0.499943  0.499846  0.500110  1
  Os  Os35  1  0.000010  0.999998  0.999937  1
  Os  Os36  1  0.000014  0.999997  0.500077  1
  Au  Au37  1  0.499961  0.499940  0.999958  1
