# generated using pymatgen
data_Na2Yb(CuSe)4
_symmetry_space_group_name_H-M   'P 1'
_cell_length_a   4.01086700
_cell_length_b   7.16545100
_cell_length_c   15.16368500
_cell_angle_alpha   90.00000000
_cell_angle_beta   90.00000000
_cell_angle_gamma   90.00000000
_symmetry_Int_Tables_number   1
_chemical_formula_structural   Na2Yb(CuSe)4
_chemical_formula_sum   'Na4 Yb2 Cu8 Se8'
_cell_volume   435.79931738
_cell_formula_units_Z   2
loop_
 _symmetry_equiv_pos_site_id
 _symmetry_equiv_pos_as_xyz
  1  'x, y, z'
loop_
 _atom_site_type_symbol
 _atom_site_label
 _atom_site_symmetry_multiplicity
 _atom_site_fract_x
 _atom_site_fract_y
 _atom_site_fract_z
 _atom_site_occupancy
  Na  Na0  1  0.000000  0.474750  0.746694  1
  Na  Na1  1  0.000000  0.525250  0.253306  1
  Na  Na2  1  0.000000  0.025250  0.246694  1
  Na  Na3  1  0.000000  0.974750  0.753306  1
  Yb  Yb4  1  0.500000  0.500000  0.500000  1
  Yb  Yb5  1  0.500000  0.000000  0.000000  1
  Cu  Cu6  1  0.500000  0.919149  0.578354  1
  Cu  Cu7  1  0.000000  0.346384  0.057378  1
  Cu  Cu8  1  0.500000  0.419149  0.921646  1
  Cu  Cu9  1  0.000000  0.846384  0.442622  1
  Cu  Cu10  1  0.500000  0.080851  0.421646  1
  Cu  Cu11  1  0.000000  0.153616  0.557378  1
  Cu  Cu12  1  0.000000  0.653616  0.942622  1
  Cu  Cu13  1  0.500000  0.580851  0.078354  1
  Se  Se14  1  0.500000  0.772180  0.350320  1
  Se  Se15  1  0.500000  0.727820  0.850320  1
  Se  Se16  1  0.500000  0.272180  0.149680  1
  Se  Se17  1  0.000000  0.726566  0.593695  1
  Se  Se18  1  0.000000  0.226566  0.906305  1
  Se  Se19  1  0.000000  0.273434  0.406305  1
  Se  Se20  1  0.000000  0.773434  0.093695  1
  Se  Se21  1  0.500000  0.227820  0.649680  1
