# generated using pymatgen
data_La7SmSc12Si15Ni
_symmetry_space_group_name_H-M   'P 1'
_cell_length_a   7.26987149
_cell_length_b   7.63450703
_cell_length_c   14.23280095
_cell_angle_alpha   89.87712900
_cell_angle_beta   90.03609707
_cell_angle_gamma   89.90831665
_symmetry_Int_Tables_number   1
_chemical_formula_structural   La7SmSc12Si15Ni
_chemical_formula_sum   'La7 Sm1 Sc12 Si15 Ni1'
_cell_volume   789.94429443
_cell_formula_units_Z   1
loop_
 _symmetry_equiv_pos_site_id
 _symmetry_equiv_pos_as_xyz
  1  'x, y, z'
loop_
 _atom_site_type_symbol
 _atom_site_label
 _atom_site_symmetry_multiplicity
 _atom_site_fract_x
 _atom_site_fract_y
 _atom_site_fract_z
 _atom_site_occupancy
  La  La0  1  0.011331  0.176007  0.097081  1
  La  La1  1  0.990890  0.829000  0.902060  1
  La  La2  1  0.488565  0.672747  0.903269  1
  La  La3  1  0.990863  0.828517  0.597021  1
  La  La4  1  0.511509  0.327353  0.096045  1
  La  La5  1  0.012720  0.175535  0.403717  1
  La  La6  1  0.511721  0.326217  0.405086  1
  Sm  Sm7  1  0.488517  0.676099  0.598595  1
  Sc  Sc8  1  0.158928  0.498375  0.749007  1
  Sc  Sc9  1  0.840983  0.503806  0.250163  1
  Sc  Sc10  1  0.339924  0.997904  0.250391  1
  Sc  Sc11  1  0.664891  0.006025  0.749195  1
  Sc  Sc12  1  0.317374  0.172372  0.627948  1
  Sc  Sc13  1  0.671850  0.825917  0.375372  1
  Sc  Sc14  1  0.173101  0.674700  0.375343  1
  Sc  Sc15  1  0.672488  0.828138  0.125567  1
  Sc  Sc16  1  0.833585  0.319819  0.628336  1
  Sc  Sc17  1  0.317224  0.172071  0.870532  1
  Sc  Sc18  1  0.832672  0.320396  0.870254  1
  Sc  Sc19  1  0.172075  0.675100  0.125328  1
  Si  Si20  1  0.968965  0.871735  0.250488  1
  Si  Si21  1  0.469347  0.626204  0.250360  1
  Si  Si22  1  0.530618  0.377797  0.748196  1
  Si  Si23  1  0.287634  0.884220  0.748699  1
  Si  Si24  1  0.709316  0.116128  0.250448  1
  Si  Si25  1  0.210853  0.384345  0.250414  1
  Si  Si26  1  0.783776  0.615251  0.748082  1
  Si  Si27  1  0.154733  0.466245  0.541289  1
  Si  Si28  1  0.849653  0.537986  0.463399  1
  Si  Si29  1  0.351866  0.959442  0.462340  1
  Si  Si30  1  0.850620  0.538770  0.037548  1
  Si  Si31  1  0.648703  0.033003  0.541965  1
  Si  Si32  1  0.149900  0.464056  0.959336  1
  Si  Si33  1  0.649487  0.037415  0.958797  1
  Si  Si34  1  0.351191  0.963597  0.039091  1
  Ni  Ni35  1  0.032129  0.117708  0.749238  1
