# generated using pymatgen
data_Nd2Th(CdAu)3
_symmetry_space_group_name_H-M   'P 1'
_cell_length_a   7.97105500
_cell_length_b   7.93631516
_cell_length_c   4.04454300
_cell_angle_alpha   90.00000000
_cell_angle_beta   90.00000000
_cell_angle_gamma   120.14490254
_symmetry_Int_Tables_number   1
_chemical_formula_structural   Nd2Th(CdAu)3
_chemical_formula_sum   'Nd2 Th1 Cd3 Au3'
_cell_volume   221.25791661
_cell_formula_units_Z   1
loop_
 _symmetry_equiv_pos_site_id
 _symmetry_equiv_pos_as_xyz
  1  'x, y, z'
loop_
 _atom_site_type_symbol
 _atom_site_label
 _atom_site_symmetry_multiplicity
 _atom_site_fract_x
 _atom_site_fract_y
 _atom_site_fract_z
 _atom_site_occupancy
  Nd  Nd0  1  0.001802  0.595482  0.000000  1
  Nd  Nd1  1  0.406320  0.404518  0.000000  1
  Th  Th2  1  0.593302  0.000000  0.000000  1
  Cd  Cd3  1  0.253819  0.000000  0.500000  1
  Cd  Cd4  1  0.005035  0.264091  0.500000  1
  Cd  Cd5  1  0.740944  0.735909  0.500000  1
  Au  Au6  1  0.339484  0.673939  0.500000  1
  Au  Au7  1  0.665545  0.326061  0.500000  1
  Au  Au8  1  0.993748  0.000000  0.000000  1
