# generated using pymatgen
data_HfSc5(AlAu)6
_symmetry_space_group_name_H-M   'P 1'
_cell_length_a   7.22282015
_cell_length_b   7.22178952
_cell_length_c   7.44842400
_cell_angle_alpha   90.00000000
_cell_angle_beta   90.00000000
_cell_angle_gamma   120.02838397
_symmetry_Int_Tables_number   1
_chemical_formula_structural   HfSc5(AlAu)6
_chemical_formula_sum   'Hf1 Sc5 Al6 Au6'
_cell_volume   336.37395694
_cell_formula_units_Z   1
loop_
 _symmetry_equiv_pos_site_id
 _symmetry_equiv_pos_as_xyz
  1  'x, y, z'
loop_
 _atom_site_type_symbol
 _atom_site_label
 _atom_site_symmetry_multiplicity
 _atom_site_fract_x
 _atom_site_fract_y
 _atom_site_fract_z
 _atom_site_occupancy
  Hf  Hf0  1  0.984569  0.589046  0.250000  1
  Sc  Sc1  1  0.589349  0.985093  0.750000  1
  Sc  Sc2  1  0.014674  0.604423  0.750000  1
  Sc  Sc3  1  0.396324  0.410500  0.750000  1
  Sc  Sc4  1  0.605136  0.015562  0.250000  1
  Sc  Sc5  1  0.410315  0.396263  0.250000  1
  Al  Al6  1  0.740548  0.740513  0.999227  1
  Al  Al7  1  0.258884  0.999609  0.999208  1
  Al  Al8  1  0.000021  0.259326  0.001965  1
  Al  Al9  1  0.740548  0.740513  0.500773  1
  Al  Al10  1  0.258884  0.999609  0.500792  1
  Al  Al11  1  0.000021  0.259326  0.498035  1
  Au  Au12  1  0.999936  0.001075  0.750000  1
  Au  Au13  1  0.000189  0.997241  0.250000  1
  Au  Au14  1  0.667676  0.334148  0.981740  1
  Au  Au15  1  0.667676  0.334148  0.518260  1
  Au  Au16  1  0.332625  0.666801  0.477883  1
  Au  Au17  1  0.332625  0.666801  0.022117  1
