# generated using pymatgen
data_Ba4As4PtRh3
_symmetry_space_group_name_H-M   'P 1'
_cell_length_a   6.77156075
_cell_length_b   6.77156075
_cell_length_c   6.77156075
_cell_angle_alpha   89.74771382
_cell_angle_beta   90.25228618
_cell_angle_gamma   90.25228618
_symmetry_Int_Tables_number   1
_chemical_formula_structural   Ba4As4PtRh3
_chemical_formula_sum   'Ba4 As4 Pt1 Rh3'
_cell_volume   310.49437984
_cell_formula_units_Z   1
loop_
 _symmetry_equiv_pos_site_id
 _symmetry_equiv_pos_as_xyz
  1  'x, y, z'
loop_
 _atom_site_type_symbol
 _atom_site_label
 _atom_site_symmetry_multiplicity
 _atom_site_fract_x
 _atom_site_fract_y
 _atom_site_fract_z
 _atom_site_occupancy
  Ba  Ba0  1  0.625152  0.374848  0.874848  1
  Ba  Ba1  1  0.375853  0.874315  0.627478  1
  Ba  Ba2  1  0.125685  0.127478  0.124147  1
  Ba  Ba3  1  0.872522  0.624147  0.374315  1
  As  As4  1  0.166913  0.344229  0.661771  1
  As  As5  1  0.655771  0.161771  0.333087  1
  As  As6  1  0.339301  0.660699  0.160699  1
  As  As7  1  0.838229  0.833087  0.844229  1
  Pt  Pt8  1  0.907057  0.092943  0.592943  1
  Rh  Rh9  1  0.591646  0.906615  0.091513  1
  Rh  Rh10  1  0.093385  0.591513  0.908354  1
  Rh  Rh11  1  0.408487  0.408354  0.406615  1
