# generated using pymatgen
data_Ta8Cr3Os4Ru
_symmetry_space_group_name_H-M   'P 1'
_cell_length_a   6.33361300
_cell_length_b   4.45459800
_cell_length_c   8.90243900
_cell_angle_alpha   90.00000000
_cell_angle_beta   90.00021797
_cell_angle_gamma   90.00000000
_symmetry_Int_Tables_number   1
_chemical_formula_structural   Ta8Cr3Os4Ru
_chemical_formula_sum   'Ta8 Cr3 Os4 Ru1'
_cell_volume   251.17074146
_cell_formula_units_Z   1
loop_
 _symmetry_equiv_pos_site_id
 _symmetry_equiv_pos_as_xyz
  1  'x, y, z'
loop_
 _atom_site_type_symbol
 _atom_site_label
 _atom_site_symmetry_multiplicity
 _atom_site_fract_x
 _atom_site_fract_y
 _atom_site_fract_z
 _atom_site_occupancy
  Ta  Ta0  1  0.492027  0.749999  0.125008  1
  Ta  Ta1  1  0.007937  0.749999  0.125014  1
  Ta  Ta2  1  0.497069  0.250000  0.378976  1
  Ta  Ta3  1  0.002913  0.250000  0.378982  1
  Ta  Ta4  1  0.999288  0.749999  0.624976  1
  Ta  Ta5  1  0.500736  0.749999  0.624979  1
  Ta  Ta6  1  0.002894  0.250000  0.871038  1
  Ta  Ta7  1  0.497132  0.250000  0.871040  1
  Cr  Cr8  1  0.250005  0.749999  0.374340  1
  Cr  Cr9  1  0.750006  0.250000  0.625117  1
  Cr  Cr10  1  0.249993  0.749999  0.875540  1
  Os  Os11  1  0.249987  0.250000  0.124981  1
  Os  Os12  1  0.749989  0.749999  0.373125  1
  Os  Os13  1  0.250018  0.250000  0.624962  1
  Os  Os14  1  0.750012  0.749999  0.876892  1
  Ru  Ru15  1  0.749993  0.250000  0.125032  1
