# generated using pymatgen
data_Sc12CoIrRuBr16
_symmetry_space_group_name_H-M   'P 1'
_cell_length_a   8.92446782
_cell_length_b   11.64768856
_cell_length_c   12.30284362
_cell_angle_alpha   117.38058526
_cell_angle_beta   101.13502956
_cell_angle_gamma   100.76950379
_symmetry_Int_Tables_number   1
_chemical_formula_structural   Sc12CoIrRuBr16
_chemical_formula_sum   'Sc12 Co1 Ir1 Ru1 Br16'
_cell_volume   1056.97836880
_cell_formula_units_Z   1
loop_
 _symmetry_equiv_pos_site_id
 _symmetry_equiv_pos_as_xyz
  1  'x, y, z'
loop_
 _atom_site_type_symbol
 _atom_site_label
 _atom_site_symmetry_multiplicity
 _atom_site_fract_x
 _atom_site_fract_y
 _atom_site_fract_z
 _atom_site_occupancy
  Sc  Sc0  1  0.092812  0.272256  0.360745  1
  Sc  Sc1  1  0.915608  0.732076  0.642476  1
  Sc  Sc2  1  0.781722  0.536284  0.328166  1
  Sc  Sc3  1  0.222633  0.463605  0.667642  1
  Sc  Sc4  1  0.278842  0.727797  0.639475  1
  Sc  Sc5  1  0.725698  0.267881  0.357119  1
  Sc  Sc6  1  0.148361  0.535925  0.332924  1
  Sc  Sc7  1  0.859047  0.464293  0.671148  1
  Sc  Sc8  1  0.404176  0.360904  0.277676  1
  Sc  Sc9  1  0.590545  0.639064  0.722760  1
  Sc  Sc10  1  0.456682  0.311205  0.520126  1
  Sc  Sc11  1  0.537984  0.688523  0.480074  1
  Co  Co12  1  0.341927  0.499881  0.499740  1
  Ir  Ir13  1  0.658535  0.500011  0.500411  1
  Ru  Ru14  1  0.000721  0.500014  0.499942  1
  Br  Br15  1  0.389080  0.729792  0.866892  1
  Br  Br16  1  0.608068  0.269275  0.131879  1
  Br  Br17  1  0.184802  0.946002  0.772749  1
  Br  Br18  1  0.821251  0.054054  0.226227  1
  Br  Br19  1  0.338023  0.111171  0.262190  1
  Br  Br20  1  0.649547  0.888580  0.738022  1
  Br  Br21  1  0.548994  0.438533  0.785840  1
  Br  Br22  1  0.440217  0.561236  0.214288  1
  Br  Br23  1  0.305071  0.814249  0.465095  1
  Br  Br24  1  0.695412  0.186983  0.534541  1
  Br  Br25  1  0.168481  0.184120  0.532096  1
  Br  Br26  1  0.830497  0.814723  0.468241  1
  Br  Br27  1  0.931948  0.569972  0.172210  1
  Br  Br28  1  0.074522  0.430392  0.828074  1
  Br  Br29  1  0.916157  0.729914  0.868125  1
  Br  Br30  1  0.082633  0.271285  0.133105  1
