# generated using pymatgen
data_La2NdPa(InRh2)2
_symmetry_space_group_name_H-M   'P 1'
_cell_length_a   7.80854204
_cell_length_b   7.85454658
_cell_length_c   3.77280300
_cell_angle_alpha   90.00000000
_cell_angle_beta   90.00000000
_cell_angle_gamma   87.70498651
_symmetry_Int_Tables_number   1
_chemical_formula_structural   La2NdPa(InRh2)2
_chemical_formula_sum   'La2 Nd1 Pa1 In2 Rh4'
_cell_volume   231.21004946
_cell_formula_units_Z   1
loop_
 _symmetry_equiv_pos_site_id
 _symmetry_equiv_pos_as_xyz
  1  'x, y, z'
loop_
 _atom_site_type_symbol
 _atom_site_label
 _atom_site_symmetry_multiplicity
 _atom_site_fract_x
 _atom_site_fract_y
 _atom_site_fract_z
 _atom_site_occupancy
  La  La0  1  0.826325  0.674681  0.500000  1
  La  La1  1  0.333572  0.830957  0.500000  1
  Nd  Nd2  1  0.668748  0.168333  0.500000  1
  Pa  Pa3  1  0.162002  0.336676  0.500000  1
  In  In4  1  0.999120  0.002068  0.000000  1
  In  In5  1  0.501285  0.494380  0.000000  1
  Rh  Rh6  1  0.146344  0.607244  0.000000  1
  Rh  Rh7  1  0.628054  0.870877  0.000000  1
  Rh  Rh8  1  0.340739  0.158398  0.000000  1
  Rh  Rh9  1  0.893811  0.356385  0.000000  1
