# generated using pymatgen
data_SmDyHf2(NiAs)4
_symmetry_space_group_name_H-M   'P 1'
_cell_length_a   3.99209900
_cell_length_b   3.99209776
_cell_length_c   14.90185200
_cell_angle_alpha   90.00000000
_cell_angle_beta   90.00000000
_cell_angle_gamma   120.00000203
_symmetry_Int_Tables_number   1
_chemical_formula_structural   SmDyHf2(NiAs)4
_chemical_formula_sum   'Sm1 Dy1 Hf2 Ni4 As4'
_cell_volume   205.67113223
_cell_formula_units_Z   1
loop_
 _symmetry_equiv_pos_site_id
 _symmetry_equiv_pos_as_xyz
  1  'x, y, z'
loop_
 _atom_site_type_symbol
 _atom_site_label
 _atom_site_symmetry_multiplicity
 _atom_site_fract_x
 _atom_site_fract_y
 _atom_site_fract_z
 _atom_site_occupancy
  Sm  Sm0  1  0.000000  0.000000  0.000000  1
  Dy  Dy1  1  0.000000  0.000000  0.500000  1
  Hf  Hf2  1  0.000000  0.000000  0.251618  1
  Hf  Hf3  1  0.000000  0.000000  0.748382  1
  Ni  Ni4  1  0.333333  0.666667  0.161387  1
  Ni  Ni5  1  0.666667  0.333333  0.838613  1
  Ni  Ni6  1  0.666667  0.333333  0.655295  1
  Ni  Ni7  1  0.333333  0.666667  0.344705  1
  As  As8  1  0.333333  0.666667  0.621204  1
  As  As9  1  0.666667  0.333333  0.378796  1
  As  As10  1  0.666667  0.333333  0.125623  1
  As  As11  1  0.333333  0.666667  0.874377  1
