# generated using pymatgen
data_Sr2Yb3(GaSb3)2
_symmetry_space_group_name_H-M   'P 1'
_cell_length_a   4.60138800
_cell_length_b   12.32246600
_cell_length_c   14.10756300
_cell_angle_alpha   90.00000000
_cell_angle_beta   90.00000000
_cell_angle_gamma   90.00000000
_symmetry_Int_Tables_number   1
_chemical_formula_structural   Sr2Yb3(GaSb3)2
_chemical_formula_sum   'Sr4 Yb6 Ga4 Sb12'
_cell_volume   799.90513076
_cell_formula_units_Z   2
loop_
 _symmetry_equiv_pos_site_id
 _symmetry_equiv_pos_as_xyz
  1  'x, y, z'
loop_
 _atom_site_type_symbol
 _atom_site_label
 _atom_site_symmetry_multiplicity
 _atom_site_fract_x
 _atom_site_fract_y
 _atom_site_fract_z
 _atom_site_occupancy
  Sr  Sr0  1  0.500000  0.672250  0.476279  1
  Sr  Sr1  1  0.500000  0.327750  0.523721  1
  Sr  Sr2  1  0.500000  0.827750  0.976279  1
  Sr  Sr3  1  0.500000  0.172250  0.023721  1
  Yb  Yb4  1  0.500000  0.000000  0.500000  1
  Yb  Yb5  1  0.500000  0.500000  0.000000  1
  Yb  Yb6  1  0.500000  0.908506  0.250382  1
  Yb  Yb7  1  0.500000  0.091494  0.749618  1
  Yb  Yb8  1  0.500000  0.408506  0.249618  1
  Yb  Yb9  1  0.500000  0.591494  0.750382  1
  Ga  Ga10  1  0.000000  0.324357  0.712076  1
  Ga  Ga11  1  0.000000  0.675643  0.287924  1
  Ga  Ga12  1  0.000000  0.824357  0.787924  1
  Ga  Ga13  1  0.000000  0.175643  0.212076  1
  Sb  Sb14  1  0.000000  0.979134  0.102207  1
  Sb  Sb15  1  0.000000  0.020866  0.897793  1
  Sb  Sb16  1  0.000000  0.479134  0.397793  1
  Sb  Sb17  1  0.000000  0.520866  0.602207  1
  Sb  Sb18  1  0.500000  0.160421  0.319456  1
  Sb  Sb19  1  0.500000  0.839579  0.680544  1
  Sb  Sb20  1  0.500000  0.660421  0.180544  1
  Sb  Sb21  1  0.500000  0.339579  0.819456  1
  Sb  Sb22  1  0.000000  0.355956  0.097853  1
  Sb  Sb23  1  0.000000  0.644044  0.902147  1
  Sb  Sb24  1  0.000000  0.855956  0.402147  1
  Sb  Sb25  1  0.000000  0.144044  0.597853  1
