# generated using pymatgen
data_Dy4Si4SbRh9
_symmetry_space_group_name_H-M   'P 1'
_cell_length_a   12.01912834
_cell_length_b   12.01912848
_cell_length_c   12.01912857
_cell_angle_alpha   26.73729761
_cell_angle_beta   26.73729731
_cell_angle_gamma   26.73729780
_symmetry_Int_Tables_number   1
_chemical_formula_structural   Dy4Si4SbRh9
_chemical_formula_sum   'Dy4 Si4 Sb1 Rh9'
_cell_volume   309.87458263
_cell_formula_units_Z   1
loop_
 _symmetry_equiv_pos_site_id
 _symmetry_equiv_pos_as_xyz
  1  'x, y, z'
loop_
 _atom_site_type_symbol
 _atom_site_label
 _atom_site_symmetry_multiplicity
 _atom_site_fract_x
 _atom_site_fract_y
 _atom_site_fract_z
 _atom_site_occupancy
  Dy  Dy0  1  0.949868  0.949868  0.949868  1
  Dy  Dy1  1  0.852743  0.852743  0.852743  1
  Dy  Dy2  1  0.147257  0.147257  0.147257  1
  Dy  Dy3  1  0.050132  0.050132  0.050132  1
  Si  Si4  1  0.280121  0.280121  0.280121  1
  Si  Si5  1  0.387057  0.387057  0.387057  1
  Si  Si6  1  0.719879  0.719879  0.719879  1
  Si  Si7  1  0.612943  0.612943  0.612943  1
  Sb  Sb8  1  0.500000  0.500000  0.500000  1
  Rh  Rh9  1  0.606792  0.606792  0.100485  1
  Rh  Rh10  1  0.899515  0.393208  0.393208  1
  Rh  Rh11  1  0.500000  0.000000  0.500000  1
  Rh  Rh12  1  0.393208  0.899515  0.393208  1
  Rh  Rh13  1  0.500000  0.500000  0.000000  1
  Rh  Rh14  1  0.100485  0.606792  0.606792  1
  Rh  Rh15  1  0.000000  0.500000  0.500000  1
  Rh  Rh16  1  0.393208  0.393208  0.899515  1
  Rh  Rh17  1  0.606792  0.100485  0.606792  1
