# generated using pymatgen
data_Ba4LiPu3O12
_symmetry_space_group_name_H-M   'P 1'
_cell_length_a   6.02920000
_cell_length_b   10.46800200
_cell_length_c   19.84100600
_cell_angle_alpha   90.00000000
_cell_angle_beta   90.00000000
_cell_angle_gamma   90.00000000
_symmetry_Int_Tables_number   1
_chemical_formula_structural   Ba4LiPu3O12
_chemical_formula_sum   'Ba16 Li4 Pu12 O48'
_cell_volume   1252.23885710
_cell_formula_units_Z   4
loop_
 _symmetry_equiv_pos_site_id
 _symmetry_equiv_pos_as_xyz
  1  'x, y, z'
loop_
 _atom_site_type_symbol
 _atom_site_label
 _atom_site_symmetry_multiplicity
 _atom_site_fract_x
 _atom_site_fract_y
 _atom_site_fract_z
 _atom_site_occupancy
  Ba  Ba0  1  0.750000  0.065248  0.642756  1
  Ba  Ba1  1  0.750000  0.083158  0.251235  1
  Ba  Ba2  1  0.750000  0.747068  0.505644  1
  Ba  Ba3  1  0.750000  0.097481  0.853753  1
  Ba  Ba4  1  0.750000  0.752932  0.005644  1
  Ba  Ba5  1  0.750000  0.416842  0.751235  1
  Ba  Ba6  1  0.750000  0.402519  0.353753  1
  Ba  Ba7  1  0.750000  0.434752  0.142756  1
  Ba  Ba8  1  0.250000  0.597481  0.646247  1
  Ba  Ba9  1  0.250000  0.583158  0.248765  1
  Ba  Ba10  1  0.250000  0.916842  0.748765  1
  Ba  Ba11  1  0.250000  0.934752  0.357244  1
  Ba  Ba12  1  0.250000  0.902519  0.146247  1
  Ba  Ba13  1  0.250000  0.247068  0.994356  1
  Ba  Ba14  1  0.250000  0.252932  0.494356  1
  Ba  Ba15  1  0.250000  0.565248  0.857244  1
  Li  Li16  1  0.750000  0.747924  0.667857  1
  Li  Li17  1  0.750000  0.752076  0.167857  1
  Li  Li18  1  0.250000  0.252076  0.332143  1
  Li  Li19  1  0.250000  0.247924  0.832143  1
  Pu  Pu20  1  0.750000  0.081321  0.063930  1
  Pu  Pu21  1  0.750000  0.750917  0.810731  1
  Pu  Pu22  1  0.750000  0.749083  0.310731  1
  Pu  Pu23  1  0.750000  0.085728  0.438133  1
  Pu  Pu24  1  0.750000  0.414272  0.938133  1
  Pu  Pu25  1  0.750000  0.418679  0.563930  1
  Pu  Pu26  1  0.250000  0.585728  0.061867  1
  Pu  Pu27  1  0.250000  0.250917  0.689269  1
  Pu  Pu28  1  0.250000  0.914272  0.561867  1
  Pu  Pu29  1  0.250000  0.918679  0.936070  1
  Pu  Pu30  1  0.250000  0.249083  0.189269  1
  Pu  Pu31  1  0.250000  0.581321  0.436070  1
  O  O32  1  0.750000  0.584018  0.873916  1
  O  O33  1  0.750000  0.252633  0.505351  1
  O  O34  1  0.750000  0.247367  0.005351  1
  O  O35  1  0.750000  0.921663  0.121253  1
  O  O36  1  0.750000  0.915982  0.373916  1
  O  O37  1  0.750000  0.578337  0.621253  1
  O  O38  1  0.750000  0.912118  0.750620  1
  O  O39  1  0.750000  0.587882  0.250620  1
  O  O40  1  0.991767  0.831045  0.252089  1
  O  O41  1  0.991767  0.668955  0.752089  1
  O  O42  1  0.002212  0.164817  0.127752  1
  O  O43  1  0.993777  0.167583  0.379457  1
  O  O44  1  0.002212  0.335183  0.627752  1
  O  O45  1  0.993777  0.332417  0.879457  1
  O  O46  1  0.000000  0.000000  0.500000  1
  O  O47  1  0.000000  0.000000  0.000000  1
  O  O48  1  0.000000  0.500000  0.500000  1
  O  O49  1  0.000000  0.500000  0.000000  1
  O  O50  1  0.997788  0.664817  0.372248  1
  O  O51  1  0.006223  0.667583  0.120543  1
  O  O52  1  0.006223  0.832417  0.620543  1
  O  O53  1  0.997788  0.835183  0.872248  1
  O  O54  1  0.008233  0.331045  0.247911  1
  O  O55  1  0.008233  0.168955  0.747911  1
  O  O56  1  0.250000  0.078337  0.878747  1
  O  O57  1  0.250000  0.747367  0.494649  1
  O  O58  1  0.250000  0.752633  0.994649  1
  O  O59  1  0.250000  0.084018  0.626084  1
  O  O60  1  0.250000  0.421663  0.378747  1
  O  O61  1  0.250000  0.415982  0.126084  1
  O  O62  1  0.250000  0.087882  0.249380  1
  O  O63  1  0.250000  0.412118  0.749380  1
  O  O64  1  0.491767  0.331045  0.247911  1
  O  O65  1  0.491767  0.168955  0.747911  1
  O  O66  1  0.502212  0.664817  0.372248  1
  O  O67  1  0.493777  0.667583  0.120543  1
  O  O68  1  0.502212  0.835183  0.872248  1
  O  O69  1  0.493777  0.832417  0.620543  1
  O  O70  1  0.500000  0.500000  0.500000  1
  O  O71  1  0.500000  0.500000  0.000000  1
  O  O72  1  0.500000  0.000000  0.500000  1
  O  O73  1  0.500000  0.000000  0.000000  1
  O  O74  1  0.497788  0.164817  0.127752  1
  O  O75  1  0.506223  0.167583  0.379457  1
  O  O76  1  0.497788  0.335183  0.627752  1
  O  O77  1  0.506223  0.332417  0.879457  1
  O  O78  1  0.508233  0.831045  0.252089  1
  O  O79  1  0.508233  0.668955  0.752089  1
