# generated using pymatgen
data_Be4BIr
_symmetry_space_group_name_H-M   'P 1'
_cell_length_a   4.09149850
_cell_length_b   4.09149829
_cell_length_c   4.09149819
_cell_angle_alpha   61.03129326
_cell_angle_beta   61.03129527
_cell_angle_gamma   61.03129160
_symmetry_Int_Tables_number   1
_chemical_formula_structural   Be4BIr
_chemical_formula_sum   'Be4 B1 Ir1'
_cell_volume   49.55679442
_cell_formula_units_Z   1
loop_
 _symmetry_equiv_pos_site_id
 _symmetry_equiv_pos_as_xyz
  1  'x, y, z'
loop_
 _atom_site_type_symbol
 _atom_site_label
 _atom_site_symmetry_multiplicity
 _atom_site_fract_x
 _atom_site_fract_y
 _atom_site_fract_z
 _atom_site_occupancy
  Be  Be0  1  0.872491  0.375948  0.375948  1
  Be  Be1  1  0.375948  0.872491  0.375948  1
  Be  Be2  1  0.749438  0.749438  0.749438  1
  Be  Be3  1  0.375948  0.375948  0.872491  1
  B  B4  1  0.376832  0.376832  0.376832  1
  Ir  Ir5  1  0.999344  0.999344  0.999344  1
