# generated using pymatgen
data_Sr4Cd(Si2Pt)5
_symmetry_space_group_name_H-M   'P 1'
_cell_length_a   8.50186801
_cell_length_b   8.50186793
_cell_length_c   8.50186842
_cell_angle_alpha   138.24431795
_cell_angle_beta   105.21189855
_cell_angle_gamma   89.51980973
_symmetry_Int_Tables_number   1
_chemical_formula_structural   Sr4Cd(Si2Pt)5
_chemical_formula_sum   'Sr4 Cd1 Si10 Pt5'
_cell_volume   377.75320900
_cell_formula_units_Z   1
loop_
 _symmetry_equiv_pos_site_id
 _symmetry_equiv_pos_as_xyz
  1  'x, y, z'
loop_
 _atom_site_type_symbol
 _atom_site_label
 _atom_site_symmetry_multiplicity
 _atom_site_fract_x
 _atom_site_fract_y
 _atom_site_fract_z
 _atom_site_occupancy
  Sr  Sr0  1  0.113259  0.870202  0.233425  1
  Sr  Sr1  1  0.886741  0.120166  0.756943  1
  Sr  Sr2  1  0.636777  0.379834  0.266575  1
  Sr  Sr3  1  0.363223  0.629798  0.743057  1
  Cd  Cd4  1  0.500000  0.750000  0.250000  1
  Si  Si5  1  0.000000  0.750000  0.750000  1
  Si  Si6  1  0.000000  0.250000  0.250000  1
  Si  Si7  1  0.264674  0.014674  0.750000  1
  Si  Si8  1  0.735326  0.485326  0.750000  1
  Si  Si9  1  0.740894  0.990894  0.250000  1
  Si  Si10  1  0.259106  0.509106  0.250000  1
  Si  Si11  1  0.772187  0.606696  0.133329  1
  Si  Si12  1  0.227813  0.361142  0.834508  1
  Si  Si13  1  0.473367  0.138858  0.366671  1
  Si  Si14  1  0.526633  0.893304  0.665492  1
  Pt  Pt15  1  0.500000  0.250000  0.750000  1
  Pt  Pt16  1  0.021074  0.632801  0.387268  1
  Pt  Pt17  1  0.978926  0.366193  0.611726  1
  Pt  Pt18  1  0.245534  0.133807  0.112732  1
  Pt  Pt19  1  0.754466  0.867199  0.888274  1
