# generated using pymatgen
data_UCdP2O9
_symmetry_space_group_name_H-M   'P 1'
_cell_length_a   5.61662431
_cell_length_b   5.61662356
_cell_length_c   12.71927300
_cell_angle_alpha   90.00000000
_cell_angle_beta   90.00000000
_cell_angle_gamma   103.83062576
_symmetry_Int_Tables_number   1
_chemical_formula_structural   UCdP2O9
_chemical_formula_sum   'U2 Cd2 P4 O18'
_cell_volume   389.61456304
_cell_formula_units_Z   2
loop_
 _symmetry_equiv_pos_site_id
 _symmetry_equiv_pos_as_xyz
  1  'x, y, z'
loop_
 _atom_site_type_symbol
 _atom_site_label
 _atom_site_symmetry_multiplicity
 _atom_site_fract_x
 _atom_site_fract_y
 _atom_site_fract_z
 _atom_site_occupancy
  U  U0  1  0.795537  0.204463  0.568425  1
  U  U1  1  0.704463  0.295537  0.068425  1
  Cd  Cd2  1  0.217125  0.782875  0.412897  1
  Cd  Cd3  1  0.282875  0.717125  0.912897  1
  P  P4  1  0.099744  0.900256  0.146494  1
  P  P5  1  0.400256  0.599744  0.646494  1
  P  P6  1  0.875662  0.124338  0.855515  1
  P  P7  1  0.624338  0.375662  0.355515  1
  O  O8  1  0.928887  0.071113  0.103156  1
  O  O9  1  0.571113  0.428887  0.603156  1
  O  O10  1  0.044955  0.955045  0.861347  1
  O  O11  1  0.455045  0.544955  0.361347  1
  O  O12  1  0.504970  0.495030  0.024557  1
  O  O13  1  0.995030  0.004970  0.524557  1
  O  O14  1  0.675116  0.324884  0.237725  1
  O  O15  1  0.824884  0.175116  0.737725  1
  O  O16  1  0.873254  0.466764  0.416758  1
  O  O17  1  0.626746  0.033236  0.916758  1
  O  O18  1  0.502444  0.855502  0.596316  1
  O  O19  1  0.997556  0.644498  0.096316  1
  O  O20  1  0.144498  0.497556  0.596316  1
  O  O21  1  0.355502  0.002444  0.096316  1
  O  O22  1  0.533236  0.126746  0.416758  1
  O  O23  1  0.966764  0.373254  0.916758  1
  O  O24  1  0.089731  0.910269  0.263739  1
  O  O25  1  0.410269  0.589731  0.763739  1
