# generated using pymatgen
data_La2Y5Tm13Si15Pt
_symmetry_space_group_name_H-M   'P 1'
_cell_length_a   7.37292961
_cell_length_b   7.72349892
_cell_length_c   14.55443794
_cell_angle_alpha   89.55986055
_cell_angle_beta   89.94324201
_cell_angle_gamma   89.99318525
_symmetry_Int_Tables_number   1
_chemical_formula_structural   La2Y5Tm13Si15Pt
_chemical_formula_sum   'La2 Y5 Tm13 Si15 Pt1'
_cell_volume   828.77489395
_cell_formula_units_Z   1
loop_
 _symmetry_equiv_pos_site_id
 _symmetry_equiv_pos_as_xyz
  1  'x, y, z'
loop_
 _atom_site_type_symbol
 _atom_site_label
 _atom_site_symmetry_multiplicity
 _atom_site_fract_x
 _atom_site_fract_y
 _atom_site_fract_z
 _atom_site_occupancy
  La  La0  1  0.520574  0.571832  0.342260  1
  La  La1  1  0.021987  0.425940  0.657348  1
  Y  Y2  1  0.977122  0.069091  0.152657  1
  Y  Y3  1  0.477018  0.932318  0.153000  1
  Y  Y4  1  0.975568  0.069353  0.847725  1
  Y  Y5  1  0.524625  0.567860  0.652764  1
  Y  Y6  1  0.024421  0.431411  0.347367  1
  Tm  Tm7  1  0.810164  0.577652  0.875684  1
  Tm  Tm8  1  0.320650  0.427194  0.124024  1
  Tm  Tm9  1  0.182243  0.926128  0.373888  1
  Tm  Tm10  1  0.681021  0.069701  0.627147  1
  Tm  Tm11  1  0.182609  0.925600  0.627444  1
  Tm  Tm12  1  0.681207  0.071639  0.372201  1
  Tm  Tm13  1  0.814369  0.573930  0.124428  1
  Tm  Tm14  1  0.324210  0.431649  0.874781  1
  Tm  Tm15  1  0.646294  0.236898  0.998689  1
  Tm  Tm16  1  0.156938  0.759176  0.000450  1
  Tm  Tm17  1  0.349169  0.260684  0.500096  1
  Tm  Tm18  1  0.849095  0.738428  0.499869  1
  Tm  Tm19  1  0.478369  0.930064  0.848002  1
  Si  Si20  1  0.020206  0.354609  0.000045  1
  Si  Si21  1  0.478347  0.862815  0.501232  1
  Si  Si22  1  0.977316  0.135622  0.499179  1
  Si  Si23  1  0.651349  0.276056  0.791200  1
  Si  Si24  1  0.150609  0.720352  0.209045  1
  Si  Si25  1  0.347819  0.214378  0.286945  1
  Si  Si26  1  0.850413  0.784425  0.712901  1
  Si  Si27  1  0.357370  0.215412  0.712362  1
  Si  Si28  1  0.858520  0.782451  0.287984  1
  Si  Si29  1  0.649287  0.271650  0.206851  1
  Si  Si30  1  0.148731  0.727570  0.793196  1
  Si  Si31  1  0.773093  0.882137  0.000303  1
  Si  Si32  1  0.263349  0.125757  0.998919  1
  Si  Si33  1  0.229174  0.624900  0.501990  1
  Si  Si34  1  0.729006  0.374255  0.498832  1
  Pt  Pt35  1  0.517757  0.651063  0.999193  1
