# generated using pymatgen
data_NaDy2Er4Co6Sn23
_symmetry_space_group_name_H-M   'P 1'
_cell_length_a   9.68891903
_cell_length_b   9.69134118
_cell_length_c   9.94610528
_cell_angle_alpha   90.00000242
_cell_angle_beta   89.94971430
_cell_angle_gamma   120.00826584
_symmetry_Int_Tables_number   1
_chemical_formula_structural   NaDy2Er4Co6Sn23
_chemical_formula_sum   'Na1 Dy2 Er4 Co6 Sn23'
_cell_volume   808.73546982
_cell_formula_units_Z   1
loop_
 _symmetry_equiv_pos_site_id
 _symmetry_equiv_pos_as_xyz
  1  'x, y, z'
loop_
 _atom_site_type_symbol
 _atom_site_label
 _atom_site_symmetry_multiplicity
 _atom_site_fract_x
 _atom_site_fract_y
 _atom_site_fract_z
 _atom_site_occupancy
  Na  Na0  1  0.000000  0.000000  0.000000  1
  Dy  Dy1  1  0.039779  0.519889  0.305420  1
  Dy  Dy2  1  0.960221  0.480111  0.694580  1
  Er  Er3  1  0.480758  0.519426  0.305099  1
  Er  Er4  1  0.519242  0.480574  0.694901  1
  Er  Er5  1  0.480758  0.961331  0.305099  1
  Er  Er6  1  0.519242  0.038669  0.694901  1
  Co  Co7  1  0.828807  0.170228  0.201398  1
  Co  Co8  1  0.171193  0.829772  0.798602  1
  Co  Co9  1  0.828807  0.658577  0.201398  1
  Co  Co10  1  0.171193  0.341423  0.798602  1
  Co  Co11  1  0.342179  0.171089  0.201483  1
  Co  Co12  1  0.657821  0.828911  0.798517  1
  Sn  Sn13  1  0.344361  0.000061  0.999852  1
  Sn  Sn14  1  0.655639  0.999939  0.000148  1
  Sn  Sn15  1  0.000000  0.344193  0.000000  1
  Sn  Sn16  1  0.000000  0.655807  0.000000  1
  Sn  Sn17  1  0.655639  0.655700  0.000148  1
  Sn  Sn18  1  0.344361  0.344300  0.999852  1
  Sn  Sn19  1  0.333158  0.666580  0.814339  1
  Sn  Sn20  1  0.666842  0.333420  0.185661  1
  Sn  Sn21  1  0.000000  0.000000  0.500000  1
  Sn  Sn22  1  0.780390  0.217571  0.454919  1
  Sn  Sn23  1  0.219610  0.782429  0.545081  1
  Sn  Sn24  1  0.780390  0.562818  0.454919  1
  Sn  Sn25  1  0.219610  0.437182  0.545081  1
  Sn  Sn26  1  0.437404  0.218702  0.455194  1
  Sn  Sn27  1  0.562596  0.781298  0.544806  1
  Sn  Sn28  1  0.334975  0.667488  0.117887  1
  Sn  Sn29  1  0.665025  0.332512  0.882113  1
  Sn  Sn30  1  0.116669  0.884068  0.271391  1
  Sn  Sn31  1  0.883331  0.115932  0.728609  1
  Sn  Sn32  1  0.116669  0.232601  0.271391  1
  Sn  Sn33  1  0.883331  0.767399  0.728609  1
  Sn  Sn34  1  0.766416  0.883208  0.271480  1
  Sn  Sn35  1  0.233584  0.116792  0.728520  1
