# generated using pymatgen
data_Tb3Ho(Al3Rh)6
_symmetry_space_group_name_H-M   'P 1'
_cell_length_a   7.56400443
_cell_length_b   7.56159035
_cell_length_c   9.48593600
_cell_angle_alpha   90.00000000
_cell_angle_beta   90.00000000
_cell_angle_gamma   119.31670711
_symmetry_Int_Tables_number   1
_chemical_formula_structural   Tb3Ho(Al3Rh)6
_chemical_formula_sum   'Tb3 Ho1 Al18 Rh6'
_cell_volume   473.06956115
_cell_formula_units_Z   1
loop_
 _symmetry_equiv_pos_site_id
 _symmetry_equiv_pos_as_xyz
  1  'x, y, z'
loop_
 _atom_site_type_symbol
 _atom_site_label
 _atom_site_symmetry_multiplicity
 _atom_site_fract_x
 _atom_site_fract_y
 _atom_site_fract_z
 _atom_site_occupancy
  Tb  Tb0  1  0.005542  0.328605  0.750000  1
  Tb  Tb1  1  0.671177  0.994321  0.250000  1
  Tb  Tb2  1  0.328570  0.005438  0.750000  1
  Ho  Ho3  1  0.994634  0.671217  0.250000  1
  Al  Al4  1  0.128185  0.127689  0.250000  1
  Al  Al5  1  0.872121  0.871969  0.750000  1
  Al  Al6  1  0.001119  0.336246  0.074842  1
  Al  Al7  1  0.998990  0.664554  0.926003  1
  Al  Al8  1  0.998990  0.664554  0.573997  1
  Al  Al9  1  0.334951  0.000542  0.425273  1
  Al  Al10  1  0.001119  0.336246  0.425158  1
  Al  Al11  1  0.664461  0.998880  0.574726  1
  Al  Al12  1  0.664461  0.998880  0.925274  1
  Al  Al13  1  0.334951  0.000542  0.074727  1
  Al  Al14  1  0.333117  0.333098  0.549199  1
  Al  Al15  1  0.667310  0.666776  0.450163  1
  Al  Al16  1  0.667310  0.666776  0.049837  1
  Al  Al17  1  0.333117  0.333098  0.950801  1
  Al  Al18  1  0.338777  0.549243  0.250000  1
  Al  Al19  1  0.660712  0.450227  0.750000  1
  Al  Al20  1  0.549916  0.339986  0.250000  1
  Al  Al21  1  0.450088  0.660600  0.750000  1
  Rh  Rh22  1  0.672255  0.328342  0.000284  1
  Rh  Rh23  1  0.328200  0.672245  0.000285  1
  Rh  Rh24  1  0.328200  0.672245  0.499715  1
  Rh  Rh25  1  0.672255  0.328342  0.499716  1
  Rh  Rh26  1  0.999736  0.999670  0.000461  1
  Rh  Rh27  1  0.999736  0.999670  0.499539  1
