# generated using pymatgen
data_Hf6Zn21Ni2P
_symmetry_space_group_name_H-M   'P 1'
_cell_length_a   8.72105442
_cell_length_b   8.67187517
_cell_length_c   8.67186700
_cell_angle_alpha   59.94150178
_cell_angle_beta   59.81065169
_cell_angle_gamma   59.81063485
_symmetry_Int_Tables_number   1
_chemical_formula_structural   Hf6Zn21Ni2P
_chemical_formula_sum   'Hf6 Zn21 Ni2 P1'
_cell_volume   462.21007588
_cell_formula_units_Z   1
loop_
 _symmetry_equiv_pos_site_id
 _symmetry_equiv_pos_as_xyz
  1  'x, y, z'
loop_
 _atom_site_type_symbol
 _atom_site_label
 _atom_site_symmetry_multiplicity
 _atom_site_fract_x
 _atom_site_fract_y
 _atom_site_fract_z
 _atom_site_occupancy
  Hf  Hf0  1  0.706836  0.293156  0.293156  1
  Hf  Hf1  1  0.293164  0.706844  0.706844  1
  Hf  Hf2  1  0.294237  0.701789  0.298219  1
  Hf  Hf3  1  0.705763  0.298211  0.701781  1
  Hf  Hf4  1  0.294237  0.298219  0.701789  1
  Hf  Hf5  1  0.705763  0.701781  0.298211  1
  Zn  Zn6  1  0.118064  0.117424  0.117424  1
  Zn  Zn7  1  0.881936  0.882576  0.882576  1
  Zn  Zn8  1  0.114194  0.128718  0.642867  1
  Zn  Zn9  1  0.114194  0.642867  0.128718  1
  Zn  Zn10  1  0.885806  0.871282  0.357133  1
  Zn  Zn11  1  0.885806  0.357133  0.871282  1
  Zn  Zn12  1  0.647078  0.117423  0.117423  1
  Zn  Zn13  1  0.352922  0.882577  0.882577  1
  Zn  Zn14  1  0.500000  0.000000  0.000000  1
  Zn  Zn15  1  0.000000  0.500000  0.000000  1
  Zn  Zn16  1  0.500000  0.000000  0.500000  1
  Zn  Zn17  1  0.000000  0.000000  0.500000  1
  Zn  Zn18  1  0.500000  0.500000  0.000000  1
  Zn  Zn19  1  0.327330  0.337276  0.337276  1
  Zn  Zn20  1  0.672670  0.662724  0.662724  1
  Zn  Zn21  1  0.333288  0.335475  0.997971  1
  Zn  Zn22  1  0.333288  0.997971  0.335475  1
  Zn  Zn23  1  0.666712  0.664525  0.002029  1
  Zn  Zn24  1  0.666712  0.002029  0.664525  1
  Zn  Zn25  1  0.998098  0.337281  0.337281  1
  Zn  Zn26  1  0.001902  0.662719  0.662719  1
  Ni  Ni27  1  0.000000  0.500000  0.500000  1
  Ni  Ni28  1  0.000000  0.000000  0.000000  1
  P  P29  1  0.500000  0.500000  0.500000  1
