# generated using pymatgen
data_Tm3PaCoNi3Sn2
_symmetry_space_group_name_H-M   'P 1'
_cell_length_a   7.36010950
_cell_length_b   7.36010941
_cell_length_c   3.53167000
_cell_angle_alpha   90.00000000
_cell_angle_beta   90.00000000
_cell_angle_gamma   92.86334088
_symmetry_Int_Tables_number   1
_chemical_formula_structural   Tm3PaCoNi3Sn2
_chemical_formula_sum   'Tm3 Pa1 Co1 Ni3 Sn2'
_cell_volume   191.07598911
_cell_formula_units_Z   1
loop_
 _symmetry_equiv_pos_site_id
 _symmetry_equiv_pos_as_xyz
  1  'x, y, z'
loop_
 _atom_site_type_symbol
 _atom_site_label
 _atom_site_symmetry_multiplicity
 _atom_site_fract_x
 _atom_site_fract_y
 _atom_site_fract_z
 _atom_site_occupancy
  Tm  Tm0  1  0.327535  0.827535  0.500000  1
  Tm  Tm1  1  0.171103  0.329316  0.500000  1
  Tm  Tm2  1  0.829316  0.671103  0.500000  1
  Pa  Pa3  1  0.679380  0.179380  0.500000  1
  Co  Co4  1  0.851762  0.351762  0.000000  1
  Ni  Ni5  1  0.112429  0.612429  0.000000  1
  Ni  Ni6  1  0.393056  0.130817  0.000000  1
  Ni  Ni7  1  0.630817  0.893056  0.000000  1
  Sn  Sn8  1  0.495013  0.509590  0.000000  1
  Sn  Sn9  1  0.009590  0.995013  0.000000  1
