# generated using pymatgen
data_ErTm9(In2Au)4
_symmetry_space_group_name_H-M   'P 1'
_cell_length_a   3.61372000
_cell_length_b   8.16680002
_cell_length_c   18.28325204
_cell_angle_alpha   90.00784527
_cell_angle_beta   90.00000000
_cell_angle_gamma   90.00000000
_symmetry_Int_Tables_number   1
_chemical_formula_structural   ErTm9(In2Au)4
_chemical_formula_sum   'Er1 Tm9 In8 Au4'
_cell_volume   539.58499312
_cell_formula_units_Z   1
loop_
 _symmetry_equiv_pos_site_id
 _symmetry_equiv_pos_as_xyz
  1  'x, y, z'
loop_
 _atom_site_type_symbol
 _atom_site_label
 _atom_site_symmetry_multiplicity
 _atom_site_fract_x
 _atom_site_fract_y
 _atom_site_fract_z
 _atom_site_occupancy
  Er  Er0  1  0.000000  0.000000  0.000000  1
  Tm  Tm1  1  0.000000  0.500000  0.500000  1
  Tm  Tm2  1  0.000000  0.737081  0.281054  1
  Tm  Tm3  1  0.000000  0.262919  0.718946  1
  Tm  Tm4  1  0.000000  0.762972  0.781004  1
  Tm  Tm5  1  0.000000  0.237028  0.218996  1
  Tm  Tm6  1  0.000000  0.618138  0.079714  1
  Tm  Tm7  1  0.000000  0.381862  0.920286  1
  Tm  Tm8  1  0.000000  0.881802  0.579641  1
  Tm  Tm9  1  0.000000  0.118198  0.420359  1
  In  In10  1  0.500000  0.712764  0.932869  1
  In  In11  1  0.500000  0.287236  0.067131  1
  In  In12  1  0.500000  0.786734  0.433008  1
  In  In13  1  0.500000  0.213266  0.566992  1
  In  In14  1  0.500000  0.581377  0.646097  1
  In  In15  1  0.500000  0.418623  0.353903  1
  In  In16  1  0.500000  0.918553  0.146298  1
  In  In17  1  0.500000  0.081447  0.853702  1
  Au  Au18  1  0.500000  0.526142  0.196383  1
  Au  Au19  1  0.500000  0.473858  0.803617  1
  Au  Au20  1  0.500000  0.973861  0.696296  1
  Au  Au21  1  0.500000  0.026139  0.303704  1
