# generated using pymatgen
data_Ca9Sm(Si2Sn)2
_symmetry_space_group_name_H-M   'P 1'
_cell_length_a   9.30992531
_cell_length_b   9.30992417
_cell_length_c   9.31701654
_cell_angle_alpha   130.77556012
_cell_angle_beta   130.77556394
_cell_angle_gamma   72.34160506
_symmetry_Int_Tables_number   1
_chemical_formula_structural   Ca9Sm(Si2Sn)2
_chemical_formula_sum   'Ca9 Sm1 Si4 Sn2'
_cell_volume   452.28777393
_cell_formula_units_Z   1
loop_
 _symmetry_equiv_pos_site_id
 _symmetry_equiv_pos_as_xyz
  1  'x, y, z'
loop_
 _atom_site_type_symbol
 _atom_site_label
 _atom_site_symmetry_multiplicity
 _atom_site_fract_x
 _atom_site_fract_y
 _atom_site_fract_z
 _atom_site_occupancy
  Ca  Ca0  1  0.186258  0.686258  0.146424  1
  Ca  Ca1  1  0.464728  0.964728  0.151235  1
  Ca  Ca2  1  0.315161  0.461892  0.500814  1
  Ca  Ca3  1  0.034544  0.187245  0.499677  1
  Ca  Ca4  1  0.537371  0.037371  0.850819  1
  Ca  Ca5  1  0.687245  0.534544  0.499677  1
  Ca  Ca6  1  0.961892  0.815161  0.500814  1
  Ca  Ca7  1  0.001841  0.996176  0.000160  1
  Ca  Ca8  1  0.496176  0.501841  0.000160  1
  Sm  Sm9  1  0.813117  0.313117  0.857806  1
  Si  Si10  1  0.110767  0.610767  0.720122  1
  Si  Si11  1  0.888224  0.388224  0.268568  1
  Si  Si12  1  0.616473  0.891650  0.505145  1
  Si  Si13  1  0.391650  0.116473  0.505145  1
  Sn  Sn14  1  0.244045  0.250508  0.996717  1
  Sn  Sn15  1  0.750508  0.744045  0.996717  1
