# generated using pymatgen
data_Ti7Al(TcIr)4
_symmetry_space_group_name_H-M   'P 1'
_cell_length_a   6.18914300
_cell_length_b   4.37172300
_cell_length_c   8.74813800
_cell_angle_alpha   90.00000000
_cell_angle_beta   90.00102002
_cell_angle_gamma   90.00000000
_symmetry_Int_Tables_number   1
_chemical_formula_structural   Ti7Al(TcIr)4
_chemical_formula_sum   'Ti7 Al1 Tc4 Ir4'
_cell_volume   236.70028397
_cell_formula_units_Z   1
loop_
 _symmetry_equiv_pos_site_id
 _symmetry_equiv_pos_as_xyz
  1  'x, y, z'
loop_
 _atom_site_type_symbol
 _atom_site_label
 _atom_site_symmetry_multiplicity
 _atom_site_fract_x
 _atom_site_fract_y
 _atom_site_fract_z
 _atom_site_occupancy
  Ti  Ti0  1  0.499139  0.749999  0.125011  1
  Ti  Ti1  1  0.999876  0.249999  0.369806  1
  Ti  Ti2  1  0.500193  0.249999  0.374521  1
  Ti  Ti3  1  0.500792  0.749999  0.625001  1
  Ti  Ti4  1  0.001477  0.749999  0.625007  1
  Ti  Ti5  1  0.500145  0.249999  0.875483  1
  Ti  Ti6  1  0.999824  0.249999  0.880203  1
  Al  Al7  1  0.999119  0.749999  0.124970  1
  Tc  Tc8  1  0.745240  0.249999  0.124990  1
  Tc  Tc9  1  0.251555  0.749999  0.376741  1
  Tc  Tc10  1  0.751362  0.249999  0.625017  1
  Tc  Tc11  1  0.251498  0.749999  0.873251  1
  Ir  Ir12  1  0.248012  0.249999  0.124989  1
  Ir  Ir13  1  0.751023  0.749999  0.374964  1
  Ir  Ir14  1  0.249772  0.249999  0.625000  1
  Ir  Ir15  1  0.750970  0.749999  0.875050  1
