# generated using pymatgen
data_Zr8Co16Si5P7
_symmetry_space_group_name_H-M   'P 1'
_cell_length_a   12.21916281
_cell_length_b   12.22554548
_cell_length_c   3.67097100
_cell_angle_alpha   90.00000000
_cell_angle_beta   90.00000000
_cell_angle_gamma   120.09327960
_symmetry_Int_Tables_number   1
_chemical_formula_structural   Zr8Co16Si5P7
_chemical_formula_sum   'Zr8 Co16 Si5 P7'
_cell_volume   474.47387045
_cell_formula_units_Z   1
loop_
 _symmetry_equiv_pos_site_id
 _symmetry_equiv_pos_as_xyz
  1  'x, y, z'
loop_
 _atom_site_type_symbol
 _atom_site_label
 _atom_site_symmetry_multiplicity
 _atom_site_fract_x
 _atom_site_fract_y
 _atom_site_fract_z
 _atom_site_occupancy
  Zr  Zr0  1  0.441737  0.443573  0.000000  1
  Zr  Zr1  1  0.558094  0.998755  0.000000  1
  Zr  Zr2  1  0.999940  0.557935  0.000000  1
  Zr  Zr3  1  0.668765  0.334170  0.000000  1
  Zr  Zr4  1  0.332645  0.666008  0.000000  1
  Zr  Zr5  1  0.823588  0.821267  0.500000  1
  Zr  Zr6  1  0.181242  0.000953  0.500000  1
  Zr  Zr7  1  0.000581  0.179074  0.500000  1
  Co  Co8  1  0.195150  0.372637  0.000000  1
  Co  Co9  1  0.176000  0.803499  0.000000  1
  Co  Co10  1  0.826874  0.630371  0.000000  1
  Co  Co11  1  0.801999  0.178315  0.000000  1
  Co  Co12  1  0.368563  0.193913  0.000000  1
  Co  Co13  1  0.126092  0.482279  0.500000  1
  Co  Co14  1  0.355233  0.870649  0.500000  1
  Co  Co15  1  0.516079  0.643297  0.500000  1
  Co  Co16  1  0.647071  0.522762  0.500000  1
  Co  Co17  1  0.873081  0.356274  0.500000  1
  Co  Co18  1  0.480678  0.121347  0.500000  1
  Co  Co19  1  0.004486  0.000355  0.000000  1
  Co  Co20  1  0.720216  0.999804  0.500000  1
  Co  Co21  1  0.001085  0.724395  0.500000  1
  Co  Co22  1  0.624512  0.821046  0.000000  1
  Co  Co23  1  0.273501  0.277152  0.500000  1
  Si  Si24  1  0.654491  0.654212  0.000000  1
  Si  Si25  1  0.347948  0.999891  0.000000  1
  Si  Si26  1  0.998755  0.346074  0.000000  1
  Si  Si27  1  0.482051  0.305786  0.500000  1
  Si  Si28  1  0.823799  0.000013  0.000000  1
  P  P29  1  0.692504  0.174297  0.500000  1
  P  P30  1  0.825209  0.519453  0.500000  1
  P  P31  1  0.518627  0.824268  0.500000  1
  P  P32  1  0.174515  0.692737  0.500000  1
  P  P33  1  0.001747  0.824251  0.000000  1
  P  P34  1  0.305839  0.481230  0.500000  1
  P  P35  1  0.177305  0.177960  0.000000  1
