# generated using pymatgen
data_YTmFe8Co4P7
_symmetry_space_group_name_H-M   'P 1'
_cell_length_a   8.95821705
_cell_length_b   8.95294394
_cell_length_c   3.60728700
_cell_angle_alpha   90.00000000
_cell_angle_beta   90.00000000
_cell_angle_gamma   120.00789644
_symmetry_Int_Tables_number   1
_chemical_formula_structural   YTmFe8Co4P7
_chemical_formula_sum   'Y1 Tm1 Fe8 Co4 P7'
_cell_volume   250.53258083
_cell_formula_units_Z   1
loop_
 _symmetry_equiv_pos_site_id
 _symmetry_equiv_pos_as_xyz
  1  'x, y, z'
loop_
 _atom_site_type_symbol
 _atom_site_label
 _atom_site_symmetry_multiplicity
 _atom_site_fract_x
 _atom_site_fract_y
 _atom_site_fract_z
 _atom_site_occupancy
  Y  Y0  1  0.000689  0.000196  0.500000  1
  Tm  Tm1  1  0.332760  0.666457  0.000000  1
  Fe  Fe2  1  0.235571  0.277431  0.000000  1
  Fe  Fe3  1  0.041579  0.764633  0.000000  1
  Fe  Fe4  1  0.939231  0.452097  0.000000  1
  Fe  Fe5  1  0.512591  0.059287  0.000000  1
  Fe  Fe6  1  0.547040  0.488073  0.000000  1
  Fe  Fe7  1  0.768044  0.204620  0.500000  1
  Fe  Fe8  1  0.441576  0.234016  0.500000  1
  Fe  Fe9  1  0.791856  0.559723  0.500000  1
  Co  Co10  1  0.724158  0.958271  0.000000  1
  Co  Co11  1  0.102759  0.387694  0.500000  1
  Co  Co12  1  0.283580  0.896998  0.500000  1
  Co  Co13  1  0.613485  0.717329  0.500000  1
  P  P14  1  0.962545  0.221542  0.000000  1
  P  P15  1  0.259668  0.040004  0.000000  1
  P  P16  1  0.781202  0.739570  0.000000  1
  P  P17  1  0.067413  0.623670  0.500000  1
  P  P18  1  0.552355  0.930899  0.500000  1
  P  P19  1  0.376187  0.444553  0.500000  1
  P  P20  1  0.665714  0.332931  0.000000  1
