# generated using pymatgen
data_TbDyIr2O7
_symmetry_space_group_name_H-M   'P 1'
_cell_length_a   7.25517675
_cell_length_b   7.25517606
_cell_length_c   7.24285000
_cell_angle_alpha   60.05618434
_cell_angle_beta   60.05618749
_cell_angle_gamma   60.10629912
_symmetry_Int_Tables_number   1
_chemical_formula_structural   TbDyIr2O7
_chemical_formula_sum   'Tb2 Dy2 Ir4 O14'
_cell_volume   270.02689330
_cell_formula_units_Z   2
loop_
 _symmetry_equiv_pos_site_id
 _symmetry_equiv_pos_as_xyz
  1  'x, y, z'
loop_
 _atom_site_type_symbol
 _atom_site_label
 _atom_site_symmetry_multiplicity
 _atom_site_fract_x
 _atom_site_fract_y
 _atom_site_fract_z
 _atom_site_occupancy
  Tb  Tb0  1  0.625000  0.125000  0.125000  1
  Tb  Tb1  1  0.125000  0.625000  0.125000  1
  Dy  Dy2  1  0.125000  0.125000  0.625000  1
  Dy  Dy3  1  0.125000  0.125000  0.125000  1
  Ir  Ir4  1  0.125000  0.625000  0.625000  1
  Ir  Ir5  1  0.625000  0.125000  0.625000  1
  Ir  Ir6  1  0.625000  0.625000  0.125000  1
  Ir  Ir7  1  0.625000  0.625000  0.625000  1
  O  O8  1  0.712678  0.712678  0.287322  1
  O  O9  1  0.288279  0.288279  0.711721  1
  O  O10  1  0.713842  0.287889  0.710505  1
  O  O11  1  0.287889  0.713842  0.287763  1
  O  O12  1  0.287889  0.713842  0.710505  1
  O  O13  1  0.713842  0.287889  0.287763  1
  O  O14  1  0.537322  0.537322  0.962678  1
  O  O15  1  0.961721  0.961721  0.538279  1
  O  O16  1  0.536158  0.962111  0.539495  1
  O  O17  1  0.962111  0.536158  0.962237  1
  O  O18  1  0.962111  0.536158  0.539495  1
  O  O19  1  0.536158  0.962111  0.962237  1
  O  O20  1  0.249418  0.249418  0.250582  1
  O  O21  1  0.000582  0.000582  0.999418  1
