# generated using pymatgen
data_CeDy7(P7Ir8)2
_symmetry_space_group_name_H-M   'P 1'
_cell_length_a   3.95169200
_cell_length_b   12.68250805
_cell_length_c   13.08847974
_cell_angle_alpha   81.24411862
_cell_angle_beta   90.00000000
_cell_angle_gamma   90.00000000
_symmetry_Int_Tables_number   1
_chemical_formula_structural   CeDy7(P7Ir8)2
_chemical_formula_sum   'Ce1 Dy7 P14 Ir16'
_cell_volume   648.31549296
_cell_formula_units_Z   1
loop_
 _symmetry_equiv_pos_site_id
 _symmetry_equiv_pos_as_xyz
  1  'x, y, z'
loop_
 _atom_site_type_symbol
 _atom_site_label
 _atom_site_symmetry_multiplicity
 _atom_site_fract_x
 _atom_site_fract_y
 _atom_site_fract_z
 _atom_site_occupancy
  Ce  Ce0  1  0.250000  0.108195  0.787228  1
  Dy  Dy1  1  0.750000  0.897649  0.212108  1
  Dy  Dy2  1  0.250000  0.277449  0.101345  1
  Dy  Dy3  1  0.750000  0.720503  0.897882  1
  Dy  Dy4  1  0.250000  0.520559  0.292875  1
  Dy  Dy5  1  0.750000  0.479978  0.706492  1
  Dy  Dy6  1  0.250000  0.207857  0.440279  1
  Dy  Dy7  1  0.750000  0.792397  0.559988  1
  P  P8  1  0.250000  0.050966  0.102658  1
  P  P9  1  0.750000  0.945708  0.900801  1
  P  P10  1  0.250000  0.314920  0.687203  1
  P  P11  1  0.750000  0.688736  0.310848  1
  P  P12  1  0.250000  0.608031  0.566224  1
  P  P13  1  0.750000  0.392525  0.431734  1
  P  P14  1  0.250000  0.840909  0.718588  1
  P  P15  1  0.750000  0.157653  0.282725  1
  P  P16  1  0.750000  0.253415  0.917949  1
  P  P17  1  0.250000  0.742729  0.080733  1
  P  P18  1  0.750000  0.093344  0.589411  1
  P  P19  1  0.250000  0.906961  0.412903  1
  P  P20  1  0.750000  0.473599  0.128350  1
  P  P21  1  0.250000  0.526747  0.871073  1
  Ir  Ir22  1  0.250000  0.990075  0.578129  1
  Ir  Ir23  1  0.750000  0.010108  0.425562  1
  Ir  Ir24  1  0.250000  0.660461  0.730908  1
  Ir  Ir25  1  0.750000  0.338565  0.266794  1
  Ir  Ir26  1  0.250000  0.554088  0.046251  1
  Ir  Ir27  1  0.750000  0.448578  0.952431  1
  Ir  Ir28  1  0.250000  0.060115  0.275591  1
  Ir  Ir29  1  0.750000  0.936682  0.727448  1
  Ir  Ir30  1  0.250000  0.423828  0.522655  1
  Ir  Ir31  1  0.750000  0.578682  0.475527  1
  Ir  Ir32  1  0.250000  0.914561  0.997288  1
  Ir  Ir33  1  0.750000  0.081410  0.005228  1
  Ir  Ir34  1  0.250000  0.729287  0.395723  1
  Ir  Ir35  1  0.750000  0.272363  0.600376  1
  Ir  Ir36  1  0.250000  0.340260  0.859177  1
  Ir  Ir37  1  0.750000  0.660106  0.141516  1
