# generated using pymatgen
data_Ca20Si11I
_symmetry_space_group_name_H-M   'P 1'
_cell_length_a   7.67803100
_cell_length_b   7.67803100
_cell_length_c   14.82682900
_cell_angle_alpha   90.00000000
_cell_angle_beta   90.00000000
_cell_angle_gamma   90.00000000
_symmetry_Int_Tables_number   1
_chemical_formula_structural   Ca20Si11I
_chemical_formula_sum   'Ca20 Si11 I1'
_cell_volume   874.07359605
_cell_formula_units_Z   1
loop_
 _symmetry_equiv_pos_site_id
 _symmetry_equiv_pos_as_xyz
  1  'x, y, z'
loop_
 _atom_site_type_symbol
 _atom_site_label
 _atom_site_symmetry_multiplicity
 _atom_site_fract_x
 _atom_site_fract_y
 _atom_site_fract_z
 _atom_site_occupancy
  Ca  Ca0  1  0.341083  0.688398  0.113701  1
  Ca  Ca1  1  0.188398  0.158917  0.113701  1
  Ca  Ca2  1  0.500000  0.000000  0.729966  1
  Ca  Ca3  1  0.324299  0.675743  0.394404  1
  Ca  Ca4  1  0.656003  0.691383  0.886457  1
  Ca  Ca5  1  0.175743  0.175701  0.394404  1
  Ca  Ca6  1  0.675701  0.324257  0.394404  1
  Ca  Ca7  1  0.172211  0.820695  0.605611  1
  Ca  Ca8  1  0.343997  0.308617  0.886457  1
  Ca  Ca9  1  0.191383  0.843997  0.886457  1
  Ca  Ca10  1  0.500000  0.000000  0.263696  1
  Ca  Ca11  1  0.827789  0.179305  0.605611  1
  Ca  Ca12  1  0.320695  0.327789  0.605611  1
  Ca  Ca13  1  0.824257  0.824299  0.394404  1
  Ca  Ca14  1  0.808617  0.156003  0.886457  1
  Ca  Ca15  1  0.811602  0.841083  0.113701  1
  Ca  Ca16  1  0.000000  0.500000  0.264463  1
  Ca  Ca17  1  0.000000  0.500000  0.741245  1
  Ca  Ca18  1  0.658917  0.311602  0.113701  1
  Ca  Ca19  1  0.679305  0.672211  0.605611  1
  Si  Si20  1  0.111248  0.117121  0.749389  1
  Si  Si21  1  0.382879  0.611248  0.749389  1
  Si  Si22  1  0.617145  0.611149  0.250693  1
  Si  Si23  1  0.500000  0.000000  0.001881  1
  Si  Si24  1  0.111149  0.882855  0.250693  1
  Si  Si25  1  0.617121  0.388752  0.749389  1
  Si  Si26  1  0.888752  0.882879  0.749389  1
  Si  Si27  1  0.382855  0.388851  0.250693  1
  Si  Si28  1  0.888851  0.117145  0.250693  1
  Si  Si29  1  0.500000  0.000000  0.500765  1
  Si  Si30  1  0.000000  0.500000  0.498902  1
  I  I31  1  0.000000  0.500000  0.998063  1
