# generated using pymatgen
data_TbHo3Sn3Sb3Rh7
_symmetry_space_group_name_H-M   'P 1'
_cell_length_a   7.60851366
_cell_length_b   7.61036975
_cell_length_c   7.61036935
_cell_angle_alpha   109.50716510
_cell_angle_beta   109.49975913
_cell_angle_gamma   109.49975722
_symmetry_Int_Tables_number   1
_chemical_formula_structural   TbHo3Sn3Sb3Rh7
_chemical_formula_sum   'Tb1 Ho3 Sn3 Sb3 Rh7'
_cell_volume   338.83624273
_cell_formula_units_Z   1
loop_
 _symmetry_equiv_pos_site_id
 _symmetry_equiv_pos_as_xyz
  1  'x, y, z'
loop_
 _atom_site_type_symbol
 _atom_site_label
 _atom_site_symmetry_multiplicity
 _atom_site_fract_x
 _atom_site_fract_y
 _atom_site_fract_z
 _atom_site_occupancy
  Tb  Tb0  1  0.494765  0.496989  0.496989  1
  Ho  Ho1  1  0.487158  0.000033  0.000033  1
  Ho  Ho2  1  0.997774  0.503024  0.999932  1
  Ho  Ho3  1  0.997774  0.999932  0.503024  1
  Sn  Sn4  1  0.992878  0.306820  0.306820  1
  Sn  Sn5  1  0.686310  0.000293  0.693179  1
  Sn  Sn6  1  0.686310  0.693179  0.000293  1
  Sb  Sb7  1  0.995301  0.674589  0.674589  1
  Sb  Sb8  1  0.320400  0.999690  0.325362  1
  Sb  Sb9  1  0.320400  0.325362  0.999690  1
  Rh  Rh10  1  0.016805  0.999946  0.999946  1
  Rh  Rh11  1  0.502980  0.753642  0.253258  1
  Rh  Rh12  1  0.749783  0.500068  0.246408  1
  Rh  Rh13  1  0.249299  0.746804  0.499964  1
  Rh  Rh14  1  0.249299  0.499964  0.746804  1
  Rh  Rh15  1  0.502980  0.253258  0.753642  1
  Rh  Rh16  1  0.749783  0.246408  0.500068  1
