# generated using pymatgen
data_Nb3Cr3GeP2
_symmetry_space_group_name_H-M   'P 1'
_cell_length_a   6.61505400
_cell_length_b   6.61505466
_cell_length_c   3.31759500
_cell_angle_alpha   90.00000000
_cell_angle_beta   90.00000000
_cell_angle_gamma   120.00000668
_symmetry_Int_Tables_number   1
_chemical_formula_structural   Nb3Cr3GeP2
_chemical_formula_sum   'Nb3 Cr3 Ge1 P2'
_cell_volume   125.72475598
_cell_formula_units_Z   1
loop_
 _symmetry_equiv_pos_site_id
 _symmetry_equiv_pos_as_xyz
  1  'x, y, z'
loop_
 _atom_site_type_symbol
 _atom_site_label
 _atom_site_symmetry_multiplicity
 _atom_site_fract_x
 _atom_site_fract_y
 _atom_site_fract_z
 _atom_site_occupancy
  Nb  Nb0  1  0.985258  0.593023  0.500000  1
  Nb  Nb1  1  0.607765  0.014742  0.500000  1
  Nb  Nb2  1  0.406977  0.392235  0.500000  1
  Cr  Cr3  1  0.250324  0.006991  0.000000  1
  Cr  Cr4  1  0.756667  0.749676  0.000000  1
  Cr  Cr5  1  0.993009  0.243333  0.000000  1
  Ge  Ge6  1  0.333333  0.666667  0.000000  1
  P  P7  1  0.666667  0.333333  0.000000  1
  P  P8  1  0.000000  0.000000  0.500000  1
