# generated using pymatgen
data_Li4Sn2SeS5
_symmetry_space_group_name_H-M   'P 1'
_cell_length_a   7.05023830
_cell_length_b   7.04824129
_cell_length_c   7.57965420
_cell_angle_alpha   63.23312796
_cell_angle_beta   63.22515995
_cell_angle_gamma   60.13259127
_symmetry_Int_Tables_number   1
_chemical_formula_structural   Li4Sn2SeS5
_chemical_formula_sum   'Li4 Sn2 Se1 S5'
_cell_volume   278.89813189
_cell_formula_units_Z   1
loop_
 _symmetry_equiv_pos_site_id
 _symmetry_equiv_pos_as_xyz
  1  'x, y, z'
loop_
 _atom_site_type_symbol
 _atom_site_label
 _atom_site_symmetry_multiplicity
 _atom_site_fract_x
 _atom_site_fract_y
 _atom_site_fract_z
 _atom_site_occupancy
  Li  Li0  1  0.375701  0.505911  0.654597  1
  Li  Li1  1  0.521318  0.379306  0.149077  1
  Li  Li2  1  0.024137  0.203076  0.635023  1
  Li  Li3  1  0.206293  0.017108  0.114354  1
  Sn  Sn4  1  0.674683  0.845422  0.653906  1
  Sn  Sn5  1  0.836604  0.681475  0.154930  1
  Se  Se6  1  0.154837  0.314219  0.248062  1
  S  S7  1  0.969601  0.824919  0.766531  1
  S  S8  1  0.818788  0.977363  0.265836  1
  S  S9  1  0.662424  0.476247  0.772847  1
  S  S10  1  0.468337  0.666724  0.275319  1
  S  S11  1  0.325819  0.146769  0.745918  1
