# generated using pymatgen
data_Tb3DyEr4(B6Ru)4
_symmetry_space_group_name_H-M   'P 1'
_cell_length_a   3.65322000
_cell_length_b   9.12489600
_cell_length_c   11.50912100
_cell_angle_alpha   89.99981123
_cell_angle_beta   90.00000000
_cell_angle_gamma   90.00000000
_symmetry_Int_Tables_number   1
_chemical_formula_structural   Tb3DyEr4(B6Ru)4
_chemical_formula_sum   'Tb3 Dy1 Er4 B24 Ru4'
_cell_volume   383.65945534
_cell_formula_units_Z   1
loop_
 _symmetry_equiv_pos_site_id
 _symmetry_equiv_pos_as_xyz
  1  'x, y, z'
loop_
 _atom_site_type_symbol
 _atom_site_label
 _atom_site_symmetry_multiplicity
 _atom_site_fract_x
 _atom_site_fract_y
 _atom_site_fract_z
 _atom_site_occupancy
  Tb  Tb0  1  0.000000  0.322159  0.414289  1
  Tb  Tb1  1  0.000000  0.677758  0.585733  1
  Tb  Tb2  1  0.000000  0.822225  0.085662  1
  Dy  Dy3  1  0.000000  0.177877  0.914363  1
  Er  Er4  1  0.000000  0.943642  0.372124  1
  Er  Er5  1  0.000000  0.056391  0.627916  1
  Er  Er6  1  0.000000  0.443564  0.127703  1
  Er  Er7  1  0.000000  0.556307  0.872231  1
  B  B8  1  0.500000  0.554432  0.432653  1
  B  B9  1  0.500000  0.445373  0.567500  1
  B  B10  1  0.500000  0.054551  0.067090  1
  B  B11  1  0.500000  0.945716  0.932641  1
  B  B12  1  0.500000  0.748832  0.419147  1
  B  B13  1  0.500000  0.251132  0.581017  1
  B  B14  1  0.500000  0.248752  0.080524  1
  B  B15  1  0.500000  0.751273  0.919123  1
  B  B16  1  0.500000  0.790991  0.265901  1
  B  B17  1  0.500000  0.208812  0.734354  1
  B  B18  1  0.500000  0.290957  0.233906  1
  B  B19  1  0.500000  0.709015  0.765989  1
  B  B20  1  0.500000  0.631072  0.184721  1
  B  B21  1  0.500000  0.368626  0.815502  1
  B  B22  1  0.500000  0.131110  0.315158  1
  B  B23  1  0.500000  0.868950  0.684793  1
  B  B24  1  0.500000  0.983620  0.213001  1
  B  B25  1  0.500000  0.016702  0.787039  1
  B  B26  1  0.500000  0.483525  0.286828  1
  B  B27  1  0.500000  0.516334  0.713256  1
  B  B28  1  0.500000  0.605563  0.029017  1
  B  B29  1  0.500000  0.394023  0.970877  1
  B  B30  1  0.500000  0.105421  0.471024  1
  B  B31  1  0.500000  0.894589  0.529005  1
  Ru  Ru32  1  0.000000  0.638322  0.320598  1
  Ru  Ru33  1  0.000000  0.361919  0.679662  1
  Ru  Ru34  1  0.000000  0.138168  0.179033  1
  Ru  Ru35  1  0.000000  0.862298  0.820615  1
