# generated using pymatgen
data_Th6Cd23As
_symmetry_space_group_name_H-M   'P 1'
_cell_length_a   10.07066995
_cell_length_b   10.07066949
_cell_length_c   10.07067000
_cell_angle_alpha   59.99999831
_cell_angle_beta   59.99999985
_cell_angle_gamma   59.99999836
_symmetry_Int_Tables_number   1
_chemical_formula_structural   Th6Cd23As
_chemical_formula_sum   'Th6 Cd23 As1'
_cell_volume   722.20428655
_cell_formula_units_Z   1
loop_
 _symmetry_equiv_pos_site_id
 _symmetry_equiv_pos_as_xyz
  1  'x, y, z'
loop_
 _atom_site_type_symbol
 _atom_site_label
 _atom_site_symmetry_multiplicity
 _atom_site_fract_x
 _atom_site_fract_y
 _atom_site_fract_z
 _atom_site_occupancy
  Th  Th0  1  0.793555  0.793555  0.206445  1
  Th  Th1  1  0.206445  0.793555  0.206445  1
  Th  Th2  1  0.793555  0.206445  0.206445  1
  Th  Th3  1  0.206445  0.206445  0.793555  1
  Th  Th4  1  0.793555  0.206445  0.793555  1
  Th  Th5  1  0.206445  0.793555  0.793555  1
  Cd  Cd6  1  0.834597  0.834597  0.496212  1
  Cd  Cd7  1  0.834597  0.496212  0.834597  1
  Cd  Cd8  1  0.496212  0.834597  0.834597  1
  Cd  Cd9  1  0.834597  0.834597  0.834597  1
  Cd  Cd10  1  0.165403  0.165403  0.503788  1
  Cd  Cd11  1  0.165403  0.503788  0.165403  1
  Cd  Cd12  1  0.503788  0.165403  0.165403  1
  Cd  Cd13  1  0.165403  0.165403  0.165403  1
  Cd  Cd14  1  0.621422  0.621422  0.135735  1
  Cd  Cd15  1  0.621422  0.135735  0.621422  1
  Cd  Cd16  1  0.135735  0.621422  0.621422  1
  Cd  Cd17  1  0.621422  0.621422  0.621422  1
  Cd  Cd18  1  0.378578  0.378578  0.864265  1
  Cd  Cd19  1  0.378578  0.864265  0.378578  1
  Cd  Cd20  1  0.864265  0.378578  0.378578  1
  Cd  Cd21  1  0.378578  0.378578  0.378578  1
  Cd  Cd22  1  0.000000  0.000000  0.500000  1
  Cd  Cd23  1  0.500000  0.000000  0.500000  1
  Cd  Cd24  1  0.000000  0.500000  0.500000  1
  Cd  Cd25  1  0.500000  0.500000  0.000000  1
  Cd  Cd26  1  0.000000  0.500000  0.000000  1
  Cd  Cd27  1  0.500000  0.000000  0.000000  1
  Cd  Cd28  1  0.500000  0.500000  0.500000  1
  As  As29  1  0.000000  0.000000  0.000000  1
