# generated using pymatgen
data_Ho2Zn19Cu3
_symmetry_space_group_name_H-M   'P 1'
_cell_length_a   6.71582849
_cell_length_b   8.15243882
_cell_length_c   8.15241701
_cell_angle_alpha   99.84214748
_cell_angle_beta   65.66945512
_cell_angle_gamma   114.33069408
_symmetry_Int_Tables_number   1
_chemical_formula_structural   Ho2Zn19Cu3
_chemical_formula_sum   'Ho2 Zn19 Cu3'
_cell_volume   370.58217100
_cell_formula_units_Z   1
loop_
 _symmetry_equiv_pos_site_id
 _symmetry_equiv_pos_as_xyz
  1  'x, y, z'
loop_
 _atom_site_type_symbol
 _atom_site_label
 _atom_site_symmetry_multiplicity
 _atom_site_fract_x
 _atom_site_fract_y
 _atom_site_fract_z
 _atom_site_occupancy
  Ho  Ho0  1  0.998383  0.998703  0.001295  1
  Ho  Ho1  1  0.751610  0.501291  0.498710  1
  Zn  Zn2  1  0.501049  0.003719  0.996283  1
  Zn  Zn3  1  0.100204  0.675322  0.080650  1
  Zn  Zn4  1  0.814965  0.323627  0.081972  1
  Zn  Zn5  1  0.649799  0.580650  0.175316  1
  Zn  Zn6  1  0.174180  0.410937  0.172330  1
  Zn  Zn7  1  0.374972  0.749996  0.250003  1
  Zn  Zn8  1  0.575822  0.089058  0.327669  1
  Zn  Zn9  1  0.100206  0.919352  0.324678  1
  Zn  Zn10  1  0.935040  0.176363  0.418027  1
  Zn  Zn11  1  0.649802  0.824685  0.419348  1
  Zn  Zn12  1  0.248942  0.496292  0.503706  1
  Zn  Zn13  1  0.239531  0.174939  0.584074  1
  Zn  Zn14  1  0.174180  0.827670  0.589062  1
  Zn  Zn15  1  0.510471  0.084062  0.674935  1
  Zn  Zn16  1  0.814964  0.918028  0.676372  1
  Zn  Zn17  1  0.239530  0.415925  0.825062  1
  Zn  Zn18  1  0.935040  0.581972  0.823638  1
  Zn  Zn19  1  0.575823  0.672331  0.910942  1
  Zn  Zn20  1  0.510472  0.325065  0.915940  1
  Cu  Cu21  1  0.375004  0.250002  0.249997  1
  Cu  Cu22  1  0.375005  0.750001  0.749997  1
  Cu  Cu23  1  0.875013  0.250008  0.749992  1
