# generated using pymatgen
data_Zr7Ta3Si6N
_symmetry_space_group_name_H-M   'P 1'
_cell_length_a   7.86958900
_cell_length_b   7.86958876
_cell_length_c   5.43847700
_cell_angle_alpha   90.00000000
_cell_angle_beta   90.00000000
_cell_angle_gamma   119.99999682
_symmetry_Int_Tables_number   1
_chemical_formula_structural   Zr7Ta3Si6N
_chemical_formula_sum   'Zr7 Ta3 Si6 N1'
_cell_volume   291.68361318
_cell_formula_units_Z   1
loop_
 _symmetry_equiv_pos_site_id
 _symmetry_equiv_pos_as_xyz
  1  'x, y, z'
loop_
 _atom_site_type_symbol
 _atom_site_label
 _atom_site_symmetry_multiplicity
 _atom_site_fract_x
 _atom_site_fract_y
 _atom_site_fract_z
 _atom_site_occupancy
  Zr  Zr0  1  0.999222  0.756916  0.256603  1
  Zr  Zr1  1  0.243084  0.242309  0.256603  1
  Zr  Zr2  1  0.757691  0.000778  0.256603  1
  Zr  Zr3  1  0.999222  0.242309  0.743397  1
  Zr  Zr4  1  0.757691  0.756916  0.743397  1
  Zr  Zr5  1  0.243084  0.000778  0.743397  1
  Zr  Zr6  1  0.333333  0.666667  0.000000  1
  Ta  Ta7  1  0.666667  0.333333  0.000000  1
  Ta  Ta8  1  0.666667  0.333333  0.500000  1
  Ta  Ta9  1  0.333333  0.666667  0.500000  1
  Si  Si10  1  0.996402  0.399577  0.250207  1
  Si  Si11  1  0.600423  0.596825  0.250207  1
  Si  Si12  1  0.403175  0.003598  0.250207  1
  Si  Si13  1  0.996402  0.596825  0.749793  1
  Si  Si14  1  0.403175  0.399577  0.749793  1
  Si  Si15  1  0.600423  0.003598  0.749793  1
  N  N16  1  0.000000  0.000000  0.500000  1
