# generated using pymatgen
data_Cs2Te3PtO12
_symmetry_space_group_name_H-M   'P 1'
_cell_length_a   7.23019707
_cell_length_b   7.23019725
_cell_length_c   7.23019770
_cell_angle_alpha   61.36057640
_cell_angle_beta   61.36057145
_cell_angle_gamma   61.36056991
_symmetry_Int_Tables_number   1
_chemical_formula_structural   Cs2Te3PtO12
_chemical_formula_sum   'Cs2 Te3 Pt1 O12'
_cell_volume   275.43137199
_cell_formula_units_Z   1
loop_
 _symmetry_equiv_pos_site_id
 _symmetry_equiv_pos_as_xyz
  1  'x, y, z'
loop_
 _atom_site_type_symbol
 _atom_site_label
 _atom_site_symmetry_multiplicity
 _atom_site_fract_x
 _atom_site_fract_y
 _atom_site_fract_z
 _atom_site_occupancy
  Cs  Cs0  1  0.374484  0.374484  0.374484  1
  Cs  Cs1  1  0.625516  0.625516  0.625516  1
  Te  Te2  1  0.500000  0.000000  0.000000  1
  Te  Te3  1  0.000000  0.000000  0.500000  1
  Te  Te4  1  0.000000  0.500000  0.000000  1
  Pt  Pt5  1  0.000000  0.000000  0.000000  1
  O  O6  1  0.928947  0.320467  0.320467  1
  O  O7  1  0.332496  0.921816  0.921816  1
  O  O8  1  0.320467  0.320467  0.928947  1
  O  O9  1  0.921816  0.921816  0.332496  1
  O  O10  1  0.921816  0.332496  0.921816  1
  O  O11  1  0.320467  0.928947  0.320467  1
  O  O12  1  0.071053  0.679533  0.679533  1
  O  O13  1  0.667504  0.078184  0.078184  1
  O  O14  1  0.679533  0.679533  0.071053  1
  O  O15  1  0.078184  0.078184  0.667504  1
  O  O16  1  0.078184  0.667504  0.078184  1
  O  O17  1  0.679533  0.071053  0.679533  1
