# generated using pymatgen
data_Tm3Si2GeRu2
_symmetry_space_group_name_H-M   'P 1'
_cell_length_a   5.69378950
_cell_length_b   5.69378934
_cell_length_c   13.75608700
_cell_angle_alpha   90.00000000
_cell_angle_beta   90.00000000
_cell_angle_gamma   137.23815131
_symmetry_Int_Tables_number   1
_chemical_formula_structural   Tm3Si2GeRu2
_chemical_formula_sum   'Tm6 Si4 Ge2 Ru4'
_cell_volume   302.78695748
_cell_formula_units_Z   2
loop_
 _symmetry_equiv_pos_site_id
 _symmetry_equiv_pos_as_xyz
  1  'x, y, z'
loop_
 _atom_site_type_symbol
 _atom_site_label
 _atom_site_symmetry_multiplicity
 _atom_site_fract_x
 _atom_site_fract_y
 _atom_site_fract_z
 _atom_site_occupancy
  Tm  Tm0  1  0.924997  0.075003  0.387497  1
  Tm  Tm1  1  0.075003  0.924997  0.612503  1
  Tm  Tm2  1  0.924997  0.075003  0.112503  1
  Tm  Tm3  1  0.075003  0.924997  0.887497  1
  Tm  Tm4  1  0.645517  0.354483  0.250000  1
  Tm  Tm5  1  0.354483  0.645517  0.750000  1
  Si  Si6  1  0.615502  0.384498  0.461264  1
  Si  Si7  1  0.384498  0.615502  0.538736  1
  Si  Si8  1  0.615502  0.384498  0.038736  1
  Si  Si9  1  0.384498  0.615502  0.961264  1
  Ge  Ge10  1  0.339621  0.660379  0.250000  1
  Ge  Ge11  1  0.660379  0.339621  0.750000  1
  Ru  Ru12  1  0.788582  0.211418  0.920002  1
  Ru  Ru13  1  0.211418  0.788582  0.079998  1
  Ru  Ru14  1  0.788582  0.211418  0.579998  1
  Ru  Ru15  1  0.211418  0.788582  0.420002  1
