# generated using pymatgen
data_Tb5Dy3(ErRu2)2
_symmetry_space_group_name_H-M   'P 1'
_cell_length_a   6.35644708
_cell_length_b   7.27431102
_cell_length_c   8.49654403
_cell_angle_alpha   96.66308648
_cell_angle_beta   111.98800891
_cell_angle_gamma   89.96715232
_symmetry_Int_Tables_number   1
_chemical_formula_structural   Tb5Dy3(ErRu2)2
_chemical_formula_sum   'Tb5 Dy3 Er2 Ru4'
_cell_volume   361.44052589
_cell_formula_units_Z   1
loop_
 _symmetry_equiv_pos_site_id
 _symmetry_equiv_pos_as_xyz
  1  'x, y, z'
loop_
 _atom_site_type_symbol
 _atom_site_label
 _atom_site_symmetry_multiplicity
 _atom_site_fract_x
 _atom_site_fract_y
 _atom_site_fract_z
 _atom_site_occupancy
  Tb  Tb0  1  0.792017  0.584285  0.814170  1
  Tb  Tb1  1  0.977659  0.915690  0.185794  1
  Tb  Tb2  1  0.208042  0.415658  0.185817  1
  Tb  Tb3  1  0.022280  0.084362  0.814203  1
  Tb  Tb4  1  0.206750  0.685008  0.566857  1
  Dy  Dy5  1  0.639941  0.815091  0.433122  1
  Dy  Dy6  1  0.793198  0.314989  0.433078  1
  Dy  Dy7  1  0.360085  0.184910  0.566824  1
  Er  Er8  1  0.421336  0.749964  0.000083  1
  Er  Er9  1  0.578745  0.250079  0.000061  1
  Ru  Ru10  1  0.603221  0.924483  0.780682  1
  Ru  Ru11  1  0.822384  0.575699  0.219224  1
  Ru  Ru12  1  0.396841  0.075557  0.219355  1
  Ru  Ru13  1  0.177503  0.424227  0.780731  1
