# generated using pymatgen
data_Er20IrOsPt10
_symmetry_space_group_name_H-M   'P 1'
_cell_length_a   10.91785100
_cell_length_b   10.91785100
_cell_length_c   6.38492400
_cell_angle_alpha   90.00000000
_cell_angle_beta   90.00000000
_cell_angle_gamma   90.00000000
_symmetry_Int_Tables_number   1
_chemical_formula_structural   Er20IrOsPt10
_chemical_formula_sum   'Er20 Ir1 Os1 Pt10'
_cell_volume   761.07955972
_cell_formula_units_Z   1
loop_
 _symmetry_equiv_pos_site_id
 _symmetry_equiv_pos_as_xyz
  1  'x, y, z'
loop_
 _atom_site_type_symbol
 _atom_site_label
 _atom_site_symmetry_multiplicity
 _atom_site_fract_x
 _atom_site_fract_y
 _atom_site_fract_z
 _atom_site_occupancy
  Er  Er0  1  0.292142  0.088354  0.375873  1
  Er  Er1  1  0.292248  0.911957  0.876072  1
  Er  Er2  1  0.707752  0.088043  0.876072  1
  Er  Er3  1  0.707858  0.911646  0.375873  1
  Er  Er4  1  0.588043  0.792248  0.876072  1
  Er  Er5  1  0.588354  0.207858  0.375873  1
  Er  Er6  1  0.411646  0.792142  0.375873  1
  Er  Er7  1  0.411957  0.207752  0.876072  1
  Er  Er8  1  0.203817  0.413188  0.627171  1
  Er  Er9  1  0.203428  0.586707  0.123239  1
  Er  Er10  1  0.796572  0.413293  0.123239  1
  Er  Er11  1  0.796183  0.586812  0.627171  1
  Er  Er12  1  0.913293  0.703428  0.123239  1
  Er  Er13  1  0.913188  0.296183  0.627171  1
  Er  Er14  1  0.086812  0.703817  0.627171  1
  Er  Er15  1  0.086707  0.296572  0.123239  1
  Er  Er16  1  0.000000  0.000000  0.501085  1
  Er  Er17  1  0.000000  0.000000  0.001122  1
  Er  Er18  1  0.500000  0.500000  0.001122  1
  Er  Er19  1  0.500000  0.500000  0.501085  1
  Ir  Ir20  1  0.000000  0.500000  0.378193  1
  Os  Os21  1  0.000000  0.500000  0.875988  1
  Pt  Pt22  1  0.845645  0.152574  0.249824  1
  Pt  Pt23  1  0.845530  0.847476  0.749726  1
  Pt  Pt24  1  0.154470  0.152524  0.749726  1
  Pt  Pt25  1  0.154355  0.847426  0.249824  1
  Pt  Pt26  1  0.652524  0.345530  0.749726  1
  Pt  Pt27  1  0.652574  0.654355  0.249824  1
  Pt  Pt28  1  0.347426  0.345645  0.249824  1
  Pt  Pt29  1  0.347476  0.654470  0.749726  1
  Pt  Pt30  1  0.500000  0.000000  0.117000  1
  Pt  Pt31  1  0.500000  0.000000  0.616771  1
