# generated using pymatgen
data_CaHo6Sn23Rh6
_symmetry_space_group_name_H-M   'P 1'
_cell_length_a   9.87194300
_cell_length_b   9.87194188
_cell_length_c   10.08130000
_cell_angle_alpha   90.00000000
_cell_angle_beta   90.00000000
_cell_angle_gamma   119.99999369
_symmetry_Int_Tables_number   1
_chemical_formula_structural   CaHo6Sn23Rh6
_chemical_formula_sum   'Ca1 Ho6 Sn23 Rh6'
_cell_volume   850.84887141
_cell_formula_units_Z   1
loop_
 _symmetry_equiv_pos_site_id
 _symmetry_equiv_pos_as_xyz
  1  'x, y, z'
loop_
 _atom_site_type_symbol
 _atom_site_label
 _atom_site_symmetry_multiplicity
 _atom_site_fract_x
 _atom_site_fract_y
 _atom_site_fract_z
 _atom_site_occupancy
  Ca  Ca0  1  0.000000  0.000000  0.000000  1
  Ho  Ho1  1  0.518987  0.481013  0.692356  1
  Ho  Ho2  1  0.518987  0.037974  0.692356  1
  Ho  Ho3  1  0.962026  0.481013  0.692356  1
  Ho  Ho4  1  0.037974  0.518987  0.307644  1
  Ho  Ho5  1  0.481013  0.962026  0.307644  1
  Ho  Ho6  1  0.481013  0.518987  0.307644  1
  Sn  Sn7  1  0.666667  0.333333  0.182289  1
  Sn  Sn8  1  0.666667  0.333333  0.874337  1
  Sn  Sn9  1  0.333333  0.666667  0.125663  1
  Sn  Sn10  1  0.351499  0.351499  0.000000  1
  Sn  Sn11  1  0.000000  0.648501  0.000000  1
  Sn  Sn12  1  0.648501  0.000000  0.000000  1
  Sn  Sn13  1  0.648501  0.648501  0.000000  1
  Sn  Sn14  1  0.333333  0.666667  0.817711  1
  Sn  Sn15  1  0.443350  0.221676  0.458011  1
  Sn  Sn16  1  0.221676  0.778324  0.541989  1
  Sn  Sn17  1  0.221676  0.443350  0.541989  1
  Sn  Sn18  1  0.556650  0.778324  0.541989  1
  Sn  Sn19  1  0.119431  0.880569  0.280923  1
  Sn  Sn20  1  0.778324  0.556650  0.458011  1
  Sn  Sn21  1  0.778324  0.221676  0.458011  1
  Sn  Sn22  1  0.351499  0.000000  0.000000  1
  Sn  Sn23  1  0.119431  0.238864  0.280923  1
  Sn  Sn24  1  0.761136  0.880569  0.280923  1
  Sn  Sn25  1  0.238864  0.119431  0.719077  1
  Sn  Sn26  1  0.880569  0.761136  0.719077  1
  Sn  Sn27  1  0.880569  0.119431  0.719077  1
  Sn  Sn28  1  0.000000  0.000000  0.500000  1
  Sn  Sn29  1  0.000000  0.351499  0.000000  1
  Rh  Rh30  1  0.170123  0.829877  0.799233  1
  Rh  Rh31  1  0.170123  0.340245  0.799233  1
  Rh  Rh32  1  0.659755  0.829877  0.799233  1
  Rh  Rh33  1  0.340245  0.170123  0.200767  1
  Rh  Rh34  1  0.829877  0.659755  0.200767  1
  Rh  Rh35  1  0.829877  0.170123  0.200767  1
