# generated using pymatgen
data_Np2BeSi3
_symmetry_space_group_name_H-M   'P 1'
_cell_length_a   4.03693678
_cell_length_b   3.84053055
_cell_length_c   7.35812358
_cell_angle_alpha   105.12774614
_cell_angle_beta   105.92140160
_cell_angle_gamma   89.99999575
_symmetry_Int_Tables_number   1
_chemical_formula_structural   Np2BeSi3
_chemical_formula_sum   'Np2 Be1 Si3'
_cell_volume   105.58693619
_cell_formula_units_Z   1
loop_
 _symmetry_equiv_pos_site_id
 _symmetry_equiv_pos_as_xyz
  1  'x, y, z'
loop_
 _atom_site_type_symbol
 _atom_site_label
 _atom_site_symmetry_multiplicity
 _atom_site_fract_x
 _atom_site_fract_y
 _atom_site_fract_z
 _atom_site_occupancy
  Np  Np0  1  0.000064  0.000064  0.000129  1
  Np  Np1  1  0.248746  0.748747  0.497493  1
  Be  Be2  1  0.583851  0.583851  0.167702  1
  Si  Si3  1  0.660858  0.160858  0.321714  1
  Si  Si4  1  0.832962  0.332961  0.665923  1
  Si  Si5  1  0.423520  0.423520  0.847040  1
