# generated using pymatgen
data_Nb6Fe15Si7Tc
_symmetry_space_group_name_H-M   'P 1'
_cell_length_a   8.00376510
_cell_length_b   7.97323403
_cell_length_c   7.97323300
_cell_angle_alpha   60.00000012
_cell_angle_beta   60.12610565
_cell_angle_gamma   60.12610732
_symmetry_Int_Tables_number   1
_chemical_formula_structural   Nb6Fe15Si7Tc
_chemical_formula_sum   'Nb6 Fe15 Si7 Tc1'
_cell_volume   360.47361956
_cell_formula_units_Z   1
loop_
 _symmetry_equiv_pos_site_id
 _symmetry_equiv_pos_as_xyz
  1  'x, y, z'
loop_
 _atom_site_type_symbol
 _atom_site_label
 _atom_site_symmetry_multiplicity
 _atom_site_fract_x
 _atom_site_fract_y
 _atom_site_fract_z
 _atom_site_occupancy
  Nb  Nb0  1  0.797954  0.200213  0.801620  1
  Nb  Nb1  1  0.797954  0.801620  0.200213  1
  Nb  Nb2  1  0.206241  0.795848  0.202062  1
  Nb  Nb3  1  0.206241  0.202062  0.795848  1
  Nb  Nb4  1  0.206241  0.795848  0.795848  1
  Nb  Nb5  1  0.797954  0.200213  0.200213  1
  Fe  Fe6  1  0.617349  0.620613  0.141424  1
  Fe  Fe7  1  0.381619  0.378654  0.861073  1
  Fe  Fe8  1  0.824854  0.520380  0.827383  1
  Fe  Fe9  1  0.824854  0.827383  0.827383  1
  Fe  Fe10  1  0.824854  0.827383  0.520380  1
  Fe  Fe11  1  0.381619  0.378654  0.378654  1
  Fe  Fe12  1  0.136845  0.621052  0.621052  1
  Fe  Fe13  1  0.617349  0.620613  0.620613  1
  Fe  Fe14  1  0.175698  0.171988  0.171988  1
  Fe  Fe15  1  0.175698  0.480326  0.171988  1
  Fe  Fe16  1  0.520743  0.826419  0.826419  1
  Fe  Fe17  1  0.617349  0.141424  0.620613  1
  Fe  Fe18  1  0.175698  0.171988  0.480326  1
  Fe  Fe19  1  0.381619  0.861073  0.378654  1
  Fe  Fe20  1  0.477452  0.174183  0.174183  1
  Si  Si21  1  0.500706  0.999803  0.999803  1
  Si  Si22  1  0.005434  0.501493  0.991579  1
  Si  Si23  1  0.500706  0.499689  0.999803  1
  Si  Si24  1  0.482218  0.505928  0.505928  1
  Si  Si25  1  0.005434  0.501493  0.501493  1
  Si  Si26  1  0.005434  0.991579  0.501493  1
  Si  Si27  1  0.500706  0.999803  0.499689  1
  Tc  Tc28  1  0.853171  0.382276  0.382276  1
