# generated using pymatgen
data_Ho3InSn3Ru2
_symmetry_space_group_name_H-M   'P 1'
_cell_length_a   7.74462100
_cell_length_b   7.74461929
_cell_length_c   3.89467000
_cell_angle_alpha   90.00000000
_cell_angle_beta   90.00000000
_cell_angle_gamma   119.99999334
_symmetry_Int_Tables_number   1
_chemical_formula_structural   Ho3InSn3Ru2
_chemical_formula_sum   'Ho3 In1 Sn3 Ru2'
_cell_volume   202.30264887
_cell_formula_units_Z   1
loop_
 _symmetry_equiv_pos_site_id
 _symmetry_equiv_pos_as_xyz
  1  'x, y, z'
loop_
 _atom_site_type_symbol
 _atom_site_label
 _atom_site_symmetry_multiplicity
 _atom_site_fract_x
 _atom_site_fract_y
 _atom_site_fract_z
 _atom_site_occupancy
  Ho  Ho0  1  0.384624  0.416775  0.500000  1
  Ho  Ho1  1  0.583225  0.967849  0.500000  1
  Ho  Ho2  1  0.032151  0.615376  0.500000  1
  In  In3  1  0.666667  0.333333  0.000000  1
  Sn  Sn4  1  0.741637  0.751063  0.000000  1
  Sn  Sn5  1  0.248937  0.990574  0.000000  1
  Sn  Sn6  1  0.009426  0.258363  0.000000  1
  Ru  Ru7  1  0.333333  0.666667  0.000000  1
  Ru  Ru8  1  0.000000  0.000000  0.500000  1
