# generated using pymatgen
data_Tb3Ag3Rh
_symmetry_space_group_name_H-M   'P 1'
_cell_length_a   8.09127632
_cell_length_b   8.09127574
_cell_length_c   8.09127500
_cell_angle_alpha   114.09891904
_cell_angle_beta   114.09891720
_cell_angle_gamma   114.09892367
_symmetry_Int_Tables_number   1
_chemical_formula_structural   Tb3Ag3Rh
_chemical_formula_sum   'Tb6 Ag6 Rh2'
_cell_volume   319.46151125
_cell_formula_units_Z   2
loop_
 _symmetry_equiv_pos_site_id
 _symmetry_equiv_pos_as_xyz
  1  'x, y, z'
loop_
 _atom_site_type_symbol
 _atom_site_label
 _atom_site_symmetry_multiplicity
 _atom_site_fract_x
 _atom_site_fract_y
 _atom_site_fract_z
 _atom_site_occupancy
  Tb  Tb0  1  0.391217  0.046776  0.281428  1
  Tb  Tb1  1  0.046776  0.281428  0.391217  1
  Tb  Tb2  1  0.281428  0.391217  0.046776  1
  Tb  Tb3  1  0.608783  0.953224  0.718572  1
  Tb  Tb4  1  0.953224  0.718572  0.608783  1
  Tb  Tb5  1  0.718572  0.608783  0.953224  1
  Ag  Ag6  1  0.223748  0.054382  0.562241  1
  Ag  Ag7  1  0.054382  0.562241  0.223748  1
  Ag  Ag8  1  0.562241  0.223748  0.054382  1
  Ag  Ag9  1  0.776252  0.945618  0.437759  1
  Ag  Ag10  1  0.945618  0.437759  0.776252  1
  Ag  Ag11  1  0.437759  0.776252  0.945618  1
  Rh  Rh12  1  0.000000  0.000000  0.000000  1
  Rh  Rh13  1  0.500000  0.500000  0.500000  1
