# generated using pymatgen
data_SmY5Co17TcP12
_symmetry_space_group_name_H-M   'P 1'
_cell_length_a   3.70691800
_cell_length_b   10.52986700
_cell_length_c   12.22424200
_cell_angle_alpha   90.00000000
_cell_angle_beta   90.00000000
_cell_angle_gamma   90.00000000
_symmetry_Int_Tables_number   1
_chemical_formula_structural   SmY5Co17TcP12
_chemical_formula_sum   'Sm1 Y5 Co17 Tc1 P12'
_cell_volume   477.15315950
_cell_formula_units_Z   1
loop_
 _symmetry_equiv_pos_site_id
 _symmetry_equiv_pos_as_xyz
  1  'x, y, z'
loop_
 _atom_site_type_symbol
 _atom_site_label
 _atom_site_symmetry_multiplicity
 _atom_site_fract_x
 _atom_site_fract_y
 _atom_site_fract_z
 _atom_site_occupancy
  Sm  Sm0  1  0.500000  0.000000  0.477712  1
  Y  Y1  1  0.000000  0.500000  0.523808  1
  Y  Y2  1  0.500000  0.817159  0.206105  1
  Y  Y3  1  0.500000  0.182841  0.206105  1
  Y  Y4  1  0.000000  0.682941  0.795128  1
  Y  Y5  1  0.000000  0.317059  0.795128  1
  Co  Co6  1  0.000000  0.000000  0.841135  1
  Co  Co7  1  0.500000  0.500000  0.703524  1
  Co  Co8  1  0.000000  0.000000  0.294945  1
  Co  Co9  1  0.000000  0.500000  0.987561  1
  Co  Co10  1  0.500000  0.000000  0.014391  1
  Co  Co11  1  0.500000  0.332151  0.991199  1
  Co  Co12  1  0.500000  0.667849  0.991199  1
  Co  Co13  1  0.000000  0.166581  0.005647  1
  Co  Co14  1  0.000000  0.833419  0.005647  1
  Co  Co15  1  0.500000  0.297856  0.430416  1
  Co  Co16  1  0.500000  0.702144  0.430416  1
  Co  Co17  1  0.000000  0.204756  0.569405  1
  Co  Co18  1  0.000000  0.795244  0.569405  1
  Co  Co19  1  0.500000  0.879201  0.710005  1
  Co  Co20  1  0.500000  0.120799  0.710005  1
  Co  Co21  1  0.000000  0.620121  0.291322  1
  Co  Co22  1  0.000000  0.379879  0.291322  1
  Tc  Tc23  1  0.500000  0.500000  0.156418  1
  P  P24  1  0.500000  0.500000  0.881681  1
  P  P25  1  0.000000  0.000000  0.116718  1
  P  P26  1  0.500000  0.500000  0.348409  1
  P  P27  1  0.000000  0.000000  0.658142  1
  P  P28  1  0.500000  0.310927  0.616505  1
  P  P29  1  0.500000  0.689073  0.616505  1
  P  P30  1  0.000000  0.190560  0.383690  1
  P  P31  1  0.000000  0.809440  0.383690  1
  P  P32  1  0.500000  0.849382  0.892569  1
  P  P33  1  0.500000  0.150618  0.892569  1
  P  P34  1  0.000000  0.655224  0.105786  1
  P  P35  1  0.000000  0.344776  0.105786  1
