# generated using pymatgen
data_Zr6Zn16Ni7Se
_symmetry_space_group_name_H-M   'P 1'
_cell_length_a   8.57719136
_cell_length_b   8.57719153
_cell_length_c   8.57719200
_cell_angle_alpha   60.00000591
_cell_angle_beta   60.00000523
_cell_angle_gamma   60.00000416
_symmetry_Int_Tables_number   1
_chemical_formula_structural   Zr6Zn16Ni7Se
_chemical_formula_sum   'Zr6 Zn16 Ni7 Se1'
_cell_volume   446.19057430
_cell_formula_units_Z   1
loop_
 _symmetry_equiv_pos_site_id
 _symmetry_equiv_pos_as_xyz
  1  'x, y, z'
loop_
 _atom_site_type_symbol
 _atom_site_label
 _atom_site_symmetry_multiplicity
 _atom_site_fract_x
 _atom_site_fract_y
 _atom_site_fract_z
 _atom_site_occupancy
  Zr  Zr0  1  0.717070  0.282930  0.282930  1
  Zr  Zr1  1  0.282930  0.717070  0.717070  1
  Zr  Zr2  1  0.282930  0.717070  0.282930  1
  Zr  Zr3  1  0.717070  0.282930  0.717070  1
  Zr  Zr4  1  0.282930  0.282930  0.717070  1
  Zr  Zr5  1  0.717070  0.717070  0.282930  1
  Zn  Zn6  1  0.121981  0.121981  0.121981  1
  Zn  Zn7  1  0.878019  0.878019  0.878019  1
  Zn  Zn8  1  0.121981  0.121981  0.634059  1
  Zn  Zn9  1  0.121981  0.634059  0.121981  1
  Zn  Zn10  1  0.878019  0.878019  0.365941  1
  Zn  Zn11  1  0.878019  0.365941  0.878019  1
  Zn  Zn12  1  0.634059  0.121981  0.121981  1
  Zn  Zn13  1  0.365941  0.878019  0.878019  1
  Zn  Zn14  1  0.335013  0.335013  0.335013  1
  Zn  Zn15  1  0.664987  0.664987  0.664987  1
  Zn  Zn16  1  0.335013  0.335013  0.994964  1
  Zn  Zn17  1  0.335013  0.994964  0.335013  1
  Zn  Zn18  1  0.664987  0.664987  0.005036  1
  Zn  Zn19  1  0.664987  0.005036  0.664987  1
  Zn  Zn20  1  0.994964  0.335013  0.335013  1
  Zn  Zn21  1  0.005036  0.664987  0.664987  1
  Ni  Ni22  1  0.500000  0.000000  0.000000  1
  Ni  Ni23  1  0.000000  0.500000  0.500000  1
  Ni  Ni24  1  0.000000  0.500000  0.000000  1
  Ni  Ni25  1  0.500000  0.000000  0.500000  1
  Ni  Ni26  1  0.000000  0.000000  0.500000  1
  Ni  Ni27  1  0.500000  0.500000  0.000000  1
  Ni  Ni28  1  0.000000  0.000000  0.000000  1
  Se  Se29  1  0.500000  0.500000  0.500000  1
