# generated using pymatgen
data_Zr6Zn2Pd3PtN2
_symmetry_space_group_name_H-M   'P 1'
_cell_length_a   8.64219413
_cell_length_b   8.64218926
_cell_length_c   8.64584300
_cell_angle_alpha   59.98606940
_cell_angle_beta   59.98601412
_cell_angle_gamma   59.97143318
_symmetry_Int_Tables_number   1
_chemical_formula_structural   Zr6Zn2Pd3PtN2
_chemical_formula_sum   'Zr12 Zn4 Pd6 Pt2 N4'
_cell_volume   456.40949299
_cell_formula_units_Z   2
loop_
 _symmetry_equiv_pos_site_id
 _symmetry_equiv_pos_as_xyz
  1  'x, y, z'
loop_
 _atom_site_type_symbol
 _atom_site_label
 _atom_site_symmetry_multiplicity
 _atom_site_fract_x
 _atom_site_fract_y
 _atom_site_fract_z
 _atom_site_occupancy
  Zr  Zr0  1  0.811570  0.189665  0.187492  1
  Zr  Zr1  1  0.189665  0.811570  0.187491  1
  Zr  Zr2  1  0.811443  0.811443  0.188557  1
  Zr  Zr3  1  0.189665  0.811570  0.811274  1
  Zr  Zr4  1  0.811570  0.189665  0.811274  1
  Zr  Zr5  1  0.188556  0.188557  0.811443  1
  Zr  Zr6  1  0.439237  0.061674  0.060149  1
  Zr  Zr7  1  0.061674  0.439237  0.060148  1
  Zr  Zr8  1  0.440059  0.440059  0.059941  1
  Zr  Zr9  1  0.061674  0.439237  0.438940  1
  Zr  Zr10  1  0.439237  0.061675  0.438939  1
  Zr  Zr11  1  0.062030  0.062030  0.437970  1
  Zn  Zn12  1  0.624848  0.624848  0.125340  1
  Zn  Zn13  1  0.624848  0.624848  0.624964  1
  Zn  Zn14  1  0.125450  0.624729  0.624910  1
  Zn  Zn15  1  0.624729  0.125450  0.624910  1
  Pd  Pd16  1  0.413122  0.413122  0.760180  1
  Pd  Pd17  1  0.413123  0.413122  0.413574  1
  Pd  Pd18  1  0.760018  0.413023  0.413479  1
  Pd  Pd19  1  0.413023  0.760018  0.413479  1
  Pd  Pd20  1  0.836506  0.836506  0.490004  1
  Pd  Pd21  1  0.836506  0.836506  0.836984  1
  Pt  Pt22  1  0.484756  0.838023  0.838610  1
  Pt  Pt23  1  0.838023  0.484756  0.838611  1
  N  N24  1  0.124716  0.124716  0.624781  1
  N  N25  1  0.124715  0.124716  0.125788  1
  N  N26  1  0.624848  0.124385  0.125383  1
  N  N27  1  0.124385  0.624849  0.125383  1
