# generated using pymatgen
data_Ce4TlIn(CuRh)2
_symmetry_space_group_name_H-M   'P 1'
_cell_length_a   7.78131959
_cell_length_b   7.75566517
_cell_length_c   3.72431300
_cell_angle_alpha   90.00000000
_cell_angle_beta   90.00000000
_cell_angle_gamma   89.31158573
_symmetry_Int_Tables_number   1
_chemical_formula_structural   Ce4TlIn(CuRh)2
_chemical_formula_sum   'Ce4 Tl1 In1 Cu2 Rh2'
_cell_volume   224.74349388
_cell_formula_units_Z   1
loop_
 _symmetry_equiv_pos_site_id
 _symmetry_equiv_pos_as_xyz
  1  'x, y, z'
loop_
 _atom_site_type_symbol
 _atom_site_label
 _atom_site_symmetry_multiplicity
 _atom_site_fract_x
 _atom_site_fract_y
 _atom_site_fract_z
 _atom_site_occupancy
  Ce  Ce0  1  0.665506  0.169003  0.500000  1
  Ce  Ce1  1  0.334494  0.830997  0.500000  1
  Ce  Ce2  1  0.181061  0.321771  0.500000  1
  Ce  Ce3  1  0.818939  0.678229  0.500000  1
  Tl  Tl4  1  0.000000  0.000000  0.000000  1
  In  In5  1  0.500000  0.500000  0.000000  1
  Cu  Cu6  1  0.120111  0.616784  0.000000  1
  Cu  Cu7  1  0.879889  0.383216  0.000000  1
  Rh  Rh8  1  0.630748  0.860066  0.000000  1
  Rh  Rh9  1  0.369252  0.139934  0.000000  1
