# generated using pymatgen
data_Zr10Tl3Sn3S
_symmetry_space_group_name_H-M   'P 1'
_cell_length_a   5.87881600
_cell_length_b   8.66110855
_cell_length_c   8.66116100
_cell_angle_alpha   119.99986805
_cell_angle_beta   90.00039959
_cell_angle_gamma   89.99956205
_symmetry_Int_Tables_number   1
_chemical_formula_structural   Zr10Tl3Sn3S
_chemical_formula_sum   'Zr10 Tl3 Sn3 S1'
_cell_volume   381.91847702
_cell_formula_units_Z   1
loop_
 _symmetry_equiv_pos_site_id
 _symmetry_equiv_pos_as_xyz
  1  'x, y, z'
loop_
 _atom_site_type_symbol
 _atom_site_label
 _atom_site_symmetry_multiplicity
 _atom_site_fract_x
 _atom_site_fract_y
 _atom_site_fract_z
 _atom_site_occupancy
  Zr  Zr0  1  0.497340  0.333328  0.666652  1
  Zr  Zr1  1  0.497340  0.666677  0.333349  1
  Zr  Zr2  1  0.002399  0.666632  0.333310  1
  Zr  Zr3  1  0.002399  0.333322  0.666691  1
  Zr  Zr4  1  0.758255  0.244921  0.000000  1
  Zr  Zr5  1  0.758210  0.755089  0.755072  1
  Zr  Zr6  1  0.758210  0.000015  0.244926  1
  Zr  Zr7  1  0.241845  0.752673  0.000000  1
  Zr  Zr8  1  0.241858  0.247346  0.247336  1
  Zr  Zr9  1  0.241856  0.000012  0.752664  1
  Tl  Tl10  1  0.750494  0.605241  0.000000  1
  Tl  Tl11  1  0.750519  0.394752  0.394781  1
  Tl  Tl12  1  0.750518  0.999973  0.605219  1
  Sn  Sn13  1  0.249721  0.391898  0.000001  1
  Sn  Sn14  1  0.249725  0.608126  0.608123  1
  Sn  Sn15  1  0.249724  0.000004  0.391877  1
  S  S16  1  0.499590  0.999994  0.999999  1
