# generated using pymatgen
data_Tb10Ho2InCo2Ni2Au
_symmetry_space_group_name_H-M   'P 1'
_cell_length_a   8.36388069
_cell_length_b   8.41542939
_cell_length_c   8.41543031
_cell_angle_alpha   111.89564652
_cell_angle_beta   109.40258881
_cell_angle_gamma   107.38217322
_symmetry_Int_Tables_number   1
_chemical_formula_structural   Tb10Ho2InCo2Ni2Au
_chemical_formula_sum   'Tb10 Ho2 In1 Co2 Ni2 Au1'
_cell_volume   453.93393303
_cell_formula_units_Z   1
loop_
 _symmetry_equiv_pos_site_id
 _symmetry_equiv_pos_as_xyz
  1  'x, y, z'
loop_
 _atom_site_type_symbol
 _atom_site_label
 _atom_site_symmetry_multiplicity
 _atom_site_fract_x
 _atom_site_fract_y
 _atom_site_fract_z
 _atom_site_occupancy
  Tb  Tb0  1  0.023454  0.222713  0.800742  1
  Tb  Tb1  1  0.976546  0.777287  0.199258  1
  Tb  Tb2  1  0.183215  0.289185  0.473423  1
  Tb  Tb3  1  0.816785  0.710815  0.526577  1
  Tb  Tb4  1  0.183215  0.709791  0.894029  1
  Tb  Tb5  1  0.816785  0.290209  0.105971  1
  Tb  Tb6  1  0.319924  0.625224  0.310726  1
  Tb  Tb7  1  0.680076  0.374776  0.689274  1
  Tb  Tb8  1  0.319924  0.009199  0.694700  1
  Tb  Tb9  1  0.680076  0.990801  0.305300  1
  Ho  Ho10  1  0.425225  0.225906  0.199318  1
  Ho  Ho11  1  0.574775  0.774094  0.800682  1
  In  In12  1  0.500000  0.500000  0.000000  1
  Co  Co13  1  0.120564  0.613495  0.507069  1
  Co  Co14  1  0.879436  0.386505  0.492931  1
  Ni  Ni15  1  0.364879  0.000654  0.364225  1
  Ni  Ni16  1  0.635121  0.999346  0.635775  1
  Au  Au17  1  0.000000  0.000000  0.000000  1
