# generated using pymatgen
data_Er2Tm2MoOsC4
_symmetry_space_group_name_H-M   'P 1'
_cell_length_a   5.03362000
_cell_length_b   6.54449724
_cell_length_c   9.79977005
_cell_angle_alpha   89.17255477
_cell_angle_beta   90.00000000
_cell_angle_gamma   90.00000000
_symmetry_Int_Tables_number   1
_chemical_formula_structural   Er2Tm2MoOsC4
_chemical_formula_sum   'Er4 Tm4 Mo2 Os2 C8'
_cell_volume   322.79537996
_cell_formula_units_Z   2
loop_
 _symmetry_equiv_pos_site_id
 _symmetry_equiv_pos_as_xyz
  1  'x, y, z'
loop_
 _atom_site_type_symbol
 _atom_site_label
 _atom_site_symmetry_multiplicity
 _atom_site_fract_x
 _atom_site_fract_y
 _atom_site_fract_z
 _atom_site_occupancy
  Er  Er0  1  0.250000  0.540256  0.218773  1
  Er  Er1  1  0.750000  0.459744  0.781227  1
  Er  Er2  1  0.750000  0.966695  0.716345  1
  Er  Er3  1  0.250000  0.033305  0.283655  1
  Tm  Tm4  1  0.250000  0.675376  0.558888  1
  Tm  Tm5  1  0.750000  0.324624  0.441112  1
  Tm  Tm6  1  0.750000  0.827631  0.059172  1
  Tm  Tm7  1  0.250000  0.172369  0.940828  1
  Mo  Mo8  1  0.250000  0.713049  0.869657  1
  Mo  Mo9  1  0.750000  0.286951  0.130343  1
  Os  Os10  1  0.750000  0.782862  0.368604  1
  Os  Os11  1  0.250000  0.217138  0.631396  1
  C  C12  1  0.250000  0.445524  0.757535  1
  C  C13  1  0.750000  0.554476  0.242465  1
  C  C14  1  0.750000  0.050597  0.260487  1
  C  C15  1  0.250000  0.949403  0.739513  1
  C  C16  1  0.250000  0.827260  0.054709  1
  C  C17  1  0.750000  0.172740  0.945291  1
  C  C18  1  0.750000  0.673806  0.551530  1
  C  C19  1  0.250000  0.326194  0.448470  1
