# generated using pymatgen
data_Y5ErAl19Si5Os8
_symmetry_space_group_name_H-M   'P 1'
_cell_length_a   8.70487405
_cell_length_b   8.68891193
_cell_length_c   9.59802400
_cell_angle_alpha   90.00075517
_cell_angle_beta   89.99933000
_cell_angle_gamma   120.07247029
_symmetry_Int_Tables_number   1
_chemical_formula_structural   Y5ErAl19Si5Os8
_chemical_formula_sum   'Y5 Er1 Al19 Si5 Os8'
_cell_volume   628.23588440
_cell_formula_units_Z   1
loop_
 _symmetry_equiv_pos_site_id
 _symmetry_equiv_pos_as_xyz
  1  'x, y, z'
loop_
 _atom_site_type_symbol
 _atom_site_label
 _atom_site_symmetry_multiplicity
 _atom_site_fract_x
 _atom_site_fract_y
 _atom_site_fract_z
 _atom_site_occupancy
  Y  Y0  1  0.194654  0.389243  0.249994  1
  Y  Y1  1  0.805939  0.611532  0.750001  1
  Y  Y2  1  0.608665  0.806494  0.249996  1
  Y  Y3  1  0.389480  0.194779  0.750004  1
  Y  Y4  1  0.197911  0.806496  0.249997  1
  Er  Er5  1  0.804672  0.195745  0.750027  1
  Al  Al6  1  0.164436  0.329284  0.578310  1
  Al  Al7  1  0.834633  0.669266  0.422182  1
  Al  Al8  1  0.670030  0.835661  0.577083  1
  Al  Al9  1  0.834633  0.669266  0.077813  1
  Al  Al10  1  0.329310  0.165615  0.422339  1
  Al  Al11  1  0.164438  0.329285  0.921692  1
  Al  Al12  1  0.165522  0.835237  0.576873  1
  Al  Al13  1  0.329312  0.165616  0.077655  1
  Al  Al14  1  0.836327  0.165535  0.422708  1
  Al  Al15  1  0.670030  0.835659  0.922920  1
  Al  Al16  1  0.836326  0.165535  0.077287  1
  Al  Al17  1  0.165521  0.835236  0.923130  1
  Al  Al18  1  0.437528  0.874339  0.750003  1
  Al  Al19  1  0.872638  0.433302  0.249993  1
  Al  Al20  1  0.127591  0.564106  0.750007  1
  Al  Al21  1  0.560771  0.433338  0.249993  1
  Al  Al22  1  0.436643  0.564543  0.750007  1
  Al  Al23  1  0.999881  0.999730  0.249990  1
  Al  Al24  1  0.999684  0.001399  0.750009  1
  Si  Si25  1  0.332637  0.665105  0.036604  1
  Si  Si26  1  0.667490  0.334323  0.961346  1
  Si  Si27  1  0.667490  0.334323  0.538656  1
  Si  Si28  1  0.332638  0.665108  0.463393  1
  Si  Si29  1  0.563926  0.127772  0.249994  1
  Os  Os30  1  0.501109  0.001832  0.005886  1
  Os  Os31  1  0.998733  0.498598  0.000102  1
  Os  Os32  1  0.501111  0.001845  0.494105  1
  Os  Os33  1  0.500127  0.498986  0.000411  1
  Os  Os34  1  0.998741  0.498609  0.499900  1
  Os  Os35  1  0.500132  0.498980  0.499591  1
  Os  Os36  1  0.999649  0.999142  0.000000  1
  Os  Os37  1  0.999643  0.999137  0.500001  1
