# generated using pymatgen
data_YEr19(Bi2Sb)4
_symmetry_space_group_name_H-M   'P 1'
_cell_length_a   8.09055392
_cell_length_b   9.36850100
_cell_length_c   11.82599500
_cell_angle_alpha   90.00000000
_cell_angle_beta   89.93680190
_cell_angle_gamma   90.00000000
_symmetry_Int_Tables_number   1
_chemical_formula_structural   YEr19(Bi2Sb)4
_chemical_formula_sum   'Y1 Er19 Bi8 Sb4'
_cell_volume   896.36685873
_cell_formula_units_Z   1
loop_
 _symmetry_equiv_pos_site_id
 _symmetry_equiv_pos_as_xyz
  1  'x, y, z'
loop_
 _atom_site_type_symbol
 _atom_site_label
 _atom_site_symmetry_multiplicity
 _atom_site_fract_x
 _atom_site_fract_y
 _atom_site_fract_z
 _atom_site_occupancy
  Y  Y0  1  0.145857  0.250000  0.713552  1
  Er  Er1  1  0.027341  0.750000  0.988860  1
  Er  Er2  1  0.527463  0.750000  0.511224  1
  Er  Er3  1  0.972386  0.250000  0.012054  1
  Er  Er4  1  0.472346  0.250000  0.488291  1
  Er  Er5  1  0.183500  0.750000  0.717450  1
  Er  Er6  1  0.683681  0.750000  0.782970  1
  Er  Er7  1  0.815512  0.250000  0.282160  1
  Er  Er8  1  0.316311  0.250000  0.217145  1
  Er  Er9  1  0.310835  0.436459  0.942642  1
  Er  Er10  1  0.810624  0.063730  0.557900  1
  Er  Er11  1  0.689306  0.935988  0.058302  1
  Er  Er12  1  0.189400  0.564004  0.441701  1
  Er  Er13  1  0.689306  0.564012  0.058302  1
  Er  Er14  1  0.189400  0.935996  0.441701  1
  Er  Er15  1  0.310835  0.063541  0.942642  1
  Er  Er16  1  0.810624  0.436270  0.557900  1
  Er  Er17  1  0.354540  0.750000  0.214443  1
  Er  Er18  1  0.853998  0.750000  0.285456  1
  Er  Er19  1  0.646203  0.250000  0.785785  1
  Bi  Bi20  1  0.434584  0.003036  0.674599  1
  Bi  Bi21  1  0.932640  0.497143  0.826042  1
  Bi  Bi22  1  0.566611  0.503739  0.325345  1
  Bi  Bi23  1  0.066533  0.996334  0.174731  1
  Bi  Bi24  1  0.566611  0.996261  0.325345  1
  Bi  Bi25  1  0.066533  0.503666  0.174731  1
  Bi  Bi26  1  0.434584  0.496964  0.674599  1
  Bi  Bi27  1  0.932640  0.002857  0.826042  1
  Sb  Sb28  1  0.406112  0.750000  0.958434  1
  Sb  Sb29  1  0.906102  0.750000  0.541696  1
  Sb  Sb30  1  0.594109  0.250000  0.041651  1
  Sb  Sb31  1  0.093467  0.250000  0.456302  1
