# generated using pymatgen
data_Li3Pr8Y9Si16
_symmetry_space_group_name_H-M   'P 1'
_cell_length_a   7.38289100
_cell_length_b   7.82291559
_cell_length_c   14.89680300
_cell_angle_alpha   90.00000000
_cell_angle_beta   90.00000000
_cell_angle_gamma   89.94509857
_symmetry_Int_Tables_number   1
_chemical_formula_structural   Li3Pr8Y9Si16
_chemical_formula_sum   'Li3 Pr8 Y9 Si16'
_cell_volume   860.37538333
_cell_formula_units_Z   1
loop_
 _symmetry_equiv_pos_site_id
 _symmetry_equiv_pos_as_xyz
  1  'x, y, z'
loop_
 _atom_site_type_symbol
 _atom_site_label
 _atom_site_symmetry_multiplicity
 _atom_site_fract_x
 _atom_site_fract_y
 _atom_site_fract_z
 _atom_site_occupancy
  Li  Li0  1  0.846293  0.486052  0.250000  1
  Li  Li1  1  0.346936  0.016226  0.250000  1
  Li  Li2  1  0.153399  0.515676  0.750000  1
  Pr  Pr3  1  0.028333  0.186463  0.395241  1
  Pr  Pr4  1  0.527402  0.312675  0.396412  1
  Pr  Pr5  1  0.470697  0.676451  0.899822  1
  Pr  Pr6  1  0.470697  0.676451  0.600178  1
  Pr  Pr7  1  0.980526  0.812250  0.599814  1
  Pr  Pr8  1  0.980526  0.812250  0.900186  1
  Pr  Pr9  1  0.527402  0.312675  0.103588  1
  Pr  Pr10  1  0.028333  0.186463  0.104759  1
  Y  Y11  1  0.316861  0.187491  0.624903  1
  Y  Y12  1  0.673709  0.820535  0.373597  1
  Y  Y13  1  0.649543  0.992352  0.750000  1
  Y  Y14  1  0.176124  0.682977  0.372213  1
  Y  Y15  1  0.829997  0.324899  0.874880  1
  Y  Y16  1  0.829997  0.324899  0.625120  1
  Y  Y17  1  0.316861  0.187491  0.875097  1
  Y  Y18  1  0.176124  0.682977  0.127787  1
  Y  Y19  1  0.673709  0.820535  0.126403  1
  Si  Si20  1  0.272412  0.885270  0.750000  1
  Si  Si21  1  0.476617  0.594868  0.250000  1
  Si  Si22  1  0.023128  0.096489  0.750000  1
  Si  Si23  1  0.529955  0.393260  0.750000  1
  Si  Si24  1  0.147156  0.465663  0.530971  1
  Si  Si25  1  0.974443  0.905397  0.250000  1
  Si  Si26  1  0.732256  0.114575  0.250000  1
  Si  Si27  1  0.850590  0.533971  0.036777  1
  Si  Si28  1  0.350084  0.965976  0.033367  1
  Si  Si29  1  0.147156  0.465663  0.969029  1
  Si  Si30  1  0.644592  0.027823  0.540023  1
  Si  Si31  1  0.350084  0.965976  0.466633  1
  Si  Si32  1  0.850590  0.533971  0.463223  1
  Si  Si33  1  0.768116  0.619655  0.750000  1
  Si  Si34  1  0.234757  0.385833  0.250000  1
  Si  Si35  1  0.644592  0.027823  0.959977  1
