# generated using pymatgen
data_Sc2InCo(BIr2)2
_symmetry_space_group_name_H-M   'P 1'
_cell_length_a   3.09300400
_cell_length_b   9.44827900
_cell_length_c   9.44827900
_cell_angle_alpha   90.00000000
_cell_angle_beta   90.00000000
_cell_angle_gamma   90.00000000
_symmetry_Int_Tables_number   1
_chemical_formula_structural   Sc2InCo(BIr2)2
_chemical_formula_sum   'Sc4 In2 Co2 B4 Ir8'
_cell_volume   276.11239304
_cell_formula_units_Z   2
loop_
 _symmetry_equiv_pos_site_id
 _symmetry_equiv_pos_as_xyz
  1  'x, y, z'
loop_
 _atom_site_type_symbol
 _atom_site_label
 _atom_site_symmetry_multiplicity
 _atom_site_fract_x
 _atom_site_fract_y
 _atom_site_fract_z
 _atom_site_occupancy
  Sc  Sc0  1  0.000000  0.175452  0.675452  1
  Sc  Sc1  1  0.000000  0.824548  0.324548  1
  Sc  Sc2  1  0.000000  0.324548  0.175452  1
  Sc  Sc3  1  0.000000  0.675452  0.824548  1
  In  In4  1  0.000000  0.000000  0.000000  1
  In  In5  1  0.000000  0.500000  0.500000  1
  Co  Co6  1  0.500000  0.000000  0.500000  1
  Co  Co7  1  0.500000  0.500000  0.000000  1
  B  B8  1  0.000000  0.610224  0.110224  1
  B  B9  1  0.000000  0.389776  0.889776  1
  B  B10  1  0.000000  0.889776  0.610224  1
  B  B11  1  0.000000  0.110224  0.389776  1
  Ir  Ir12  1  0.500000  0.063538  0.231235  1
  Ir  Ir13  1  0.500000  0.936462  0.768765  1
  Ir  Ir14  1  0.500000  0.768765  0.063538  1
  Ir  Ir15  1  0.500000  0.436462  0.731235  1
  Ir  Ir16  1  0.500000  0.231235  0.936462  1
  Ir  Ir17  1  0.500000  0.563538  0.268765  1
  Ir  Ir18  1  0.500000  0.731235  0.563538  1
  Ir  Ir19  1  0.500000  0.268765  0.436462  1
