# generated using pymatgen
data_Tm3Sc3Bi2Mo
_symmetry_space_group_name_H-M   'P 1'
_cell_length_a   7.93749700
_cell_length_b   7.93749721
_cell_length_c   4.27689200
_cell_angle_alpha   90.00000000
_cell_angle_beta   90.00000000
_cell_angle_gamma   120.00000329
_symmetry_Int_Tables_number   1
_chemical_formula_structural   Tm3Sc3Bi2Mo
_chemical_formula_sum   'Tm3 Sc3 Bi2 Mo1'
_cell_volume   233.35980908
_cell_formula_units_Z   1
loop_
 _symmetry_equiv_pos_site_id
 _symmetry_equiv_pos_as_xyz
  1  'x, y, z'
loop_
 _atom_site_type_symbol
 _atom_site_label
 _atom_site_symmetry_multiplicity
 _atom_site_fract_x
 _atom_site_fract_y
 _atom_site_fract_z
 _atom_site_occupancy
  Tm  Tm0  1  0.610435  0.000000  0.000000  1
  Tm  Tm1  1  0.000000  0.610435  0.000000  1
  Tm  Tm2  1  0.389565  0.389565  0.000000  1
  Sc  Sc3  1  0.228503  0.000000  0.500000  1
  Sc  Sc4  1  0.000000  0.228503  0.500000  1
  Sc  Sc5  1  0.771497  0.771497  0.500000  1
  Bi  Bi6  1  0.333333  0.666667  0.500000  1
  Bi  Bi7  1  0.666667  0.333333  0.500000  1
  Mo  Mo8  1  0.000000  0.000000  0.000000  1
