# generated using pymatgen
data_Sc12Ni4SnOs
_symmetry_space_group_name_H-M   'P 1'
_cell_length_a   7.74659779
_cell_length_b   7.74659750
_cell_length_c   7.74659823
_cell_angle_alpha   111.35855789
_cell_angle_beta   110.89069666
_cell_angle_gamma   106.21308512
_symmetry_Int_Tables_number   1
_chemical_formula_structural   Sc12Ni4SnOs
_chemical_formula_sum   'Sc12 Ni4 Sn1 Os1'
_cell_volume   356.99043701
_cell_formula_units_Z   1
loop_
 _symmetry_equiv_pos_site_id
 _symmetry_equiv_pos_as_xyz
  1  'x, y, z'
loop_
 _atom_site_type_symbol
 _atom_site_label
 _atom_site_symmetry_multiplicity
 _atom_site_fract_x
 _atom_site_fract_y
 _atom_site_fract_z
 _atom_site_occupancy
  Sc  Sc0  1  0.679679  0.878983  0.199304  1
  Sc  Sc1  1  0.320321  0.519625  0.199304  1
  Sc  Sc2  1  0.819039  0.776052  0.595092  1
  Sc  Sc3  1  0.180961  0.776052  0.957013  1
  Sc  Sc4  1  0.819039  0.223948  0.042987  1
  Sc  Sc5  1  0.180961  0.223948  0.404908  1
  Sc  Sc6  1  0.679679  0.480375  0.800696  1
  Sc  Sc7  1  0.320321  0.121017  0.800696  1
  Sc  Sc8  1  0.578167  0.273880  0.304286  1
  Sc  Sc9  1  0.421833  0.726120  0.695714  1
  Sc  Sc10  1  0.030406  0.726120  0.304286  1
  Sc  Sc11  1  0.969594  0.273880  0.695714  1
  Ni  Ni12  1  0.354538  0.500000  0.854538  1
  Ni  Ni13  1  0.645462  0.500000  0.145462  1
  Ni  Ni14  1  0.874937  0.874937  0.000000  1
  Ni  Ni15  1  0.125063  0.125063  0.000000  1
  Sn  Sn16  1  0.500000  0.000000  0.500000  1
  Os  Os17  1  0.000000  0.500000  0.500000  1
