# generated using pymatgen
data_Cs2Pr10B2Br17
_symmetry_space_group_name_H-M   'P 1'
_cell_length_a   9.44176507
_cell_length_b   11.07451411
_cell_length_c   11.07459952
_cell_angle_alpha   106.95155593
_cell_angle_beta   94.14353681
_cell_angle_gamma   94.14968243
_symmetry_Int_Tables_number   1
_chemical_formula_structural   Cs2Pr10B2Br17
_chemical_formula_sum   'Cs2 Pr10 B2 Br17'
_cell_volume   1099.47444683
_cell_formula_units_Z   1
loop_
 _symmetry_equiv_pos_site_id
 _symmetry_equiv_pos_as_xyz
  1  'x, y, z'
loop_
 _atom_site_type_symbol
 _atom_site_label
 _atom_site_symmetry_multiplicity
 _atom_site_fract_x
 _atom_site_fract_y
 _atom_site_fract_z
 _atom_site_occupancy
  Cs  Cs0  1  0.999271  0.820249  0.178692  1
  Cs  Cs1  1  0.999259  0.178697  0.820249  1
  Pr  Pr2  1  0.437901  0.166669  0.166643  1
  Pr  Pr3  1  0.570224  0.510716  0.210167  1
  Pr  Pr4  1  0.829283  0.292159  0.292177  1
  Pr  Pr5  1  0.316445  0.438379  0.438398  1
  Pr  Pr6  1  0.429917  0.789816  0.489561  1
  Pr  Pr7  1  0.570183  0.210176  0.510721  1
  Pr  Pr8  1  0.683842  0.561600  0.561591  1
  Pr  Pr9  1  0.170663  0.707804  0.707838  1
  Pr  Pr10  1  0.429920  0.489531  0.789791  1
  Pr  Pr11  1  0.562257  0.833561  0.833544  1
  B  B12  1  0.573695  0.351747  0.351746  1
  B  B13  1  0.426552  0.648580  0.648575  1
  Br  Br14  1  0.580368  0.688091  0.023110  1
  Br  Br15  1  0.712556  0.068590  0.068596  1
  Br  Br16  1  0.855478  0.451090  0.118882  1
  Br  Br17  1  0.136232  0.211619  0.211596  1
  Br  Br18  1  0.278519  0.599780  0.255778  1
  Br  Br19  1  0.419955  0.976897  0.312180  1
  Br  Br20  1  0.721634  0.744649  0.400533  1
  Br  Br21  1  0.855386  0.118863  0.451090  1
  Br  Br22  1  0.999979  0.499810  0.499891  1
  Br  Br23  1  0.144205  0.880759  0.548682  1
  Br  Br24  1  0.278442  0.255771  0.599811  1
  Br  Br25  1  0.580335  0.023117  0.688086  1
  Br  Br26  1  0.721673  0.400501  0.744615  1
  Br  Br27  1  0.864018  0.788508  0.788360  1
  Br  Br28  1  0.144261  0.548690  0.880788  1
  Br  Br29  1  0.287590  0.931333  0.931362  1
  Br  Br30  1  0.419961  0.312248  0.976946  1
