# generated using pymatgen
data_DyLu4Co16(P4W)3
_symmetry_space_group_name_H-M   'P 1'
_cell_length_a   12.01855400
_cell_length_b   12.01855293
_cell_length_c   3.68117300
_cell_angle_alpha   90.00000000
_cell_angle_beta   90.00000000
_cell_angle_gamma   119.99999194
_symmetry_Int_Tables_number   1
_chemical_formula_structural   DyLu4Co16(P4W)3
_chemical_formula_sum   'Dy1 Lu4 Co16 P12 W3'
_cell_volume   460.49115685
_cell_formula_units_Z   1
loop_
 _symmetry_equiv_pos_site_id
 _symmetry_equiv_pos_as_xyz
  1  'x, y, z'
loop_
 _atom_site_type_symbol
 _atom_site_label
 _atom_site_symmetry_multiplicity
 _atom_site_fract_x
 _atom_site_fract_y
 _atom_site_fract_z
 _atom_site_occupancy
  Dy  Dy0  1  0.333333  0.666667  0.000000  1
  Lu  Lu1  1  0.666667  0.333333  0.000000  1
  Lu  Lu2  1  0.184721  0.184720  0.500000  1
  Lu  Lu3  1  0.815280  0.000001  0.500000  1
  Lu  Lu4  1  0.999999  0.815279  0.500000  1
  Co  Co5  1  0.822886  0.197601  0.000000  1
  Co  Co6  1  0.802399  0.625285  0.000000  1
  Co  Co7  1  0.374715  0.177114  0.000000  1
  Co  Co8  1  0.197355  0.823415  0.000000  1
  Co  Co9  1  0.626060  0.802645  0.000000  1
  Co  Co10  1  0.176585  0.373940  0.000000  1
  Co  Co11  1  0.644749  0.128088  0.500000  1
  Co  Co12  1  0.871912  0.516661  0.500000  1
  Co  Co13  1  0.483339  0.355251  0.500000  1
  Co  Co14  1  0.126661  0.644702  0.500000  1
  Co  Co15  1  0.518041  0.873339  0.500000  1
  Co  Co16  1  0.355298  0.481959  0.500000  1
  Co  Co17  1  0.720140  0.719792  0.500000  1
  Co  Co18  1  0.280208  0.000348  0.500000  1
  Co  Co19  1  0.999652  0.279860  0.500000  1
  Co  Co20  1  0.000000  0.000000  0.000000  1
  P  P21  1  0.358061  0.358167  0.000000  1
  P  P22  1  0.641833  0.999894  0.000000  1
  P  P23  1  0.000106  0.641939  0.000000  1
  P  P24  1  0.833039  0.314062  0.500000  1
  P  P25  1  0.685938  0.518977  0.500000  1
  P  P26  1  0.481023  0.166961  0.500000  1
  P  P27  1  0.313948  0.834400  0.500000  1
  P  P28  1  0.520451  0.686052  0.500000  1
  P  P29  1  0.165600  0.479549  0.500000  1
  P  P30  1  0.823409  0.823272  0.000000  1
  P  P31  1  0.176728  0.000136  0.000000  1
  P  P32  1  0.999864  0.176591  0.000000  1
  W  W33  1  0.553494  0.553173  0.000000  1
  W  W34  1  0.446827  0.000320  0.000000  1
  W  W35  1  0.999680  0.446506  0.000000  1
