# generated using pymatgen
data_Tb12InCo2Si2Au
_symmetry_space_group_name_H-M   'P 1'
_cell_length_a   8.48300429
_cell_length_b   8.48300446
_cell_length_c   8.48300440
_cell_angle_alpha   114.00207623
_cell_angle_beta   109.93351188
_cell_angle_gamma   104.61370888
_symmetry_Int_Tables_number   1
_chemical_formula_structural   Tb12InCo2Si2Au
_chemical_formula_sum   'Tb12 In1 Co2 Si2 Au1'
_cell_volume   466.77232554
_cell_formula_units_Z   1
loop_
 _symmetry_equiv_pos_site_id
 _symmetry_equiv_pos_as_xyz
  1  'x, y, z'
loop_
 _atom_site_type_symbol
 _atom_site_label
 _atom_site_symmetry_multiplicity
 _atom_site_fract_x
 _atom_site_fract_y
 _atom_site_fract_z
 _atom_site_occupancy
  Tb  Tb0  1  0.427906  0.230749  0.197157  1
  Tb  Tb1  1  0.572094  0.769251  0.802843  1
  Tb  Tb2  1  0.033592  0.230749  0.802843  1
  Tb  Tb3  1  0.966408  0.769251  0.197157  1
  Tb  Tb4  1  0.186621  0.287891  0.474511  1
  Tb  Tb5  1  0.813379  0.712109  0.525489  1
  Tb  Tb6  1  0.186621  0.712109  0.898729  1
  Tb  Tb7  1  0.813379  0.287891  0.101271  1
  Tb  Tb8  1  0.304856  0.614856  0.310000  1
  Tb  Tb9  1  0.695144  0.385144  0.690000  1
  Tb  Tb10  1  0.304856  0.994857  0.690000  1
  Tb  Tb11  1  0.695144  0.005143  0.310000  1
  In  In12  1  0.500000  0.500000  0.000000  1
  Co  Co13  1  0.107693  0.607693  0.500000  1
  Co  Co14  1  0.892307  0.392307  0.500000  1
  Si  Si15  1  0.369499  0.000000  0.369499  1
  Si  Si16  1  0.630501  0.000000  0.630501  1
  Au  Au17  1  0.000000  0.000000  0.000000  1
