# generated using pymatgen
data_ErTm2B7W
_symmetry_space_group_name_H-M   'P 1'
_cell_length_a   8.07633203
_cell_length_b   8.07633193
_cell_length_c   9.42869700
_cell_angle_alpha   90.00000000
_cell_angle_beta   90.00000000
_cell_angle_gamma   155.50415735
_symmetry_Int_Tables_number   1
_chemical_formula_structural   ErTm2B7W
_chemical_formula_sum   'Er2 Tm4 B14 W2'
_cell_volume   254.99860783
_cell_formula_units_Z   2
loop_
 _symmetry_equiv_pos_site_id
 _symmetry_equiv_pos_as_xyz
  1  'x, y, z'
loop_
 _atom_site_type_symbol
 _atom_site_label
 _atom_site_symmetry_multiplicity
 _atom_site_fract_x
 _atom_site_fract_y
 _atom_site_fract_z
 _atom_site_occupancy
  Er  Er0  1  0.245696  0.754304  0.250000  1
  Er  Er1  1  0.754304  0.245696  0.750000  1
  Tm  Tm2  1  0.892565  0.107435  0.440237  1
  Tm  Tm3  1  0.107435  0.892565  0.559763  1
  Tm  Tm4  1  0.892565  0.107435  0.059763  1
  Tm  Tm5  1  0.107435  0.892565  0.940237  1
  B  B6  1  0.727925  0.272075  0.467050  1
  B  B7  1  0.272075  0.727925  0.532950  1
  B  B8  1  0.727925  0.272075  0.032950  1
  B  B9  1  0.272075  0.727925  0.967050  1
  B  B10  1  0.635384  0.364616  0.146680  1
  B  B11  1  0.364616  0.635384  0.853320  1
  B  B12  1  0.635384  0.364616  0.353320  1
  B  B13  1  0.364616  0.635384  0.646680  1
  B  B14  1  0.518856  0.481144  0.090829  1
  B  B15  1  0.481144  0.518856  0.909171  1
  B  B16  1  0.518856  0.481144  0.409171  1
  B  B17  1  0.481144  0.518856  0.590829  1
  B  B18  1  0.452477  0.547523  0.250000  1
  B  B19  1  0.547523  0.452477  0.750000  1
  W  W20  1  0.052643  0.947357  0.250000  1
  W  W21  1  0.947357  0.052643  0.750000  1
