# generated using pymatgen
data_Ta12Cr3Ga8RhC3N
_symmetry_space_group_name_H-M   'P 1'
_cell_length_a   8.26156907
_cell_length_b   8.24699009
_cell_length_c   8.26156900
_cell_angle_alpha   59.94150890
_cell_angle_beta   60.00000429
_cell_angle_gamma   59.94151210
_symmetry_Int_Tables_number   1
_chemical_formula_structural   Ta12Cr3Ga8RhC3N
_chemical_formula_sum   'Ta12 Cr3 Ga8 Rh1 C3 N1'
_cell_volume   397.66837005
_cell_formula_units_Z   1
loop_
 _symmetry_equiv_pos_site_id
 _symmetry_equiv_pos_as_xyz
  1  'x, y, z'
loop_
 _atom_site_type_symbol
 _atom_site_label
 _atom_site_symmetry_multiplicity
 _atom_site_fract_x
 _atom_site_fract_y
 _atom_site_fract_z
 _atom_site_occupancy
  Ta  Ta0  1  0.553369  0.946497  0.553369  1
  Ta  Ta1  1  0.306858  0.698032  0.688252  1
  Ta  Ta2  1  0.696631  0.303503  0.303236  1
  Ta  Ta3  1  0.306858  0.698032  0.306858  1
  Ta  Ta4  1  0.688252  0.698032  0.306858  1
  Ta  Ta5  1  0.303236  0.303503  0.696631  1
  Ta  Ta6  1  0.561748  0.551968  0.943142  1
  Ta  Ta7  1  0.943142  0.551968  0.561748  1
  Ta  Ta8  1  0.553369  0.946497  0.946764  1
  Ta  Ta9  1  0.946764  0.946497  0.553369  1
  Ta  Ta10  1  0.696631  0.303503  0.696631  1
  Ta  Ta11  1  0.943142  0.551968  0.943142  1
  Cr  Cr12  1  0.125000  0.125000  0.125000  1
  Cr  Cr13  1  0.625000  0.125000  0.125000  1
  Cr  Cr14  1  0.125000  0.125000  0.625000  1
  Ga  Ga15  1  0.913135  0.914168  0.913135  1
  Ga  Ga16  1  0.990436  0.335832  0.336865  1
  Ga  Ga17  1  0.335219  0.994343  0.335219  1
  Ga  Ga18  1  0.336865  0.335832  0.990436  1
  Ga  Ga19  1  0.914781  0.255657  0.914781  1
  Ga  Ga20  1  0.913135  0.914168  0.259564  1
  Ga  Ga21  1  0.259564  0.914168  0.913135  1
  Ga  Ga22  1  0.336865  0.335832  0.336865  1
  Rh  Rh23  1  0.125000  0.625000  0.125000  1
  C  C24  1  0.625000  0.625000  0.625000  1
  C  C25  1  0.125000  0.625000  0.625000  1
  C  C26  1  0.625000  0.625000  0.125000  1
  N  N27  1  0.625000  0.125000  0.625000  1
