# generated using pymatgen
data_Dy16In3HgPt3Rh
_symmetry_space_group_name_H-M   'P 1'
_cell_length_a   9.68776233
_cell_length_b   9.69086643
_cell_length_c   9.69302326
_cell_angle_alpha   60.10875312
_cell_angle_beta   60.01794747
_cell_angle_gamma   60.01058998
_symmetry_Int_Tables_number   1
_chemical_formula_structural   Dy16In3HgPt3Rh
_chemical_formula_sum   'Dy16 In3 Hg1 Pt3 Rh1'
_cell_volume   644.13930306
_cell_formula_units_Z   1
loop_
 _symmetry_equiv_pos_site_id
 _symmetry_equiv_pos_as_xyz
  1  'x, y, z'
loop_
 _atom_site_type_symbol
 _atom_site_label
 _atom_site_symmetry_multiplicity
 _atom_site_fract_x
 _atom_site_fract_y
 _atom_site_fract_z
 _atom_site_occupancy
  Dy  Dy0  1  0.690670  0.310091  0.308568  1
  Dy  Dy1  1  0.687279  0.692714  0.309070  1
  Dy  Dy2  1  0.310936  0.692714  0.309070  1
  Dy  Dy3  1  0.937501  0.936498  0.559907  1
  Dy  Dy4  1  0.150663  0.145614  0.553060  1
  Dy  Dy5  1  0.566094  0.936498  0.559907  1
  Dy  Dy6  1  0.151262  0.146433  0.150958  1
  Dy  Dy7  1  0.308936  0.308456  0.691047  1
  Dy  Dy8  1  0.938586  0.563910  0.558917  1
  Dy  Dy9  1  0.563769  0.563148  0.935993  1
  Dy  Dy10  1  0.564086  0.936335  0.935495  1
  Dy  Dy11  1  0.937091  0.563148  0.935993  1
  Dy  Dy12  1  0.147356  0.557783  0.147502  1
  Dy  Dy13  1  0.309354  0.693807  0.687485  1
  Dy  Dy14  1  0.691562  0.308456  0.691047  1
  Dy  Dy15  1  0.551344  0.146433  0.150958  1
  In  In16  1  0.248239  0.917230  0.917915  1
  In  In17  1  0.916811  0.247719  0.918659  1
  In  In18  1  0.916616  0.917230  0.917915  1
  Hg  Hg19  1  0.913332  0.914280  0.259058  1
  Pt  Pt20  1  0.355859  0.357976  0.357349  1
  Pt  Pt21  1  0.928818  0.357976  0.357349  1
  Pt  Pt22  1  0.356606  0.358468  0.928321  1
  Rh  Rh23  1  0.357233  0.927082  0.358454  1
