# generated using pymatgen
data_Tb4Dy3Ho(ReB6)4
_symmetry_space_group_name_H-M   'P 1'
_cell_length_a   3.69232100
_cell_length_b   9.18862100
_cell_length_c   11.58299300
_cell_angle_alpha   90.00114747
_cell_angle_beta   90.00000000
_cell_angle_gamma   90.00000000
_symmetry_Int_Tables_number   1
_chemical_formula_structural   Tb4Dy3Ho(ReB6)4
_chemical_formula_sum   'Tb4 Dy3 Ho1 Re4 B24'
_cell_volume   392.98012176
_cell_formula_units_Z   1
loop_
 _symmetry_equiv_pos_site_id
 _symmetry_equiv_pos_as_xyz
  1  'x, y, z'
loop_
 _atom_site_type_symbol
 _atom_site_label
 _atom_site_symmetry_multiplicity
 _atom_site_fract_x
 _atom_site_fract_y
 _atom_site_fract_z
 _atom_site_occupancy
  Tb  Tb0  1  0.000000  0.323664  0.413961  1
  Tb  Tb1  1  0.000000  0.676298  0.586100  1
  Tb  Tb2  1  0.000000  0.823587  0.086041  1
  Tb  Tb3  1  0.000000  0.176399  0.913928  1
  Dy  Dy4  1  0.000000  0.943124  0.369888  1
  Dy  Dy5  1  0.000000  0.056892  0.630116  1
  Dy  Dy6  1  0.000000  0.443197  0.129992  1
  Ho  Ho7  1  0.000000  0.556876  0.869796  1
  Re  Re8  1  0.000000  0.638767  0.320636  1
  Re  Re9  1  0.000000  0.361385  0.679504  1
  Re  Re10  1  0.000000  0.138791  0.179297  1
  Re  Re11  1  0.000000  0.860955  0.820698  1
  B  B12  1  0.500000  0.553639  0.432546  1
  B  B13  1  0.500000  0.446367  0.567508  1
  B  B14  1  0.500000  0.053633  0.067455  1
  B  B15  1  0.500000  0.946308  0.932534  1
  B  B16  1  0.500000  0.749081  0.418199  1
  B  B17  1  0.500000  0.250935  0.581821  1
  B  B18  1  0.500000  0.249103  0.081813  1
  B  B19  1  0.500000  0.750599  0.918202  1
  B  B20  1  0.500000  0.791857  0.265720  1
  B  B21  1  0.500000  0.208203  0.734286  1
  B  B22  1  0.500000  0.291874  0.234285  1
  B  B23  1  0.500000  0.707865  0.765793  1
  B  B24  1  0.500000  0.630946  0.185946  1
  B  B25  1  0.500000  0.369273  0.814167  1
  B  B26  1  0.500000  0.130973  0.314044  1
  B  B27  1  0.500000  0.868980  0.686001  1
  B  B28  1  0.500000  0.982912  0.212042  1
  B  B29  1  0.500000  0.017094  0.787973  1
  B  B30  1  0.500000  0.482906  0.287961  1
  B  B31  1  0.500000  0.517246  0.712214  1
  B  B32  1  0.500000  0.599641  0.027579  1
  B  B33  1  0.500000  0.400605  0.971946  1
  B  B34  1  0.500000  0.099755  0.472138  1
  B  B35  1  0.500000  0.900268  0.527870  1
