# generated using pymatgen
data_Y4Tm4Tc(B8Ru)3
_symmetry_space_group_name_H-M   'P 1'
_cell_length_a   3.64827600
_cell_length_b   9.10756896
_cell_length_c   11.50481700
_cell_angle_alpha   89.91261571
_cell_angle_beta   90.00000000
_cell_angle_gamma   90.00000000
_symmetry_Int_Tables_number   1
_chemical_formula_structural   Y4Tm4Tc(B8Ru)3
_chemical_formula_sum   'Y4 Tm4 Tc1 B24 Ru3'
_cell_volume   382.26925018
_cell_formula_units_Z   1
loop_
 _symmetry_equiv_pos_site_id
 _symmetry_equiv_pos_as_xyz
  1  'x, y, z'
loop_
 _atom_site_type_symbol
 _atom_site_label
 _atom_site_symmetry_multiplicity
 _atom_site_fract_x
 _atom_site_fract_y
 _atom_site_fract_z
 _atom_site_occupancy
  Y  Y0  1  0.000000  0.323474  0.413241  1
  Y  Y1  1  0.000000  0.677690  0.583612  1
  Y  Y2  1  0.000000  0.820011  0.087840  1
  Y  Y3  1  0.000000  0.177531  0.914910  1
  Tm  Tm4  1  0.000000  0.943355  0.372316  1
  Tm  Tm5  1  0.000000  0.057169  0.628224  1
  Tm  Tm6  1  0.000000  0.444122  0.128222  1
  Tm  Tm7  1  0.000000  0.556762  0.871394  1
  Tc  Tc8  1  0.000000  0.638228  0.320435  1
  B  B9  1  0.500000  0.553356  0.432760  1
  B  B10  1  0.500000  0.445929  0.567772  1
  B  B11  1  0.500000  0.054092  0.067516  1
  B  B12  1  0.500000  0.945653  0.932808  1
  B  B13  1  0.500000  0.749357  0.418949  1
  B  B14  1  0.500000  0.251034  0.581065  1
  B  B15  1  0.500000  0.249018  0.080813  1
  B  B16  1  0.500000  0.750789  0.919051  1
  B  B17  1  0.500000  0.791882  0.266213  1
  B  B18  1  0.500000  0.208750  0.733853  1
  B  B19  1  0.500000  0.291214  0.233082  1
  B  B20  1  0.500000  0.709159  0.766144  1
  B  B21  1  0.500000  0.630716  0.185350  1
  B  B22  1  0.500000  0.368965  0.815048  1
  B  B23  1  0.500000  0.130874  0.314504  1
  B  B24  1  0.500000  0.869585  0.685093  1
  B  B25  1  0.500000  0.983181  0.213190  1
  B  B26  1  0.500000  0.016803  0.787309  1
  B  B27  1  0.500000  0.482247  0.286772  1
  B  B28  1  0.500000  0.516645  0.713157  1
  B  B29  1  0.500000  0.604836  0.028319  1
  B  B30  1  0.500000  0.394643  0.970627  1
  B  B31  1  0.500000  0.105705  0.471221  1
  B  B32  1  0.500000  0.895897  0.529398  1
  Ru  Ru33  1  0.000000  0.361320  0.680260  1
  Ru  Ru34  1  0.000000  0.138269  0.179186  1
  Ru  Ru35  1  0.000000  0.861741  0.820349  1
