# generated using pymatgen
data_Ta3Ti2NbC5
_symmetry_space_group_name_H-M   'P 1'
_cell_length_a   5.43773783
_cell_length_b   5.44100306
_cell_length_c   5.43603610
_cell_angle_alpha   80.41476735
_cell_angle_beta   80.23769558
_cell_angle_gamma   119.92815301
_symmetry_Int_Tables_number   1
_chemical_formula_structural   Ta3Ti2NbC5
_chemical_formula_sum   'Ta3 Ti2 Nb1 C5'
_cell_volume   131.29801068
_cell_formula_units_Z   1
loop_
 _symmetry_equiv_pos_site_id
 _symmetry_equiv_pos_as_xyz
  1  'x, y, z'
loop_
 _atom_site_type_symbol
 _atom_site_label
 _atom_site_symmetry_multiplicity
 _atom_site_fract_x
 _atom_site_fract_y
 _atom_site_fract_z
 _atom_site_occupancy
  Ta  Ta0  1  0.735696  0.737068  0.733518  1
  Ta  Ta1  1  0.265535  0.264638  0.265044  1
  Ta  Ta2  1  0.080952  0.435725  0.748702  1
  Ti  Ti3  1  0.559796  0.916933  0.253011  1
  Ti  Ti4  1  0.916571  0.558650  0.254315  1
  Nb  Nb5  1  0.434691  0.081649  0.749648  1
  C  C6  1  0.505475  0.508081  0.494186  1
  C  C7  1  0.669984  0.335905  0.005981  1
  C  C8  1  0.332148  0.664659  0.005657  1
  C  C9  1  0.834204  0.166850  0.495087  1
  C  C10  1  0.164946  0.829842  0.494848  1
