# generated using pymatgen
data_Dy4Y12CdIn3Ni4
_symmetry_space_group_name_H-M   'P 1'
_cell_length_a   9.61477033
_cell_length_b   9.60080342
_cell_length_c   9.60304229
_cell_angle_alpha   60.14930672
_cell_angle_beta   60.10306540
_cell_angle_gamma   60.13848062
_symmetry_Int_Tables_number   1
_chemical_formula_structural   Dy4Y12CdIn3Ni4
_chemical_formula_sum   'Dy4 Y12 Cd1 In3 Ni4'
_cell_volume   628.66616280
_cell_formula_units_Z   1
loop_
 _symmetry_equiv_pos_site_id
 _symmetry_equiv_pos_as_xyz
  1  'x, y, z'
loop_
 _atom_site_type_symbol
 _atom_site_label
 _atom_site_symmetry_multiplicity
 _atom_site_fract_x
 _atom_site_fract_y
 _atom_site_fract_z
 _atom_site_occupancy
  Dy  Dy0  1  0.595491  0.596457  0.596265  1
  Dy  Dy1  1  0.598526  0.598172  0.205385  1
  Dy  Dy2  1  0.598462  0.205319  0.598174  1
  Dy  Dy3  1  0.204297  0.597933  0.597959  1
  Y  Y4  1  0.060680  0.440188  0.440177  1
  Y  Y5  1  0.439691  0.061372  0.061312  1
  Y  Y6  1  0.439270  0.061914  0.438806  1
  Y  Y7  1  0.060446  0.440957  0.059822  1
  Y  Y8  1  0.439272  0.438695  0.061933  1
  Y  Y9  1  0.060472  0.059765  0.441017  1
  Y  Y10  1  0.188712  0.813934  0.814110  1
  Y  Y11  1  0.813380  0.187243  0.187184  1
  Y  Y12  1  0.813837  0.186969  0.812689  1
  Y  Y13  1  0.189550  0.811824  0.187325  1
  Y  Y14  1  0.813896  0.812607  0.186997  1
  Y  Y15  1  0.189714  0.187573  0.811719  1
  Cd  Cd16  1  0.504914  0.830855  0.830870  1
  In  In17  1  0.831763  0.833304  0.833392  1
  In  In18  1  0.829704  0.832872  0.503540  1
  In  In19  1  0.829785  0.503577  0.832835  1
  Ni  Ni20  1  0.393321  0.393472  0.393522  1
  Ni  Ni21  1  0.391779  0.391743  0.821465  1
  Ni  Ni22  1  0.391845  0.821364  0.391676  1
  Ni  Ni23  1  0.821196  0.391893  0.391826  1
