# generated using pymatgen
data_Zr8Ta12Si15Ni
_symmetry_space_group_name_H-M   'P 1'
_cell_length_a   6.88982428
_cell_length_b   6.88346521
_cell_length_c   12.70813689
_cell_angle_alpha   89.86967002
_cell_angle_beta   89.90207620
_cell_angle_gamma   89.91765300
_symmetry_Int_Tables_number   1
_chemical_formula_structural   Zr8Ta12Si15Ni
_chemical_formula_sum   'Zr8 Ta12 Si15 Ni1'
_cell_volume   602.69133557
_cell_formula_units_Z   1
loop_
 _symmetry_equiv_pos_site_id
 _symmetry_equiv_pos_as_xyz
  1  'x, y, z'
loop_
 _atom_site_type_symbol
 _atom_site_label
 _atom_site_symmetry_multiplicity
 _atom_site_fract_x
 _atom_site_fract_y
 _atom_site_fract_z
 _atom_site_occupancy
  Zr  Zr0  1  0.000429  0.661116  0.030355  1
  Zr  Zr1  1  0.996965  0.338410  0.530203  1
  Zr  Zr2  1  0.660197  0.999868  0.969902  1
  Zr  Zr3  1  0.159508  0.498724  0.781610  1
  Zr  Zr4  1  0.841176  0.501559  0.281392  1
  Zr  Zr5  1  0.499504  0.158161  0.218556  1
  Zr  Zr6  1  0.498586  0.839954  0.717889  1
  Zr  Zr7  1  0.344903  0.001315  0.468710  1
  Ta  Ta8  1  0.347776  0.504941  0.375227  1
  Ta  Ta9  1  0.847126  0.991756  0.374483  1
  Ta  Ta10  1  0.004495  0.153284  0.126836  1
  Ta  Ta11  1  0.993968  0.847306  0.626305  1
  Ta  Ta12  1  0.652243  0.494877  0.875805  1
  Ta  Ta13  1  0.502021  0.349917  0.623465  1
  Ta  Ta14  1  0.495736  0.652988  0.123371  1
  Ta  Ta15  1  0.152158  0.004923  0.873736  1
  Ta  Ta16  1  0.670222  0.671080  0.500686  1
  Ta  Ta17  1  0.830562  0.169237  0.749965  1
  Ta  Ta18  1  0.169751  0.830110  0.251415  1
  Ta  Ta19  1  0.329948  0.330223  0.000411  1
  Si  Si20  1  0.955679  0.298957  0.936804  1
  Si  Si21  1  0.702478  0.045404  0.563155  1
  Si  Si22  1  0.200345  0.455847  0.187289  1
  Si  Si23  1  0.799292  0.544200  0.685184  1
  Si  Si24  1  0.456061  0.200713  0.813170  1
  Si  Si25  1  0.544547  0.797320  0.314239  1
  Si  Si26  1  0.298178  0.955655  0.064383  1
  Si  Si27  1  0.864350  0.791896  0.822274  1
  Si  Si28  1  0.134884  0.207140  0.324686  1
  Si  Si29  1  0.792748  0.864317  0.178140  1
  Si  Si30  1  0.287730  0.637625  0.567341  1
  Si  Si31  1  0.708335  0.365603  0.073247  1
  Si  Si32  1  0.636224  0.292673  0.426746  1
  Si  Si33  1  0.365000  0.708307  0.927011  1
  Si  Si34  1  0.207966  0.135082  0.676124  1
  Ni  Ni35  1  0.048910  0.699508  0.439885  1
