# generated using pymatgen
data_TbTm4In2(HgPd)2
_symmetry_space_group_name_H-M   'P 1'
_cell_length_a   3.60186200
_cell_length_b   7.99229800
_cell_length_c   18.30277800
_cell_angle_alpha   90.00000000
_cell_angle_beta   90.00000000
_cell_angle_gamma   90.00000000
_symmetry_Int_Tables_number   1
_chemical_formula_structural   TbTm4In2(HgPd)2
_chemical_formula_sum   'Tb2 Tm8 In4 Hg4 Pd4'
_cell_volume   526.88489731
_cell_formula_units_Z   2
loop_
 _symmetry_equiv_pos_site_id
 _symmetry_equiv_pos_as_xyz
  1  'x, y, z'
loop_
 _atom_site_type_symbol
 _atom_site_label
 _atom_site_symmetry_multiplicity
 _atom_site_fract_x
 _atom_site_fract_y
 _atom_site_fract_z
 _atom_site_occupancy
  Tb  Tb0  1  0.000000  0.500000  0.500000  1
  Tb  Tb1  1  0.000000  0.000000  0.000000  1
  Tm  Tm2  1  0.000000  0.743309  0.284115  1
  Tm  Tm3  1  0.000000  0.256691  0.715885  1
  Tm  Tm4  1  0.000000  0.756691  0.784115  1
  Tm  Tm5  1  0.000000  0.243309  0.215885  1
  Tm  Tm6  1  0.000000  0.608269  0.084381  1
  Tm  Tm7  1  0.000000  0.391731  0.915619  1
  Tm  Tm8  1  0.000000  0.891731  0.584381  1
  Tm  Tm9  1  0.000000  0.108269  0.415619  1
  In  In10  1  0.500000  0.581685  0.649779  1
  In  In11  1  0.500000  0.418315  0.350221  1
  In  In12  1  0.500000  0.918315  0.149779  1
  In  In13  1  0.500000  0.081685  0.850221  1
  Hg  Hg14  1  0.500000  0.710939  0.932684  1
  Hg  Hg15  1  0.500000  0.289061  0.067316  1
  Hg  Hg16  1  0.500000  0.789061  0.432684  1
  Hg  Hg17  1  0.500000  0.210939  0.567316  1
  Pd  Pd18  1  0.500000  0.530307  0.197814  1
  Pd  Pd19  1  0.500000  0.469693  0.802186  1
  Pd  Pd20  1  0.500000  0.969693  0.697814  1
  Pd  Pd21  1  0.500000  0.030307  0.302186  1
