# generated using pymatgen
data_Ho10Si5Bi
_symmetry_space_group_name_H-M   'P 1'
_cell_length_a   8.49874400
_cell_length_b   8.54077701
_cell_length_c   6.34287900
_cell_angle_alpha   90.00000000
_cell_angle_beta   90.00000000
_cell_angle_gamma   119.83733282
_symmetry_Int_Tables_number   1
_chemical_formula_structural   Ho10Si5Bi
_chemical_formula_sum   'Ho10 Si5 Bi1'
_cell_volume   399.37302554
_cell_formula_units_Z   1
loop_
 _symmetry_equiv_pos_site_id
 _symmetry_equiv_pos_as_xyz
  1  'x, y, z'
loop_
 _atom_site_type_symbol
 _atom_site_label
 _atom_site_symmetry_multiplicity
 _atom_site_fract_x
 _atom_site_fract_y
 _atom_site_fract_z
 _atom_site_occupancy
  Ho  Ho0  1  0.984587  0.745107  0.750000  1
  Ho  Ho1  1  0.998647  0.243305  0.250000  1
  Ho  Ho2  1  0.755343  0.756695  0.250000  1
  Ho  Ho3  1  0.767878  0.000000  0.750000  1
  Ho  Ho4  1  0.239481  0.254893  0.750000  1
  Ho  Ho5  1  0.239982  0.000000  0.250000  1
  Ho  Ho6  1  0.330860  0.654213  0.494941  1
  Ho  Ho7  1  0.676648  0.345787  0.005059  1
  Ho  Ho8  1  0.676648  0.345787  0.494941  1
  Ho  Ho9  1  0.330860  0.654213  0.005059  1
  Si  Si10  1  0.393345  0.391058  0.250000  1
  Si  Si11  1  0.002287  0.608942  0.250000  1
  Si  Si12  1  0.998872  0.394514  0.750000  1
  Si  Si13  1  0.604358  0.605486  0.750000  1
  Si  Si14  1  0.607050  0.000000  0.250000  1
  Bi  Bi15  1  0.393154  0.000000  0.750000  1
