# generated using pymatgen
data_SrNdTaMnO6
_symmetry_space_group_name_H-M   'P 1'
_cell_length_a   8.16157615
_cell_length_b   8.16163946
_cell_length_c   9.86032626
_cell_angle_alpha   66.55241120
_cell_angle_beta   66.55267293
_cell_angle_gamma   91.93489279
_symmetry_Int_Tables_number   1
_chemical_formula_structural   SrNdTaMnO6
_chemical_formula_sum   'Sr4 Nd4 Ta4 Mn4 O24'
_cell_volume   538.23006798
_cell_formula_units_Z   4
loop_
 _symmetry_equiv_pos_site_id
 _symmetry_equiv_pos_as_xyz
  1  'x, y, z'
loop_
 _atom_site_type_symbol
 _atom_site_label
 _atom_site_symmetry_multiplicity
 _atom_site_fract_x
 _atom_site_fract_y
 _atom_site_fract_z
 _atom_site_occupancy
  Sr  Sr0  1  0.398274  0.858569  0.251259  1
  Sr  Sr1  1  0.898277  0.358568  0.251275  1
  Sr  Sr2  1  0.108574  0.148271  0.751267  1
  Sr  Sr3  1  0.608563  0.648282  0.751274  1
  Nd  Nd4  1  0.084547  0.644502  0.754397  1
  Nd  Nd5  1  0.584542  0.144490  0.754377  1
  Nd  Nd6  1  0.394491  0.334547  0.254394  1
  Nd  Nd7  1  0.894509  0.834542  0.254390  1
  Ta  Ta8  1  0.751924  0.247259  0.000155  1
  Ta  Ta9  1  0.251943  0.747246  0.000164  1
  Ta  Ta10  1  0.497245  0.501899  0.500175  1
  Ta  Ta11  1  0.997243  0.001950  0.500168  1
  Mn  Mn12  1  0.501767  0.995090  0.501538  1
  Mn  Mn13  1  0.745163  0.751739  0.001665  1
  Mn  Mn14  1  0.001736  0.495259  0.501612  1
  Mn  Mn15  1  0.245192  0.251727  0.001589  1
  O  O16  1  0.262033  0.993135  0.447923  1
  O  O17  1  0.762031  0.493146  0.447939  1
  O  O18  1  0.743138  0.512035  0.947932  1
  O  O19  1  0.243133  0.012027  0.947937  1
  O  O20  1  0.238080  0.531592  0.555275  1
  O  O21  1  0.738077  0.031583  0.555265  1
  O  O22  1  0.781584  0.988077  0.055279  1
  O  O23  1  0.281581  0.488078  0.055270  1
  O  O24  1  0.578736  0.764701  0.448084  1
  O  O25  1  0.078731  0.264698  0.448096  1
  O  O26  1  0.014702  0.328732  0.948091  1
  O  O27  1  0.514699  0.828732  0.948097  1
  O  O28  1  0.942032  0.740752  0.540577  1
  O  O29  1  0.442040  0.240760  0.540569  1
  O  O30  1  0.490754  0.192035  0.040577  1
  O  O31  1  0.990754  0.692040  0.040581  1
  O  O32  1  0.938709  0.901259  0.738368  1
  O  O33  1  0.438706  0.401262  0.738367  1
  O  O34  1  0.151254  0.688703  0.238374  1
  O  O35  1  0.651258  0.188714  0.238362  1
  O  O36  1  0.548489  0.578517  0.262333  1
  O  O37  1  0.048479  0.078508  0.262336  1
  O  O38  1  0.328506  0.798491  0.762334  1
  O  O39  1  0.828502  0.298479  0.762340  1
