# generated using pymatgen
data_Lu20Ir11Au
_symmetry_space_group_name_H-M   'P 1'
_cell_length_a   10.72216881
_cell_length_b   10.72216864
_cell_length_c   6.24528404
_cell_angle_alpha   89.92219199
_cell_angle_beta   89.92218927
_cell_angle_gamma   89.53828276
_symmetry_Int_Tables_number   1
_chemical_formula_structural   Lu20Ir11Au
_chemical_formula_sum   'Lu20 Ir11 Au1'
_cell_volume   717.96384176
_cell_formula_units_Z   1
loop_
 _symmetry_equiv_pos_site_id
 _symmetry_equiv_pos_as_xyz
  1  'x, y, z'
loop_
 _atom_site_type_symbol
 _atom_site_label
 _atom_site_symmetry_multiplicity
 _atom_site_fract_x
 _atom_site_fract_y
 _atom_site_fract_z
 _atom_site_occupancy
  Lu  Lu0  1  0.288442  0.085205  0.373791  1
  Lu  Lu1  1  0.291676  0.912163  0.873698  1
  Lu  Lu2  1  0.703664  0.082080  0.864427  1
  Lu  Lu3  1  0.704674  0.905442  0.378645  1
  Lu  Lu4  1  0.586513  0.790289  0.877334  1
  Lu  Lu5  1  0.577298  0.209173  0.376328  1
  Lu  Lu6  1  0.411487  0.790184  0.375397  1
  Lu  Lu7  1  0.410992  0.207132  0.877032  1
  Lu  Lu8  1  0.209711  0.413487  0.622666  1
  Lu  Lu9  1  0.209816  0.588513  0.124603  1
  Lu  Lu10  1  0.790827  0.422702  0.123672  1
  Lu  Lu11  1  0.792868  0.589008  0.622968  1
  Lu  Lu12  1  0.914795  0.711558  0.126209  1
  Lu  Lu13  1  0.917920  0.296336  0.635573  1
  Lu  Lu14  1  0.087837  0.708324  0.626302  1
  Lu  Lu15  1  0.094558  0.295326  0.121355  1
  Lu  Lu16  1  0.001585  0.996137  0.501766  1
  Lu  Lu17  1  0.003863  0.998415  0.998234  1
  Lu  Lu18  1  0.499948  0.498357  0.999044  1
  Lu  Lu19  1  0.501643  0.500052  0.500956  1
  Ir  Ir20  1  0.845969  0.847790  0.750912  1
  Ir  Ir21  1  0.152210  0.154031  0.749088  1
  Ir  Ir22  1  0.154819  0.845181  0.250000  1
  Ir  Ir23  1  0.656678  0.343322  0.750000  1
  Ir  Ir24  1  0.654243  0.652761  0.249068  1
  Ir  Ir25  1  0.347239  0.345757  0.250932  1
  Ir  Ir26  1  0.346492  0.653508  0.750000  1
  Ir  Ir27  1  0.499215  0.998967  0.124331  1
  Ir  Ir28  1  0.498529  0.998790  0.620413  1
  Ir  Ir29  1  0.001210  0.501471  0.879587  1
  Ir  Ir30  1  0.001033  0.500785  0.375669  1
  Au  Au31  1  0.842245  0.157755  0.250000  1
