# generated using pymatgen
data_Yb9Sm(Sn3H)2
_symmetry_space_group_name_H-M   'P 1'
_cell_length_a   9.35718617
_cell_length_b   9.35718574
_cell_length_c   9.37616785
_cell_angle_alpha   128.44112422
_cell_angle_beta   128.44111874
_cell_angle_gamma   75.91392746
_symmetry_Int_Tables_number   1
_chemical_formula_structural   Yb9Sm(Sn3H)2
_chemical_formula_sum   'Yb9 Sm1 Sn6 H2'
_cell_volume   489.73085344
_cell_formula_units_Z   1
loop_
 _symmetry_equiv_pos_site_id
 _symmetry_equiv_pos_as_xyz
  1  'x, y, z'
loop_
 _atom_site_type_symbol
 _atom_site_label
 _atom_site_symmetry_multiplicity
 _atom_site_fract_x
 _atom_site_fract_y
 _atom_site_fract_z
 _atom_site_occupancy
  Yb  Yb0  1  0.499762  0.502440  0.000867  1
  Yb  Yb1  1  0.002440  0.999762  0.000867  1
  Yb  Yb2  1  0.185211  0.685211  0.174242  1
  Yb  Yb3  1  0.009231  0.185479  0.499614  1
  Yb  Yb4  1  0.685479  0.509231  0.499614  1
  Yb  Yb5  1  0.490766  0.990766  0.180592  1
  Yb  Yb6  1  0.812443  0.312443  0.822502  1
  Yb  Yb7  1  0.987724  0.812677  0.497698  1
  Yb  Yb8  1  0.312677  0.487724  0.497698  1
  Sm  Sm9  1  0.514027  0.014027  0.826810  1
  Sn  Sn10  1  0.252290  0.246364  0.995749  1
  Sn  Sn11  1  0.746364  0.752290  0.995749  1
  Sn  Sn12  1  0.870811  0.370811  0.242463  1
  Sn  Sn13  1  0.126913  0.626913  0.753666  1
  Sn  Sn14  1  0.371149  0.128314  0.502924  1
  Sn  Sn15  1  0.628314  0.871149  0.502924  1
  H  H16  1  0.254348  0.754348  0.504740  1
  H  H17  1  0.750054  0.250054  0.501283  1
