# generated using pymatgen
data_Yb3Sm(Ru2O7)2
_symmetry_space_group_name_H-M   'P 1'
_cell_length_a   7.25025660
_cell_length_b   7.25025694
_cell_length_c   7.23105876
_cell_angle_alpha   59.91213824
_cell_angle_beta   59.91213278
_cell_angle_gamma   60.00000257
_symmetry_Int_Tables_number   1
_chemical_formula_structural   Yb3Sm(Ru2O7)2
_chemical_formula_sum   'Yb3 Sm1 Ru4 O14'
_cell_volume   268.42046483
_cell_formula_units_Z   1
loop_
 _symmetry_equiv_pos_site_id
 _symmetry_equiv_pos_as_xyz
  1  'x, y, z'
loop_
 _atom_site_type_symbol
 _atom_site_label
 _atom_site_symmetry_multiplicity
 _atom_site_fract_x
 _atom_site_fract_y
 _atom_site_fract_z
 _atom_site_occupancy
  Yb  Yb0  1  0.625000  0.625000  0.625000  1
  Yb  Yb1  1  0.125000  0.625000  0.625000  1
  Yb  Yb2  1  0.625000  0.125000  0.625000  1
  Sm  Sm3  1  0.625000  0.625000  0.125000  1
  Ru  Ru4  1  0.125000  0.125000  0.125000  1
  Ru  Ru5  1  0.625000  0.125000  0.125000  1
  Ru  Ru6  1  0.125000  0.125000  0.625000  1
  Ru  Ru7  1  0.125000  0.625000  0.125000  1
  O  O8  1  0.499411  0.499411  0.501768  1
  O  O9  1  0.750589  0.750589  0.748232  1
  O  O10  1  0.053327  0.053327  0.445948  1
  O  O11  1  0.800100  0.800100  0.199957  1
  O  O12  1  0.447399  0.053327  0.445948  1
  O  O13  1  0.449900  0.050156  0.050043  1
  O  O14  1  0.053327  0.447399  0.445948  1
  O  O15  1  0.050156  0.449900  0.050043  1
  O  O16  1  0.449900  0.449900  0.050043  1
  O  O17  1  0.196673  0.802601  0.804052  1
  O  O18  1  0.800100  0.199844  0.199957  1
  O  O19  1  0.196673  0.196673  0.804052  1
  O  O20  1  0.199844  0.800100  0.199957  1
  O  O21  1  0.802601  0.196673  0.804052  1
