# generated using pymatgen
data_TbEr11ZnCo4Bi
_symmetry_space_group_name_H-M   'P 1'
_cell_length_a   8.28224855
_cell_length_b   8.28224745
_cell_length_c   8.28516830
_cell_angle_alpha   109.68667462
_cell_angle_beta   111.50343763
_cell_angle_gamma   107.23662758
_symmetry_Int_Tables_number   1
_chemical_formula_structural   TbEr11ZnCo4Bi
_chemical_formula_sum   'Tb1 Er11 Zn1 Co4 Bi1'
_cell_volume   436.97019717
_cell_formula_units_Z   1
loop_
 _symmetry_equiv_pos_site_id
 _symmetry_equiv_pos_as_xyz
  1  'x, y, z'
loop_
 _atom_site_type_symbol
 _atom_site_label
 _atom_site_symmetry_multiplicity
 _atom_site_fract_x
 _atom_site_fract_y
 _atom_site_fract_z
 _atom_site_occupancy
  Tb  Tb0  1  0.285590  0.183112  0.468703  1
  Er  Er1  1  0.714057  0.817336  0.531392  1
  Er  Er2  1  0.286235  0.816834  0.103069  1
  Er  Er3  1  0.714148  0.182463  0.896610  1
  Er  Er4  1  0.622032  0.314017  0.307681  1
  Er  Er5  1  0.378753  0.687174  0.692580  1
  Er  Er6  1  0.005407  0.313826  0.692580  1
  Er  Er7  1  0.993662  0.685650  0.307681  1
  Er  Er8  1  0.218934  0.425774  0.205953  1
  Er  Er9  1  0.781840  0.575510  0.794470  1
  Er  Er10  1  0.218960  0.012630  0.794470  1
  Er  Er11  1  0.780178  0.987018  0.205953  1
  Zn  Zn12  1  0.999193  0.999851  0.999044  1
  Co  Co13  1  0.998894  0.376138  0.375032  1
  Co  Co14  1  0.000473  0.624131  0.624604  1
  Co  Co15  1  0.387808  0.886298  0.500096  1
  Co  Co16  1  0.613798  0.112289  0.500096  1
  Bi  Bi17  1  0.500037  0.499949  0.999986  1
