# generated using pymatgen
data_TbYb(Co3Si2)2
_symmetry_space_group_name_H-M   'P 1'
_cell_length_a   6.27193846
_cell_length_b   6.27193795
_cell_length_c   6.27193745
_cell_angle_alpha   130.30484415
_cell_angle_beta   114.21844925
_cell_angle_gamma   86.72830220
_symmetry_Int_Tables_number   1
_chemical_formula_structural   TbYb(Co3Si2)2
_chemical_formula_sum   'Tb1 Yb1 Co6 Si4'
_cell_volume   163.71765982
_cell_formula_units_Z   1
loop_
 _symmetry_equiv_pos_site_id
 _symmetry_equiv_pos_as_xyz
  1  'x, y, z'
loop_
 _atom_site_type_symbol
 _atom_site_label
 _atom_site_symmetry_multiplicity
 _atom_site_fract_x
 _atom_site_fract_y
 _atom_site_fract_z
 _atom_site_occupancy
  Tb  Tb0  1  0.750000  0.462045  0.712045  1
  Yb  Yb1  1  0.250000  0.535726  0.285726  1
  Co  Co2  1  0.000000  0.999678  0.499678  1
  Co  Co3  1  0.500000  0.999678  0.999678  1
  Co  Co4  1  0.719171  0.999936  0.719447  1
  Co  Co5  1  0.219510  0.500276  0.719447  1
  Co  Co6  1  0.280490  0.999936  0.280766  1
  Co  Co7  1  0.780829  0.500276  0.280766  1
  Si  Si8  1  0.080514  0.880335  0.799821  1
  Si  Si9  1  0.920791  0.122194  0.201403  1
  Si  Si10  1  0.579209  0.780613  0.201403  1
  Si  Si11  1  0.419486  0.219306  0.799821  1
