# generated using pymatgen
data_Y6HoTh(CdPt)2
_symmetry_space_group_name_H-M   'P 1'
_cell_length_a   9.78465938
_cell_length_b   9.78465911
_cell_length_c   9.76230300
_cell_angle_alpha   60.07555564
_cell_angle_beta   60.07555652
_cell_angle_gamma   60.07419798
_symmetry_Int_Tables_number   1
_chemical_formula_structural   Y6HoTh(CdPt)2
_chemical_formula_sum   'Y12 Ho2 Th2 Cd4 Pt4'
_cell_volume   662.01407944
_cell_formula_units_Z   2
loop_
 _symmetry_equiv_pos_site_id
 _symmetry_equiv_pos_as_xyz
  1  'x, y, z'
loop_
 _atom_site_type_symbol
 _atom_site_label
 _atom_site_symmetry_multiplicity
 _atom_site_fract_x
 _atom_site_fract_y
 _atom_site_fract_z
 _atom_site_occupancy
  Y  Y0  1  0.811372  0.190465  0.189260  1
  Y  Y1  1  0.190465  0.811372  0.808902  1
  Y  Y2  1  0.190465  0.811372  0.189260  1
  Y  Y3  1  0.811372  0.190465  0.808902  1
  Y  Y4  1  0.188483  0.188483  0.811517  1
  Y  Y5  1  0.809453  0.809453  0.190547  1
  Y  Y6  1  0.935783  0.564931  0.565642  1
  Y  Y7  1  0.564931  0.935783  0.933645  1
  Y  Y8  1  0.564931  0.935783  0.565642  1
  Y  Y9  1  0.935783  0.564931  0.933645  1
  Y  Y10  1  0.566023  0.566023  0.933977  1
  Y  Y11  1  0.936112  0.936112  0.563888  1
  Ho  Ho12  1  0.352792  0.942033  0.352588  1
  Ho  Ho13  1  0.942033  0.352792  0.352588  1
  Th  Th14  1  0.350144  0.350144  0.353299  1
  Th  Th15  1  0.350144  0.350144  0.946413  1
  Cd  Cd16  1  0.583337  0.583337  0.580392  1
  Cd  Cd17  1  0.583337  0.583337  0.252935  1
  Cd  Cd18  1  0.584662  0.251586  0.581875  1
  Cd  Cd19  1  0.251586  0.584662  0.581875  1
  Pt  Pt20  1  0.142322  0.142322  0.147271  1
  Pt  Pt21  1  0.142322  0.142322  0.568084  1
  Pt  Pt22  1  0.143179  0.568967  0.143927  1
  Pt  Pt23  1  0.568967  0.143179  0.143927  1
