# generated using pymatgen
data_Zr16Sc4(Bi3Sb)3
_symmetry_space_group_name_H-M   'P 1'
_cell_length_a   7.64271187
_cell_length_b   8.98406300
_cell_length_c   11.22409361
_cell_angle_alpha   90.00000000
_cell_angle_beta   90.13919735
_cell_angle_gamma   90.00000000
_symmetry_Int_Tables_number   1
_chemical_formula_structural   Zr16Sc4(Bi3Sb)3
_chemical_formula_sum   'Zr16 Sc4 Bi9 Sb3'
_cell_volume   770.67323061
_cell_formula_units_Z   1
loop_
 _symmetry_equiv_pos_site_id
 _symmetry_equiv_pos_as_xyz
  1  'x, y, z'
loop_
 _atom_site_type_symbol
 _atom_site_label
 _atom_site_symmetry_multiplicity
 _atom_site_fract_x
 _atom_site_fract_y
 _atom_site_fract_z
 _atom_site_occupancy
  Zr  Zr0  1  0.021130  0.250000  0.507320  1
  Zr  Zr1  1  0.971364  0.750000  0.491259  1
  Zr  Zr2  1  0.473290  0.750000  0.007975  1
  Zr  Zr3  1  0.526122  0.250000  0.991559  1
  Zr  Zr4  1  0.350945  0.250000  0.283902  1
  Zr  Zr5  1  0.647028  0.750000  0.711684  1
  Zr  Zr6  1  0.147270  0.750000  0.788989  1
  Zr  Zr7  1  0.852636  0.250000  0.212243  1
  Zr  Zr8  1  0.193687  0.060935  0.057936  1
  Zr  Zr9  1  0.805979  0.939257  0.941697  1
  Zr  Zr10  1  0.302977  0.933835  0.558255  1
  Zr  Zr11  1  0.805979  0.560743  0.941697  1
  Zr  Zr12  1  0.698494  0.057792  0.440689  1
  Zr  Zr13  1  0.193687  0.439065  0.057936  1
  Zr  Zr14  1  0.698494  0.442208  0.440689  1
  Zr  Zr15  1  0.302977  0.566165  0.558255  1
  Sc  Sc16  1  0.181707  0.250000  0.783949  1
  Sc  Sc17  1  0.815964  0.750000  0.218325  1
  Sc  Sc18  1  0.316003  0.750000  0.280302  1
  Sc  Sc19  1  0.690645  0.250000  0.723412  1
  Bi  Bi20  1  0.413819  0.250000  0.544962  1
  Bi  Bi21  1  0.070852  0.003860  0.323201  1
  Bi  Bi22  1  0.930530  0.995041  0.676929  1
  Bi  Bi23  1  0.430269  0.995746  0.823194  1
  Bi  Bi24  1  0.930530  0.504959  0.676929  1
  Bi  Bi25  1  0.570304  0.003866  0.176060  1
  Bi  Bi26  1  0.070852  0.496140  0.323201  1
  Bi  Bi27  1  0.570304  0.496134  0.176060  1
  Bi  Bi28  1  0.430269  0.504254  0.823194  1
  Sb  Sb29  1  0.586820  0.750000  0.456647  1
  Sb  Sb30  1  0.087674  0.750000  0.043727  1
  Sb  Sb31  1  0.911402  0.250000  0.957823  1
