# generated using pymatgen
data_Ac2CO5
_symmetry_space_group_name_H-M   'P 1'
_cell_length_a   4.27646963
_cell_length_b   4.27647047
_cell_length_c   16.52394400
_cell_angle_alpha   90.00000000
_cell_angle_beta   90.00000000
_cell_angle_gamma   121.44640312
_symmetry_Int_Tables_number   1
_chemical_formula_structural   Ac2CO5
_chemical_formula_sum   'Ac4 C2 O10'
_cell_volume   257.80958778
_cell_formula_units_Z   2
loop_
 _symmetry_equiv_pos_site_id
 _symmetry_equiv_pos_as_xyz
  1  'x, y, z'
loop_
 _atom_site_type_symbol
 _atom_site_label
 _atom_site_symmetry_multiplicity
 _atom_site_fract_x
 _atom_site_fract_y
 _atom_site_fract_z
 _atom_site_occupancy
  Ac  Ac0  1  0.335143  0.664857  0.403857  1
  Ac  Ac1  1  0.335143  0.664857  0.096143  1
  Ac  Ac2  1  0.664857  0.335143  0.903857  1
  Ac  Ac3  1  0.664857  0.335143  0.596143  1
  C  C4  1  0.069079  0.930921  0.250000  1
  C  C5  1  0.930921  0.069079  0.750000  1
  O  O6  1  0.014408  0.985592  0.680633  1
  O  O7  1  0.242032  0.757968  0.250000  1
  O  O8  1  0.985592  0.014408  0.319367  1
  O  O9  1  0.014408  0.985592  0.819367  1
  O  O10  1  0.334963  0.665037  0.942647  1
  O  O11  1  0.334963  0.665037  0.557353  1
  O  O12  1  0.665037  0.334963  0.442647  1
  O  O13  1  0.665037  0.334963  0.057353  1
  O  O14  1  0.985592  0.014408  0.180633  1
  O  O15  1  0.757968  0.242032  0.750000  1
