# generated using pymatgen
data_Hf5ZrTi4Al12Rh7
_symmetry_space_group_name_H-M   'P 1'
_cell_length_a   8.76991819
_cell_length_b   8.75289229
_cell_length_c   8.75289280
_cell_angle_alpha   60.17768539
_cell_angle_beta   59.93563827
_cell_angle_gamma   59.93563296
_symmetry_Int_Tables_number   1
_chemical_formula_structural   Hf5ZrTi4Al12Rh7
_chemical_formula_sum   'Hf5 Zr1 Ti4 Al12 Rh7'
_cell_volume   475.26868854
_cell_formula_units_Z   1
loop_
 _symmetry_equiv_pos_site_id
 _symmetry_equiv_pos_as_xyz
  1  'x, y, z'
loop_
 _atom_site_type_symbol
 _atom_site_label
 _atom_site_symmetry_multiplicity
 _atom_site_fract_x
 _atom_site_fract_y
 _atom_site_fract_z
 _atom_site_occupancy
  Hf  Hf0  1  0.689660  0.689470  0.309907  1
  Hf  Hf1  1  0.310964  0.689470  0.309907  1
  Hf  Hf2  1  0.683555  0.316445  0.316445  1
  Hf  Hf3  1  0.310964  0.309907  0.689470  1
  Hf  Hf4  1  0.689660  0.309907  0.689470  1
  Zr  Zr5  1  0.314213  0.685787  0.685787  1
  Ti  Ti6  1  0.879978  0.880897  0.359145  1
  Ti  Ti7  1  0.879978  0.359145  0.880897  1
  Ti  Ti8  1  0.359949  0.879870  0.879870  1
  Ti  Ti9  1  0.880309  0.879870  0.879870  1
  Al  Al10  1  0.119446  0.120848  0.640259  1
  Al  Al11  1  0.119446  0.640259  0.120848  1
  Al  Al12  1  0.640995  0.119599  0.119599  1
  Al  Al13  1  0.119806  0.119599  0.119599  1
  Al  Al14  1  0.662948  0.663715  0.010387  1
  Al  Al15  1  0.662948  0.010387  0.663715  1
  Al  Al16  1  0.009570  0.662916  0.662916  1
  Al  Al17  1  0.664596  0.662916  0.662916  1
  Al  Al18  1  0.335816  0.335498  0.992871  1
  Al  Al19  1  0.335816  0.992871  0.335498  1
  Al  Al20  1  0.991826  0.336058  0.336058  1
  Al  Al21  1  0.336058  0.336058  0.336058  1
  Rh  Rh22  1  0.000578  0.999422  0.999422  1
  Rh  Rh23  1  0.997403  0.998673  0.501003  1
  Rh  Rh24  1  0.502921  0.998673  0.501003  1
  Rh  Rh25  1  0.998463  0.501537  0.501537  1
  Rh  Rh26  1  0.502921  0.501003  0.998673  1
  Rh  Rh27  1  0.997403  0.501003  0.998673  1
  Rh  Rh28  1  0.501806  0.998194  0.998194  1
