# generated using pymatgen
data_Hf7Ti2Re(Si3C)2
_symmetry_space_group_name_H-M   'P 1'
_cell_length_a   7.76733500
_cell_length_b   7.76733574
_cell_length_c   5.32391400
_cell_angle_alpha   90.00000000
_cell_angle_beta   90.00000000
_cell_angle_gamma   120.00000109
_symmetry_Int_Tables_number   1
_chemical_formula_structural   Hf7Ti2Re(Si3C)2
_chemical_formula_sum   'Hf7 Ti2 Re1 Si6 C2'
_cell_volume   278.16710635
_cell_formula_units_Z   1
loop_
 _symmetry_equiv_pos_site_id
 _symmetry_equiv_pos_as_xyz
  1  'x, y, z'
loop_
 _atom_site_type_symbol
 _atom_site_label
 _atom_site_symmetry_multiplicity
 _atom_site_fract_x
 _atom_site_fract_y
 _atom_site_fract_z
 _atom_site_occupancy
  Hf  Hf0  1  0.333333  0.666667  0.000000  1
  Hf  Hf1  1  0.239618  0.000362  0.250363  1
  Hf  Hf2  1  0.760743  0.000362  0.749637  1
  Hf  Hf3  1  0.999638  0.239257  0.250363  1
  Hf  Hf4  1  0.999638  0.760382  0.749637  1
  Hf  Hf5  1  0.760743  0.760382  0.250363  1
  Hf  Hf6  1  0.239618  0.239257  0.749637  1
  Ti  Ti7  1  0.666667  0.333333  0.500000  1
  Ti  Ti8  1  0.333333  0.666667  0.500000  1
  Re  Re9  1  0.666667  0.333333  0.000000  1
  Si  Si10  1  0.595717  0.006291  0.252058  1
  Si  Si11  1  0.410575  0.006291  0.747942  1
  Si  Si12  1  0.993709  0.589425  0.252058  1
  Si  Si13  1  0.993709  0.404283  0.747942  1
  Si  Si14  1  0.410575  0.404283  0.252058  1
  Si  Si15  1  0.595717  0.589425  0.747942  1
  C  C16  1  0.000000  0.000000  0.000000  1
  C  C17  1  0.000000  0.000000  0.500000  1
