# generated using pymatgen
data_TbHo9(Bi2As)2
_symmetry_space_group_name_H-M   'P 1'
_cell_length_a   8.02882900
_cell_length_b   9.12733000
_cell_length_c   12.02956800
_cell_angle_alpha   90.00000000
_cell_angle_beta   90.00000000
_cell_angle_gamma   90.00000000
_symmetry_Int_Tables_number   1
_chemical_formula_structural   TbHo9(Bi2As)2
_chemical_formula_sum   'Tb2 Ho18 Bi8 As4'
_cell_volume   881.54805699
_cell_formula_units_Z   2
loop_
 _symmetry_equiv_pos_site_id
 _symmetry_equiv_pos_as_xyz
  1  'x, y, z'
loop_
 _atom_site_type_symbol
 _atom_site_label
 _atom_site_symmetry_multiplicity
 _atom_site_fract_x
 _atom_site_fract_y
 _atom_site_fract_z
 _atom_site_occupancy
  Tb  Tb0  1  0.156588  0.750000  0.211308  1
  Tb  Tb1  1  0.343412  0.750000  0.711308  1
  Ho  Ho2  1  0.817199  0.556154  0.062824  1
  Ho  Ho3  1  0.682801  0.943846  0.562824  1
  Ho  Ho4  1  0.182852  0.056239  0.937193  1
  Ho  Ho5  1  0.317148  0.443761  0.437193  1
  Ho  Ho6  1  0.182852  0.443761  0.937193  1
  Ho  Ho7  1  0.317148  0.056239  0.437193  1
  Ho  Ho8  1  0.817199  0.943846  0.062824  1
  Ho  Ho9  1  0.682801  0.556154  0.562824  1
  Ho  Ho10  1  0.843714  0.250000  0.789271  1
  Ho  Ho11  1  0.656286  0.250000  0.289271  1
  Ho  Ho12  1  0.464027  0.750000  0.999982  1
  Ho  Ho13  1  0.035973  0.750000  0.499982  1
  Ho  Ho14  1  0.536289  0.250000  0.000008  1
  Ho  Ho15  1  0.963711  0.250000  0.500008  1
  Ho  Ho16  1  0.634432  0.750000  0.292796  1
  Ho  Ho17  1  0.865568  0.750000  0.792796  1
  Ho  Ho18  1  0.365928  0.250000  0.707278  1
  Ho  Ho19  1  0.134072  0.250000  0.207278  1
  Bi  Bi20  1  0.925114  0.509595  0.327049  1
  Bi  Bi21  1  0.574886  0.990405  0.827049  1
  Bi  Bi22  1  0.073994  0.010248  0.673065  1
  Bi  Bi23  1  0.426006  0.489752  0.173065  1
  Bi  Bi24  1  0.073994  0.489752  0.673065  1
  Bi  Bi25  1  0.426006  0.010248  0.173065  1
  Bi  Bi26  1  0.925114  0.990405  0.327049  1
  Bi  Bi27  1  0.574886  0.509595  0.827049  1
  As  As28  1  0.412984  0.750000  0.477777  1
  As  As29  1  0.087016  0.750000  0.977777  1
  As  As30  1  0.587178  0.250000  0.521318  1
  As  As31  1  0.912822  0.250000  0.021318  1
