# generated using pymatgen
data_EuGa2GePd
_symmetry_space_group_name_H-M   'P 1'
_cell_length_a   6.17689480
_cell_length_b   6.17689470
_cell_length_c   5.92351000
_cell_angle_alpha   90.00000000
_cell_angle_beta   90.00000000
_cell_angle_gamma   115.42467971
_symmetry_Int_Tables_number   1
_chemical_formula_structural   EuGa2GePd
_chemical_formula_sum   'Eu2 Ga4 Ge2 Pd2'
_cell_volume   204.11721361
_cell_formula_units_Z   2
loop_
 _symmetry_equiv_pos_site_id
 _symmetry_equiv_pos_as_xyz
  1  'x, y, z'
loop_
 _atom_site_type_symbol
 _atom_site_label
 _atom_site_symmetry_multiplicity
 _atom_site_fract_x
 _atom_site_fract_y
 _atom_site_fract_z
 _atom_site_occupancy
  Eu  Eu0  1  0.234299  0.765701  0.750000  1
  Eu  Eu1  1  0.765701  0.234299  0.250000  1
  Ga  Ga2  1  0.721136  0.721136  0.000000  1
  Ga  Ga3  1  0.721136  0.721136  0.500000  1
  Ga  Ga4  1  0.278864  0.278864  0.000000  1
  Ga  Ga5  1  0.278864  0.278864  0.500000  1
  Ge  Ge6  1  0.662309  0.337691  0.750000  1
  Ge  Ge7  1  0.337691  0.662309  0.250000  1
  Pd  Pd8  1  0.904011  0.095989  0.750000  1
  Pd  Pd9  1  0.095989  0.904011  0.250000  1
