# generated using pymatgen
data_CuNiMo3N
_symmetry_space_group_name_H-M   'P 1'
_cell_length_a   6.69823700
_cell_length_b   6.69557000
_cell_length_c   6.69557000
_cell_angle_alpha   90.00000000
_cell_angle_beta   90.00000000
_cell_angle_gamma   90.00000000
_symmetry_Int_Tables_number   1
_chemical_formula_structural   CuNiMo3N
_chemical_formula_sum   'Cu4 Ni4 Mo12 N4'
_cell_volume   300.28636964
_cell_formula_units_Z   4
loop_
 _symmetry_equiv_pos_site_id
 _symmetry_equiv_pos_as_xyz
  1  'x, y, z'
loop_
 _atom_site_type_symbol
 _atom_site_label
 _atom_site_symmetry_multiplicity
 _atom_site_fract_x
 _atom_site_fract_y
 _atom_site_fract_z
 _atom_site_occupancy
  Cu  Cu0  1  0.931228  0.568410  0.432199  1
  Cu  Cu1  1  0.181228  0.817801  0.318410  1
  Cu  Cu2  1  0.431228  0.931590  0.567801  1
  Cu  Cu3  1  0.681228  0.682199  0.681590  1
  Ni  Ni4  1  0.816462  0.317726  0.181967  1
  Ni  Ni5  1  0.316462  0.182274  0.818033  1
  Ni  Ni6  1  0.566462  0.431967  0.932274  1
  Ni  Ni7  1  0.066462  0.068033  0.067726  1
  Mo  Mo8  1  0.205545  0.447854  0.122701  1
  Mo  Mo9  1  0.049086  0.878540  0.708907  1
  Mo  Mo10  1  0.455545  0.127299  0.197854  1
  Mo  Mo11  1  0.299086  0.541093  0.628540  1
  Mo  Mo12  1  0.955545  0.372701  0.802146  1
  Mo  Mo13  1  0.549086  0.621460  0.291093  1
  Mo  Mo14  1  0.705545  0.052146  0.877299  1
  Mo  Mo15  1  0.621977  0.294085  0.549679  1
  Mo  Mo16  1  0.871977  0.700321  0.044085  1
  Mo  Mo17  1  0.371977  0.799679  0.955915  1
  Mo  Mo18  1  0.121977  0.205915  0.450321  1
  Mo  Mo19  1  0.799086  0.958907  0.371460  1
  N  N20  1  0.875701  0.126216  0.625169  1
  N  N21  1  0.625701  0.875169  0.123784  1
  N  N22  1  0.125701  0.624831  0.876216  1
  N  N23  1  0.375701  0.373784  0.374831  1
