# generated using pymatgen
data_U4Pa4Re3B24W
_symmetry_space_group_name_H-M   'P 1'
_cell_length_a   3.68752400
_cell_length_b   9.32134709
_cell_length_c   11.41354611
_cell_angle_alpha   89.98417880
_cell_angle_beta   90.00000000
_cell_angle_gamma   90.00000000
_symmetry_Int_Tables_number   1
_chemical_formula_structural   U4Pa4Re3B24W
_chemical_formula_sum   'U4 Pa4 Re3 B24 W1'
_cell_volume   392.31427982
_cell_formula_units_Z   1
loop_
 _symmetry_equiv_pos_site_id
 _symmetry_equiv_pos_as_xyz
  1  'x, y, z'
loop_
 _atom_site_type_symbol
 _atom_site_label
 _atom_site_symmetry_multiplicity
 _atom_site_fract_x
 _atom_site_fract_y
 _atom_site_fract_z
 _atom_site_occupancy
  U  U0  1  0.000000  0.955889  0.395931  1
  U  U1  1  0.000000  0.043676  0.604279  1
  U  U2  1  0.000000  0.457338  0.104203  1
  U  U3  1  0.000000  0.543285  0.895806  1
  Pa  Pa4  1  0.000000  0.334980  0.407096  1
  Pa  Pa5  1  0.000000  0.665410  0.592142  1
  Pa  Pa6  1  0.000000  0.834210  0.093224  1
  Pa  Pa7  1  0.000000  0.165196  0.907444  1
  Re  Re8  1  0.000000  0.354009  0.680757  1
  Re  Re9  1  0.000000  0.145969  0.180143  1
  Re  Re10  1  0.000000  0.854111  0.819573  1
  B  B11  1  0.500000  0.550568  0.432659  1
  B  B12  1  0.500000  0.448598  0.568445  1
  B  B13  1  0.500000  0.051087  0.068147  1
  B  B14  1  0.500000  0.949031  0.931789  1
  B  B15  1  0.500000  0.744272  0.423859  1
  B  B16  1  0.500000  0.256315  0.577026  1
  B  B17  1  0.500000  0.243669  0.076901  1
  B  B18  1  0.500000  0.756247  0.922879  1
  B  B19  1  0.500000  0.804473  0.273704  1
  B  B20  1  0.500000  0.196193  0.726252  1
  B  B21  1  0.500000  0.303222  0.225923  1
  B  B22  1  0.500000  0.696335  0.773736  1
  B  B23  1  0.500000  0.644602  0.187418  1
  B  B24  1  0.500000  0.355503  0.811789  1
  B  B25  1  0.500000  0.144356  0.311543  1
  B  B26  1  0.500000  0.855658  0.688356  1
  B  B27  1  0.500000  0.987804  0.219468  1
  B  B28  1  0.500000  0.012836  0.780553  1
  B  B29  1  0.500000  0.486341  0.280082  1
  B  B30  1  0.500000  0.512607  0.719526  1
  B  B31  1  0.500000  0.641196  0.038436  1
  B  B32  1  0.500000  0.358705  0.960919  1
  B  B33  1  0.500000  0.141159  0.460891  1
  B  B34  1  0.500000  0.859307  0.539595  1
  W  W35  1  0.000000  0.645843  0.319506  1
