# generated using pymatgen
data_Tm9ScZn3Bi2Pt
_symmetry_space_group_name_H-M   'P 1'
_cell_length_a   8.48609080
_cell_length_b   8.48609024
_cell_length_c   8.53246182
_cell_angle_alpha   124.29364629
_cell_angle_beta   124.16891199
_cell_angle_gamma   82.46009257
_symmetry_Int_Tables_number   1
_chemical_formula_structural   Tm9ScZn3Bi2Pt
_chemical_formula_sum   'Tm9 Sc1 Zn3 Bi2 Pt1'
_cell_volume   404.29794030
_cell_formula_units_Z   1
loop_
 _symmetry_equiv_pos_site_id
 _symmetry_equiv_pos_as_xyz
  1  'x, y, z'
loop_
 _atom_site_type_symbol
 _atom_site_label
 _atom_site_symmetry_multiplicity
 _atom_site_fract_x
 _atom_site_fract_y
 _atom_site_fract_z
 _atom_site_occupancy
  Tm  Tm0  1  0.498239  0.495825  0.994064  1
  Tm  Tm1  1  0.788921  0.293273  0.801730  1
  Tm  Tm2  1  0.203097  0.714577  0.197874  1
  Tm  Tm3  1  0.483297  0.994777  0.197874  1
  Tm  Tm4  1  0.297823  0.473631  0.495719  1
  Tm  Tm5  1  0.022088  0.197896  0.495719  1
  Tm  Tm6  1  0.508457  0.012809  0.801730  1
  Tm  Tm7  1  0.708385  0.516569  0.503253  1
  Tm  Tm8  1  0.986684  0.794868  0.503253  1
  Sc  Sc9  1  0.003353  0.000803  0.004156  1
  Zn  Zn10  1  0.137180  0.643148  0.780328  1
  Zn  Zn11  1  0.861610  0.359068  0.220678  1
  Zn  Zn12  1  0.640091  0.863034  0.503124  1
  Bi  Bi13  1  0.243635  0.250209  0.999591  1
  Bi  Bi14  1  0.749382  0.755957  0.999591  1
  Pt  Pt15  1  0.367758  0.133556  0.501314  1
