# generated using pymatgen
data_YLu9(Bi2Ir)2
_symmetry_space_group_name_H-M   'P 1'
_cell_length_a   7.83299251
_cell_length_b   8.94555700
_cell_length_c   12.33015400
_cell_angle_alpha   90.00000000
_cell_angle_beta   90.12113108
_cell_angle_gamma   90.00000000
_symmetry_Int_Tables_number   1
_chemical_formula_structural   YLu9(Bi2Ir)2
_chemical_formula_sum   'Y2 Lu18 Bi8 Ir4'
_cell_volume   863.97788997
_cell_formula_units_Z   2
loop_
 _symmetry_equiv_pos_site_id
 _symmetry_equiv_pos_as_xyz
  1  'x, y, z'
loop_
 _atom_site_type_symbol
 _atom_site_label
 _atom_site_symmetry_multiplicity
 _atom_site_fract_x
 _atom_site_fract_y
 _atom_site_fract_z
 _atom_site_occupancy
  Y  Y0  1  0.445473  0.250000  0.999521  1
  Y  Y1  1  0.554527  0.750000  0.000479  1
  Lu  Lu2  1  0.839178  0.750000  0.791408  1
  Lu  Lu3  1  0.160822  0.250000  0.208592  1
  Lu  Lu4  1  0.339232  0.250000  0.706175  1
  Lu  Lu5  1  0.660768  0.750000  0.293825  1
  Lu  Lu6  1  0.377887  0.750000  0.689687  1
  Lu  Lu7  1  0.622113  0.250000  0.310313  1
  Lu  Lu8  1  0.877560  0.250000  0.809673  1
  Lu  Lu9  1  0.122440  0.750000  0.190327  1
  Lu  Lu10  1  0.940759  0.750000  0.501582  1
  Lu  Lu11  1  0.059241  0.250000  0.498418  1
  Lu  Lu12  1  0.672954  0.042913  0.565567  1
  Lu  Lu13  1  0.327046  0.957087  0.434433  1
  Lu  Lu14  1  0.170984  0.957699  0.932607  1
  Lu  Lu15  1  0.327046  0.542913  0.434433  1
  Lu  Lu16  1  0.829016  0.042301  0.067393  1
  Lu  Lu17  1  0.672954  0.457087  0.565567  1
  Lu  Lu18  1  0.829016  0.457699  0.067393  1
  Lu  Lu19  1  0.170984  0.542301  0.932607  1
  Bi  Bi20  1  0.565628  0.490385  0.825356  1
  Bi  Bi21  1  0.434372  0.509615  0.174644  1
  Bi  Bi22  1  0.065192  0.509381  0.671648  1
  Bi  Bi23  1  0.434372  0.990385  0.174644  1
  Bi  Bi24  1  0.934808  0.490619  0.328352  1
  Bi  Bi25  1  0.565628  0.009615  0.825356  1
  Bi  Bi26  1  0.934808  0.009381  0.328352  1
  Bi  Bi27  1  0.065192  0.990619  0.671648  1
  Ir  Ir28  1  0.573199  0.750000  0.508433  1
  Ir  Ir29  1  0.426801  0.250000  0.491567  1
  Ir  Ir30  1  0.069671  0.250000  0.992783  1
  Ir  Ir31  1  0.930329  0.750000  0.007217  1
