# generated using pymatgen
data_LiEr8Sc11Si15As
_symmetry_space_group_name_H-M   'P 1'
_cell_length_a   7.05358023
_cell_length_b   7.33683822
_cell_length_c   13.93836657
_cell_angle_alpha   90.04912423
_cell_angle_beta   88.93271519
_cell_angle_gamma   90.20356428
_symmetry_Int_Tables_number   1
_chemical_formula_structural   LiEr8Sc11Si15As
_chemical_formula_sum   'Li1 Er8 Sc11 Si15 As1'
_cell_volume   721.19416797
_cell_formula_units_Z   1
loop_
 _symmetry_equiv_pos_site_id
 _symmetry_equiv_pos_as_xyz
  1  'x, y, z'
loop_
 _atom_site_type_symbol
 _atom_site_label
 _atom_site_symmetry_multiplicity
 _atom_site_fract_x
 _atom_site_fract_y
 _atom_site_fract_z
 _atom_site_occupancy
  Li  Li0  1  0.167262  0.507037  0.753591  1
  Er  Er1  1  0.011613  0.176378  0.096708  1
  Er  Er2  1  0.988600  0.815383  0.900747  1
  Er  Er3  1  0.485578  0.675074  0.901336  1
  Er  Er4  1  0.994214  0.813394  0.597291  1
  Er  Er5  1  0.510436  0.324802  0.097012  1
  Er  Er6  1  0.005546  0.179088  0.404154  1
  Er  Er7  1  0.505279  0.321978  0.401954  1
  Er  Er8  1  0.494773  0.674668  0.598925  1
  Sc  Sc9  1  0.832933  0.497780  0.252390  1
  Sc  Sc10  1  0.335603  0.002772  0.251422  1
  Sc  Sc11  1  0.662426  0.997205  0.748437  1
  Sc  Sc12  1  0.334712  0.177346  0.628223  1
  Sc  Sc13  1  0.661815  0.827384  0.373792  1
  Sc  Sc14  1  0.158293  0.674468  0.376444  1
  Sc  Sc15  1  0.670263  0.824565  0.125245  1
  Sc  Sc16  1  0.847163  0.330247  0.624420  1
  Sc  Sc17  1  0.327770  0.180361  0.872996  1
  Sc  Sc18  1  0.837371  0.326035  0.873119  1
  Sc  Sc19  1  0.168107  0.679238  0.125089  1
  Si  Si20  1  0.032513  0.100974  0.749935  1
  Si  Si21  1  0.966372  0.888508  0.249291  1
  Si  Si22  1  0.460163  0.616942  0.248751  1
  Si  Si23  1  0.542010  0.385369  0.750588  1
  Si  Si24  1  0.288817  0.876051  0.750116  1
  Si  Si25  1  0.711601  0.130276  0.249193  1
  Si  Si26  1  0.208796  0.372617  0.249368  1
  Si  Si27  1  0.782226  0.628540  0.749909  1
  Si  Si28  1  0.812687  0.540818  0.459450  1
  Si  Si29  1  0.335000  0.963808  0.463048  1
  Si  Si30  1  0.842763  0.534798  0.038914  1
  Si  Si31  1  0.665400  0.036344  0.540335  1
  Si  Si32  1  0.159963  0.461989  0.965251  1
  Si  Si33  1  0.656329  0.034281  0.959080  1
  Si  Si34  1  0.346478  0.967150  0.038654  1
  As  As35  1  0.189122  0.456331  0.534822  1
