# generated using pymatgen
data_YbSiGeIr2
_symmetry_space_group_name_H-M   'P 1'
_cell_length_a   5.85613068
_cell_length_b   5.85613032
_cell_length_c   5.85613171
_cell_angle_alpha   138.56805802
_cell_angle_beta   138.56805289
_cell_angle_gamma   60.03409311
_symmetry_Int_Tables_number   1
_chemical_formula_structural   YbSiGeIr2
_chemical_formula_sum   'Yb1 Si1 Ge1 Ir2'
_cell_volume   87.03739232
_cell_formula_units_Z   1
loop_
 _symmetry_equiv_pos_site_id
 _symmetry_equiv_pos_as_xyz
  1  'x, y, z'
loop_
 _atom_site_type_symbol
 _atom_site_label
 _atom_site_symmetry_multiplicity
 _atom_site_fract_x
 _atom_site_fract_y
 _atom_site_fract_z
 _atom_site_occupancy
  Yb  Yb0  1  0.999736  0.999736  0.000000  1
  Si  Si1  1  0.629568  0.629568  0.000000  1
  Ge  Ge2  1  0.381564  0.381564  0.000000  1
  Ir  Ir3  1  0.244566  0.744566  0.500000  1
  Ir  Ir4  1  0.744566  0.244566  0.500000  1
