# generated using pymatgen
data_Dy6Al24Fe2(OsRu)3
_symmetry_space_group_name_H-M   'P 1'
_cell_length_a   8.76168170
_cell_length_b   8.75365215
_cell_length_c   9.51738973
_cell_angle_alpha   89.99682098
_cell_angle_beta   89.91046857
_cell_angle_gamma   120.09435052
_symmetry_Int_Tables_number   1
_chemical_formula_structural   Dy6Al24Fe2(OsRu)3
_chemical_formula_sum   'Dy6 Al24 Fe2 Os3 Ru3'
_cell_volume   631.55448138
_cell_formula_units_Z   1
loop_
 _symmetry_equiv_pos_site_id
 _symmetry_equiv_pos_as_xyz
  1  'x, y, z'
loop_
 _atom_site_type_symbol
 _atom_site_label
 _atom_site_symmetry_multiplicity
 _atom_site_fract_x
 _atom_site_fract_y
 _atom_site_fract_z
 _atom_site_occupancy
  Dy  Dy0  1  0.191995  0.805748  0.250799  1
  Dy  Dy1  1  0.194639  0.387121  0.250629  1
  Dy  Dy2  1  0.613687  0.804665  0.250227  1
  Dy  Dy3  1  0.808005  0.194252  0.749201  1
  Dy  Dy4  1  0.805361  0.612879  0.749371  1
  Dy  Dy5  1  0.386313  0.195335  0.749773  1
  Al  Al6  1  0.561988  0.437484  0.249847  1
  Al  Al7  1  0.561049  0.121112  0.249840  1
  Al  Al8  1  0.877108  0.437813  0.249279  1
  Al  Al9  1  0.438012  0.562516  0.750153  1
  Al  Al10  1  0.438951  0.878888  0.750160  1
  Al  Al11  1  0.122892  0.562187  0.750721  1
  Al  Al12  1  0.319028  0.159327  0.423904  1
  Al  Al13  1  0.840589  0.159299  0.424087  1
  Al  Al14  1  0.840378  0.680390  0.424566  1
  Al  Al15  1  0.680972  0.840673  0.576096  1
  Al  Al16  1  0.159411  0.840701  0.575913  1
  Al  Al17  1  0.159622  0.319610  0.575434  1
  Al  Al18  1  0.680697  0.840597  0.923938  1
  Al  Al19  1  0.159497  0.840828  0.923916  1
  Al  Al20  1  0.159720  0.319538  0.924267  1
  Al  Al21  1  0.319303  0.159403  0.076062  1
  Al  Al22  1  0.840503  0.159172  0.076084  1
  Al  Al23  1  0.840280  0.680462  0.075733  1
  Al  Al24  1  0.666259  0.332473  0.515497  1
  Al  Al25  1  0.333741  0.667527  0.484503  1
  Al  Al26  1  0.333116  0.667245  0.015779  1
  Al  Al27  1  0.666884  0.332755  0.984221  1
  Al  Al28  1  0.000152  0.999896  0.250297  1
  Al  Al29  1  0.999848  0.000104  0.749703  1
  Fe  Fe30  1  0.000000  0.000000  0.500000  1
  Fe  Fe31  1  0.000000  0.000000  0.000000  1
  Os  Os32  1  0.500000  0.500000  0.500000  1
  Os  Os33  1  0.000000  0.500000  0.500000  1
  Os  Os34  1  0.500000  0.500000  0.000000  1
  Ru  Ru35  1  0.500000  0.000000  0.500000  1
  Ru  Ru36  1  0.500000  0.000000  0.000000  1
  Ru  Ru37  1  0.000000  0.500000  0.000000  1
