# generated using pymatgen
data_Pr4NdBiPb2
_symmetry_space_group_name_H-M   'P 1'
_cell_length_a   6.78848001
_cell_length_b   9.53824027
_cell_length_c   9.53474420
_cell_angle_alpha   120.01192653
_cell_angle_beta   90.00317372
_cell_angle_gamma   89.99369204
_symmetry_Int_Tables_number   1
_chemical_formula_structural   Pr4NdBiPb2
_chemical_formula_sum   'Pr8 Nd2 Bi2 Pb4'
_cell_volume   534.59915883
_cell_formula_units_Z   2
loop_
 _symmetry_equiv_pos_site_id
 _symmetry_equiv_pos_as_xyz
  1  'x, y, z'
loop_
 _atom_site_type_symbol
 _atom_site_label
 _atom_site_symmetry_multiplicity
 _atom_site_fract_x
 _atom_site_fract_y
 _atom_site_fract_z
 _atom_site_occupancy
  Pr  Pr0  1  0.500998  0.333347  0.668459  1
  Pr  Pr1  1  0.500999  0.664888  0.331541  1
  Pr  Pr2  1  0.750153  0.240237  0.000000  1
  Pr  Pr3  1  0.750125  0.758563  0.759135  1
  Pr  Pr4  1  0.750126  0.999429  0.240865  1
  Pr  Pr5  1  0.249844  0.758723  0.000000  1
  Pr  Pr6  1  0.249863  0.241617  0.237823  1
  Pr  Pr7  1  0.249862  0.003791  0.762176  1
  Nd  Nd8  1  0.998998  0.664902  0.331550  1
  Nd  Nd9  1  0.998998  0.333351  0.668450  1
  Bi  Bi10  1  0.249544  0.608892  0.608525  1
  Bi  Bi11  1  0.249544  0.000368  0.391475  1
  Pb  Pb12  1  0.750488  0.607570  0.000000  1
  Pb  Pb13  1  0.750459  0.391910  0.393343  1
  Pb  Pb14  1  0.750459  0.998565  0.606658  1
  Pb  Pb15  1  0.249537  0.393847  0.000001  1
