# generated using pymatgen
data_Zr10SnBi6
_symmetry_space_group_name_H-M   'P 1'
_cell_length_a   6.03066424
_cell_length_b   8.84212592
_cell_length_c   8.80686245
_cell_angle_alpha   119.86988975
_cell_angle_beta   90.09788571
_cell_angle_gamma   89.94890571
_symmetry_Int_Tables_number   1
_chemical_formula_structural   Zr10SnBi6
_chemical_formula_sum   'Zr10 Sn1 Bi6'
_cell_volume   407.23111887
_cell_formula_units_Z   1
loop_
 _symmetry_equiv_pos_site_id
 _symmetry_equiv_pos_as_xyz
  1  'x, y, z'
loop_
 _atom_site_type_symbol
 _atom_site_label
 _atom_site_symmetry_multiplicity
 _atom_site_fract_x
 _atom_site_fract_y
 _atom_site_fract_z
 _atom_site_occupancy
  Zr  Zr0  1  0.498680  0.329382  0.663518  1
  Zr  Zr1  1  0.498657  0.670611  0.334132  1
  Zr  Zr2  1  0.001995  0.670102  0.334094  1
  Zr  Zr3  1  0.002025  0.329896  0.663918  1
  Zr  Zr4  1  0.779435  0.267291  0.999146  1
  Zr  Zr5  1  0.779381  0.732681  0.731790  1
  Zr  Zr6  1  0.784020  0.999998  0.267135  1
  Zr  Zr7  1  0.219568  0.735288  0.006079  1
  Zr  Zr8  1  0.219605  0.264744  0.270843  1
  Zr  Zr9  1  0.220129  0.999999  0.729174  1
  Sn  Sn10  1  0.258475  0.000034  0.386523  1
  Bi  Bi11  1  0.741061  0.613242  0.999336  1
  Bi  Bi12  1  0.741033  0.386737  0.386110  1
  Bi  Bi13  1  0.740450  0.999975  0.612033  1
  Bi  Bi14  1  0.258260  0.385321  0.000649  1
  Bi  Bi15  1  0.258287  0.614700  0.615314  1
  Bi  Bi16  1  0.498938  0.000002  0.000209  1
