# generated using pymatgen
data_Er8Sc11Si16Rh
_symmetry_space_group_name_H-M   'P 1'
_cell_length_a   6.95756901
_cell_length_b   7.38010237
_cell_length_c   13.85171100
_cell_angle_alpha   90.00000000
_cell_angle_beta   90.00000000
_cell_angle_gamma   89.90638754
_symmetry_Int_Tables_number   1
_chemical_formula_structural   Er8Sc11Si16Rh
_chemical_formula_sum   'Er8 Sc11 Si16 Rh1'
_cell_volume   711.25077202
_cell_formula_units_Z   1
loop_
 _symmetry_equiv_pos_site_id
 _symmetry_equiv_pos_as_xyz
  1  'x, y, z'
loop_
 _atom_site_type_symbol
 _atom_site_label
 _atom_site_symmetry_multiplicity
 _atom_site_fract_x
 _atom_site_fract_y
 _atom_site_fract_z
 _atom_site_occupancy
  Er  Er0  1  0.012247  0.179187  0.093383  1
  Er  Er1  1  0.990732  0.814411  0.902384  1
  Er  Er2  1  0.489279  0.674647  0.903050  1
  Er  Er3  1  0.990732  0.814411  0.597616  1
  Er  Er4  1  0.510171  0.322059  0.094042  1
  Er  Er5  1  0.012247  0.179187  0.406617  1
  Er  Er6  1  0.510171  0.322059  0.405958  1
  Er  Er7  1  0.489279  0.674647  0.596950  1
  Sc  Sc8  1  0.840766  0.496400  0.250000  1
  Sc  Sc9  1  0.342206  0.005035  0.250000  1
  Sc  Sc10  1  0.653336  0.996947  0.750000  1
  Sc  Sc11  1  0.321513  0.176881  0.628274  1
  Sc  Sc12  1  0.672381  0.825102  0.374239  1
  Sc  Sc13  1  0.173213  0.673671  0.375938  1
  Sc  Sc14  1  0.672381  0.825102  0.125761  1
  Sc  Sc15  1  0.831221  0.328622  0.629658  1
  Sc  Sc16  1  0.321513  0.176881  0.871726  1
  Sc  Sc17  1  0.831221  0.328622  0.870342  1
  Sc  Sc18  1  0.173213  0.673671  0.124062  1
  Si  Si19  1  0.023803  0.094231  0.750000  1
  Si  Si20  1  0.973367  0.889151  0.250000  1
  Si  Si21  1  0.469806  0.613045  0.250000  1
  Si  Si22  1  0.517188  0.396029  0.750000  1
  Si  Si23  1  0.282432  0.862214  0.750000  1
  Si  Si24  1  0.716163  0.131617  0.250000  1
  Si  Si25  1  0.215097  0.370152  0.250000  1
  Si  Si26  1  0.792325  0.629247  0.750000  1
  Si  Si27  1  0.160761  0.464129  0.542550  1
  Si  Si28  1  0.842313  0.534795  0.463582  1
  Si  Si29  1  0.343952  0.964845  0.463228  1
  Si  Si30  1  0.842313  0.534795  0.036418  1
  Si  Si31  1  0.659046  0.034681  0.540218  1
  Si  Si32  1  0.160761  0.464129  0.957450  1
  Si  Si33  1  0.659046  0.034681  0.959782  1
  Si  Si34  1  0.343952  0.964845  0.036772  1
  Rh  Rh35  1  0.159859  0.529870  0.750000  1
