# generated using pymatgen
data_Ho2Si14IrRh5
_symmetry_space_group_name_H-M   'P 1'
_cell_length_a   7.98883797
_cell_length_b   7.99764838
_cell_length_c   7.99764951
_cell_angle_alpha   57.00686399
_cell_angle_beta   56.99846548
_cell_angle_gamma   56.99845282
_symmetry_Int_Tables_number   1
_chemical_formula_structural   Ho2Si14IrRh5
_chemical_formula_sum   'Ho2 Si14 Ir1 Rh5'
_cell_volume   336.33802167
_cell_formula_units_Z   1
loop_
 _symmetry_equiv_pos_site_id
 _symmetry_equiv_pos_as_xyz
  1  'x, y, z'
loop_
 _atom_site_type_symbol
 _atom_site_label
 _atom_site_symmetry_multiplicity
 _atom_site_fract_x
 _atom_site_fract_y
 _atom_site_fract_z
 _atom_site_occupancy
  Ho  Ho0  1  0.999792  0.999839  0.000880  1
  Ho  Ho1  1  0.500208  0.499120  0.500161  1
  Si  Si2  1  0.750000  0.748666  0.751334  1
  Si  Si3  1  0.250000  0.250305  0.249695  1
  Si  Si4  1  0.851802  0.067134  0.671752  1
  Si  Si5  1  0.673010  0.851483  0.064029  1
  Si  Si6  1  0.064581  0.674014  0.850200  1
  Si  Si7  1  0.648198  0.828248  0.432866  1
  Si  Si8  1  0.435419  0.649800  0.825986  1
  Si  Si9  1  0.826990  0.435971  0.648517  1
  Si  Si10  1  0.173996  0.562875  0.351610  1
  Si  Si11  1  0.563438  0.351274  0.171804  1
  Si  Si12  1  0.351188  0.170827  0.567776  1
  Si  Si13  1  0.936562  0.328196  0.148726  1
  Si  Si14  1  0.326004  0.148390  0.937125  1
  Si  Si15  1  0.148812  0.932224  0.329173  1
  Ir  Ir16  1  0.750000  0.070442  0.429558  1
  Rh  Rh17  1  0.070317  0.429352  0.750348  1
  Rh  Rh18  1  0.250000  0.930705  0.569295  1
  Rh  Rh19  1  0.570248  0.250285  0.928802  1
  Rh  Rh20  1  0.929752  0.571198  0.249715  1
  Rh  Rh21  1  0.429683  0.749652  0.070648  1
