# generated using pymatgen
data_Tb5CeSbO12
_symmetry_space_group_name_H-M   'P 1'
_cell_length_a   6.50689117
_cell_length_b   6.55052231
_cell_length_c   6.56392906
_cell_angle_alpha   98.95330129
_cell_angle_beta   99.00535572
_cell_angle_gamma   98.63252063
_symmetry_Int_Tables_number   1
_chemical_formula_structural   Tb5CeSbO12
_chemical_formula_sum   'Tb5 Ce1 Sb1 O12'
_cell_volume   268.56301667
_cell_formula_units_Z   1
loop_
 _symmetry_equiv_pos_site_id
 _symmetry_equiv_pos_as_xyz
  1  'x, y, z'
loop_
 _atom_site_type_symbol
 _atom_site_label
 _atom_site_symmetry_multiplicity
 _atom_site_fract_x
 _atom_site_fract_y
 _atom_site_fract_z
 _atom_site_occupancy
  Tb  Tb0  1  0.392915  0.858270  0.692836  1
  Tb  Tb1  1  0.695307  0.391907  0.865310  1
  Tb  Tb2  1  0.309309  0.611350  0.142998  1
  Tb  Tb3  1  0.608008  0.138583  0.301035  1
  Tb  Tb4  1  0.855872  0.693938  0.388387  1
  Ce  Ce5  1  0.142155  0.309618  0.604644  1
  Sb  Sb6  1  0.000270  0.998223  0.997414  1
  O  O7  1  0.069883  0.302364  0.960986  1
  O  O8  1  0.042419  0.927881  0.696155  1
  O  O9  1  0.407153  0.563773  0.821278  1
  O  O10  1  0.177516  0.586060  0.435472  1
  O  O11  1  0.696240  0.041518  0.929696  1
  O  O12  1  0.429484  0.182837  0.589386  1
  O  O13  1  0.564147  0.825377  0.412588  1
  O  O14  1  0.303220  0.958784  0.070704  1
  O  O15  1  0.828762  0.406510  0.568177  1
  O  O16  1  0.591128  0.435811  0.179937  1
  O  O17  1  0.957824  0.069600  0.301782  1
  O  O18  1  0.928386  0.697597  0.041217  1
