# generated using pymatgen
data_Tb9Er(OsRu)2
_symmetry_space_group_name_H-M   'P 1'
_cell_length_a   8.51736452
_cell_length_b   8.51736398
_cell_length_c   7.31041300
_cell_angle_alpha   83.22166937
_cell_angle_beta   83.22166980
_cell_angle_gamma   44.19325272
_symmetry_Int_Tables_number   1
_chemical_formula_structural   Tb9Er(OsRu)2
_chemical_formula_sum   'Tb9 Er1 Os2 Ru2'
_cell_volume   366.67632885
_cell_formula_units_Z   1
loop_
 _symmetry_equiv_pos_site_id
 _symmetry_equiv_pos_as_xyz
  1  'x, y, z'
loop_
 _atom_site_type_symbol
 _atom_site_label
 _atom_site_symmetry_multiplicity
 _atom_site_fract_x
 _atom_site_fract_y
 _atom_site_fract_z
 _atom_site_occupancy
  Tb  Tb0  1  0.205938  0.977514  0.583857  1
  Tb  Tb1  1  0.022486  0.794062  0.916143  1
  Tb  Tb2  1  0.205923  0.360194  0.314318  1
  Tb  Tb3  1  0.639806  0.794077  0.185682  1
  Tb  Tb4  1  0.794348  0.640519  0.685102  1
  Tb  Tb5  1  0.359481  0.205652  0.814898  1
  Tb  Tb6  1  0.978357  0.206832  0.085477  1
  Tb  Tb7  1  0.793168  0.021643  0.414523  1
  Tb  Tb8  1  0.575427  0.424573  0.750000  1
  Er  Er9  1  0.422920  0.577080  0.250000  1
  Os  Os10  1  0.177313  0.602833  0.574329  1
  Os  Os11  1  0.397167  0.822687  0.925671  1
  Ru  Ru12  1  0.824025  0.396359  0.423825  1
  Ru  Ru13  1  0.603641  0.175975  0.076175  1
