# generated using pymatgen
data_Ho6ErZn(Co3Sn11)2
_symmetry_space_group_name_H-M   'P 1'
_cell_length_a   9.64678158
_cell_length_b   9.65896073
_cell_length_c   9.94678226
_cell_angle_alpha   89.99999755
_cell_angle_beta   89.84383256
_cell_angle_gamma   120.04177471
_symmetry_Int_Tables_number   1
_chemical_formula_structural   Ho6ErZn(Co3Sn11)2
_chemical_formula_sum   'Ho6 Er1 Zn1 Co6 Sn22'
_cell_volume   802.30770961
_cell_formula_units_Z   1
loop_
 _symmetry_equiv_pos_site_id
 _symmetry_equiv_pos_as_xyz
  1  'x, y, z'
loop_
 _atom_site_type_symbol
 _atom_site_label
 _atom_site_symmetry_multiplicity
 _atom_site_fract_x
 _atom_site_fract_y
 _atom_site_fract_z
 _atom_site_occupancy
  Ho  Ho0  1  0.479557  0.520270  0.305915  1
  Ho  Ho1  1  0.520356  0.479750  0.694232  1
  Ho  Ho2  1  0.479557  0.959288  0.305915  1
  Ho  Ho3  1  0.520356  0.040605  0.694232  1
  Ho  Ho4  1  0.040846  0.520424  0.305912  1
  Ho  Ho5  1  0.999798  0.999899  0.000120  1
  Er  Er6  1  0.959611  0.479805  0.694206  1
  Zn  Zn7  1  0.999863  0.999932  0.499997  1
  Co  Co8  1  0.831980  0.167856  0.197299  1
  Co  Co9  1  0.167936  0.831914  0.802442  1
  Co  Co10  1  0.831980  0.664126  0.197299  1
  Co  Co11  1  0.167936  0.336020  0.802442  1
  Co  Co12  1  0.335501  0.167752  0.197170  1
  Co  Co13  1  0.664725  0.832362  0.802428  1
  Sn  Sn14  1  0.113448  0.885793  0.276696  1
  Sn  Sn15  1  0.886529  0.114169  0.723284  1
  Sn  Sn16  1  0.113448  0.227655  0.276696  1
  Sn  Sn17  1  0.886529  0.772359  0.723284  1
  Sn  Sn18  1  0.772410  0.886205  0.276638  1
  Sn  Sn19  1  0.227207  0.113604  0.723243  1
  Sn  Sn20  1  0.783051  0.217193  0.454226  1
  Sn  Sn21  1  0.216722  0.782783  0.546481  1
  Sn  Sn22  1  0.783051  0.565858  0.454226  1
  Sn  Sn23  1  0.216722  0.433939  0.546481  1
  Sn  Sn24  1  0.434005  0.217003  0.454069  1
  Sn  Sn25  1  0.566023  0.783012  0.546318  1
  Sn  Sn26  1  0.345956  0.999880  0.999785  1
  Sn  Sn27  1  0.654033  0.999900  0.999937  1
  Sn  Sn28  1  0.000072  0.346011  0.999917  1
  Sn  Sn29  1  0.000072  0.654060  0.999917  1
  Sn  Sn30  1  0.654033  0.654133  0.999937  1
  Sn  Sn31  1  0.345956  0.346077  0.999785  1
  Sn  Sn32  1  0.333699  0.666850  0.120148  1
  Sn  Sn33  1  0.667391  0.333695  0.878846  1
  Sn  Sn34  1  0.333143  0.666572  0.819136  1
  Sn  Sn35  1  0.666496  0.333247  0.181342  1
