# generated using pymatgen
data_Er3In4CuRu
_symmetry_space_group_name_H-M   'P 1'
_cell_length_a   7.98742200
_cell_length_b   7.98742219
_cell_length_c   3.62779100
_cell_angle_alpha   90.00000000
_cell_angle_beta   90.00000000
_cell_angle_gamma   120.00000751
_symmetry_Int_Tables_number   1
_chemical_formula_structural   Er3In4CuRu
_chemical_formula_sum   'Er3 In4 Cu1 Ru1'
_cell_volume   200.44080039
_cell_formula_units_Z   1
loop_
 _symmetry_equiv_pos_site_id
 _symmetry_equiv_pos_as_xyz
  1  'x, y, z'
loop_
 _atom_site_type_symbol
 _atom_site_label
 _atom_site_symmetry_multiplicity
 _atom_site_fract_x
 _atom_site_fract_y
 _atom_site_fract_z
 _atom_site_occupancy
  Er  Er0  1  0.706582  0.953348  0.500000  1
  Er  Er1  1  0.246766  0.293418  0.500000  1
  Er  Er2  1  0.046652  0.753234  0.500000  1
  In  In3  1  0.925984  0.335431  0.000000  1
  In  In4  1  0.409447  0.074016  0.000000  1
  In  In5  1  0.664569  0.590553  0.000000  1
  In  In6  1  0.333333  0.666667  0.000000  1
  Cu  Cu7  1  0.666667  0.333333  0.500000  1
  Ru  Ru8  1  0.000000  0.000000  0.000000  1
