# generated using pymatgen
data_Er3Tm2(RuO6)2
_symmetry_space_group_name_H-M   'P 1'
_cell_length_a   6.78100714
_cell_length_b   6.78100714
_cell_length_c   7.36914636
_cell_angle_alpha   74.05028644
_cell_angle_beta   74.05029005
_cell_angle_gamma   49.28390828
_symmetry_Int_Tables_number   1
_chemical_formula_structural   Er3Tm2(RuO6)2
_chemical_formula_sum   'Er3 Tm2 Ru2 O12'
_cell_volume   244.81212468
_cell_formula_units_Z   1
loop_
 _symmetry_equiv_pos_site_id
 _symmetry_equiv_pos_as_xyz
  1  'x, y, z'
loop_
 _atom_site_type_symbol
 _atom_site_label
 _atom_site_symmetry_multiplicity
 _atom_site_fract_x
 _atom_site_fract_y
 _atom_site_fract_z
 _atom_site_occupancy
  Er  Er0  1  0.801636  0.801636  0.358794  1
  Er  Er1  1  0.198358  0.198358  0.641932  1
  Er  Er2  1  0.187441  0.187441  0.172797  1
  Tm  Tm3  1  0.812491  0.812491  0.827038  1
  Tm  Tm4  1  0.499938  0.499938  0.500180  1
  Ru  Ru5  1  0.277948  0.722097  0.999775  1
  Ru  Ru6  1  0.722097  0.277948  0.999775  1
  O  O7  1  0.415589  0.919776  0.912647  1
  O  O8  1  0.078905  0.586215  0.086213  1
  O  O9  1  0.586215  0.078905  0.086213  1
  O  O10  1  0.919776  0.415589  0.912647  1
  O  O11  1  0.599767  0.096460  0.572699  1
  O  O12  1  0.902959  0.400975  0.428573  1
  O  O13  1  0.400975  0.902959  0.428573  1
  O  O14  1  0.000615  0.000615  0.821637  1
  O  O15  1  0.998943  0.998943  0.177892  1
  O  O16  1  0.497956  0.497956  0.796416  1
  O  O17  1  0.501934  0.501934  0.203502  1
  O  O18  1  0.096460  0.599767  0.572699  1
