# generated using pymatgen
data_Y9HoSi5Sb
_symmetry_space_group_name_H-M   'P 1'
_cell_length_a   8.53563400
_cell_length_b   8.57172854
_cell_length_c   6.42343200
_cell_angle_alpha   90.00120317
_cell_angle_beta   89.99873133
_cell_angle_gamma   119.85721869
_symmetry_Int_Tables_number   1
_chemical_formula_structural   Y9HoSi5Sb
_chemical_formula_sum   'Y9 Ho1 Si5 Sb1'
_cell_volume   407.59139343
_cell_formula_units_Z   1
loop_
 _symmetry_equiv_pos_site_id
 _symmetry_equiv_pos_as_xyz
  1  'x, y, z'
loop_
 _atom_site_type_symbol
 _atom_site_label
 _atom_site_symmetry_multiplicity
 _atom_site_fract_x
 _atom_site_fract_y
 _atom_site_fract_z
 _atom_site_occupancy
  Y  Y0  1  0.989134  0.746990  0.749907  1
  Y  Y1  1  0.998249  0.244194  0.250125  1
  Y  Y2  1  0.754104  0.755945  0.250090  1
  Y  Y3  1  0.764136  0.000003  0.750094  1
  Y  Y4  1  0.242235  0.253047  0.749805  1
  Y  Y5  1  0.243322  0.000009  0.249934  1
  Y  Y6  1  0.674010  0.343339  0.003576  1
  Y  Y7  1  0.673990  0.343245  0.496418  1
  Y  Y8  1  0.330728  0.656771  0.003552  1
  Ho  Ho9  1  0.330950  0.656230  0.496355  1
  Si  Si10  1  0.392592  0.391040  0.251070  1
  Si  Si11  1  0.002656  0.609531  0.250899  1
  Si  Si12  1  0.999471  0.394226  0.749108  1
  Si  Si13  1  0.604795  0.606432  0.749072  1
  Si  Si14  1  0.606208  0.999473  0.250706  1
  Sb  Sb15  1  0.393419  0.999525  0.749287  1
