# generated using pymatgen
data_Ti11Nb3As8
_symmetry_space_group_name_H-M   'P 1'
_cell_length_a   7.84755241
_cell_length_b   7.84755242
_cell_length_c   13.99344511
_cell_angle_alpha   75.68216756
_cell_angle_beta   75.68216819
_cell_angle_gamma   25.83010448
_symmetry_Int_Tables_number   1
_chemical_formula_structural   Ti11Nb3As8
_chemical_formula_sum   'Ti11 Nb3 As8'
_cell_volume   363.19179090
_cell_formula_units_Z   1
loop_
 _symmetry_equiv_pos_site_id
 _symmetry_equiv_pos_as_xyz
  1  'x, y, z'
loop_
 _atom_site_type_symbol
 _atom_site_label
 _atom_site_symmetry_multiplicity
 _atom_site_fract_x
 _atom_site_fract_y
 _atom_site_fract_z
 _atom_site_occupancy
  Ti  Ti0  1  0.000000  0.000000  0.000000  1
  Ti  Ti1  1  0.196890  0.196890  0.693895  1
  Ti  Ti2  1  0.803110  0.803110  0.306105  1
  Ti  Ti3  1  0.208008  0.208008  0.205419  1
  Ti  Ti4  1  0.791992  0.791992  0.794581  1
  Ti  Ti5  1  0.338023  0.338023  0.966510  1
  Ti  Ti6  1  0.661977  0.661977  0.033490  1
  Ti  Ti7  1  0.002317  0.002317  0.341846  1
  Ti  Ti8  1  0.997683  0.997683  0.658154  1
  Ti  Ti9  1  0.180170  0.180170  0.457391  1
  Ti  Ti10  1  0.819830  0.819830  0.542609  1
  Nb  Nb11  1  0.500000  0.500000  0.500000  1
  Nb  Nb12  1  0.426007  0.426007  0.172262  1
  Nb  Nb13  1  0.573993  0.573993  0.827738  1
  As  As14  1  0.180323  0.180323  0.893400  1
  As  As15  1  0.819677  0.819677  0.106600  1
  As  As16  1  0.370978  0.370978  0.395192  1
  As  As17  1  0.629022  0.629022  0.604808  1
  As  As18  1  0.368332  0.368332  0.661689  1
  As  As19  1  0.631668  0.631668  0.338311  1
  As  As20  1  0.063000  0.063000  0.153415  1
  As  As21  1  0.937000  0.937000  0.846585  1
