# generated using pymatgen
data_Ho6AgTe2
_symmetry_space_group_name_H-M   'P 1'
_cell_length_a   4.03097700
_cell_length_b   11.53307600
_cell_length_c   21.97113300
_cell_angle_alpha   90.00000000
_cell_angle_beta   90.00000000
_cell_angle_gamma   90.00000000
_symmetry_Int_Tables_number   1
_chemical_formula_structural   Ho6AgTe2
_chemical_formula_sum   'Ho24 Ag4 Te8'
_cell_volume   1021.42839585
_cell_formula_units_Z   4
loop_
 _symmetry_equiv_pos_site_id
 _symmetry_equiv_pos_as_xyz
  1  'x, y, z'
loop_
 _atom_site_type_symbol
 _atom_site_label
 _atom_site_symmetry_multiplicity
 _atom_site_fract_x
 _atom_site_fract_y
 _atom_site_fract_z
 _atom_site_occupancy
  Ho  Ho0  1  0.750000  0.664891  0.891249  1
  Ho  Ho1  1  0.250000  0.119278  0.969756  1
  Ho  Ho2  1  0.750000  0.835109  0.391249  1
  Ho  Ho3  1  0.750000  0.387853  0.985035  1
  Ho  Ho4  1  0.250000  0.459251  0.657641  1
  Ho  Ho5  1  0.750000  0.112147  0.485035  1
  Ho  Ho6  1  0.250000  0.756960  0.266966  1
  Ho  Ho7  1  0.250000  0.335109  0.108751  1
  Ho  Ho8  1  0.750000  0.880722  0.030244  1
  Ho  Ho9  1  0.750000  0.540749  0.342359  1
  Ho  Ho10  1  0.250000  0.078317  0.352702  1
  Ho  Ho11  1  0.750000  0.619278  0.530244  1
  Ho  Ho12  1  0.250000  0.164891  0.608751  1
  Ho  Ho13  1  0.250000  0.040749  0.157641  1
  Ho  Ho14  1  0.750000  0.578317  0.147298  1
  Ho  Ho15  1  0.250000  0.421683  0.852702  1
  Ho  Ho16  1  0.250000  0.380722  0.469756  1
  Ho  Ho17  1  0.250000  0.743040  0.766966  1
  Ho  Ho18  1  0.750000  0.256960  0.233034  1
  Ho  Ho19  1  0.750000  0.243040  0.733034  1
  Ho  Ho20  1  0.250000  0.612147  0.014965  1
  Ho  Ho21  1  0.750000  0.921683  0.647298  1
  Ho  Ho22  1  0.750000  0.959251  0.842359  1
  Ho  Ho23  1  0.250000  0.887853  0.514965  1
  Ag  Ag24  1  0.750000  0.147127  0.073876  1
  Ag  Ag25  1  0.250000  0.852873  0.926124  1
  Ag  Ag26  1  0.250000  0.647127  0.426124  1
  Ag  Ag27  1  0.750000  0.352873  0.573876  1
  Te  Te28  1  0.250000  0.028960  0.739138  1
  Te  Te29  1  0.250000  0.779523  0.127300  1
  Te  Te30  1  0.250000  0.471040  0.239138  1
  Te  Te31  1  0.750000  0.971040  0.260862  1
  Te  Te32  1  0.750000  0.528960  0.760862  1
  Te  Te33  1  0.750000  0.279523  0.372700  1
  Te  Te34  1  0.250000  0.720477  0.627300  1
  Te  Te35  1  0.750000  0.220477  0.872700  1
