# generated using pymatgen
data_Ac2YTaO7
_symmetry_space_group_name_H-M   'P 1'
_cell_length_a   7.87579873
_cell_length_b   7.87579718
_cell_length_c   7.87579813
_cell_angle_alpha   120.45671973
_cell_angle_beta   119.79880480
_cell_angle_gamma   89.77980349
_symmetry_Int_Tables_number   1
_chemical_formula_structural   Ac2YTaO7
_chemical_formula_sum   'Ac4 Y2 Ta2 O14'
_cell_volume   344.75275908
_cell_formula_units_Z   2
loop_
 _symmetry_equiv_pos_site_id
 _symmetry_equiv_pos_as_xyz
  1  'x, y, z'
loop_
 _atom_site_type_symbol
 _atom_site_label
 _atom_site_symmetry_multiplicity
 _atom_site_fract_x
 _atom_site_fract_y
 _atom_site_fract_z
 _atom_site_occupancy
  Ac  Ac0  1  0.500000  0.000000  0.000000  1
  Ac  Ac1  1  0.500000  0.500000  0.500000  1
  Ac  Ac2  1  0.500000  0.000000  0.500000  1
  Ac  Ac3  1  0.000000  0.000000  0.000000  1
  Y  Y4  1  0.000000  0.500000  0.000000  1
  Y  Y5  1  0.000000  0.000000  0.500000  1
  Ta  Ta6  1  0.000000  0.500000  0.500000  1
  Ta  Ta7  1  0.500000  0.500000  0.000000  1
  O  O8  1  0.621305  0.871305  0.750000  1
  O  O9  1  0.378695  0.128695  0.250000  1
  O  O10  1  0.294185  0.544185  0.750000  1
  O  O11  1  0.897930  0.147930  0.750000  1
  O  O12  1  0.351213  0.189745  0.785979  1
  O  O13  1  0.903766  0.565235  0.714021  1
  O  O14  1  0.351213  0.565235  0.161469  1
  O  O15  1  0.903766  0.189745  0.338531  1
  O  O16  1  0.705815  0.455815  0.250000  1
  O  O17  1  0.102070  0.852070  0.250000  1
  O  O18  1  0.648787  0.810255  0.214021  1
  O  O19  1  0.096234  0.434765  0.285979  1
  O  O20  1  0.648787  0.434765  0.838531  1
  O  O21  1  0.096234  0.810255  0.661469  1
