# generated using pymatgen
data_Sc8Ti3Re4Si16Mo5
_symmetry_space_group_name_H-M   'P 1'
_cell_length_a   6.71768662
_cell_length_b   6.70934343
_cell_length_c   12.50697281
_cell_angle_alpha   89.58994073
_cell_angle_beta   89.77035390
_cell_angle_gamma   90.58528268
_symmetry_Int_Tables_number   1
_chemical_formula_structural   Sc8Ti3Re4Si16Mo5
_chemical_formula_sum   'Sc8 Ti3 Re4 Si16 Mo5'
_cell_volume   563.65656456
_cell_formula_units_Z   1
loop_
 _symmetry_equiv_pos_site_id
 _symmetry_equiv_pos_as_xyz
  1  'x, y, z'
loop_
 _atom_site_type_symbol
 _atom_site_label
 _atom_site_symmetry_multiplicity
 _atom_site_fract_x
 _atom_site_fract_y
 _atom_site_fract_z
 _atom_site_occupancy
  Sc  Sc0  1  0.004790  0.663432  0.030545  1
  Sc  Sc1  1  0.991032  0.333867  0.533621  1
  Sc  Sc2  1  0.335130  0.995554  0.469073  1
  Sc  Sc3  1  0.156904  0.497999  0.779537  1
  Sc  Sc4  1  0.839286  0.499852  0.280489  1
  Sc  Sc5  1  0.499172  0.160279  0.218780  1
  Sc  Sc6  1  0.500867  0.843935  0.720394  1
  Sc  Sc7  1  0.664293  0.011260  0.967212  1
  Ti  Ti8  1  0.665977  0.660098  0.502965  1
  Ti  Ti9  1  0.167122  0.830372  0.249246  1
  Ti  Ti10  1  0.338628  0.335900  0.996782  1
  Re  Re11  1  0.670964  0.518224  0.891209  1
  Re  Re12  1  0.485717  0.326676  0.610069  1
  Re  Re13  1  0.492502  0.662490  0.124468  1
  Re  Re14  1  0.184568  0.011476  0.875415  1
  Si  Si15  1  0.036260  0.696544  0.435892  1
  Si  Si16  1  0.633399  0.291378  0.426015  1
  Si  Si17  1  0.371332  0.708360  0.929387  1
  Si  Si18  1  0.195670  0.124405  0.680594  1
  Si  Si19  1  0.292778  0.627178  0.570165  1
  Si  Si20  1  0.705384  0.371332  0.074295  1
  Si  Si21  1  0.794057  0.864615  0.178923  1
  Si  Si22  1  0.133200  0.202676  0.319930  1
  Si  Si23  1  0.963618  0.294893  0.935525  1
  Si  Si24  1  0.702671  0.035792  0.563945  1
  Si  Si25  1  0.203656  0.460084  0.185670  1
  Si  Si26  1  0.769116  0.525187  0.695480  1
  Si  Si27  1  0.476990  0.232224  0.805217  1
  Si  Si28  1  0.538581  0.796030  0.314000  1
  Si  Si29  1  0.300670  0.966787  0.064208  1
  Si  Si30  1  0.878110  0.807515  0.821095  1
  Mo  Mo31  1  0.988310  0.822475  0.624507  1
  Mo  Mo32  1  0.002231  0.156486  0.126708  1
  Mo  Mo33  1  0.842990  0.992745  0.372550  1
  Mo  Mo34  1  0.342049  0.502499  0.374518  1
  Mo  Mo35  1  0.831975  0.169378  0.751570  1
