# generated using pymatgen
data_Ba5Si5I3
_symmetry_space_group_name_H-M   'P 1'
_cell_length_a   13.19719099
_cell_length_b   13.19719057
_cell_length_c   16.82717891
_cell_angle_alpha   69.07214196
_cell_angle_beta   69.07214201
_cell_angle_gamma   20.75264717
_symmetry_Int_Tables_number   1
_chemical_formula_structural   Ba5Si5I3
_chemical_formula_sum   'Ba10 Si10 I6'
_cell_volume   967.56758351
_cell_formula_units_Z   2
loop_
 _symmetry_equiv_pos_site_id
 _symmetry_equiv_pos_as_xyz
  1  'x, y, z'
loop_
 _atom_site_type_symbol
 _atom_site_label
 _atom_site_symmetry_multiplicity
 _atom_site_fract_x
 _atom_site_fract_y
 _atom_site_fract_z
 _atom_site_occupancy
  Ba  Ba0  1  0.346077  0.346077  0.058584  1
  Ba  Ba1  1  0.909817  0.909817  0.554590  1
  Ba  Ba2  1  0.090183  0.090183  0.445410  1
  Ba  Ba3  1  0.018540  0.018540  0.713719  1
  Ba  Ba4  1  0.981460  0.981460  0.286281  1
  Ba  Ba5  1  0.841721  0.841721  0.830850  1
  Ba  Ba6  1  0.735460  0.735460  0.669450  1
  Ba  Ba7  1  0.653923  0.653923  0.941416  1
  Ba  Ba8  1  0.158279  0.158279  0.169150  1
  Ba  Ba9  1  0.264540  0.264540  0.330550  1
  Si  Si10  1  0.501286  0.501286  0.569936  1
  Si  Si11  1  0.421055  0.421055  0.695230  1
  Si  Si12  1  0.498714  0.498714  0.430064  1
  Si  Si13  1  0.748442  0.748442  0.028934  1
  Si  Si14  1  0.671653  0.671653  0.305695  1
  Si  Si15  1  0.249634  0.249634  0.823813  1
  Si  Si16  1  0.750366  0.750366  0.176187  1
  Si  Si17  1  0.328347  0.328347  0.694305  1
  Si  Si18  1  0.578945  0.578945  0.304770  1
  Si  Si19  1  0.251558  0.251558  0.971066  1
  I  I20  1  0.591109  0.591109  0.790082  1
  I  I21  1  0.060195  0.060195  0.066247  1
  I  I22  1  0.939805  0.939805  0.933753  1
  I  I23  1  0.824629  0.824629  0.435700  1
  I  I24  1  0.408891  0.408891  0.209918  1
  I  I25  1  0.175371  0.175371  0.564300  1
