# generated using pymatgen
data_Dy2Al9ZnCu12
_symmetry_space_group_name_H-M   'P 1'
_cell_length_a   10.32318681
_cell_length_b   8.17184678
_cell_length_c   7.81839670
_cell_angle_alpha   80.38714643
_cell_angle_beta   51.30509455
_cell_angle_gamma   48.30774568
_symmetry_Int_Tables_number   1
_chemical_formula_structural   Dy2Al9ZnCu12
_chemical_formula_sum   'Dy2 Al9 Zn1 Cu12'
_cell_volume   347.60011909
_cell_formula_units_Z   1
loop_
 _symmetry_equiv_pos_site_id
 _symmetry_equiv_pos_as_xyz
  1  'x, y, z'
loop_
 _atom_site_type_symbol
 _atom_site_label
 _atom_site_symmetry_multiplicity
 _atom_site_fract_x
 _atom_site_fract_y
 _atom_site_fract_z
 _atom_site_occupancy
  Dy  Dy0  1  0.000000  0.000000  0.000000  1
  Dy  Dy1  1  0.250000  0.250000  0.250000  1
  Al  Al2  1  0.750000  0.750000  0.750000  1
  Al  Al3  1  0.754867  0.071300  0.835104  1
  Al  Al4  1  0.835104  0.338730  0.754867  1
  Al  Al5  1  0.071300  0.754867  0.338730  1
  Al  Al6  1  0.338730  0.835104  0.071300  1
  Al  Al7  1  0.495116  0.179889  0.415686  1
  Al  Al8  1  0.415686  0.909309  0.495116  1
  Al  Al9  1  0.179889  0.495116  0.909309  1
  Al  Al10  1  0.909309  0.415686  0.179889  1
  Zn  Zn11  1  0.500000  0.500000  0.500000  1
  Cu  Cu12  1  0.625477  0.124087  0.625781  1
  Cu  Cu13  1  0.625781  0.624655  0.625477  1
  Cu  Cu14  1  0.124087  0.625477  0.624655  1
  Cu  Cu15  1  0.624655  0.625781  0.124087  1
  Cu  Cu16  1  0.491306  0.434804  0.182624  1
  Cu  Cu17  1  0.182624  0.891266  0.491306  1
  Cu  Cu18  1  0.434804  0.491306  0.891266  1
  Cu  Cu19  1  0.891266  0.182624  0.434804  1
  Cu  Cu20  1  0.758055  0.815557  0.067044  1
  Cu  Cu21  1  0.067044  0.359344  0.758055  1
  Cu  Cu22  1  0.815557  0.758055  0.359344  1
  Cu  Cu23  1  0.359344  0.067044  0.815557  1
