# generated using pymatgen
data_Er5(In2Ir)2
_symmetry_space_group_name_H-M   'P 1'
_cell_length_a   3.57324100
_cell_length_b   8.02067200
_cell_length_c   18.23711600
_cell_angle_alpha   90.00000000
_cell_angle_beta   90.00000000
_cell_angle_gamma   90.00000000
_symmetry_Int_Tables_number   1
_chemical_formula_structural   Er5(In2Ir)2
_chemical_formula_sum   'Er10 In8 Ir4'
_cell_volume   522.67198841
_cell_formula_units_Z   2
loop_
 _symmetry_equiv_pos_site_id
 _symmetry_equiv_pos_as_xyz
  1  'x, y, z'
loop_
 _atom_site_type_symbol
 _atom_site_label
 _atom_site_symmetry_multiplicity
 _atom_site_fract_x
 _atom_site_fract_y
 _atom_site_fract_z
 _atom_site_occupancy
  Er  Er0  1  0.000000  0.500000  0.500000  1
  Er  Er1  1  0.000000  0.000000  0.000000  1
  Er  Er2  1  0.000000  0.754957  0.279581  1
  Er  Er3  1  0.000000  0.245043  0.720419  1
  Er  Er4  1  0.000000  0.745043  0.779581  1
  Er  Er5  1  0.000000  0.254957  0.220419  1
  Er  Er6  1  0.000000  0.622471  0.087963  1
  Er  Er7  1  0.000000  0.377529  0.912037  1
  Er  Er8  1  0.000000  0.877529  0.587963  1
  Er  Er9  1  0.000000  0.122471  0.412037  1
  In  In10  1  0.500000  0.702580  0.933893  1
  In  In11  1  0.500000  0.297420  0.066107  1
  In  In12  1  0.500000  0.797420  0.433893  1
  In  In13  1  0.500000  0.202580  0.566107  1
  In  In14  1  0.500000  0.565765  0.649608  1
  In  In15  1  0.500000  0.434235  0.350392  1
  In  In16  1  0.500000  0.934235  0.149608  1
  In  In17  1  0.500000  0.065765  0.850392  1
  Ir  Ir18  1  0.500000  0.534259  0.196811  1
  Ir  Ir19  1  0.500000  0.465741  0.803189  1
  Ir  Ir20  1  0.500000  0.965741  0.696811  1
  Ir  Ir21  1  0.500000  0.034259  0.303189  1
