# generated using pymatgen
data_Na8SbAs3S4(O4F3)4
_symmetry_space_group_name_H-M   'P 1'
_cell_length_a   8.21874000
_cell_length_b   8.21874002
_cell_length_c   10.92540500
_cell_angle_alpha   90.00000000
_cell_angle_beta   90.00000000
_cell_angle_gamma   128.72816284
_symmetry_Int_Tables_number   1
_chemical_formula_structural   Na8SbAs3S4(O4F3)4
_chemical_formula_sum   'Na8 Sb1 As3 S4 O16 F12'
_cell_volume   575.71971751
_cell_formula_units_Z   1
loop_
 _symmetry_equiv_pos_site_id
 _symmetry_equiv_pos_as_xyz
  1  'x, y, z'
loop_
 _atom_site_type_symbol
 _atom_site_label
 _atom_site_symmetry_multiplicity
 _atom_site_fract_x
 _atom_site_fract_y
 _atom_site_fract_z
 _atom_site_occupancy
  Na  Na0  1  0.968991  0.469486  0.248314  1
  Na  Na1  1  0.621411  0.384179  0.002696  1
  Na  Na2  1  0.030220  0.531824  0.751410  1
  Na  Na3  1  0.384179  0.621411  0.002696  1
  Na  Na4  1  0.118266  0.884340  0.498938  1
  Na  Na5  1  0.531824  0.030220  0.751410  1
  Na  Na6  1  0.469486  0.968991  0.248314  1
  Na  Na7  1  0.884340  0.118266  0.498938  1
  Sb  Sb8  1  0.610417  0.610417  0.337638  1
  As  As9  1  0.127760  0.127760  0.164880  1
  As  As10  1  0.369939  0.369939  0.667338  1
  As  As11  1  0.869344  0.869344  0.835304  1
  S  S12  1  0.316803  0.682044  0.501414  1
  S  S13  1  0.819911  0.180547  0.999174  1
  S  S14  1  0.682044  0.316803  0.501414  1
  S  S15  1  0.180547  0.819911  0.999174  1
  O  O16  1  0.796546  0.274238  0.891133  1
  O  O17  1  0.274238  0.796546  0.891133  1
  O  O18  1  0.711828  0.954965  0.975331  1
  O  O19  1  0.791485  0.544253  0.479843  1
  O  O20  1  0.227019  0.706867  0.392078  1
  O  O21  1  0.727205  0.203713  0.107635  1
  O  O22  1  0.706867  0.227019  0.392078  1
  O  O23  1  0.291419  0.772842  0.609814  1
  O  O24  1  0.544253  0.791485  0.479843  1
  O  O25  1  0.287889  0.045811  0.021987  1
  O  O26  1  0.954965  0.711828  0.975331  1
  O  O27  1  0.772842  0.291419  0.609814  1
  O  O28  1  0.211119  0.456430  0.522788  1
  O  O29  1  0.456430  0.211119  0.522788  1
  O  O30  1  0.203713  0.727205  0.107635  1
  O  O31  1  0.045811  0.287889  0.021987  1
  F  F32  1  0.902532  0.726727  0.721723  1
  F  F33  1  0.377415  0.377415  0.121286  1
  F  F34  1  0.274354  0.097889  0.277223  1
  F  F35  1  0.883576  0.883576  0.381843  1
  F  F36  1  0.226786  0.403124  0.778875  1
  F  F37  1  0.620766  0.620766  0.878428  1
  F  F38  1  0.726727  0.902532  0.721723  1
  F  F39  1  0.781516  0.593185  0.215161  1
  F  F40  1  0.403124  0.226786  0.778875  1
  F  F41  1  0.123019  0.123019  0.622205  1
  F  F42  1  0.097889  0.274354  0.277223  1
  F  F43  1  0.593185  0.781516  0.215161  1
