# generated using pymatgen
data_Tb4MnGaTc6
_symmetry_space_group_name_H-M   'P 1'
_cell_length_a   5.31152500
_cell_length_b   5.31152511
_cell_length_c   9.10598700
_cell_angle_alpha   90.00000000
_cell_angle_beta   90.00000000
_cell_angle_gamma   119.99999308
_symmetry_Int_Tables_number   1
_chemical_formula_structural   Tb4MnGaTc6
_chemical_formula_sum   'Tb4 Mn1 Ga1 Tc6'
_cell_volume   222.48265416
_cell_formula_units_Z   1
loop_
 _symmetry_equiv_pos_site_id
 _symmetry_equiv_pos_as_xyz
  1  'x, y, z'
loop_
 _atom_site_type_symbol
 _atom_site_label
 _atom_site_symmetry_multiplicity
 _atom_site_fract_x
 _atom_site_fract_y
 _atom_site_fract_z
 _atom_site_occupancy
  Tb  Tb0  1  0.333333  0.666667  0.432009  1
  Tb  Tb1  1  0.666667  0.333333  0.567991  1
  Tb  Tb2  1  0.666667  0.333333  0.931435  1
  Tb  Tb3  1  0.333333  0.666667  0.068565  1
  Mn  Mn4  1  0.000000  0.000000  0.000000  1
  Ga  Ga5  1  0.000000  0.000000  0.500000  1
  Tc  Tc6  1  0.830684  0.169316  0.249519  1
  Tc  Tc7  1  0.830684  0.661368  0.249519  1
  Tc  Tc8  1  0.338632  0.169316  0.249519  1
  Tc  Tc9  1  0.169316  0.830684  0.750481  1
  Tc  Tc10  1  0.169316  0.338632  0.750481  1
  Tc  Tc11  1  0.661368  0.830684  0.750481  1
