# generated using pymatgen
data_Yb3Y(SiPd14)2
_symmetry_space_group_name_H-M   'P 1'
_cell_length_a   8.93751800
_cell_length_b   8.93751800
_cell_length_c   7.02892500
_cell_angle_alpha   90.00000000
_cell_angle_beta   90.00000000
_cell_angle_gamma   90.00000000
_symmetry_Int_Tables_number   1
_chemical_formula_structural   Yb3Y(SiPd14)2
_chemical_formula_sum   'Yb3 Y1 Si2 Pd28'
_cell_volume   561.46510267
_cell_formula_units_Z   1
loop_
 _symmetry_equiv_pos_site_id
 _symmetry_equiv_pos_as_xyz
  1  'x, y, z'
loop_
 _atom_site_type_symbol
 _atom_site_label
 _atom_site_symmetry_multiplicity
 _atom_site_fract_x
 _atom_site_fract_y
 _atom_site_fract_z
 _atom_site_occupancy
  Yb  Yb0  1  0.000000  0.500000  0.061111  1
  Yb  Yb1  1  0.000000  0.000000  0.500005  1
  Yb  Yb2  1  0.500000  0.500000  0.500005  1
  Y  Y3  1  0.500000  0.000000  0.938941  1
  Si  Si4  1  0.500000  0.000000  0.447647  1
  Si  Si5  1  0.000000  0.500000  0.552457  1
  Pd  Pd6  1  0.334005  0.834005  0.617090  1
  Pd  Pd7  1  0.334005  0.165995  0.617090  1
  Pd  Pd8  1  0.665995  0.834005  0.617090  1
  Pd  Pd9  1  0.665995  0.165995  0.617090  1
  Pd  Pd10  1  0.165991  0.665991  0.382751  1
  Pd  Pd11  1  0.165991  0.334009  0.382751  1
  Pd  Pd12  1  0.834009  0.665991  0.382751  1
  Pd  Pd13  1  0.834009  0.334009  0.382751  1
  Pd  Pd14  1  0.500000  0.769409  0.257788  1
  Pd  Pd15  1  0.500000  0.230591  0.257788  1
  Pd  Pd16  1  0.269409  0.000000  0.257788  1
  Pd  Pd17  1  0.730591  0.000000  0.257788  1
  Pd  Pd18  1  0.000000  0.730667  0.742238  1
  Pd  Pd19  1  0.000000  0.269333  0.742238  1
  Pd  Pd20  1  0.230667  0.500000  0.742238  1
  Pd  Pd21  1  0.769333  0.500000  0.742238  1
  Pd  Pd22  1  0.500000  0.348922  0.854116  1
  Pd  Pd23  1  0.500000  0.651078  0.854116  1
  Pd  Pd24  1  0.848922  0.000000  0.854116  1
  Pd  Pd25  1  0.151078  0.000000  0.854116  1
  Pd  Pd26  1  0.000000  0.151095  0.145975  1
  Pd  Pd27  1  0.000000  0.848905  0.145975  1
  Pd  Pd28  1  0.651095  0.500000  0.145975  1
  Pd  Pd29  1  0.348905  0.500000  0.145975  1
  Pd  Pd30  1  0.250075  0.750075  0.000000  1
  Pd  Pd31  1  0.250075  0.249925  0.000000  1
  Pd  Pd32  1  0.749925  0.750075  0.000000  1
  Pd  Pd33  1  0.749925  0.249925  0.000000  1
