# generated using pymatgen
data_Gd4Er2Si3Au
_symmetry_space_group_name_H-M   'P 1'
_cell_length_a   7.52940400
_cell_length_b   7.52940388
_cell_length_c   4.25971900
_cell_angle_alpha   90.00000000
_cell_angle_beta   90.00000000
_cell_angle_gamma   91.71402210
_symmetry_Int_Tables_number   1
_chemical_formula_structural   Gd4Er2Si3Au
_chemical_formula_sum   'Gd4 Er2 Si3 Au1'
_cell_volume   241.38361392
_cell_formula_units_Z   1
loop_
 _symmetry_equiv_pos_site_id
 _symmetry_equiv_pos_as_xyz
  1  'x, y, z'
loop_
 _atom_site_type_symbol
 _atom_site_label
 _atom_site_symmetry_multiplicity
 _atom_site_fract_x
 _atom_site_fract_y
 _atom_site_fract_z
 _atom_site_occupancy
  Gd  Gd0  1  0.315434  0.828283  0.500000  1
  Gd  Gd1  1  0.671717  0.184566  0.500000  1
  Gd  Gd2  1  0.175385  0.324615  0.500000  1
  Gd  Gd3  1  0.836708  0.663292  0.500000  1
  Er  Er4  1  0.997138  0.991896  0.000000  1
  Er  Er5  1  0.508104  0.502862  0.000000  1
  Si  Si6  1  0.370933  0.129067  0.000000  1
  Si  Si7  1  0.885513  0.378513  0.000000  1
  Si  Si8  1  0.121487  0.614487  0.000000  1
  Au  Au9  1  0.617580  0.882420  0.000000  1
