# generated using pymatgen
data_HoEr2Ta(Co4P3)2
_symmetry_space_group_name_H-M   'P 1'
_cell_length_a   3.69147400
_cell_length_b   10.60426900
_cell_length_c   12.29423100
_cell_angle_alpha   90.00000000
_cell_angle_beta   90.00000000
_cell_angle_gamma   90.00000000
_symmetry_Int_Tables_number   1
_chemical_formula_structural   HoEr2Ta(Co4P3)2
_chemical_formula_sum   'Ho2 Er4 Ta2 Co16 P12'
_cell_volume   481.26238490
_cell_formula_units_Z   2
loop_
 _symmetry_equiv_pos_site_id
 _symmetry_equiv_pos_as_xyz
  1  'x, y, z'
loop_
 _atom_site_type_symbol
 _atom_site_label
 _atom_site_symmetry_multiplicity
 _atom_site_fract_x
 _atom_site_fract_y
 _atom_site_fract_z
 _atom_site_occupancy
  Ho  Ho0  1  0.000000  0.500000  0.527553  1
  Ho  Ho1  1  0.500000  0.000000  0.472447  1
  Er  Er2  1  0.500000  0.821302  0.205095  1
  Er  Er3  1  0.500000  0.178698  0.205095  1
  Er  Er4  1  0.000000  0.678698  0.794905  1
  Er  Er5  1  0.000000  0.321302  0.794905  1
  Ta  Ta6  1  0.500000  0.500000  0.157305  1
  Ta  Ta7  1  0.000000  0.000000  0.842695  1
  Co  Co8  1  0.000000  0.500000  0.987250  1
  Co  Co9  1  0.500000  0.000000  0.012750  1
  Co  Co10  1  0.500000  0.295444  0.432401  1
  Co  Co11  1  0.500000  0.704556  0.432401  1
  Co  Co12  1  0.000000  0.204556  0.567599  1
  Co  Co13  1  0.000000  0.795444  0.567599  1
  Co  Co14  1  0.500000  0.877260  0.705418  1
  Co  Co15  1  0.500000  0.122740  0.705418  1
  Co  Co16  1  0.000000  0.622740  0.294582  1
  Co  Co17  1  0.000000  0.377260  0.294582  1
  Co  Co18  1  0.500000  0.332509  0.992529  1
  Co  Co19  1  0.500000  0.667491  0.992529  1
  Co  Co20  1  0.000000  0.167491  0.007471  1
  Co  Co21  1  0.000000  0.832509  0.007471  1
  Co  Co22  1  0.500000  0.500000  0.702963  1
  Co  Co23  1  0.000000  0.000000  0.297037  1
  P  P24  1  0.500000  0.311690  0.616152  1
  P  P25  1  0.500000  0.688310  0.616152  1
  P  P26  1  0.000000  0.188310  0.383848  1
  P  P27  1  0.000000  0.811690  0.383848  1
  P  P28  1  0.500000  0.500000  0.881745  1
  P  P29  1  0.000000  0.000000  0.118255  1
  P  P30  1  0.500000  0.840239  0.892028  1
  P  P31  1  0.500000  0.159761  0.892028  1
  P  P32  1  0.000000  0.659761  0.107972  1
  P  P33  1  0.000000  0.340239  0.107972  1
  P  P34  1  0.500000  0.500000  0.357692  1
  P  P35  1  0.000000  0.000000  0.642308  1
