# generated using pymatgen
data_TaTi11Al8(CoN)4
_symmetry_space_group_name_H-M   'P 1'
_cell_length_a   8.02075457
_cell_length_b   8.02907305
_cell_length_c   8.02096791
_cell_angle_alpha   59.96515746
_cell_angle_beta   60.10264442
_cell_angle_gamma   59.96432750
_symmetry_Int_Tables_number   1
_chemical_formula_structural   TaTi11Al8(CoN)4
_chemical_formula_sum   'Ta1 Ti11 Al8 Co4 N4'
_cell_volume   365.33911638
_cell_formula_units_Z   1
loop_
 _symmetry_equiv_pos_site_id
 _symmetry_equiv_pos_as_xyz
  1  'x, y, z'
loop_
 _atom_site_type_symbol
 _atom_site_label
 _atom_site_symmetry_multiplicity
 _atom_site_fract_x
 _atom_site_fract_y
 _atom_site_fract_z
 _atom_site_occupancy
  Ta  Ta0  1  0.939019  0.560979  0.939020  1
  Ti  Ti1  1  0.562357  0.937646  0.562358  1
  Ti  Ti2  1  0.313435  0.688311  0.687280  1
  Ti  Ti3  1  0.687287  0.310965  0.313427  1
  Ti  Ti4  1  0.312492  0.687512  0.312490  1
  Ti  Ti5  1  0.687275  0.688318  0.313432  1
  Ti  Ti6  1  0.313430  0.310965  0.687292  1
  Ti  Ti7  1  0.562765  0.561634  0.936928  1
  Ti  Ti8  1  0.936928  0.561635  0.562766  1
  Ti  Ti9  1  0.562756  0.938684  0.936929  1
  Ti  Ti10  1  0.936929  0.938682  0.562756  1
  Ti  Ti11  1  0.687219  0.312770  0.687233  1
  Al  Al12  1  0.916318  0.920155  0.916317  1
  Al  Al13  1  0.001012  0.332330  0.334276  1
  Al  Al14  1  0.332738  0.001897  0.332747  1
  Al  Al15  1  0.334273  0.332332  0.001011  1
  Al  Al16  1  0.916342  0.247193  0.916339  1
  Al  Al17  1  0.917089  0.916965  0.249039  1
  Al  Al18  1  0.249047  0.916963  0.917081  1
  Al  Al19  1  0.332763  0.332590  0.332768  1
  Co  Co20  1  0.123960  0.126994  0.123957  1
  Co  Co21  1  0.624690  0.124783  0.125744  1
  Co  Co22  1  0.123960  0.625087  0.123955  1
  Co  Co23  1  0.125747  0.124780  0.624691  1
  N  N24  1  0.625274  0.625346  0.625269  1
  N  N25  1  0.127460  0.625186  0.622162  1
  N  N26  1  0.625272  0.124111  0.625272  1
  N  N27  1  0.622164  0.625188  0.127461  1
