# generated using pymatgen
data_Dy4Tm4Tc3OsC8
_symmetry_space_group_name_H-M   'P 1'
_cell_length_a   5.06489100
_cell_length_b   6.53479592
_cell_length_c   9.75575601
_cell_angle_alpha   89.83440258
_cell_angle_beta   90.00000000
_cell_angle_gamma   90.00000000
_symmetry_Int_Tables_number   1
_chemical_formula_structural   Dy4Tm4Tc3OsC8
_chemical_formula_sum   'Dy4 Tm4 Tc3 Os1 C8'
_cell_volume   322.89494719
_cell_formula_units_Z   1
loop_
 _symmetry_equiv_pos_site_id
 _symmetry_equiv_pos_as_xyz
  1  'x, y, z'
loop_
 _atom_site_type_symbol
 _atom_site_label
 _atom_site_symmetry_multiplicity
 _atom_site_fract_x
 _atom_site_fract_y
 _atom_site_fract_z
 _atom_site_occupancy
  Dy  Dy0  1  0.250000  0.531546  0.214414  1
  Dy  Dy1  1  0.750000  0.466369  0.786046  1
  Dy  Dy2  1  0.750000  0.968450  0.711992  1
  Dy  Dy3  1  0.250000  0.031457  0.285688  1
  Tm  Tm4  1  0.250000  0.674102  0.557391  1
  Tm  Tm5  1  0.750000  0.324787  0.442323  1
  Tm  Tm6  1  0.750000  0.825554  0.057750  1
  Tm  Tm7  1  0.250000  0.173959  0.942496  1
  Tc  Tc8  1  0.250000  0.720358  0.866344  1
  Tc  Tc9  1  0.750000  0.280041  0.133041  1
  Tc  Tc10  1  0.750000  0.779044  0.367031  1
  Os  Os11  1  0.250000  0.220554  0.633806  1
  C  C12  1  0.250000  0.452404  0.759278  1
  C  C13  1  0.750000  0.548112  0.240533  1
  C  C14  1  0.750000  0.048208  0.260195  1
  C  C15  1  0.250000  0.953384  0.740532  1
  C  C16  1  0.250000  0.827066  0.050638  1
  C  C17  1  0.750000  0.173454  0.948709  1
  C  C18  1  0.750000  0.673339  0.551979  1
  C  C19  1  0.250000  0.327814  0.449817  1
