# generated using pymatgen
data_Er4BOs2C3
_symmetry_space_group_name_H-M   'P 1'
_cell_length_a   5.08078900
_cell_length_b   6.51641848
_cell_length_c   9.75552058
_cell_angle_alpha   90.34555128
_cell_angle_beta   90.00000000
_cell_angle_gamma   90.00000000
_symmetry_Int_Tables_number   1
_chemical_formula_structural   Er4BOs2C3
_chemical_formula_sum   'Er8 B2 Os4 C6'
_cell_volume   322.98524069
_cell_formula_units_Z   2
loop_
 _symmetry_equiv_pos_site_id
 _symmetry_equiv_pos_as_xyz
  1  'x, y, z'
loop_
 _atom_site_type_symbol
 _atom_site_label
 _atom_site_symmetry_multiplicity
 _atom_site_fract_x
 _atom_site_fract_y
 _atom_site_fract_z
 _atom_site_occupancy
  Er  Er0  1  0.250000  0.679578  0.550613  1
  Er  Er1  1  0.750000  0.320422  0.449387  1
  Er  Er2  1  0.750000  0.825378  0.053077  1
  Er  Er3  1  0.250000  0.174622  0.946923  1
  Er  Er4  1  0.250000  0.523677  0.213213  1
  Er  Er5  1  0.750000  0.476323  0.786787  1
  Er  Er6  1  0.750000  0.973300  0.716688  1
  Er  Er7  1  0.250000  0.026700  0.283312  1
  B  B8  1  0.250000  0.452457  0.757760  1
  B  B9  1  0.750000  0.547543  0.242240  1
  Os  Os10  1  0.250000  0.727352  0.864170  1
  Os  Os11  1  0.750000  0.272648  0.135830  1
  Os  Os12  1  0.750000  0.786820  0.371416  1
  Os  Os13  1  0.250000  0.213180  0.628584  1
  C  C14  1  0.750000  0.043433  0.260561  1
  C  C15  1  0.250000  0.956567  0.739439  1
  C  C16  1  0.250000  0.823702  0.053075  1
  C  C17  1  0.750000  0.176298  0.946925  1
  C  C18  1  0.750000  0.673978  0.554828  1
  C  C19  1  0.250000  0.326022  0.445172  1
