# generated using pymatgen
data_Y6UCo22
_symmetry_space_group_name_H-M   'P 1'
_cell_length_a   8.42971100
_cell_length_b   8.42971234
_cell_length_c   8.42971100
_cell_angle_alpha   119.99999866
_cell_angle_beta   90.00000000
_cell_angle_gamma   119.99999866
_symmetry_Int_Tables_number   1
_chemical_formula_structural   Y6UCo22
_chemical_formula_sum   'Y6 U1 Co22'
_cell_volume   423.56800360
_cell_formula_units_Z   1
loop_
 _symmetry_equiv_pos_site_id
 _symmetry_equiv_pos_as_xyz
  1  'x, y, z'
loop_
 _atom_site_type_symbol
 _atom_site_label
 _atom_site_symmetry_multiplicity
 _atom_site_fract_x
 _atom_site_fract_y
 _atom_site_fract_z
 _atom_site_occupancy
  Y  Y0  1  0.709303  0.000000  0.290696  1
  Y  Y1  1  0.290697  0.000000  0.290697  1
  Y  Y2  1  0.290697  0.581393  0.290697  1
  Y  Y3  1  0.290696  0.000000  0.709303  1
  Y  Y4  1  0.709303  0.000000  0.709303  1
  Y  Y5  1  0.709303  0.418608  0.709303  1
  U  U6  1  0.000000  0.000000  0.000000  1
  Co  Co7  1  0.500001  0.000000  0.000000  1
  Co  Co8  1  0.000000  0.500001  0.000000  1
  Co  Co9  1  0.500001  0.500001  0.000000  1
  Co  Co10  1  0.677345  0.354692  0.032038  1
  Co  Co11  1  0.874220  0.748440  0.125780  1
  Co  Co12  1  0.377339  0.251559  0.125780  1
  Co  Co13  1  0.874220  0.251559  0.125780  1
  Co  Co14  1  0.677345  0.354692  0.322654  1
  Co  Co15  1  0.677345  0.645308  0.322654  1
  Co  Co16  1  0.967962  0.645308  0.322654  1
  Co  Co17  1  0.125780  0.251559  0.377339  1
  Co  Co18  1  0.000000  0.000000  0.500001  1
  Co  Co19  1  0.000000  0.500001  0.500001  1
  Co  Co20  1  0.500001  0.500001  0.500001  1
  Co  Co21  1  0.874220  0.748440  0.622660  1
  Co  Co22  1  0.032038  0.354692  0.677345  1
  Co  Co23  1  0.322654  0.354692  0.677345  1
  Co  Co24  1  0.322654  0.645308  0.677345  1
  Co  Co25  1  0.125780  0.251559  0.874220  1
  Co  Co26  1  0.125780  0.748440  0.874220  1
  Co  Co27  1  0.622660  0.748440  0.874220  1
  Co  Co28  1  0.322654  0.645308  0.967962  1
