# generated using pymatgen
data_Pr8Mn(Si4Au)3
_symmetry_space_group_name_H-M   'P 1'
_cell_length_a   8.30745100
_cell_length_b   8.30745072
_cell_length_c   8.67840700
_cell_angle_alpha   90.00000000
_cell_angle_beta   90.00000000
_cell_angle_gamma   120.00000508
_symmetry_Int_Tables_number   1
_chemical_formula_structural   Pr8Mn(Si4Au)3
_chemical_formula_sum   'Pr8 Mn1 Si12 Au3'
_cell_volume   518.68798210
_cell_formula_units_Z   1
loop_
 _symmetry_equiv_pos_site_id
 _symmetry_equiv_pos_as_xyz
  1  'x, y, z'
loop_
 _atom_site_type_symbol
 _atom_site_label
 _atom_site_symmetry_multiplicity
 _atom_site_fract_x
 _atom_site_fract_y
 _atom_site_fract_z
 _atom_site_occupancy
  Pr  Pr0  1  0.502048  0.497952  0.743836  1
  Pr  Pr1  1  0.502412  0.497588  0.256147  1
  Pr  Pr2  1  0.995904  0.497952  0.743836  1
  Pr  Pr3  1  0.995175  0.497588  0.256147  1
  Pr  Pr4  1  0.502048  0.004096  0.743836  1
  Pr  Pr5  1  0.502412  0.004825  0.256147  1
  Pr  Pr6  1  0.000000  0.000000  0.748530  1
  Pr  Pr7  1  0.000000  0.000000  0.251586  1
  Mn  Mn8  1  0.666667  0.333333  0.500516  1
  Si  Si9  1  0.836831  0.163169  0.000844  1
  Si  Si10  1  0.163350  0.836650  0.999200  1
  Si  Si11  1  0.326337  0.163169  0.000844  1
  Si  Si12  1  0.161850  0.838150  0.499723  1
  Si  Si13  1  0.673301  0.836650  0.999200  1
  Si  Si14  1  0.829018  0.170982  0.500321  1
  Si  Si15  1  0.836831  0.673663  0.000844  1
  Si  Si16  1  0.676300  0.838150  0.499723  1
  Si  Si17  1  0.163350  0.326699  0.999200  1
  Si  Si18  1  0.341965  0.170982  0.500321  1
  Si  Si19  1  0.161850  0.323700  0.499723  1
  Si  Si20  1  0.829018  0.658035  0.500321  1
  Au  Au21  1  0.666667  0.333333  0.998857  1
  Au  Au22  1  0.333333  0.666667  0.000791  1
  Au  Au23  1  0.333333  0.666667  0.499505  1
