# generated using pymatgen
data_Ho2Er2MnOsC4
_symmetry_space_group_name_H-M   'P 1'
_cell_length_a   5.04710600
_cell_length_b   6.39356939
_cell_length_c   9.64249590
_cell_angle_alpha   90.48979899
_cell_angle_beta   90.00000000
_cell_angle_gamma   90.00000000
_symmetry_Int_Tables_number   1
_chemical_formula_structural   Ho2Er2MnOsC4
_chemical_formula_sum   'Ho4 Er4 Mn2 Os2 C8'
_cell_volume   311.14254687
_cell_formula_units_Z   2
loop_
 _symmetry_equiv_pos_site_id
 _symmetry_equiv_pos_as_xyz
  1  'x, y, z'
loop_
 _atom_site_type_symbol
 _atom_site_label
 _atom_site_symmetry_multiplicity
 _atom_site_fract_x
 _atom_site_fract_y
 _atom_site_fract_z
 _atom_site_occupancy
  Ho  Ho0  1  0.250000  0.527423  0.214701  1
  Ho  Ho1  1  0.750000  0.472577  0.785299  1
  Ho  Ho2  1  0.750000  0.972741  0.713334  1
  Ho  Ho3  1  0.250000  0.027259  0.286666  1
  Er  Er4  1  0.250000  0.680504  0.557694  1
  Er  Er5  1  0.750000  0.319496  0.442306  1
  Er  Er6  1  0.750000  0.823120  0.053163  1
  Er  Er7  1  0.250000  0.176880  0.946837  1
  Mn  Mn8  1  0.250000  0.725439  0.862671  1
  Mn  Mn9  1  0.750000  0.274561  0.137329  1
  Os  Os10  1  0.750000  0.776752  0.361794  1
  Os  Os11  1  0.250000  0.223248  0.638206  1
  C  C12  1  0.250000  0.465460  0.765210  1
  C  C13  1  0.750000  0.534540  0.234790  1
  C  C14  1  0.750000  0.049250  0.254333  1
  C  C15  1  0.250000  0.950750  0.745667  1
  C  C16  1  0.250000  0.815541  0.040427  1
  C  C17  1  0.750000  0.184459  0.959573  1
  C  C18  1  0.750000  0.674894  0.550733  1
  C  C19  1  0.250000  0.325106  0.449267  1
