# generated using pymatgen
data_Nd8Si12Pd2PtAu
_symmetry_space_group_name_H-M   'P 1'
_cell_length_a   8.26982100
_cell_length_b   8.26982329
_cell_length_c   8.59630700
_cell_angle_alpha   89.99998614
_cell_angle_beta   90.00001386
_cell_angle_gamma   119.99998685
_symmetry_Int_Tables_number   1
_chemical_formula_structural   Nd8Si12Pd2PtAu
_chemical_formula_sum   'Nd8 Si12 Pd2 Pt1 Au1'
_cell_volume   509.13733515
_cell_formula_units_Z   1
loop_
 _symmetry_equiv_pos_site_id
 _symmetry_equiv_pos_as_xyz
  1  'x, y, z'
loop_
 _atom_site_type_symbol
 _atom_site_label
 _atom_site_symmetry_multiplicity
 _atom_site_fract_x
 _atom_site_fract_y
 _atom_site_fract_z
 _atom_site_occupancy
  Nd  Nd0  1  0.498383  0.501617  0.747783  1
  Nd  Nd1  1  0.498859  0.501141  0.252277  1
  Nd  Nd2  1  0.003233  0.501617  0.747783  1
  Nd  Nd3  1  0.002283  0.501141  0.252277  1
  Nd  Nd4  1  0.498383  0.996766  0.747783  1
  Nd  Nd5  1  0.498859  0.997717  0.252277  1
  Nd  Nd6  1  0.000000  0.000000  0.749526  1
  Nd  Nd7  1  0.000000  0.000000  0.250683  1
  Si  Si8  1  0.837898  0.162102  0.999733  1
  Si  Si9  1  0.166863  0.833137  0.000499  1
  Si  Si10  1  0.324205  0.162103  0.999733  1
  Si  Si11  1  0.165911  0.834089  0.499237  1
  Si  Si12  1  0.666274  0.833137  0.000499  1
  Si  Si13  1  0.833870  0.166130  0.500630  1
  Si  Si14  1  0.837898  0.675795  0.999733  1
  Si  Si15  1  0.668180  0.834089  0.499237  1
  Si  Si16  1  0.166863  0.333726  0.000499  1
  Si  Si17  1  0.332260  0.166130  0.500630  1
  Si  Si18  1  0.165911  0.331820  0.499237  1
  Si  Si19  1  0.833870  0.667740  0.500630  1
  Pd  Pd20  1  0.333333  0.666667  0.000569  1
  Pd  Pd21  1  0.666667  0.333333  0.500803  1
  Pt  Pt22  1  0.333333  0.666667  0.499253  1
  Au  Au23  1  0.666667  0.333333  0.998693  1
