# generated using pymatgen
data_Sr3Pr(Al3Pt)6
_symmetry_space_group_name_H-M   'P 1'
_cell_length_a   7.70754653
_cell_length_b   7.70932616
_cell_length_c   9.66827500
_cell_angle_alpha   90.00000000
_cell_angle_beta   90.00000000
_cell_angle_gamma   119.53498870
_symmetry_Int_Tables_number   1
_chemical_formula_structural   Sr3Pr(Al3Pt)6
_chemical_formula_sum   'Sr3 Pr1 Al18 Pt6'
_cell_volume   499.83675718
_cell_formula_units_Z   1
loop_
 _symmetry_equiv_pos_site_id
 _symmetry_equiv_pos_as_xyz
  1  'x, y, z'
loop_
 _atom_site_type_symbol
 _atom_site_label
 _atom_site_symmetry_multiplicity
 _atom_site_fract_x
 _atom_site_fract_y
 _atom_site_fract_z
 _atom_site_occupancy
  Sr  Sr0  1  0.004335  0.328990  0.750000  1
  Sr  Sr1  1  0.669841  0.995450  0.250000  1
  Sr  Sr2  1  0.330446  0.005600  0.750000  1
  Pr  Pr3  1  0.996145  0.669486  0.250000  1
  Al  Al4  1  0.133966  0.131302  0.250000  1
  Al  Al5  1  0.864744  0.864504  0.750000  1
  Al  Al6  1  0.001966  0.334836  0.075062  1
  Al  Al7  1  0.997986  0.665330  0.926840  1
  Al  Al8  1  0.997986  0.665330  0.573160  1
  Al  Al9  1  0.334515  0.001925  0.424866  1
  Al  Al10  1  0.001966  0.334836  0.424938  1
  Al  Al11  1  0.665156  0.997424  0.573189  1
  Al  Al12  1  0.665156  0.997424  0.926811  1
  Al  Al13  1  0.334515  0.001925  0.075134  1
  Al  Al14  1  0.334640  0.334750  0.549897  1
  Al  Al15  1  0.666260  0.665851  0.447563  1
  Al  Al16  1  0.666260  0.665851  0.052437  1
  Al  Al17  1  0.334640  0.334750  0.950103  1
  Al  Al18  1  0.337735  0.542902  0.250000  1
  Al  Al19  1  0.659107  0.457639  0.750000  1
  Al  Al20  1  0.546565  0.345118  0.250000  1
  Al  Al21  1  0.456265  0.659068  0.750000  1
  Pt  Pt22  1  0.670910  0.329952  0.000414  1
  Pt  Pt23  1  0.329084  0.670617  0.000950  1
  Pt  Pt24  1  0.329084  0.670617  0.499050  1
  Pt  Pt25  1  0.670910  0.329952  0.499586  1
  Pt  Pt26  1  0.999909  0.999286  0.000927  1
  Pt  Pt27  1  0.999909  0.999286  0.499073  1
