# generated using pymatgen
data_BaCr3FeSb12
_symmetry_space_group_name_H-M   'P 1'
_cell_length_a   8.19878675
_cell_length_b   8.19878841
_cell_length_c   8.19878803
_cell_angle_alpha   109.25473032
_cell_angle_beta   109.25472392
_cell_angle_gamma   109.25473941
_symmetry_Int_Tables_number   1
_chemical_formula_structural   BaCr3FeSb12
_chemical_formula_sum   'Ba1 Cr3 Fe1 Sb12'
_cell_volume   427.62179440
_cell_formula_units_Z   1
loop_
 _symmetry_equiv_pos_site_id
 _symmetry_equiv_pos_as_xyz
  1  'x, y, z'
loop_
 _atom_site_type_symbol
 _atom_site_label
 _atom_site_symmetry_multiplicity
 _atom_site_fract_x
 _atom_site_fract_y
 _atom_site_fract_z
 _atom_site_occupancy
  Ba  Ba0  1  0.000000  0.000000  0.000000  1
  Cr  Cr1  1  0.000000  0.000000  0.500000  1
  Cr  Cr2  1  0.000000  0.500000  0.000000  1
  Cr  Cr3  1  0.500000  0.000000  0.000000  1
  Fe  Fe4  1  0.500000  0.500000  0.500000  1
  Sb  Sb5  1  0.654565  0.808130  0.155742  1
  Sb  Sb6  1  0.844258  0.345435  0.191870  1
  Sb  Sb7  1  0.502504  0.830716  0.651989  1
  Sb  Sb8  1  0.830716  0.651989  0.502504  1
  Sb  Sb9  1  0.497496  0.169284  0.348011  1
  Sb  Sb10  1  0.155742  0.654565  0.808130  1
  Sb  Sb11  1  0.808130  0.155742  0.654565  1
  Sb  Sb12  1  0.191870  0.844258  0.345435  1
  Sb  Sb13  1  0.169284  0.348011  0.497496  1
  Sb  Sb14  1  0.651989  0.502504  0.830716  1
  Sb  Sb15  1  0.348011  0.497496  0.169284  1
  Sb  Sb16  1  0.345435  0.191870  0.844258  1
