# generated using pymatgen
data_Sr19YbAu16
_symmetry_space_group_name_H-M   'P 1'
_cell_length_a   8.30348689
_cell_length_b   8.46688306
_cell_length_c   16.29259600
_cell_angle_alpha   90.00000000
_cell_angle_beta   90.00000000
_cell_angle_gamma   89.83235244
_symmetry_Int_Tables_number   1
_chemical_formula_structural   Sr19YbAu16
_chemical_formula_sum   'Sr19 Yb1 Au16'
_cell_volume   1145.44039619
_cell_formula_units_Z   1
loop_
 _symmetry_equiv_pos_site_id
 _symmetry_equiv_pos_as_xyz
  1  'x, y, z'
loop_
 _atom_site_type_symbol
 _atom_site_label
 _atom_site_symmetry_multiplicity
 _atom_site_fract_x
 _atom_site_fract_y
 _atom_site_fract_z
 _atom_site_occupancy
  Sr  Sr0  1  0.024644  0.173514  0.395914  1
  Sr  Sr1  1  0.865587  0.664739  0.379554  1
  Sr  Sr2  1  0.527187  0.323559  0.104000  1
  Sr  Sr3  1  0.132876  0.336703  0.617344  1
  Sr  Sr4  1  0.369059  0.838027  0.379461  1
  Sr  Sr5  1  0.132876  0.336703  0.882656  1
  Sr  Sr6  1  0.369059  0.838027  0.120539  1
  Sr  Sr7  1  0.202520  0.490642  0.250000  1
  Sr  Sr8  1  0.527187  0.323559  0.396000  1
  Sr  Sr9  1  0.797423  0.507054  0.750000  1
  Sr  Sr10  1  0.975723  0.823775  0.899413  1
  Sr  Sr11  1  0.975723  0.823775  0.600587  1
  Sr  Sr12  1  0.473995  0.674137  0.600870  1
  Sr  Sr13  1  0.632480  0.162624  0.616934  1
  Sr  Sr14  1  0.297374  0.992579  0.750000  1
  Sr  Sr15  1  0.632480  0.162624  0.883066  1
  Sr  Sr16  1  0.865587  0.664739  0.120446  1
  Sr  Sr17  1  0.473995  0.674137  0.899130  1
  Sr  Sr18  1  0.024644  0.173514  0.104086  1
  Yb  Yb19  1  0.704456  0.008669  0.250000  1
  Au  Au20  1  0.814968  0.360544  0.250000  1
  Au  Au21  1  0.428298  0.385518  0.750000  1
  Au  Au22  1  0.679765  0.871753  0.750000  1
  Au  Au23  1  0.791888  0.480377  0.547653  1
  Au  Au24  1  0.708067  0.983200  0.055108  1
  Au  Au25  1  0.791888  0.480377  0.952347  1
  Au  Au26  1  0.208538  0.521476  0.450070  1
  Au  Au27  1  0.208538  0.521476  0.049930  1
  Au  Au28  1  0.178483  0.628701  0.750000  1
  Au  Au29  1  0.331197  0.126587  0.250000  1
  Au  Au30  1  0.572802  0.617997  0.250000  1
  Au  Au31  1  0.062317  0.892301  0.250000  1
  Au  Au32  1  0.291681  0.018892  0.952020  1
  Au  Au33  1  0.926947  0.115604  0.750000  1
  Au  Au34  1  0.708067  0.983200  0.444892  1
  Au  Au35  1  0.291681  0.018892  0.547980  1
