# generated using pymatgen
data_Gd7Tm(TeO6)4
_symmetry_space_group_name_H-M   'P 1'
_cell_length_a   5.37869175
_cell_length_b   9.24217945
_cell_length_c   10.13273300
_cell_angle_alpha   90.00761904
_cell_angle_beta   89.95372613
_cell_angle_gamma   89.98381958
_symmetry_Int_Tables_number   1
_chemical_formula_structural   Gd7Tm(TeO6)4
_chemical_formula_sum   'Gd7 Tm1 Te4 O24'
_cell_volume   503.70642336
_cell_formula_units_Z   1
loop_
 _symmetry_equiv_pos_site_id
 _symmetry_equiv_pos_as_xyz
  1  'x, y, z'
loop_
 _atom_site_type_symbol
 _atom_site_label
 _atom_site_symmetry_multiplicity
 _atom_site_fract_x
 _atom_site_fract_y
 _atom_site_fract_z
 _atom_site_occupancy
  Gd  Gd0  1  0.022096  0.396163  0.040068  1
  Gd  Gd1  1  0.035309  0.282930  0.636107  1
  Gd  Gd2  1  0.463068  0.717463  0.136858  1
  Gd  Gd3  1  0.475155  0.606266  0.539119  1
  Gd  Gd4  1  0.522185  0.103017  0.960210  1
  Gd  Gd5  1  0.536259  0.217320  0.363747  1
  Gd  Gd6  1  0.964332  0.782880  0.862737  1
  Tm  Tm7  1  0.979929  0.898080  0.459781  1
  Te  Te8  1  0.039045  0.003979  0.148692  1
  Te  Te9  1  0.461958  0.993849  0.643844  1
  Te  Te10  1  0.539583  0.495208  0.853592  1
  Te  Te11  1  0.959134  0.506839  0.354313  1
  O  O12  1  0.079606  0.659607  0.470708  1
  O  O13  1  0.168444  0.551208  0.205212  1
  O  O14  1  0.182231  0.860095  0.264259  1
  O  O15  1  0.185584  0.857780  0.671548  1
  O  O16  1  0.227179  0.388466  0.434395  1
  O  O17  1  0.252169  0.080380  0.503364  1
  O  O18  1  0.245661  0.913836  0.008325  1
  O  O19  1  0.272163  0.614211  0.932901  1
  O  O20  1  0.314809  0.139503  0.178751  1
  O  O21  1  0.314494  0.138007  0.758131  1
  O  O22  1  0.330383  0.449368  0.705099  1
  O  O23  1  0.417792  0.346003  0.972816  1
  O  O24  1  0.597981  0.846380  0.527228  1
  O  O25  1  0.667934  0.948334  0.794315  1
  O  O26  1  0.685069  0.639807  0.739828  1
  O  O27  1  0.681912  0.639482  0.321321  1
  O  O28  1  0.727772  0.114361  0.565700  1
  O  O29  1  0.753769  0.416600  0.494522  1
  O  O30  1  0.745900  0.585678  0.993390  1
  O  O31  1  0.772230  0.886052  0.067612  1
  O  O32  1  0.814498  0.359358  0.822049  1
  O  O33  1  0.816005  0.360253  0.240971  1
  O  O34  1  0.831660  0.048057  0.299070  1
  O  O35  1  0.916703  0.153179  0.029419  1
