# generated using pymatgen
data_Nd19Y(Ga2Sn)4
_symmetry_space_group_name_H-M   'P 1'
_cell_length_a   7.97793200
_cell_length_b   7.97793200
_cell_length_c   14.47327300
_cell_angle_alpha   90.00000000
_cell_angle_beta   90.00000000
_cell_angle_gamma   90.00000000
_symmetry_Int_Tables_number   1
_chemical_formula_structural   Nd19Y(Ga2Sn)4
_chemical_formula_sum   'Nd19 Y1 Ga8 Sn4'
_cell_volume   921.18618142
_cell_formula_units_Z   1
loop_
 _symmetry_equiv_pos_site_id
 _symmetry_equiv_pos_as_xyz
  1  'x, y, z'
loop_
 _atom_site_type_symbol
 _atom_site_label
 _atom_site_symmetry_multiplicity
 _atom_site_fract_x
 _atom_site_fract_y
 _atom_site_fract_z
 _atom_site_occupancy
  Nd  Nd0  1  0.341076  0.321052  0.106284  1
  Nd  Nd1  1  0.839093  0.825287  0.893983  1
  Nd  Nd2  1  0.000000  0.500000  0.227800  1
  Nd  Nd3  1  0.838760  0.177017  0.394273  1
  Nd  Nd4  1  0.160907  0.174713  0.893983  1
  Nd  Nd5  1  0.658924  0.678948  0.106284  1
  Nd  Nd6  1  0.000000  0.500000  0.727930  1
  Nd  Nd7  1  0.827862  0.837652  0.605904  1
  Nd  Nd8  1  0.322983  0.338760  0.394273  1
  Nd  Nd9  1  0.178948  0.841076  0.106284  1
  Nd  Nd10  1  0.172138  0.162348  0.605904  1
  Nd  Nd11  1  0.821052  0.158924  0.106284  1
  Nd  Nd12  1  0.337652  0.672138  0.605904  1
  Nd  Nd13  1  0.500000  0.000000  0.279587  1
  Nd  Nd14  1  0.674713  0.339093  0.893983  1
  Nd  Nd15  1  0.662348  0.327862  0.605904  1
  Nd  Nd16  1  0.325287  0.660907  0.893983  1
  Nd  Nd17  1  0.161240  0.822983  0.394273  1
  Nd  Nd18  1  0.677017  0.661240  0.394273  1
  Y  Y19  1  0.500000  0.000000  0.759512  1
  Ga  Ga20  1  0.623058  0.377442  0.249943  1
  Ga  Ga21  1  0.871952  0.121621  0.751352  1
  Ga  Ga22  1  0.877442  0.876942  0.249943  1
  Ga  Ga23  1  0.128048  0.878379  0.751352  1
  Ga  Ga24  1  0.378379  0.371952  0.751352  1
  Ga  Ga25  1  0.122558  0.123058  0.249943  1
  Ga  Ga26  1  0.376942  0.622558  0.249943  1
  Ga  Ga27  1  0.621621  0.628048  0.751352  1
  Sn  Sn28  1  0.500000  0.000000  0.504241  1
  Sn  Sn29  1  0.000000  0.500000  0.002418  1
  Sn  Sn30  1  0.500000  0.000000  0.990080  1
  Sn  Sn31  1  0.000000  0.500000  0.501476  1
