# generated using pymatgen
data_Ti3Re3Si2P
_symmetry_space_group_name_H-M   'P 1'
_cell_length_a   6.74088900
_cell_length_b   6.74088915
_cell_length_c   3.27765700
_cell_angle_alpha   90.00000000
_cell_angle_beta   90.00000000
_cell_angle_gamma   120.00000418
_symmetry_Int_Tables_number   1
_chemical_formula_structural   Ti3Re3Si2P
_chemical_formula_sum   'Ti3 Re3 Si2 P1'
_cell_volume   128.98181328
_cell_formula_units_Z   1
loop_
 _symmetry_equiv_pos_site_id
 _symmetry_equiv_pos_as_xyz
  1  'x, y, z'
loop_
 _atom_site_type_symbol
 _atom_site_label
 _atom_site_symmetry_multiplicity
 _atom_site_fract_x
 _atom_site_fract_y
 _atom_site_fract_z
 _atom_site_occupancy
  Ti  Ti0  1  0.405426  0.401656  0.500000  1
  Ti  Ti1  1  0.598344  0.003769  0.500000  1
  Ti  Ti2  1  0.996231  0.594574  0.500000  1
  Re  Re3  1  0.739927  0.736791  0.000000  1
  Re  Re4  1  0.263209  0.003136  0.000000  1
  Re  Re5  1  0.996864  0.260073  0.000000  1
  Si  Si6  1  0.333333  0.666667  0.000000  1
  Si  Si7  1  0.000000  0.000000  0.500000  1
  P  P8  1  0.666667  0.333333  0.000000  1
