# generated using pymatgen
data_CaEr3(PbAu2)2
_symmetry_space_group_name_H-M   'P 1'
_cell_length_a   8.15225591
_cell_length_b   8.15225591
_cell_length_c   3.66371600
_cell_angle_alpha   90.00000000
_cell_angle_beta   90.00000000
_cell_angle_gamma   89.12270195
_symmetry_Int_Tables_number   1
_chemical_formula_structural   CaEr3(PbAu2)2
_chemical_formula_sum   'Ca1 Er3 Pb2 Au4'
_cell_volume   243.45937215
_cell_formula_units_Z   1
loop_
 _symmetry_equiv_pos_site_id
 _symmetry_equiv_pos_as_xyz
  1  'x, y, z'
loop_
 _atom_site_type_symbol
 _atom_site_label
 _atom_site_symmetry_multiplicity
 _atom_site_fract_x
 _atom_site_fract_y
 _atom_site_fract_z
 _atom_site_occupancy
  Ca  Ca0  1  0.328840  0.828840  0.500000  1
  Er  Er1  1  0.669427  0.169427  0.500000  1
  Er  Er2  1  0.168935  0.331039  0.500000  1
  Er  Er3  1  0.831039  0.668935  0.500000  1
  Pb  Pb4  1  0.001615  0.000235  0.000000  1
  Pb  Pb5  1  0.500235  0.501615  0.000000  1
  Au  Au6  1  0.120784  0.620784  0.000000  1
  Au  Au7  1  0.628980  0.877273  0.000000  1
  Au  Au8  1  0.377273  0.128980  0.000000  1
  Au  Au9  1  0.872872  0.372872  0.000000  1
