# generated using pymatgen
data_Y4FeCo16(P4Ru)3
_symmetry_space_group_name_H-M   'P 1'
_cell_length_a   3.68460000
_cell_length_b   10.34354029
_cell_length_c   11.81630303
_cell_angle_alpha   89.91946559
_cell_angle_beta   90.00000000
_cell_angle_gamma   90.00000000
_symmetry_Int_Tables_number   1
_chemical_formula_structural   Y4FeCo16(P4Ru)3
_chemical_formula_sum   'Y4 Fe1 Co16 P12 Ru3'
_cell_volume   450.34023383
_cell_formula_units_Z   1
loop_
 _symmetry_equiv_pos_site_id
 _symmetry_equiv_pos_as_xyz
  1  'x, y, z'
loop_
 _atom_site_type_symbol
 _atom_site_label
 _atom_site_symmetry_multiplicity
 _atom_site_fract_x
 _atom_site_fract_y
 _atom_site_fract_z
 _atom_site_occupancy
  Y  Y0  1  0.250000  0.913420  0.205534  1
  Y  Y1  1  0.750000  0.082740  0.798474  1
  Y  Y2  1  0.750000  0.415034  0.295569  1
  Y  Y3  1  0.250000  0.585979  0.703219  1
  Fe  Fe4  1  0.250000  0.711099  0.987716  1
  Co  Co5  1  0.250000  0.091677  0.990091  1
  Co  Co6  1  0.750000  0.905029  0.012951  1
  Co  Co7  1  0.750000  0.591724  0.511027  1
  Co  Co8  1  0.250000  0.409117  0.489251  1
  Co  Co9  1  0.250000  0.279511  0.676938  1
  Co  Co10  1  0.750000  0.720049  0.323902  1
  Co  Co11  1  0.750000  0.778669  0.823335  1
  Co  Co12  1  0.250000  0.221631  0.176658  1
  Co  Co13  1  0.250000  0.616353  0.198930  1
  Co  Co14  1  0.750000  0.386745  0.798738  1
  Co  Co15  1  0.750000  0.113255  0.296929  1
  Co  Co16  1  0.250000  0.886996  0.702380  1
  Co  Co17  1  0.250000  0.035411  0.430946  1
  Co  Co18  1  0.750000  0.966168  0.569202  1
  Co  Co19  1  0.750000  0.535574  0.066626  1
  Co  Co20  1  0.250000  0.467425  0.931800  1
  P  P21  1  0.250000  0.080485  0.612438  1
  P  P22  1  0.750000  0.919743  0.388546  1
  P  P23  1  0.750000  0.582037  0.887355  1
  P  P24  1  0.250000  0.420729  0.112334  1
  P  P25  1  0.250000  0.228970  0.366606  1
  P  P26  1  0.750000  0.772365  0.633601  1
  P  P27  1  0.750000  0.729347  0.131842  1
  P  P28  1  0.250000  0.271316  0.867029  1
  P  P29  1  0.250000  0.897285  0.893407  1
  P  P30  1  0.750000  0.094813  0.109033  1
  P  P31  1  0.750000  0.404133  0.610111  1
  P  P32  1  0.250000  0.596919  0.389060  1
  Ru  Ru33  1  0.250000  0.784453  0.491295  1
  Ru  Ru34  1  0.750000  0.217362  0.506935  1
  Ru  Ru35  1  0.750000  0.286442  0.010194  1
