# generated using pymatgen
data_CaPr5(ZrBi5)2
_symmetry_space_group_name_H-M   'P 1'
_cell_length_a   9.78934707
_cell_length_b   9.78934676
_cell_length_c   6.57721400
_cell_angle_alpha   90.00000000
_cell_angle_beta   90.00000000
_cell_angle_gamma   120.19431294
_symmetry_Int_Tables_number   1
_chemical_formula_structural   CaPr5(ZrBi5)2
_chemical_formula_sum   'Ca1 Pr5 Zr2 Bi10'
_cell_volume   544.78651453
_cell_formula_units_Z   1
loop_
 _symmetry_equiv_pos_site_id
 _symmetry_equiv_pos_as_xyz
  1  'x, y, z'
loop_
 _atom_site_type_symbol
 _atom_site_label
 _atom_site_symmetry_multiplicity
 _atom_site_fract_x
 _atom_site_fract_y
 _atom_site_fract_z
 _atom_site_occupancy
  Ca  Ca0  1  0.619013  0.619013  0.750000  1
  Pr  Pr1  1  0.382257  0.000093  0.750000  1
  Pr  Pr2  1  0.618887  0.999735  0.250000  1
  Pr  Pr3  1  0.000093  0.382257  0.750000  1
  Pr  Pr4  1  0.383830  0.383830  0.250000  1
  Pr  Pr5  1  0.999735  0.618887  0.250000  1
  Zr  Zr6  1  0.999215  0.999215  0.998511  1
  Zr  Zr7  1  0.999215  0.999215  0.501489  1
  Bi  Bi8  1  0.264508  0.000135  0.250000  1
  Bi  Bi9  1  0.000135  0.264508  0.250000  1
  Bi  Bi10  1  0.998900  0.735293  0.750000  1
  Bi  Bi11  1  0.332708  0.666210  0.499595  1
  Bi  Bi12  1  0.332708  0.666210  0.000405  1
  Bi  Bi13  1  0.264748  0.264748  0.750000  1
  Bi  Bi14  1  0.666210  0.332708  0.499595  1
  Bi  Bi15  1  0.736335  0.736335  0.250000  1
  Bi  Bi16  1  0.735293  0.998900  0.750000  1
  Bi  Bi17  1  0.666210  0.332708  0.000405  1
