# generated using pymatgen
data_YZr2IrF15
_symmetry_space_group_name_H-M   'P 1'
_cell_length_a   8.15033472
_cell_length_b   8.15033417
_cell_length_c   8.16077216
_cell_angle_alpha   79.84673327
_cell_angle_beta   79.84673218
_cell_angle_gamma   99.72162319
_symmetry_Int_Tables_number   1
_chemical_formula_structural   YZr2IrF15
_chemical_formula_sum   'Y2 Zr4 Ir2 F30'
_cell_volume   513.95298817
_cell_formula_units_Z   2
loop_
 _symmetry_equiv_pos_site_id
 _symmetry_equiv_pos_as_xyz
  1  'x, y, z'
loop_
 _atom_site_type_symbol
 _atom_site_label
 _atom_site_symmetry_multiplicity
 _atom_site_fract_x
 _atom_site_fract_y
 _atom_site_fract_z
 _atom_site_occupancy
  Y  Y0  1  0.176197  0.823803  0.250000  1
  Y  Y1  1  0.823803  0.176197  0.750000  1
  Zr  Zr2  1  0.746826  0.676679  0.673449  1
  Zr  Zr3  1  0.323321  0.253174  0.826551  1
  Zr  Zr4  1  0.253174  0.323321  0.326551  1
  Zr  Zr5  1  0.676679  0.746826  0.173449  1
  Ir  Ir6  1  0.749179  0.250821  0.250000  1
  Ir  Ir7  1  0.250821  0.749179  0.750000  1
  F  F8  1  0.313547  0.350335  0.055033  1
  F  F9  1  0.934261  0.810850  0.152218  1
  F  F10  1  0.843757  0.459259  0.685796  1
  F  F11  1  0.459259  0.843757  0.185796  1
  F  F12  1  0.810850  0.934261  0.652218  1
  F  F13  1  0.350335  0.313547  0.555032  1
  F  F14  1  0.686453  0.649665  0.944967  1
  F  F15  1  0.065739  0.189150  0.847782  1
  F  F16  1  0.156243  0.540741  0.314204  1
  F  F17  1  0.540741  0.156243  0.814204  1
  F  F18  1  0.189150  0.065739  0.347782  1
  F  F19  1  0.649665  0.686453  0.444967  1
  F  F20  1  0.773507  0.284682  0.003345  1
  F  F21  1  0.998944  0.273938  0.213571  1
  F  F22  1  0.783880  0.502518  0.224651  1
  F  F23  1  0.502518  0.783880  0.724651  1
  F  F24  1  0.273938  0.998944  0.713571  1
  F  F25  1  0.284682  0.773507  0.503345  1
  F  F26  1  0.226493  0.715318  0.996655  1
  F  F27  1  0.001056  0.726062  0.786429  1
  F  F28  1  0.216120  0.497482  0.775349  1
  F  F29  1  0.497482  0.216120  0.275349  1
  F  F30  1  0.726062  0.001056  0.286429  1
  F  F31  1  0.715318  0.226493  0.496655  1
  F  F32  1  0.469374  0.530626  0.250000  1
  F  F33  1  0.745930  0.955532  0.973299  1
  F  F34  1  0.044468  0.254070  0.526701  1
  F  F35  1  0.254070  0.044468  0.026701  1
  F  F36  1  0.955532  0.745930  0.473299  1
  F  F37  1  0.530626  0.469374  0.750000  1
