# generated using pymatgen
data_Pr20Ga3Si8Hg
_symmetry_space_group_name_H-M   'P 1'
_cell_length_a   7.85263800
_cell_length_b   7.85263800
_cell_length_c   14.67978400
_cell_angle_alpha   90.00000000
_cell_angle_beta   90.00000000
_cell_angle_gamma   90.00000000
_symmetry_Int_Tables_number   1
_chemical_formula_structural   Pr20Ga3Si8Hg
_chemical_formula_sum   'Pr20 Ga3 Si8 Hg1'
_cell_volume   905.21307844
_cell_formula_units_Z   1
loop_
 _symmetry_equiv_pos_site_id
 _symmetry_equiv_pos_as_xyz
  1  'x, y, z'
loop_
 _atom_site_type_symbol
 _atom_site_label
 _atom_site_symmetry_multiplicity
 _atom_site_fract_x
 _atom_site_fract_y
 _atom_site_fract_z
 _atom_site_occupancy
  Pr  Pr0  1  0.811578  0.836069  0.611013  1
  Pr  Pr1  1  0.186991  0.830049  0.107674  1
  Pr  Pr2  1  0.172403  0.818605  0.389657  1
  Pr  Pr3  1  0.000000  0.500000  0.727580  1
  Pr  Pr4  1  0.827597  0.181395  0.389657  1
  Pr  Pr5  1  0.681395  0.672403  0.389657  1
  Pr  Pr6  1  0.663931  0.311578  0.611013  1
  Pr  Pr7  1  0.336069  0.688422  0.611013  1
  Pr  Pr8  1  0.000000  0.500000  0.227138  1
  Pr  Pr9  1  0.669951  0.686991  0.107674  1
  Pr  Pr10  1  0.685536  0.328574  0.892609  1
  Pr  Pr11  1  0.828574  0.814464  0.892609  1
  Pr  Pr12  1  0.318605  0.327597  0.389657  1
  Pr  Pr13  1  0.188422  0.163931  0.611013  1
  Pr  Pr14  1  0.813009  0.169951  0.107674  1
  Pr  Pr15  1  0.314464  0.671426  0.892609  1
  Pr  Pr16  1  0.330049  0.313009  0.107674  1
  Pr  Pr17  1  0.500000  0.000000  0.268017  1
  Pr  Pr18  1  0.171426  0.185536  0.892609  1
  Pr  Pr19  1  0.500000  0.000000  0.773036  1
  Ga  Ga20  1  0.500000  0.000000  0.493218  1
  Ga  Ga21  1  0.500000  0.000000  0.993904  1
  Ga  Ga22  1  0.000000  0.500000  0.005942  1
  Si  Si23  1  0.614155  0.386943  0.248221  1
  Si  Si24  1  0.112983  0.885391  0.752703  1
  Si  Si25  1  0.385391  0.387017  0.752703  1
  Si  Si26  1  0.385845  0.613057  0.248221  1
  Si  Si27  1  0.886943  0.885845  0.248221  1
  Si  Si28  1  0.614609  0.612983  0.752703  1
  Si  Si29  1  0.887017  0.114609  0.752703  1
  Si  Si30  1  0.113057  0.114155  0.248221  1
  Hg  Hg31  1  0.000000  0.500000  0.503659  1
