# generated using pymatgen
data_La2Y18Si15Pd
_symmetry_space_group_name_H-M   'P 1'
_cell_length_a   7.46195698
_cell_length_b   7.79773503
_cell_length_c   14.75674635
_cell_angle_alpha   89.61337540
_cell_angle_beta   89.94401337
_cell_angle_gamma   89.93921893
_symmetry_Int_Tables_number   1
_chemical_formula_structural   La2Y18Si15Pd
_chemical_formula_sum   'La2 Y18 Si15 Pd1'
_cell_volume   858.62096865
_cell_formula_units_Z   1
loop_
 _symmetry_equiv_pos_site_id
 _symmetry_equiv_pos_as_xyz
  1  'x, y, z'
loop_
 _atom_site_type_symbol
 _atom_site_label
 _atom_site_symmetry_multiplicity
 _atom_site_fract_x
 _atom_site_fract_y
 _atom_site_fract_z
 _atom_site_occupancy
  La  La0  1  0.522983  0.571013  0.342239  1
  La  La1  1  0.023184  0.428796  0.656895  1
  Y  Y2  1  0.811885  0.575892  0.874463  1
  Y  Y3  1  0.315523  0.423335  0.126017  1
  Y  Y4  1  0.182151  0.928215  0.373063  1
  Y  Y5  1  0.682140  0.069869  0.627099  1
  Y  Y6  1  0.182644  0.927871  0.628538  1
  Y  Y7  1  0.682634  0.070942  0.371252  1
  Y  Y8  1  0.816557  0.571746  0.126669  1
  Y  Y9  1  0.319035  0.427611  0.872835  1
  Y  Y10  1  0.644636  0.232449  0.999481  1
  Y  Y11  1  0.155224  0.759095  0.000734  1
  Y  Y12  1  0.350888  0.263376  0.499994  1
  Y  Y13  1  0.850149  0.735910  0.499945  1
  Y  Y14  1  0.474364  0.934303  0.845878  1
  Y  Y15  1  0.973186  0.066251  0.152316  1
  Y  Y16  1  0.472477  0.935148  0.153084  1
  Y  Y17  1  0.971617  0.066711  0.848946  1
  Y  Y18  1  0.527415  0.566124  0.652113  1
  Y  Y19  1  0.027812  0.434369  0.347906  1
  Si  Si20  1  0.019207  0.351603  0.999936  1
  Si  Si21  1  0.476418  0.858770  0.501128  1
  Si  Si22  1  0.977109  0.140908  0.499050  1
  Si  Si23  1  0.649829  0.277119  0.790614  1
  Si  Si24  1  0.151660  0.722037  0.209074  1
  Si  Si25  1  0.351698  0.216478  0.288131  1
  Si  Si26  1  0.851698  0.783364  0.712636  1
  Si  Si27  1  0.361453  0.220269  0.710302  1
  Si  Si28  1  0.860851  0.780008  0.288907  1
  Si  Si29  1  0.645399  0.270092  0.206225  1
  Si  Si30  1  0.147093  0.728037  0.793500  1
  Si  Si31  1  0.772680  0.880375  0.000807  1
  Si  Si32  1  0.259724  0.124650  0.999504  1
  Si  Si33  1  0.234653  0.627564  0.501801  1
  Si  Si34  1  0.733609  0.373262  0.498451  1
  Pd  Pd35  1  0.520413  0.656437  0.000468  1
