# generated using pymatgen
data_Hf2Nb2SiP
_symmetry_space_group_name_H-M   'P 1'
_cell_length_a   3.56606600
_cell_length_b   6.94822800
_cell_length_c   8.42008800
_cell_angle_alpha   90.00000000
_cell_angle_beta   90.00000000
_cell_angle_gamma   90.00000000
_symmetry_Int_Tables_number   1
_chemical_formula_structural   Hf2Nb2SiP
_chemical_formula_sum   'Hf4 Nb4 Si2 P2'
_cell_volume   208.63159014
_cell_formula_units_Z   2
loop_
 _symmetry_equiv_pos_site_id
 _symmetry_equiv_pos_as_xyz
  1  'x, y, z'
loop_
 _atom_site_type_symbol
 _atom_site_label
 _atom_site_symmetry_multiplicity
 _atom_site_fract_x
 _atom_site_fract_y
 _atom_site_fract_z
 _atom_site_occupancy
  Hf  Hf0  1  0.250000  0.537956  0.835462  1
  Hf  Hf1  1  0.750000  0.962044  0.335462  1
  Hf  Hf2  1  0.250000  0.040214  0.669536  1
  Hf  Hf3  1  0.750000  0.459786  0.169536  1
  Nb  Nb4  1  0.250000  0.140989  0.059290  1
  Nb  Nb5  1  0.750000  0.868765  0.938432  1
  Nb  Nb6  1  0.250000  0.631235  0.438432  1
  Nb  Nb7  1  0.750000  0.359011  0.559290  1
  Si  Si8  1  0.750000  0.741314  0.640162  1
  Si  Si9  1  0.250000  0.758686  0.140162  1
  P  P10  1  0.750000  0.244527  0.857120  1
  P  P11  1  0.250000  0.255473  0.357120  1
