# generated using pymatgen
data_CaNdBRu4C3
_symmetry_space_group_name_H-M   'P 1'
_cell_length_a   6.69382551
_cell_length_b   5.84844348
_cell_length_c   5.50668846
_cell_angle_alpha   72.17157386
_cell_angle_beta   56.74556542
_cell_angle_gamma   51.54953026
_symmetry_Int_Tables_number   1
_chemical_formula_structural   CaNdBRu4C3
_chemical_formula_sum   'Ca1 Nd1 B1 Ru4 C3'
_cell_volume   140.98275899
_cell_formula_units_Z   1
loop_
 _symmetry_equiv_pos_site_id
 _symmetry_equiv_pos_as_xyz
  1  'x, y, z'
loop_
 _atom_site_type_symbol
 _atom_site_label
 _atom_site_symmetry_multiplicity
 _atom_site_fract_x
 _atom_site_fract_y
 _atom_site_fract_z
 _atom_site_occupancy
  Ca  Ca0  1  0.999306  0.000694  0.999306  1
  Nd  Nd1  1  0.250658  0.249342  0.250658  1
  B  B2  1  0.930286  0.569714  0.930286  1
  Ru  Ru3  1  0.627145  0.639145  0.374651  1
  Ru  Ru4  1  0.374651  0.359059  0.627145  1
  Ru  Ru5  1  0.604593  0.616342  0.890315  1
  Ru  Ru6  1  0.890315  0.888751  0.604593  1
  C  C7  1  0.317181  0.682819  0.317181  1
  C  C8  1  0.685181  0.314819  0.685181  1
  C  C9  1  0.570685  0.929315  0.570685  1
