# generated using pymatgen
data_NdScP7IrRu11
_symmetry_space_group_name_H-M   'P 1'
_cell_length_a   9.39413323
_cell_length_b   9.42984998
_cell_length_c   3.94345800
_cell_angle_alpha   90.00000000
_cell_angle_beta   90.00000000
_cell_angle_gamma   119.77998554
_symmetry_Int_Tables_number   1
_chemical_formula_structural   NdScP7IrRu11
_chemical_formula_sum   'Nd1 Sc1 P7 Ir1 Ru11'
_cell_volume   303.19911084
_cell_formula_units_Z   1
loop_
 _symmetry_equiv_pos_site_id
 _symmetry_equiv_pos_as_xyz
  1  'x, y, z'
loop_
 _atom_site_type_symbol
 _atom_site_label
 _atom_site_symmetry_multiplicity
 _atom_site_fract_x
 _atom_site_fract_y
 _atom_site_fract_z
 _atom_site_occupancy
  Nd  Nd0  1  0.332020  0.664030  0.000000  1
  Sc  Sc1  1  0.667183  0.334341  0.500000  1
  P  P2  1  0.603854  0.714843  0.500000  1
  P  P3  1  0.999419  0.999966  0.000000  1
  P  P4  1  0.277502  0.882730  0.500000  1
  P  P5  1  0.114908  0.396235  0.500000  1
  P  P6  1  0.884666  0.570871  0.000000  1
  P  P7  1  0.430839  0.314163  0.000000  1
  P  P8  1  0.689875  0.120556  0.000000  1
  Ir  Ir9  1  0.556123  0.952593  0.500000  1
  Ru  Ru10  1  0.395850  0.439370  0.500000  1
  Ru  Ru11  1  0.913828  0.121313  0.500000  1
  Ru  Ru12  1  0.206981  0.085609  0.500000  1
  Ru  Ru13  1  0.879384  0.795455  0.500000  1
  Ru  Ru14  1  0.726557  0.893844  0.000000  1
  Ru  Ru15  1  0.108283  0.835896  0.000000  1
  Ru  Ru16  1  0.164746  0.271152  0.000000  1
  Ru  Ru17  1  0.427893  0.073056  0.000000  1
  Ru  Ru18  1  0.929632  0.354780  0.000000  1
  Ru  Ru19  1  0.646450  0.575652  0.000000  1
  Ru  Ru20  1  0.044010  0.603545  0.500000  1
