# generated using pymatgen
data_K6Rb12AlGaAs8
_symmetry_space_group_name_H-M   'P 1'
_cell_length_a   10.35885600
_cell_length_b   10.35885648
_cell_length_c   10.98032400
_cell_angle_alpha   90.00000000
_cell_angle_beta   90.00000000
_cell_angle_gamma   119.99999848
_symmetry_Int_Tables_number   1
_chemical_formula_structural   K6Rb12AlGaAs8
_chemical_formula_sum   'K6 Rb12 Al1 Ga1 As8'
_cell_volume   1020.39754562
_cell_formula_units_Z   1
loop_
 _symmetry_equiv_pos_site_id
 _symmetry_equiv_pos_as_xyz
  1  'x, y, z'
loop_
 _atom_site_type_symbol
 _atom_site_label
 _atom_site_symmetry_multiplicity
 _atom_site_fract_x
 _atom_site_fract_y
 _atom_site_fract_z
 _atom_site_occupancy
  K  K0  1  0.238994  0.119498  0.750000  1
  K  K1  1  0.880502  0.119498  0.750000  1
  K  K2  1  0.760649  0.880324  0.250000  1
  K  K3  1  0.119676  0.239351  0.250000  1
  K  K4  1  0.119676  0.880324  0.250000  1
  K  K5  1  0.880502  0.761006  0.750000  1
  Rb  Rb6  1  0.208584  0.791416  0.954927  1
  Rb  Rb7  1  0.208584  0.417167  0.954927  1
  Rb  Rb8  1  0.582833  0.791416  0.954927  1
  Rb  Rb9  1  0.416691  0.208346  0.454804  1
  Rb  Rb10  1  0.791654  0.583309  0.045196  1
  Rb  Rb11  1  0.791654  0.208346  0.454804  1
  Rb  Rb12  1  0.791654  0.583309  0.454804  1
  Rb  Rb13  1  0.208584  0.791416  0.545073  1
  Rb  Rb14  1  0.582833  0.791416  0.545073  1
  Rb  Rb15  1  0.416691  0.208346  0.045196  1
  Rb  Rb16  1  0.791654  0.208346  0.045196  1
  Rb  Rb17  1  0.208584  0.417167  0.545073  1
  Al  Al18  1  0.666667  0.333333  0.750000  1
  Ga  Ga19  1  0.333333  0.666667  0.250000  1
  As  As20  1  0.000000  0.000000  0.999970  1
  As  As21  1  0.054001  0.527000  0.250000  1
  As  As22  1  0.473000  0.945999  0.250000  1
  As  As23  1  0.528100  0.056201  0.750000  1
  As  As24  1  0.528100  0.471900  0.750000  1
  As  As25  1  0.000000  0.000000  0.500030  1
  As  As26  1  0.473000  0.527000  0.250000  1
  As  As27  1  0.943799  0.471900  0.750000  1
