# generated using pymatgen
data_Ho4AlRu
_symmetry_space_group_name_H-M   'P 1'
_cell_length_a   9.50087401
_cell_length_b   9.52309489
_cell_length_c   9.51090063
_cell_angle_alpha   59.46678333
_cell_angle_beta   59.43436917
_cell_angle_gamma   59.47098079
_symmetry_Int_Tables_number   1
_chemical_formula_structural   Ho4AlRu
_chemical_formula_sum   'Ho16 Al4 Ru4'
_cell_volume   600.97163135
_cell_formula_units_Z   4
loop_
 _symmetry_equiv_pos_site_id
 _symmetry_equiv_pos_as_xyz
  1  'x, y, z'
loop_
 _atom_site_type_symbol
 _atom_site_label
 _atom_site_symmetry_multiplicity
 _atom_site_fract_x
 _atom_site_fract_y
 _atom_site_fract_z
 _atom_site_occupancy
  Ho  Ho0  1  0.440018  0.439549  0.062717  1
  Ho  Ho1  1  0.648639  0.648741  0.051837  1
  Ho  Ho2  1  0.194324  0.809353  0.194620  1
  Ho  Ho3  1  0.060178  0.441089  0.060292  1
  Ho  Ho4  1  0.194144  0.805523  0.805667  1
  Ho  Ho5  1  0.063060  0.439158  0.440031  1
  Ho  Ho6  1  0.809378  0.194822  0.194386  1
  Ho  Ho7  1  0.647700  0.648130  0.647427  1
  Ho  Ho8  1  0.805847  0.194323  0.805756  1
  Ho  Ho9  1  0.194591  0.194556  0.809420  1
  Ho  Ho10  1  0.052009  0.648538  0.648562  1
  Ho  Ho11  1  0.440602  0.060294  0.060129  1
  Ho  Ho12  1  0.060146  0.060176  0.440565  1
  Ho  Ho13  1  0.648731  0.051561  0.649113  1
  Ho  Ho14  1  0.805849  0.805619  0.194185  1
  Ho  Ho15  1  0.440152  0.062570  0.439652  1
  Al  Al16  1  0.423342  0.423380  0.423629  1
  Al  Al17  1  0.423302  0.422822  0.730973  1
  Al  Al18  1  0.423321  0.731091  0.423272  1
  Al  Al19  1  0.731016  0.422959  0.423152  1
  Ru  Ru20  1  0.419509  0.857337  0.857317  1
  Ru  Ru21  1  0.860257  0.860364  0.860532  1
  Ru  Ru22  1  0.857133  0.419953  0.857126  1
  Ru  Ru23  1  0.856752  0.858095  0.419639  1
