# generated using pymatgen
data_Sm2Bi2Mo2O11
_symmetry_space_group_name_H-M   'P 1'
_cell_length_a   6.58959648
_cell_length_b   7.78568385
_cell_length_c   9.85414126
_cell_angle_alpha   102.04834947
_cell_angle_beta   90.48940014
_cell_angle_gamma   90.12623752
_symmetry_Int_Tables_number   1
_chemical_formula_structural   Sm2Bi2Mo2O11
_chemical_formula_sum   'Sm4 Bi4 Mo4 O22'
_cell_volume   494.40317651
_cell_formula_units_Z   2
loop_
 _symmetry_equiv_pos_site_id
 _symmetry_equiv_pos_as_xyz
  1  'x, y, z'
loop_
 _atom_site_type_symbol
 _atom_site_label
 _atom_site_symmetry_multiplicity
 _atom_site_fract_x
 _atom_site_fract_y
 _atom_site_fract_z
 _atom_site_occupancy
  Sm  Sm0  1  0.746206  0.364817  0.479865  1
  Sm  Sm1  1  0.253794  0.635183  0.520135  1
  Sm  Sm2  1  0.758972  0.873981  0.492102  1
  Sm  Sm3  1  0.241028  0.126019  0.507898  1
  Bi  Bi4  1  0.454495  0.976291  0.816216  1
  Bi  Bi5  1  0.545505  0.023709  0.183784  1
  Bi  Bi6  1  0.373331  0.451362  0.825671  1
  Bi  Bi7  1  0.626669  0.548638  0.174329  1
  Mo  Mo8  1  0.915797  0.702158  0.797944  1
  Mo  Mo9  1  0.084203  0.297842  0.202056  1
  Mo  Mo10  1  0.919412  0.204262  0.809982  1
  Mo  Mo11  1  0.080588  0.795738  0.190018  1
  O  O12  1  0.213294  0.730673  0.763460  1
  O  O13  1  0.786706  0.269327  0.236540  1
  O  O14  1  0.655315  0.665499  0.852545  1
  O  O15  1  0.344685  0.334501  0.147455  1
  O  O16  1  0.623803  0.245756  0.832971  1
  O  O17  1  0.376197  0.754244  0.167029  1
  O  O18  1  0.896919  0.156912  0.592421  1
  O  O19  1  0.103081  0.843088  0.407579  1
  O  O20  1  0.228772  0.165076  0.758670  1
  O  O21  1  0.771228  0.834924  0.241330  1
  O  O22  1  0.893265  0.637265  0.591879  1
  O  O23  1  0.106735  0.362735  0.408121  1
  O  O24  1  0.001408  0.550245  0.198748  1
  O  O25  1  0.998592  0.449755  0.801252  1
  O  O26  1  0.010385  0.783706  0.008833  1
  O  O27  1  0.989615  0.216294  0.991167  1
  O  O28  1  0.570953  0.592183  0.391513  1
  O  O29  1  0.429047  0.407817  0.608487  1
  O  O30  1  0.174644  0.055383  0.229813  1
  O  O31  1  0.825356  0.944617  0.770187  1
  O  O32  1  0.551933  0.099877  0.401962  1
  O  O33  1  0.448067  0.900123  0.598038  1
