# generated using pymatgen
data_Tm5Lu(Sc2In3)2
_symmetry_space_group_name_H-M   'P 1'
_cell_length_a   6.19612103
_cell_length_b   8.81247121
_cell_length_c   8.81577602
_cell_angle_alpha   120.00698109
_cell_angle_beta   90.00664126
_cell_angle_gamma   90.00175526
_symmetry_Int_Tables_number   1
_chemical_formula_structural   Tm5Lu(Sc2In3)2
_chemical_formula_sum   'Tm5 Lu1 Sc4 In6'
_cell_volume   416.84848040
_cell_formula_units_Z   1
loop_
 _symmetry_equiv_pos_site_id
 _symmetry_equiv_pos_as_xyz
  1  'x, y, z'
loop_
 _atom_site_type_symbol
 _atom_site_label
 _atom_site_symmetry_multiplicity
 _atom_site_fract_x
 _atom_site_fract_y
 _atom_site_fract_z
 _atom_site_occupancy
  Tm  Tm0  1  0.749959  0.235762  0.000144  1
  Tm  Tm1  1  0.749981  0.764230  0.764383  1
  Tm  Tm2  1  0.749988  0.000000  0.236382  1
  Tm  Tm3  1  0.250053  0.764051  0.999726  1
  Tm  Tm4  1  0.250024  0.235928  0.235653  1
  Lu  Lu5  1  0.250068  0.999966  0.764197  1
  Sc  Sc6  1  0.499957  0.333442  0.666792  1
  Sc  Sc7  1  0.499968  0.666528  0.333401  1
  Sc  Sc8  1  0.000008  0.666664  0.333418  1
  Sc  Sc9  1  0.000024  0.333389  0.666803  1
  In  In10  1  0.749870  0.592066  0.999797  1
  In  In11  1  0.750067  0.407928  0.407761  1
  In  In12  1  0.749846  0.000027  0.592115  1
  In  In13  1  0.250086  0.407328  0.999395  1
  In  In14  1  0.249894  0.592659  0.592094  1
  In  In15  1  0.250208  0.000037  0.407939  1
