# generated using pymatgen
data_Tb11DyTlCo4Ni
_symmetry_space_group_name_H-M   'P 1'
_cell_length_a   8.35221562
_cell_length_b   8.35349409
_cell_length_c   8.35221542
_cell_angle_alpha   110.75475031
_cell_angle_beta   110.50330768
_cell_angle_gamma   107.17376485
_symmetry_Int_Tables_number   1
_chemical_formula_structural   Tb11DyTlCo4Ni
_chemical_formula_sum   'Tb11 Dy1 Tl1 Co4 Ni1'
_cell_volume   448.08395230
_cell_formula_units_Z   1
loop_
 _symmetry_equiv_pos_site_id
 _symmetry_equiv_pos_as_xyz
  1  'x, y, z'
loop_
 _atom_site_type_symbol
 _atom_site_label
 _atom_site_symmetry_multiplicity
 _atom_site_fract_x
 _atom_site_fract_y
 _atom_site_fract_z
 _atom_site_occupancy
  Tb  Tb0  1  0.403404  0.208459  0.194518  1
  Tb  Tb1  1  0.596825  0.791453  0.805772  1
  Tb  Tb2  1  0.013942  0.208459  0.805053  1
  Tb  Tb3  1  0.985680  0.791453  0.194629  1
  Tb  Tb4  1  0.185536  0.294202  0.480267  1
  Tb  Tb5  1  0.813972  0.705499  0.519261  1
  Tb  Tb6  1  0.186238  0.705499  0.891526  1
  Tb  Tb7  1  0.813935  0.294202  0.108666  1
  Tb  Tb8  1  0.315441  0.621208  0.305768  1
  Tb  Tb9  1  0.684958  0.378973  0.694015  1
  Tb  Tb10  1  0.315272  0.009641  0.694369  1
  Dy  Dy11  1  0.684444  0.990725  0.306280  1
  Tl  Tl12  1  0.500118  0.500588  0.000470  1
  Co  Co13  1  0.379006  0.000137  0.378669  1
  Co  Co14  1  0.621468  0.000137  0.621130  1
  Co  Co15  1  0.112065  0.612204  0.500139  1
  Co  Co16  1  0.887686  0.387344  0.499658  1
  Ni  Ni17  1  0.000009  0.999819  0.999809  1
