# generated using pymatgen
data_TbNd11(Si2Ni)4
_symmetry_space_group_name_H-M   'P 1'
_cell_length_a   4.22340800
_cell_length_b   11.65329725
_cell_length_c   11.63597141
_cell_angle_alpha   89.83324852
_cell_angle_beta   90.00000000
_cell_angle_gamma   90.00000000
_symmetry_Int_Tables_number   1
_chemical_formula_structural   TbNd11(Si2Ni)4
_chemical_formula_sum   'Tb1 Nd11 Si8 Ni4'
_cell_volume   572.68086053
_cell_formula_units_Z   1
loop_
 _symmetry_equiv_pos_site_id
 _symmetry_equiv_pos_as_xyz
  1  'x, y, z'
loop_
 _atom_site_type_symbol
 _atom_site_label
 _atom_site_symmetry_multiplicity
 _atom_site_fract_x
 _atom_site_fract_y
 _atom_site_fract_z
 _atom_site_occupancy
  Tb  Tb0  1  0.750000  0.306295  0.787352  1
  Nd  Nd1  1  0.250000  0.060986  0.882247  1
  Nd  Nd2  1  0.250000  0.440935  0.384723  1
  Nd  Nd3  1  0.750000  0.941515  0.115149  1
  Nd  Nd4  1  0.750000  0.559461  0.617324  1
  Nd  Nd5  1  0.250000  0.124016  0.560461  1
  Nd  Nd6  1  0.250000  0.375648  0.058038  1
  Nd  Nd7  1  0.750000  0.876269  0.440743  1
  Nd  Nd8  1  0.750000  0.622458  0.940704  1
  Nd  Nd9  1  0.250000  0.803807  0.711130  1
  Nd  Nd10  1  0.250000  0.696792  0.211289  1
  Nd  Nd11  1  0.750000  0.198264  0.287578  1
  Si  Si12  1  0.250000  0.812836  0.969910  1
  Si  Si13  1  0.250000  0.686249  0.470308  1
  Si  Si14  1  0.750000  0.187720  0.026360  1
  Si  Si15  1  0.750000  0.314077  0.533093  1
  Si  Si16  1  0.250000  0.486550  0.801992  1
  Si  Si17  1  0.250000  0.009598  0.300352  1
  Si  Si18  1  0.750000  0.508341  0.199097  1
  Si  Si19  1  0.750000  0.991294  0.699339  1
  Ni  Ni20  1  0.250000  0.363199  0.633497  1
  Ni  Ni21  1  0.250000  0.134626  0.128321  1
  Ni  Ni22  1  0.750000  0.633892  0.370587  1
  Ni  Ni23  1  0.750000  0.865171  0.870403  1
