# generated using pymatgen
data_Zr3P6WO24
_symmetry_space_group_name_H-M   'P 1'
_cell_length_a   8.92252186
_cell_length_b   8.92246575
_cell_length_c   9.20308610
_cell_angle_alpha   89.93046875
_cell_angle_beta   61.07465617
_cell_angle_gamma   120.00455464
_symmetry_Int_Tables_number   1
_chemical_formula_structural   Zr3P6WO24
_chemical_formula_sum   'Zr3 P6 W1 O24'
_cell_volume   525.99411987
_cell_formula_units_Z   1
loop_
 _symmetry_equiv_pos_site_id
 _symmetry_equiv_pos_as_xyz
  1  'x, y, z'
loop_
 _atom_site_type_symbol
 _atom_site_label
 _atom_site_symmetry_multiplicity
 _atom_site_fract_x
 _atom_site_fract_y
 _atom_site_fract_z
 _atom_site_occupancy
  Zr  Zr0  1  0.782396  0.140605  0.076998  1
  Zr  Zr1  1  0.780914  0.640055  0.579604  1
  Zr  Zr2  1  0.215953  0.358577  0.425230  1
  P  P3  1  0.276816  0.031251  0.251081  1
  P  P4  1  0.717759  0.745199  0.249695  1
  P  P5  1  0.277113  0.239297  0.752129  1
  P  P6  1  0.711162  0.972201  0.750501  1
  P  P7  1  0.011205  0.539422  0.749957  1
  P  P8  1  0.002570  0.470941  0.251636  1
  W  W9  1  0.210905  0.855921  0.932849  1
  O  O10  1  0.481753  0.074030  0.216016  1
  O  O11  1  0.880092  0.377753  0.912927  1
  O  O12  1  0.890342  0.143489  0.589710  1
  O  O13  1  0.871723  0.572515  0.724475  1
  O  O14  1  0.131968  0.641955  0.084172  1
  O  O15  1  0.093671  0.861210  0.409373  1
  O  O16  1  0.163131  0.464850  0.266826  1
  O  O17  1  0.148596  0.715917  0.786383  1
  O  O18  1  0.161469  0.521518  0.586904  1
  O  O19  1  0.263452  0.195280  0.271444  1
  O  O20  1  0.272225  0.992633  0.083512  1
  O  O21  1  0.705975  0.906272  0.220494  1
  O  O22  1  0.533912  0.567781  0.269213  1
  O  O23  1  0.265215  0.250031  0.592348  1
  O  O24  1  0.861547  0.496902  0.411712  1
  O  O25  1  0.086597  0.207402  0.918286  1
  O  O26  1  0.924262  0.783399  0.079191  1
  O  O27  1  0.496681  0.931596  0.789712  1
  O  O28  1  0.732555  0.729281  0.405893  1
  O  O29  1  0.477261  0.405815  0.721997  1
  O  O30  1  0.282684  0.066652  0.786044  1
  O  O31  1  0.710081  0.998211  0.914081  1
  O  O32  1  0.706711  0.802061  0.719469  1
  O  O33  1  0.871305  0.299978  0.220140  1
