# generated using pymatgen
data_ErU2(GaRu)3
_symmetry_space_group_name_H-M   'P 1'
_cell_length_a   6.83548600
_cell_length_b   7.09111166
_cell_length_c   3.92465400
_cell_angle_alpha   90.00000000
_cell_angle_beta   90.00000000
_cell_angle_gamma   118.81451310
_symmetry_Int_Tables_number   1
_chemical_formula_structural   ErU2(GaRu)3
_chemical_formula_sum   'Er1 U2 Ga3 Ru3'
_cell_volume   166.67893796
_cell_formula_units_Z   1
loop_
 _symmetry_equiv_pos_site_id
 _symmetry_equiv_pos_as_xyz
  1  'x, y, z'
loop_
 _atom_site_type_symbol
 _atom_site_label
 _atom_site_symmetry_multiplicity
 _atom_site_fract_x
 _atom_site_fract_y
 _atom_site_fract_z
 _atom_site_occupancy
  Er  Er0  1  0.413640  0.000000  0.500000  1
  U  U1  1  0.999661  0.413883  0.500000  1
  U  U2  1  0.585778  0.586117  0.500000  1
  Ga  Ga3  1  0.732984  0.000000  0.000000  1
  Ga  Ga4  1  0.018993  0.773404  0.000000  1
  Ga  Ga5  1  0.245589  0.226596  0.000000  1
  Ru  Ru6  1  0.328696  0.625230  0.000000  1
  Ru  Ru7  1  0.703467  0.374770  0.000000  1
  Ru  Ru8  1  0.971194  0.000000  0.500000  1
