# generated using pymatgen
data_La10Zn4NiRu5
_symmetry_space_group_name_H-M   'P 1'
_cell_length_a   8.55768553
_cell_length_b   8.62961270
_cell_length_c   8.62949666
_cell_angle_alpha   109.98194293
_cell_angle_beta   109.33903193
_cell_angle_gamma   109.43053556
_symmetry_Int_Tables_number   1
_chemical_formula_structural   La10Zn4NiRu5
_chemical_formula_sum   'La10 Zn4 Ni1 Ru5'
_cell_volume   488.51185191
_cell_formula_units_Z   1
loop_
 _symmetry_equiv_pos_site_id
 _symmetry_equiv_pos_as_xyz
  1  'x, y, z'
loop_
 _atom_site_type_symbol
 _atom_site_label
 _atom_site_symmetry_multiplicity
 _atom_site_fract_x
 _atom_site_fract_y
 _atom_site_fract_z
 _atom_site_occupancy
  La  La0  1  0.250008  0.688361  0.438377  1
  La  La1  1  0.749993  0.809441  0.059437  1
  La  La2  1  0.444174  0.252349  0.687214  1
  La  La3  1  0.692562  0.441180  0.251096  1
  La  La4  1  0.055823  0.743041  0.808165  1
  La  La5  1  0.807441  0.058541  0.748620  1
  La  La6  1  0.218014  0.220222  0.221908  1
  La  La7  1  0.500666  0.001245  0.280109  1
  La  La8  1  0.282006  0.503891  0.002210  1
  La  La9  1  0.999338  0.279458  0.500578  1
  Zn  Zn10  1  0.495221  0.998667  0.908743  1
  Zn  Zn11  1  0.586874  0.588588  0.588088  1
  Zn  Zn12  1  0.913119  0.501209  0.001706  1
  Zn  Zn13  1  0.004780  0.913535  0.503464  1
  Ni  Ni14  1  0.249998  0.117614  0.867618  1
  Ru  Ru15  1  0.749990  0.373628  0.623628  1
  Ru  Ru16  1  0.876394  0.251800  0.125630  1
  Ru  Ru17  1  0.129641  0.885801  0.251864  1
  Ru  Ru18  1  0.623597  0.749225  0.375396  1
  Ru  Ru19  1  0.370362  0.622208  0.756151  1
