# generated using pymatgen
data_La11Pr5Cd4(OsPd)2
_symmetry_space_group_name_H-M   'P 1'
_cell_length_a   10.12644930
_cell_length_b   10.10597658
_cell_length_c   10.23190223
_cell_angle_alpha   59.59666555
_cell_angle_beta   59.63744155
_cell_angle_gamma   59.73075453
_symmetry_Int_Tables_number   1
_chemical_formula_structural   La11Pr5Cd4(OsPd)2
_chemical_formula_sum   'La11 Pr5 Cd4 Os2 Pd2'
_cell_volume   734.61091361
_cell_formula_units_Z   1
loop_
 _symmetry_equiv_pos_site_id
 _symmetry_equiv_pos_as_xyz
  1  'x, y, z'
loop_
 _atom_site_type_symbol
 _atom_site_label
 _atom_site_symmetry_multiplicity
 _atom_site_fract_x
 _atom_site_fract_y
 _atom_site_fract_z
 _atom_site_occupancy
  La  La0  1  0.345901  0.345448  0.356151  1
  La  La1  1  0.347173  0.346930  0.949523  1
  La  La2  1  0.342445  0.959481  0.348149  1
  La  La3  1  0.959879  0.342078  0.347308  1
  La  La4  1  0.816914  0.189915  0.192014  1
  La  La5  1  0.188946  0.816336  0.801631  1
  La  La6  1  0.190075  0.817589  0.191337  1
  La  La7  1  0.815991  0.188637  0.801986  1
  La  La8  1  0.189206  0.188364  0.811402  1
  La  La9  1  0.803227  0.803927  0.195778  1
  La  La10  1  0.936764  0.557825  0.567065  1
  Pr  Pr11  1  0.558206  0.936340  0.937965  1
  Pr  Pr12  1  0.559353  0.936953  0.567158  1
  Pr  Pr13  1  0.936732  0.558162  0.938731  1
  Pr  Pr14  1  0.563549  0.564661  0.937702  1
  Pr  Pr15  1  0.937732  0.937897  0.562175  1
  Cd  Cd16  1  0.578963  0.579715  0.580275  1
  Cd  Cd17  1  0.579888  0.579804  0.259997  1
  Cd  Cd18  1  0.580956  0.258265  0.580271  1
  Cd  Cd19  1  0.258511  0.581071  0.580569  1
  Os  Os20  1  0.143520  0.143490  0.136441  1
  Os  Os21  1  0.142864  0.143719  0.578264  1
  Pd  Pd22  1  0.147264  0.576237  0.138773  1
  Pd  Pd23  1  0.575937  0.147153  0.139335  1
