# generated using pymatgen
data_Hf2Zr2Co4Si3As
_symmetry_space_group_name_H-M   'P 1'
_cell_length_a   3.83724900
_cell_length_b   6.45895816
_cell_length_c   7.19766702
_cell_angle_alpha   89.71942949
_cell_angle_beta   90.00000000
_cell_angle_gamma   90.00000000
_symmetry_Int_Tables_number   1
_chemical_formula_structural   Hf2Zr2Co4Si3As
_chemical_formula_sum   'Hf2 Zr2 Co4 Si3 As1'
_cell_volume   178.38938036
_cell_formula_units_Z   1
loop_
 _symmetry_equiv_pos_site_id
 _symmetry_equiv_pos_as_xyz
  1  'x, y, z'
loop_
 _atom_site_type_symbol
 _atom_site_label
 _atom_site_symmetry_multiplicity
 _atom_site_fract_x
 _atom_site_fract_y
 _atom_site_fract_z
 _atom_site_occupancy
  Hf  Hf0  1  0.250000  0.510644  0.193111  1
  Hf  Hf1  1  0.250000  0.012283  0.310924  1
  Zr  Zr2  1  0.750000  0.482183  0.809040  1
  Zr  Zr3  1  0.750000  0.989330  0.688283  1
  Co  Co4  1  0.250000  0.641233  0.555997  1
  Co  Co5  1  0.750000  0.357147  0.431713  1
  Co  Co6  1  0.250000  0.150203  0.938718  1
  Co  Co7  1  0.750000  0.860204  0.075134  1
  Si  Si8  1  0.750000  0.720666  0.390304  1
  Si  Si9  1  0.250000  0.279968  0.604736  1
  Si  Si10  1  0.750000  0.221471  0.112263  1
  As  As11  1  0.250000  0.774666  0.889776  1
