# generated using pymatgen
data_Ho10BiP2Pb5
_symmetry_space_group_name_H-M   'P 1'
_cell_length_a   9.12481562
_cell_length_b   9.12481686
_cell_length_c   6.76448200
_cell_angle_alpha   90.00000000
_cell_angle_beta   90.00000000
_cell_angle_gamma   120.06825156
_symmetry_Int_Tables_number   1
_chemical_formula_structural   Ho10BiP2Pb5
_chemical_formula_sum   'Ho10 Bi1 P2 Pb5'
_cell_volume   487.43233458
_cell_formula_units_Z   1
loop_
 _symmetry_equiv_pos_site_id
 _symmetry_equiv_pos_as_xyz
  1  'x, y, z'
loop_
 _atom_site_type_symbol
 _atom_site_label
 _atom_site_symmetry_multiplicity
 _atom_site_fract_x
 _atom_site_fract_y
 _atom_site_fract_z
 _atom_site_occupancy
  Ho  Ho0  1  0.763229  0.763229  0.750000  1
  Ho  Ho1  1  0.236111  0.998416  0.750000  1
  Ho  Ho2  1  0.998416  0.236111  0.750000  1
  Ho  Ho3  1  0.236992  0.236992  0.250000  1
  Ho  Ho4  1  0.762582  0.999498  0.250000  1
  Ho  Ho5  1  0.999498  0.762582  0.250000  1
  Ho  Ho6  1  0.667767  0.332797  0.001235  1
  Ho  Ho7  1  0.332797  0.667767  0.001235  1
  Ho  Ho8  1  0.332797  0.667767  0.498765  1
  Ho  Ho9  1  0.667767  0.332797  0.498765  1
  Bi  Bi10  1  0.399098  0.399098  0.750000  1
  P  P11  1  0.000488  0.000488  0.999590  1
  P  P12  1  0.000488  0.000488  0.500410  1
  Pb  Pb13  1  0.600195  0.000495  0.750000  1
  Pb  Pb14  1  0.000495  0.600195  0.750000  1
  Pb  Pb15  1  0.601060  0.601060  0.250000  1
  Pb  Pb16  1  0.400050  0.000171  0.250000  1
  Pb  Pb17  1  0.000171  0.400050  0.250000  1
