# generated using pymatgen
data_LiNd6Cd22P
_symmetry_space_group_name_H-M   'P 1'
_cell_length_a   10.03112468
_cell_length_b   10.03112472
_cell_length_c   10.03112400
_cell_angle_alpha   60.00000237
_cell_angle_beta   60.00000225
_cell_angle_gamma   59.99999781
_symmetry_Int_Tables_number   1
_chemical_formula_structural   LiNd6Cd22P
_chemical_formula_sum   'Li1 Nd6 Cd22 P1'
_cell_volume   713.72986197
_cell_formula_units_Z   1
loop_
 _symmetry_equiv_pos_site_id
 _symmetry_equiv_pos_as_xyz
  1  'x, y, z'
loop_
 _atom_site_type_symbol
 _atom_site_label
 _atom_site_symmetry_multiplicity
 _atom_site_fract_x
 _atom_site_fract_y
 _atom_site_fract_z
 _atom_site_occupancy
  Li  Li0  1  0.500000  0.500000  0.500000  1
  Nd  Nd1  1  0.797621  0.797621  0.202379  1
  Nd  Nd2  1  0.202379  0.797621  0.202379  1
  Nd  Nd3  1  0.797621  0.202379  0.202379  1
  Nd  Nd4  1  0.202379  0.202379  0.797621  1
  Nd  Nd5  1  0.797621  0.202379  0.797621  1
  Nd  Nd6  1  0.202379  0.797621  0.797621  1
  Cd  Cd7  1  0.832374  0.832374  0.502876  1
  Cd  Cd8  1  0.832374  0.502876  0.832374  1
  Cd  Cd9  1  0.502876  0.832374  0.832374  1
  Cd  Cd10  1  0.832374  0.832374  0.832374  1
  Cd  Cd11  1  0.167626  0.167626  0.497124  1
  Cd  Cd12  1  0.167626  0.497124  0.167626  1
  Cd  Cd13  1  0.497124  0.167626  0.167626  1
  Cd  Cd14  1  0.167626  0.167626  0.167626  1
  Cd  Cd15  1  0.616440  0.616440  0.150680  1
  Cd  Cd16  1  0.616440  0.150680  0.616440  1
  Cd  Cd17  1  0.150680  0.616440  0.616440  1
  Cd  Cd18  1  0.616440  0.616440  0.616440  1
  Cd  Cd19  1  0.383560  0.383560  0.849320  1
  Cd  Cd20  1  0.383560  0.849320  0.383560  1
  Cd  Cd21  1  0.849320  0.383560  0.383560  1
  Cd  Cd22  1  0.383560  0.383560  0.383560  1
  Cd  Cd23  1  0.000000  0.000000  0.500000  1
  Cd  Cd24  1  0.500000  0.000000  0.500000  1
  Cd  Cd25  1  0.000000  0.500000  0.500000  1
  Cd  Cd26  1  0.500000  0.500000  0.000000  1
  Cd  Cd27  1  0.000000  0.500000  0.000000  1
  Cd  Cd28  1  0.500000  0.000000  0.000000  1
  P  P29  1  0.000000  0.000000  0.000000  1
