# generated using pymatgen
data_CaLu2(B3Ir4)2
_symmetry_space_group_name_H-M   'P 1'
_cell_length_a   9.94604981
_cell_length_b   9.11501854
_cell_length_c   5.57878912
_cell_angle_alpha   81.35750359
_cell_angle_beta   64.96374167
_cell_angle_gamma   33.67876040
_symmetry_Int_Tables_number   1
_chemical_formula_structural   CaLu2(B3Ir4)2
_chemical_formula_sum   'Ca1 Lu2 B6 Ir8'
_cell_volume   232.69356407
_cell_formula_units_Z   1
loop_
 _symmetry_equiv_pos_site_id
 _symmetry_equiv_pos_as_xyz
  1  'x, y, z'
loop_
 _atom_site_type_symbol
 _atom_site_label
 _atom_site_symmetry_multiplicity
 _atom_site_fract_x
 _atom_site_fract_y
 _atom_site_fract_z
 _atom_site_occupancy
  Ca  Ca0  1  0.680112  0.680112  0.319888  1
  Lu  Lu1  1  0.321900  0.321900  0.678100  1
  Lu  Lu2  1  0.502371  0.502371  0.497629  1
  B  B3  1  0.672826  0.978707  0.021293  1
  B  B4  1  0.978707  0.672826  0.327174  1
  B  B5  1  0.325615  0.020969  0.979031  1
  B  B6  1  0.020969  0.325615  0.674385  1
  B  B7  1  0.169149  0.830952  0.169048  1
  B  B8  1  0.830952  0.169149  0.830851  1
  Ir  Ir9  1  0.585595  0.585595  0.914405  1
  Ir  Ir10  1  0.912764  0.912764  0.087236  1
  Ir  Ir11  1  0.414449  0.414449  0.085551  1
  Ir  Ir12  1  0.085595  0.085595  0.414405  1
  Ir  Ir13  1  0.914449  0.914449  0.585551  1
  Ir  Ir14  1  0.250048  0.250048  0.249952  1
  Ir  Ir15  1  0.084450  0.084450  0.915550  1
  Ir  Ir16  1  0.750048  0.750048  0.749952  1
