# generated using pymatgen
data_Pr3Sm3Cr2(Co4P3)4
_symmetry_space_group_name_H-M   'P 1'
_cell_length_a   3.75758500
_cell_length_b   10.67164869
_cell_length_c   12.37605680
_cell_angle_alpha   89.95892766
_cell_angle_beta   90.00000000
_cell_angle_gamma   90.00000000
_symmetry_Int_Tables_number   1
_chemical_formula_structural   Pr3Sm3Cr2(Co4P3)4
_chemical_formula_sum   'Pr3 Sm3 Cr2 Co16 P12'
_cell_volume   496.27513402
_cell_formula_units_Z   1
loop_
 _symmetry_equiv_pos_site_id
 _symmetry_equiv_pos_as_xyz
  1  'x, y, z'
loop_
 _atom_site_type_symbol
 _atom_site_label
 _atom_site_symmetry_multiplicity
 _atom_site_fract_x
 _atom_site_fract_y
 _atom_site_fract_z
 _atom_site_occupancy
  Pr  Pr0  1  0.000000  0.500334  0.521778  1
  Pr  Pr1  1  0.500000  0.999895  0.477608  1
  Pr  Pr2  1  0.000000  0.318475  0.795125  1
  Sm  Sm3  1  0.500000  0.817738  0.204663  1
  Sm  Sm4  1  0.500000  0.181932  0.203593  1
  Sm  Sm5  1  0.000000  0.682821  0.796160  1
  Cr  Cr6  1  0.500000  0.500455  0.152678  1
  Cr  Cr7  1  0.000000  0.999210  0.847708  1
  Co  Co8  1  0.500000  0.502113  0.704747  1
  Co  Co9  1  0.000000  0.999574  0.294856  1
  Co  Co10  1  0.000000  0.501220  0.989020  1
  Co  Co11  1  0.500000  0.999009  0.012820  1
  Co  Co12  1  0.500000  0.332996  0.994824  1
  Co  Co13  1  0.500000  0.668306  0.994288  1
  Co  Co14  1  0.000000  0.166541  0.007180  1
  Co  Co15  1  0.000000  0.832401  0.007203  1
  Co  Co16  1  0.500000  0.295658  0.428085  1
  Co  Co17  1  0.500000  0.704441  0.429713  1
  Co  Co18  1  0.000000  0.203932  0.568385  1
  Co  Co19  1  0.000000  0.795821  0.570418  1
  Co  Co20  1  0.500000  0.880648  0.711806  1
  Co  Co21  1  0.500000  0.117742  0.710598  1
  Co  Co22  1  0.000000  0.618878  0.288831  1
  Co  Co23  1  0.000000  0.380871  0.287805  1
  P  P24  1  0.500000  0.501966  0.886660  1
  P  P25  1  0.000000  0.999435  0.115212  1
  P  P26  1  0.500000  0.499692  0.337679  1
  P  P27  1  0.000000  0.999769  0.662082  1
  P  P28  1  0.500000  0.306263  0.613003  1
  P  P29  1  0.500000  0.693581  0.616060  1
  P  P30  1  0.000000  0.192700  0.382890  1
  P  P31  1  0.000000  0.806769  0.384263  1
  P  P32  1  0.500000  0.848619  0.894407  1
  P  P33  1  0.500000  0.149815  0.895270  1
  P  P34  1  0.000000  0.651780  0.106843  1
  P  P35  1  0.000000  0.348600  0.105743  1
