# generated using pymatgen
data_Rb8Zr6BI20
_symmetry_space_group_name_H-M   'P 1'
_cell_length_a   12.86933881
_cell_length_b   12.86933896
_cell_length_c   12.86933800
_cell_angle_alpha   59.99999733
_cell_angle_beta   59.99999695
_cell_angle_gamma   59.99999835
_symmetry_Int_Tables_number   1
_chemical_formula_structural   Rb8Zr6BI20
_chemical_formula_sum   'Rb8 Zr6 B1 I20'
_cell_volume   1507.14022077
_cell_formula_units_Z   1
loop_
 _symmetry_equiv_pos_site_id
 _symmetry_equiv_pos_as_xyz
  1  'x, y, z'
loop_
 _atom_site_type_symbol
 _atom_site_label
 _atom_site_symmetry_multiplicity
 _atom_site_fract_x
 _atom_site_fract_y
 _atom_site_fract_z
 _atom_site_occupancy
  Rb  Rb0  1  0.361369  0.361369  0.361369  1
  Rb  Rb1  1  0.638631  0.638631  0.638631  1
  Rb  Rb2  1  0.361369  0.361369  0.915894  1
  Rb  Rb3  1  0.361369  0.915894  0.361369  1
  Rb  Rb4  1  0.638631  0.638631  0.084106  1
  Rb  Rb5  1  0.638631  0.084106  0.638631  1
  Rb  Rb6  1  0.915894  0.361369  0.361369  1
  Rb  Rb7  1  0.084106  0.638631  0.638631  1
  Zr  Zr8  1  0.869544  0.130456  0.130456  1
  Zr  Zr9  1  0.130456  0.869544  0.869544  1
  Zr  Zr10  1  0.130456  0.869544  0.130456  1
  Zr  Zr11  1  0.869544  0.130456  0.869544  1
  Zr  Zr12  1  0.130456  0.130456  0.869544  1
  Zr  Zr13  1  0.869544  0.869544  0.130456  1
  B  B14  1  0.000000  0.000000  0.000000  1
  I  I15  1  0.317990  0.000000  0.000000  1
  I  I16  1  0.682010  0.000000  0.000000  1
  I  I17  1  0.000000  0.317990  0.682010  1
  I  I18  1  0.000000  0.682010  0.317990  1
  I  I19  1  0.000000  0.317990  0.000000  1
  I  I20  1  0.682010  0.000000  0.317990  1
  I  I21  1  0.000000  0.682010  0.000000  1
  I  I22  1  0.317990  0.000000  0.682010  1
  I  I23  1  0.000000  0.000000  0.317990  1
  I  I24  1  0.000000  0.000000  0.682010  1
  I  I25  1  0.682010  0.317990  0.000000  1
  I  I26  1  0.317990  0.682010  0.000000  1
  I  I27  1  0.689998  0.310002  0.310002  1
  I  I28  1  0.310002  0.689998  0.689998  1
  I  I29  1  0.310002  0.689998  0.310002  1
  I  I30  1  0.689998  0.310002  0.689998  1
  I  I31  1  0.310002  0.310002  0.689998  1
  I  I32  1  0.689998  0.689998  0.310002  1
  I  I33  1  0.250000  0.250000  0.250000  1
  I  I34  1  0.750000  0.750000  0.750000  1
