# generated using pymatgen
data_Pr9Nd7(LuSn4)4
_symmetry_space_group_name_H-M   'P 1'
_cell_length_a   8.21532717
_cell_length_b   8.38101712
_cell_length_c   15.95534202
_cell_angle_alpha   90.00270744
_cell_angle_beta   90.09928539
_cell_angle_gamma   89.98160224
_symmetry_Int_Tables_number   1
_chemical_formula_structural   Pr9Nd7(LuSn4)4
_chemical_formula_sum   'Pr9 Nd7 Lu4 Sn16'
_cell_volume   1098.56822798
_cell_formula_units_Z   1
loop_
 _symmetry_equiv_pos_site_id
 _symmetry_equiv_pos_as_xyz
  1  'x, y, z'
loop_
 _atom_site_type_symbol
 _atom_site_label
 _atom_site_symmetry_multiplicity
 _atom_site_fract_x
 _atom_site_fract_y
 _atom_site_fract_z
 _atom_site_occupancy
  Pr  Pr0  1  0.863481  0.661391  0.879024  1
  Pr  Pr1  1  0.517366  0.318773  0.902044  1
  Pr  Pr2  1  0.016871  0.181079  0.597467  1
  Pr  Pr3  1  0.483283  0.680841  0.402278  1
  Pr  Pr4  1  0.982749  0.819026  0.098254  1
  Pr  Pr5  1  0.482892  0.680860  0.097991  1
  Pr  Pr6  1  0.983183  0.818994  0.402130  1
  Pr  Pr7  1  0.516695  0.319016  0.597632  1
  Pr  Pr8  1  0.017106  0.180978  0.902185  1
  Nd  Nd9  1  0.362898  0.838794  0.878306  1
  Nd  Nd10  1  0.862997  0.661230  0.621488  1
  Nd  Nd11  1  0.637095  0.161019  0.378353  1
  Nd  Nd12  1  0.136918  0.339113  0.121499  1
  Nd  Nd13  1  0.636461  0.160972  0.122011  1
  Nd  Nd14  1  0.137213  0.338762  0.378346  1
  Nd  Nd15  1  0.363026  0.839077  0.621360  1
  Lu  Lu16  1  0.196060  0.502684  0.749918  1
  Lu  Lu17  1  0.695668  0.997451  0.749883  1
  Lu  Lu18  1  0.804200  0.497213  0.250150  1
  Lu  Lu19  1  0.303889  0.002695  0.249987  1
  Sn  Sn20  1  0.295790  0.035462  0.044789  1
  Sn  Sn21  1  0.796117  0.464323  0.455420  1
  Sn  Sn22  1  0.703960  0.964385  0.544790  1
  Sn  Sn23  1  0.206104  0.534791  0.955191  1
  Sn  Sn24  1  0.703291  0.965609  0.955310  1
  Sn  Sn25  1  0.203870  0.535733  0.544722  1
  Sn  Sn26  1  0.296154  0.035411  0.454996  1
  Sn  Sn27  1  0.795311  0.463814  0.045653  1
  Sn  Sn28  1  0.558344  0.617758  0.749557  1
  Sn  Sn29  1  0.059032  0.882957  0.749635  1
  Sn  Sn30  1  0.440986  0.382639  0.250145  1
  Sn  Sn31  1  0.941231  0.117593  0.249978  1
  Sn  Sn32  1  0.322868  0.148390  0.749729  1
  Sn  Sn33  1  0.822823  0.351404  0.749502  1
  Sn  Sn34  1  0.676994  0.851734  0.250199  1
  Sn  Sn35  1  0.177075  0.648030  0.250080  1
