# generated using pymatgen
data_Er4Al14Ga10Ir2Pt7
_symmetry_space_group_name_H-M   'P 1'
_cell_length_a   7.45475350
_cell_length_b   7.48936079
_cell_length_c   13.27725729
_cell_angle_alpha   84.73882471
_cell_angle_beta   100.61600772
_cell_angle_gamma   119.61998707
_symmetry_Int_Tables_number   1
_chemical_formula_structural   Er4Al14Ga10Ir2Pt7
_chemical_formula_sum   'Er4 Al14 Ga10 Ir2 Pt7'
_cell_volume   633.38747665
_cell_formula_units_Z   1
loop_
 _symmetry_equiv_pos_site_id
 _symmetry_equiv_pos_as_xyz
  1  'x, y, z'
loop_
 _atom_site_type_symbol
 _atom_site_label
 _atom_site_symmetry_multiplicity
 _atom_site_fract_x
 _atom_site_fract_y
 _atom_site_fract_z
 _atom_site_occupancy
  Er  Er0  1  0.737703  0.004435  0.190150  1
  Er  Er1  1  0.261885  0.996038  0.809778  1
  Er  Er2  1  0.063583  0.664898  0.188834  1
  Er  Er3  1  0.936902  0.335649  0.811301  1
  Al  Al4  1  0.230752  0.339573  0.669236  1
  Al  Al5  1  0.769736  0.660428  0.330845  1
  Al  Al6  1  0.855871  0.333168  0.558247  1
  Al  Al7  1  0.187500  0.999253  0.558330  1
  Al  Al8  1  0.813483  0.000574  0.441703  1
  Al  Al9  1  0.349461  0.996833  0.052633  1
  Al  Al10  1  0.647185  0.997262  0.947307  1
  Al  Al11  1  0.558131  0.994004  0.673051  1
  Al  Al12  1  0.442590  0.005774  0.327885  1
  Al  Al13  1  0.523960  0.670266  0.559597  1
  Al  Al14  1  0.475568  0.330155  0.440261  1
  Al  Al15  1  0.683851  0.670932  0.044871  1
  Al  Al16  1  0.312744  0.332506  0.955024  1
  Al  Al17  1  0.144366  0.665955  0.442070  1
  Ga  Ga18  1  0.806695  0.875247  0.817007  1
  Ga  Ga19  1  0.194307  0.123649  0.182865  1
  Ga  Ga20  1  0.982787  0.668812  0.941386  1
  Ga  Ga21  1  0.022040  0.333789  0.059055  1
  Ga  Ga22  1  0.396940  0.661691  0.818395  1
  Ga  Ga23  1  0.600877  0.337289  0.183400  1
  Ga  Ga24  1  0.884100  0.664649  0.676278  1
  Ga  Ga25  1  0.115588  0.334956  0.322393  1
  Ga  Ga26  1  0.596795  0.456034  0.815652  1
  Ga  Ga27  1  0.405501  0.548254  0.182546  1
  Ir  Ir28  1  0.332906  0.672994  0.000658  1
  Ir  Ir29  1  0.999964  0.000106  0.999974  1
  Pt  Pt30  1  0.544494  0.322480  0.634453  1
  Pt  Pt31  1  0.455426  0.676867  0.364933  1
  Pt  Pt32  1  0.889330  0.011387  0.636588  1
  Pt  Pt33  1  0.111138  0.988658  0.363375  1
  Pt  Pt34  1  0.665369  0.325489  0.999324  1
  Pt  Pt35  1  0.209415  0.667593  0.636755  1
  Pt  Pt36  1  0.791055  0.332349  0.363842  1
