# generated using pymatgen
data_Dy2TiFe7(P3Ru)2
_symmetry_space_group_name_H-M   'P 1'
_cell_length_a   3.70332500
_cell_length_b   10.48607800
_cell_length_c   12.08308700
_cell_angle_alpha   90.00000000
_cell_angle_beta   90.00000000
_cell_angle_gamma   90.00000000
_symmetry_Int_Tables_number   1
_chemical_formula_structural   Dy2TiFe7(P3Ru)2
_chemical_formula_sum   'Dy4 Ti2 Fe14 P12 Ru4'
_cell_volume   469.22680466
_cell_formula_units_Z   2
loop_
 _symmetry_equiv_pos_site_id
 _symmetry_equiv_pos_as_xyz
  1  'x, y, z'
loop_
 _atom_site_type_symbol
 _atom_site_label
 _atom_site_symmetry_multiplicity
 _atom_site_fract_x
 _atom_site_fract_y
 _atom_site_fract_z
 _atom_site_occupancy
  Dy  Dy0  1  0.250000  0.587846  0.707281  1
  Dy  Dy1  1  0.250000  0.912154  0.207281  1
  Dy  Dy2  1  0.750000  0.425523  0.291814  1
  Dy  Dy3  1  0.750000  0.074477  0.791814  1
  Ti  Ti4  1  0.750000  0.300802  0.011731  1
  Ti  Ti5  1  0.750000  0.199198  0.511731  1
  Fe  Fe6  1  0.750000  0.604221  0.511735  1
  Fe  Fe7  1  0.750000  0.895779  0.011735  1
  Fe  Fe8  1  0.250000  0.217964  0.177162  1
  Fe  Fe9  1  0.250000  0.282036  0.677162  1
  Fe  Fe10  1  0.750000  0.774902  0.826686  1
  Fe  Fe11  1  0.750000  0.725098  0.326686  1
  Fe  Fe12  1  0.250000  0.878084  0.698306  1
  Fe  Fe13  1  0.250000  0.621916  0.198306  1
  Fe  Fe14  1  0.750000  0.124099  0.298613  1
  Fe  Fe15  1  0.750000  0.375901  0.798613  1
  Fe  Fe16  1  0.250000  0.462478  0.932086  1
  Fe  Fe17  1  0.250000  0.037522  0.432086  1
  Fe  Fe18  1  0.750000  0.536907  0.065336  1
  Fe  Fe19  1  0.750000  0.963093  0.565336  1
  P  P20  1  0.250000  0.429283  0.114588  1
  P  P21  1  0.250000  0.070717  0.614588  1
  P  P22  1  0.750000  0.574977  0.887607  1
  P  P23  1  0.750000  0.925023  0.387607  1
  P  P24  1  0.250000  0.265471  0.865194  1
  P  P25  1  0.250000  0.234529  0.365194  1
  P  P26  1  0.750000  0.728393  0.137548  1
  P  P27  1  0.750000  0.771607  0.637548  1
  P  P28  1  0.250000  0.611596  0.384866  1
  P  P29  1  0.250000  0.888404  0.884866  1
  P  P30  1  0.750000  0.412974  0.611590  1
  P  P31  1  0.750000  0.087026  0.111590  1
  Ru  Ru32  1  0.250000  0.703055  0.988568  1
  Ru  Ru33  1  0.250000  0.796945  0.488568  1
  Ru  Ru34  1  0.250000  0.415232  0.489293  1
  Ru  Ru35  1  0.250000  0.084768  0.989293  1
