# generated using pymatgen
data_Eu2TcSbO7
_symmetry_space_group_name_H-M   'P 1'
_cell_length_a   7.46501900
_cell_length_b   7.46312290
_cell_length_c   7.46501850
_cell_angle_alpha   60.00839164
_cell_angle_beta   60.30359821
_cell_angle_gamma   60.00839455
_symmetry_Int_Tables_number   1
_chemical_formula_structural   Eu2TcSbO7
_chemical_formula_sum   'Eu4 Tc2 Sb2 O14'
_cell_volume   294.78766365
_cell_formula_units_Z   2
loop_
 _symmetry_equiv_pos_site_id
 _symmetry_equiv_pos_as_xyz
  1  'x, y, z'
loop_
 _atom_site_type_symbol
 _atom_site_label
 _atom_site_symmetry_multiplicity
 _atom_site_fract_x
 _atom_site_fract_y
 _atom_site_fract_z
 _atom_site_occupancy
  Eu  Eu0  1  0.125000  0.625000  0.125000  1
  Eu  Eu1  1  0.125000  0.125000  0.625000  1
  Eu  Eu2  1  0.625000  0.125000  0.125000  1
  Eu  Eu3  1  0.125000  0.125000  0.125000  1
  Tc  Tc4  1  0.625000  0.625000  0.625000  1
  Tc  Tc5  1  0.625000  0.125000  0.625000  1
  Sb  Sb6  1  0.125000  0.625000  0.625000  1
  Sb  Sb7  1  0.625000  0.625000  0.125000  1
  O  O8  1  0.296805  0.699233  0.702783  1
  O  O9  1  0.547217  0.948820  0.953195  1
  O  O10  1  0.702783  0.699233  0.296805  1
  O  O11  1  0.296805  0.301180  0.702783  1
  O  O12  1  0.000556  0.999444  0.000556  1
  O  O13  1  0.299612  0.700388  0.299612  1
  O  O14  1  0.702798  0.297202  0.702798  1
  O  O15  1  0.950388  0.549612  0.950388  1
  O  O16  1  0.547217  0.550767  0.953195  1
  O  O17  1  0.953195  0.948820  0.547217  1
  O  O18  1  0.249444  0.250556  0.249444  1
  O  O19  1  0.547202  0.952798  0.547202  1
  O  O20  1  0.702783  0.301180  0.296805  1
  O  O21  1  0.953195  0.550767  0.547217  1
