# generated using pymatgen
data_DyY7(Si3Pt)4
_symmetry_space_group_name_H-M   'P 1'
_cell_length_a   8.13777957
_cell_length_b   8.14303323
_cell_length_c   8.20556600
_cell_angle_alpha   90.00000000
_cell_angle_beta   90.00000000
_cell_angle_gamma   120.02134948
_symmetry_Int_Tables_number   1
_chemical_formula_structural   DyY7(Si3Pt)4
_chemical_formula_sum   'Dy1 Y7 Si12 Pt4'
_cell_volume   470.80149462
_cell_formula_units_Z   1
loop_
 _symmetry_equiv_pos_site_id
 _symmetry_equiv_pos_as_xyz
  1  'x, y, z'
loop_
 _atom_site_type_symbol
 _atom_site_label
 _atom_site_symmetry_multiplicity
 _atom_site_fract_x
 _atom_site_fract_y
 _atom_site_fract_z
 _atom_site_occupancy
  Dy  Dy0  1  0.998293  0.499147  0.750000  1
  Y  Y1  1  0.999987  0.999993  0.250000  1
  Y  Y2  1  0.000012  0.000006  0.750000  1
  Y  Y3  1  0.001836  0.500918  0.250000  1
  Y  Y4  1  0.499077  0.500907  0.250000  1
  Y  Y5  1  0.500906  0.001824  0.750000  1
  Y  Y6  1  0.499077  0.998170  0.250000  1
  Y  Y7  1  0.500906  0.499082  0.750000  1
  Si  Si8  1  0.165640  0.331291  0.998866  1
  Si  Si9  1  0.668608  0.834304  0.999170  1
  Si  Si10  1  0.165640  0.331291  0.501134  1
  Si  Si11  1  0.331379  0.165690  0.000918  1
  Si  Si12  1  0.165640  0.834349  0.998866  1
  Si  Si13  1  0.668608  0.834304  0.500830  1
  Si  Si14  1  0.834346  0.668697  0.000621  1
  Si  Si15  1  0.331379  0.165690  0.499082  1
  Si  Si16  1  0.165640  0.834349  0.501134  1
  Si  Si17  1  0.834346  0.668697  0.499379  1
  Si  Si18  1  0.834346  0.165649  0.000621  1
  Si  Si19  1  0.834346  0.165649  0.499379  1
  Pt  Pt20  1  0.332851  0.666426  0.997904  1
  Pt  Pt21  1  0.332851  0.666426  0.502096  1
  Pt  Pt22  1  0.667143  0.333571  0.001143  1
  Pt  Pt23  1  0.667143  0.333571  0.498857  1
