# generated using pymatgen
data_Sr15Bi11
_symmetry_space_group_name_H-M   'P 1'
_cell_length_a   17.85572174
_cell_length_b   17.85572208
_cell_length_c   17.85572200
_cell_angle_alpha   117.53088420
_cell_angle_beta   117.53088477
_cell_angle_gamma   94.33263160
_symmetry_Int_Tables_number   1
_chemical_formula_structural   Sr15Bi11
_chemical_formula_sum   'Sr60 Bi44'
_cell_volume   4162.83308668
_cell_formula_units_Z   4
loop_
 _symmetry_equiv_pos_site_id
 _symmetry_equiv_pos_as_xyz
  1  'x, y, z'
loop_
 _atom_site_type_symbol
 _atom_site_label
 _atom_site_symmetry_multiplicity
 _atom_site_fract_x
 _atom_site_fract_y
 _atom_site_fract_z
 _atom_site_occupancy
  Sr  Sr0  1  0.500438  0.603048  0.839806  1
  Sr  Sr1  1  0.625000  0.229642  0.104642  1
  Sr  Sr2  1  0.160506  0.026957  0.783443  1
  Sr  Sr3  1  0.893256  0.377471  0.837058  1
  Sr  Sr4  1  0.125000  0.020358  0.395358  1
  Sr  Sr5  1  0.770358  0.875000  0.395358  1
  Sr  Sr6  1  0.127063  0.410506  0.633550  1
  Sr  Sr7  1  0.763242  0.660632  0.160194  1
  Sr  Sr8  1  0.709587  0.372529  0.015785  1
  Sr  Sr9  1  0.443802  0.959587  0.837058  1
  Sr  Sr10  1  0.306198  0.290413  0.662942  1
  Sr  Sr11  1  0.040413  0.877471  0.484215  1
  Sr  Sr12  1  0.486758  0.146952  0.397391  1
  Sr  Sr13  1  0.353048  0.013242  0.602609  1
  Sr  Sr14  1  0.125000  0.520358  0.895358  1
  Sr  Sr15  1  0.986758  0.589368  0.339806  1
  Sr  Sr16  1  0.943802  0.106744  0.484215  1
  Sr  Sr17  1  0.627471  0.643256  0.337058  1
  Sr  Sr18  1  0.896952  0.999562  0.160194  1
  Sr  Sr19  1  0.356744  0.693802  0.984215  1
  Sr  Sr20  1  0.122529  0.606744  0.162942  1
  Sr  Sr21  1  0.000438  0.160632  0.897391  1
  Sr  Sr22  1  0.660506  0.877063  0.133550  1
  Sr  Sr23  1  0.506487  0.872937  0.283443  1
  Sr  Sr24  1  0.856744  0.872529  0.662942  1
  Sr  Sr25  1  0.209587  0.193802  0.337058  1
  Sr  Sr26  1  0.006487  0.723043  0.633550  1
  Sr  Sr27  1  0.743513  0.526957  0.866450  1
  Sr  Sr28  1  0.263242  0.103048  0.102609  1
  Sr  Sr29  1  0.243513  0.377063  0.216557  1
  Sr  Sr30  1  0.339368  0.499562  0.102609  1
  Sr  Sr31  1  0.249562  0.646952  0.660194  1
  Sr  Sr32  1  0.749562  0.089368  0.602609  1
  Sr  Sr33  1  0.625000  0.729642  0.604642  1
  Sr  Sr34  1  0.910632  0.513242  0.660194  1
  Sr  Sr35  1  0.839368  0.736758  0.839806  1
  Sr  Sr36  1  0.622937  0.839494  0.866450  1
  Sr  Sr37  1  0.276957  0.910506  0.283443  1
  Sr  Sr38  1  0.853048  0.250438  0.339806  1
  Sr  Sr39  1  0.127471  0.790413  0.984215  1
  Sr  Sr40  1  0.776957  0.493513  0.366450  1
  Sr  Sr41  1  0.973043  0.756487  0.133550  1
  Sr  Sr42  1  0.122937  0.256487  0.783443  1
  Sr  Sr43  1  0.589494  0.223043  0.716557  1
  Sr  Sr44  1  0.622529  0.459587  0.515785  1
  Sr  Sr45  1  0.979642  0.375000  0.104642  1
  Sr  Sr46  1  0.540413  0.056198  0.162942  1
  Sr  Sr47  1  0.396952  0.236758  0.897391  1
  Sr  Sr48  1  0.410632  0.750438  0.397391  1
  Sr  Sr49  1  0.479642  0.375000  0.604642  1
  Sr  Sr50  1  0.089494  0.372937  0.366450  1
  Sr  Sr51  1  0.806198  0.143256  0.015785  1
  Sr  Sr52  1  0.270358  0.875000  0.895358  1
  Sr  Sr53  1  0.473043  0.339494  0.216557  1
  Sr  Sr54  1  0.393256  0.556198  0.515785  1
  Sr  Sr55  1  0.627063  0.993513  0.716557  1
  Sr  Sr56  1  0.250000  0.750000  0.500000  1
  Sr  Sr57  1  0.750000  0.250000  0.500000  1
  Sr  Sr58  1  0.000000  0.000000  0.000000  1
  Sr  Sr59  1  0.500000  0.500000  0.000000  1
  Bi  Bi60  1  0.863891  0.363891  0.227782  1
  Bi  Bi61  1  0.290241  0.699992  0.145913  1
  Bi  Bi62  1  0.886109  0.886109  0.272218  1
  Bi  Bi63  1  0.554079  0.144328  0.854087  1
  Bi  Bi64  1  0.949992  0.040241  0.645913  1
  Bi  Bi65  1  0.363891  0.136109  0.500000  1
  Bi  Bi66  1  0.459759  0.550008  0.354087  1
  Bi  Bi67  1  0.355672  0.945921  0.145913  1
  Bi  Bi68  1  0.061138  0.215869  0.140982  1
  Bi  Bi69  1  0.054079  0.199992  0.409751  1
  Bi  Bi70  1  0.500000  0.000000  0.500000  1
  Bi  Bi71  1  0.195921  0.105672  0.645913  1
  Bi  Bi72  1  0.784131  0.925113  0.845268  1
  Bi  Bi73  1  0.675113  0.329845  0.640982  1
  Bi  Bi74  1  0.465869  0.811138  0.640982  1
  Bi  Bi75  1  0.170155  0.824887  0.359018  1
  Bi  Bi76  1  0.574887  0.715869  0.154732  1
  Bi  Bi77  1  0.670155  0.311138  0.345268  1
  Bi  Bi78  1  0.079845  0.938862  0.154732  1
  Bi  Bi79  1  0.750000  0.750000  0.000000  1
  Bi  Bi80  1  0.561138  0.420155  0.845268  1
  Bi  Bi81  1  0.386109  0.113891  0.000000  1
  Bi  Bi82  1  0.074887  0.920155  0.859018  1
  Bi  Bi83  1  0.000000  0.500000  0.500000  1
  Bi  Bi84  1  0.284131  0.438862  0.859018  1
  Bi  Bi85  1  0.800008  0.209759  0.854087  1
  Bi  Bi86  1  0.250000  0.250000  0.000000  1
  Bi  Bi87  1  0.394328  0.304079  0.354087  1
  Bi  Bi88  1  0.300008  0.445921  0.590249  1
  Bi  Bi89  1  0.695921  0.050008  0.090249  1
  Bi  Bi90  1  0.790241  0.644328  0.590249  1
  Bi  Bi91  1  0.188862  0.829845  0.654732  1
  Bi  Bi92  1  0.959759  0.605672  0.909751  1
  Bi  Bi93  1  0.113891  0.386109  0.000000  1
  Bi  Bi94  1  0.965869  0.324887  0.654732  1
  Bi  Bi95  1  0.636109  0.863891  0.500000  1
  Bi  Bi96  1  0.688862  0.034131  0.359018  1
  Bi  Bi97  1  0.579845  0.425113  0.140982  1
  Bi  Bi98  1  0.855672  0.709759  0.409751  1
  Bi  Bi99  1  0.894328  0.540241  0.090249  1
  Bi  Bi100  1  0.449992  0.804079  0.909751  1
  Bi  Bi101  1  0.136109  0.636109  0.772218  1
  Bi  Bi102  1  0.613891  0.613891  0.727782  1
  Bi  Bi103  1  0.175113  0.534131  0.345268  1
