# generated using pymatgen
data_Tb7Y(HoBi)12
_symmetry_space_group_name_H-M   'P 1'
_cell_length_a   8.26075422
_cell_length_b   9.48727700
_cell_length_c   12.08214933
_cell_angle_alpha   90.00000000
_cell_angle_beta   89.97334585
_cell_angle_gamma   90.00000000
_symmetry_Int_Tables_number   1
_chemical_formula_structural   Tb7Y(HoBi)12
_chemical_formula_sum   'Tb7 Y1 Ho12 Bi12'
_cell_volume   946.90287237
_cell_formula_units_Z   1
loop_
 _symmetry_equiv_pos_site_id
 _symmetry_equiv_pos_as_xyz
  1  'x, y, z'
loop_
 _atom_site_type_symbol
 _atom_site_label
 _atom_site_symmetry_multiplicity
 _atom_site_fract_x
 _atom_site_fract_y
 _atom_site_fract_z
 _atom_site_occupancy
  Tb  Tb0  1  0.186381  0.750000  0.718903  1
  Tb  Tb1  1  0.686296  0.750000  0.781062  1
  Tb  Tb2  1  0.813602  0.250000  0.281140  1
  Tb  Tb3  1  0.313637  0.250000  0.218863  1
  Tb  Tb4  1  0.354001  0.750000  0.215667  1
  Tb  Tb5  1  0.854086  0.750000  0.284253  1
  Tb  Tb6  1  0.645745  0.250000  0.784259  1
  Y  Y7  1  0.145941  0.250000  0.715508  1
  Ho  Ho8  1  0.026034  0.750000  0.988413  1
  Ho  Ho9  1  0.525864  0.750000  0.511599  1
  Ho  Ho10  1  0.974214  0.250000  0.011412  1
  Ho  Ho11  1  0.474029  0.250000  0.488475  1
  Ho  Ho12  1  0.306622  0.435870  0.940212  1
  Ho  Ho13  1  0.806577  0.064120  0.559788  1
  Ho  Ho14  1  0.693416  0.935897  0.059756  1
  Ho  Ho15  1  0.193431  0.564135  0.440322  1
  Ho  Ho16  1  0.693416  0.564103  0.059756  1
  Ho  Ho17  1  0.193431  0.935865  0.440322  1
  Ho  Ho18  1  0.306622  0.064130  0.940212  1
  Ho  Ho19  1  0.806577  0.435880  0.559788  1
  Bi  Bi20  1  0.433680  0.004045  0.673311  1
  Bi  Bi21  1  0.933751  0.495876  0.826633  1
  Bi  Bi22  1  0.566322  0.503993  0.326719  1
  Bi  Bi23  1  0.066337  0.996052  0.173308  1
  Bi  Bi24  1  0.566322  0.996007  0.326719  1
  Bi  Bi25  1  0.066337  0.503948  0.173308  1
  Bi  Bi26  1  0.433680  0.495955  0.673311  1
  Bi  Bi27  1  0.933751  0.004124  0.826633  1
  Bi  Bi28  1  0.408641  0.750000  0.957740  1
  Bi  Bi29  1  0.908554  0.750000  0.542213  1
  Bi  Bi30  1  0.591370  0.250000  0.042188  1
  Bi  Bi31  1  0.091332  0.250000  0.458207  1
