# generated using pymatgen
data_Pr5CoPdAu
_symmetry_space_group_name_H-M   'P 1'
_cell_length_a   8.80255922
_cell_length_b   8.26824424
_cell_length_c   12.09794155
_cell_angle_alpha   89.95640684
_cell_angle_beta   90.08806429
_cell_angle_gamma   89.95474424
_symmetry_Int_Tables_number   1
_chemical_formula_structural   Pr5CoPdAu
_chemical_formula_sum   'Pr20 Co4 Pd4 Au4'
_cell_volume   880.50729776
_cell_formula_units_Z   4
loop_
 _symmetry_equiv_pos_site_id
 _symmetry_equiv_pos_as_xyz
  1  'x, y, z'
loop_
 _atom_site_type_symbol
 _atom_site_label
 _atom_site_symmetry_multiplicity
 _atom_site_fract_x
 _atom_site_fract_y
 _atom_site_fract_z
 _atom_site_occupancy
  Pr  Pr0  1  0.836567  0.757139  0.791653  1
  Pr  Pr1  1  0.161001  0.250485  0.208743  1
  Pr  Pr2  1  0.333185  0.242759  0.704519  1
  Pr  Pr3  1  0.669269  0.749522  0.295661  1
  Pr  Pr4  1  0.380187  0.752108  0.699021  1
  Pr  Pr5  1  0.624406  0.248834  0.303521  1
  Pr  Pr6  1  0.879880  0.248271  0.802455  1
  Pr  Pr7  1  0.116255  0.750748  0.200086  1
  Pr  Pr8  1  0.965705  0.757442  0.493284  1
  Pr  Pr9  1  0.032378  0.245407  0.501617  1
  Pr  Pr10  1  0.460202  0.242195  0.002029  1
  Pr  Pr11  1  0.541988  0.755349  0.991591  1
  Pr  Pr12  1  0.672029  0.037841  0.579884  1
  Pr  Pr13  1  0.328016  0.963166  0.425286  1
  Pr  Pr14  1  0.170707  0.961146  0.921444  1
  Pr  Pr15  1  0.327324  0.534448  0.424701  1
  Pr  Pr16  1  0.829059  0.037285  0.079042  1
  Pr  Pr17  1  0.673701  0.467242  0.575478  1
  Pr  Pr18  1  0.827210  0.465210  0.079402  1
  Pr  Pr19  1  0.172402  0.533571  0.925997  1
  Co  Co20  1  0.561330  0.750812  0.509719  1
  Co  Co21  1  0.440195  0.249571  0.490766  1
  Co  Co22  1  0.060190  0.249223  0.992279  1
  Co  Co23  1  0.938400  0.750268  0.008762  1
  Pd  Pd24  1  0.930147  0.473695  0.325946  1
  Pd  Pd25  1  0.567707  0.027402  0.823145  1
  Pd  Pd26  1  0.930463  0.027437  0.323013  1
  Pd  Pd27  1  0.067808  0.974770  0.673732  1
  Au  Au28  1  0.572793  0.472520  0.823791  1
  Au  Au29  1  0.428050  0.525745  0.173077  1
  Au  Au30  1  0.073546  0.525892  0.674113  1
  Au  Au31  1  0.427903  0.972497  0.176245  1
