# generated using pymatgen
data_NdY9(Bi2As)2
_symmetry_space_group_name_H-M   'P 1'
_cell_length_a   12.17644100
_cell_length_b   9.19078300
_cell_length_c   8.13185800
_cell_angle_alpha   90.00000000
_cell_angle_beta   90.00000000
_cell_angle_gamma   90.00000000
_symmetry_Int_Tables_number   1
_chemical_formula_structural   NdY9(Bi2As)2
_chemical_formula_sum   'Nd2 Y18 Bi8 As4'
_cell_volume   910.04457974
_cell_formula_units_Z   2
loop_
 _symmetry_equiv_pos_site_id
 _symmetry_equiv_pos_as_xyz
  1  'x, y, z'
loop_
 _atom_site_type_symbol
 _atom_site_label
 _atom_site_symmetry_multiplicity
 _atom_site_fract_x
 _atom_site_fract_y
 _atom_site_fract_z
 _atom_site_occupancy
  Nd  Nd0  1  0.713528  0.250000  0.659701  1
  Nd  Nd1  1  0.213528  0.250000  0.840299  1
  Y  Y2  1  0.563616  0.053599  0.317732  1
  Y  Y3  1  0.063616  0.446401  0.182268  1
  Y  Y4  1  0.436577  0.554580  0.683214  1
  Y  Y5  1  0.936577  0.945420  0.816786  1
  Y  Y6  1  0.436577  0.945420  0.683214  1
  Y  Y7  1  0.936577  0.554580  0.816786  1
  Y  Y8  1  0.563616  0.446401  0.317732  1
  Y  Y9  1  0.063616  0.053599  0.182268  1
  Y  Y10  1  0.289769  0.750000  0.343982  1
  Y  Y11  1  0.789769  0.750000  0.156018  1
  Y  Y12  1  0.500241  0.250000  0.965507  1
  Y  Y13  1  0.000241  0.250000  0.534493  1
  Y  Y14  1  0.500083  0.750000  0.037326  1
  Y  Y15  1  0.000083  0.750000  0.462674  1
  Y  Y16  1  0.793749  0.250000  0.137456  1
  Y  Y17  1  0.293749  0.250000  0.362544  1
  Y  Y18  1  0.205580  0.750000  0.865614  1
  Y  Y19  1  0.705580  0.750000  0.634386  1
  Bi  Bi20  1  0.828133  0.007235  0.423543  1
  Bi  Bi21  1  0.328133  0.492765  0.076457  1
  Bi  Bi22  1  0.172506  0.511566  0.569838  1
  Bi  Bi23  1  0.672506  0.988434  0.930162  1
  Bi  Bi24  1  0.172506  0.988434  0.569838  1
  Bi  Bi25  1  0.672506  0.511566  0.930162  1
  Bi  Bi26  1  0.828133  0.492765  0.423543  1
  Bi  Bi27  1  0.328133  0.007235  0.076457  1
  As  As28  1  0.976297  0.250000  0.915161  1
  As  As29  1  0.476297  0.250000  0.584839  1
  As  As30  1  0.019089  0.750000  0.083613  1
  As  As31  1  0.519089  0.750000  0.416387  1
