# generated using pymatgen
data_CaTb5Ta4Al12Os7
_symmetry_space_group_name_H-M   'P 1'
_cell_length_a   9.05246559
_cell_length_b   9.05246559
_cell_length_c   9.05267400
_cell_angle_alpha   59.99923842
_cell_angle_beta   59.99923843
_cell_angle_gamma   60.04570969
_symmetry_Int_Tables_number   1
_chemical_formula_structural   CaTb5Ta4Al12Os7
_chemical_formula_sum   'Ca1 Tb5 Ta4 Al12 Os7'
_cell_volume   524.73550271
_cell_formula_units_Z   1
loop_
 _symmetry_equiv_pos_site_id
 _symmetry_equiv_pos_as_xyz
  1  'x, y, z'
loop_
 _atom_site_type_symbol
 _atom_site_label
 _atom_site_symmetry_multiplicity
 _atom_site_fract_x
 _atom_site_fract_y
 _atom_site_fract_z
 _atom_site_occupancy
  Ca  Ca0  1  0.698806  0.698806  0.301194  1
  Tb  Tb1  1  0.291356  0.707592  0.293472  1
  Tb  Tb2  1  0.707592  0.291356  0.293472  1
  Tb  Tb3  1  0.295509  0.295509  0.704491  1
  Tb  Tb4  1  0.707592  0.291356  0.707580  1
  Tb  Tb5  1  0.291356  0.707592  0.707580  1
  Ta  Ta6  1  0.878056  0.878056  0.361278  1
  Ta  Ta7  1  0.879885  0.361858  0.879127  1
  Ta  Ta8  1  0.361858  0.879885  0.879127  1
  Ta  Ta9  1  0.878056  0.878056  0.882607  1
  Al  Al10  1  0.120490  0.120490  0.639629  1
  Al  Al11  1  0.116483  0.639856  0.121830  1
  Al  Al12  1  0.639856  0.116483  0.121830  1
  Al  Al13  1  0.120490  0.120490  0.119392  1
  Al  Al14  1  0.668117  0.668117  0.996976  1
  Al  Al15  1  0.668986  0.998581  0.666218  1
  Al  Al16  1  0.998581  0.668986  0.666218  1
  Al  Al17  1  0.668117  0.668117  0.666793  1
  Al  Al18  1  0.331335  0.331335  0.008628  1
  Al  Al19  1  0.330694  0.010259  0.329524  1
  Al  Al20  1  0.010259  0.330694  0.329524  1
  Al  Al21  1  0.331335  0.331335  0.328703  1
  Os  Os22  1  0.999828  0.999828  0.000172  1
  Os  Os23  1  0.996808  0.996808  0.503192  1
  Os  Os24  1  0.504066  0.997549  0.504872  1
  Os  Os25  1  0.997549  0.504066  0.504872  1
  Os  Os26  1  0.505326  0.505326  0.994674  1
  Os  Os27  1  0.997549  0.504066  0.993512  1
  Os  Os28  1  0.504066  0.997549  0.993512  1
