# generated using pymatgen
data_Pa3Al3Re2Pd
_symmetry_space_group_name_H-M   'P 1'
_cell_length_a   7.13740300
_cell_length_b   7.13740471
_cell_length_c   3.98999300
_cell_angle_alpha   90.00000000
_cell_angle_beta   90.00000000
_cell_angle_gamma   119.99999671
_symmetry_Int_Tables_number   1
_chemical_formula_structural   Pa3Al3Re2Pd
_chemical_formula_sum   'Pa3 Al3 Re2 Pd1'
_cell_volume   176.02863528
_cell_formula_units_Z   1
loop_
 _symmetry_equiv_pos_site_id
 _symmetry_equiv_pos_as_xyz
  1  'x, y, z'
loop_
 _atom_site_type_symbol
 _atom_site_label
 _atom_site_symmetry_multiplicity
 _atom_site_fract_x
 _atom_site_fract_y
 _atom_site_fract_z
 _atom_site_occupancy
  Pa  Pa0  1  0.000000  0.427180  0.500000  1
  Pa  Pa1  1  0.572820  0.572820  0.500000  1
  Pa  Pa2  1  0.427180  0.000000  0.500000  1
  Al  Al3  1  0.000000  0.762357  0.000000  1
  Al  Al4  1  0.237643  0.237643  0.000000  1
  Al  Al5  1  0.762357  0.000000  0.000000  1
  Re  Re6  1  0.333333  0.666667  0.000000  1
  Re  Re7  1  0.666667  0.333333  0.000000  1
  Pd  Pd8  1  0.000000  0.000000  0.500000  1
