# generated using pymatgen
data_Tb3Nd4ThS12
_symmetry_space_group_name_H-M   'P 1'
_cell_length_a   4.02838500
_cell_length_b   10.58088388
_cell_length_c   10.90942900
_cell_angle_alpha   89.74980326
_cell_angle_beta   90.00000000
_cell_angle_gamma   90.00000000
_symmetry_Int_Tables_number   1
_chemical_formula_structural   Tb3Nd4ThS12
_chemical_formula_sum   'Tb3 Nd4 Th1 S12'
_cell_volume   464.99769270
_cell_formula_units_Z   1
loop_
 _symmetry_equiv_pos_site_id
 _symmetry_equiv_pos_as_xyz
  1  'x, y, z'
loop_
 _atom_site_type_symbol
 _atom_site_label
 _atom_site_symmetry_multiplicity
 _atom_site_fract_x
 _atom_site_fract_y
 _atom_site_fract_z
 _atom_site_occupancy
  Tb  Tb0  1  0.250000  0.686938  0.491454  1
  Tb  Tb1  1  0.750000  0.313618  0.508874  1
  Tb  Tb2  1  0.750000  0.188766  0.008747  1
  Nd  Nd3  1  0.250000  0.007504  0.310348  1
  Nd  Nd4  1  0.750000  0.000032  0.692997  1
  Nd  Nd5  1  0.750000  0.497822  0.195245  1
  Nd  Nd6  1  0.250000  0.491931  0.803696  1
  Th  Th7  1  0.250000  0.812443  0.990405  1
  S  S8  1  0.250000  0.056868  0.883977  1
  S  S9  1  0.750000  0.947878  0.120290  1
  S  S10  1  0.750000  0.553879  0.615584  1
  S  S11  1  0.250000  0.447344  0.384937  1
  S  S12  1  0.250000  0.132958  0.544783  1
  S  S13  1  0.750000  0.868137  0.455568  1
  S  S14  1  0.750000  0.626554  0.952638  1
  S  S15  1  0.250000  0.368288  0.043954  1
  S  S16  1  0.250000  0.701258  0.228240  1
  S  S17  1  0.750000  0.294499  0.768846  1
  S  S18  1  0.750000  0.205286  0.269134  1
  S  S19  1  0.250000  0.797994  0.730283  1
