# generated using pymatgen
data_Pr8Nb12Si15P
_symmetry_space_group_name_H-M   'P 1'
_cell_length_a   7.01597758
_cell_length_b   7.26720358
_cell_length_c   13.64873500
_cell_angle_alpha   90.00000000
_cell_angle_beta   90.00000000
_cell_angle_gamma   90.00385494
_symmetry_Int_Tables_number   1
_chemical_formula_structural   Pr8Nb12Si15P
_chemical_formula_sum   'Pr8 Nb12 Si15 P1'
_cell_volume   695.90173526
_cell_formula_units_Z   1
loop_
 _symmetry_equiv_pos_site_id
 _symmetry_equiv_pos_as_xyz
  1  'x, y, z'
loop_
 _atom_site_type_symbol
 _atom_site_label
 _atom_site_symmetry_multiplicity
 _atom_site_fract_x
 _atom_site_fract_y
 _atom_site_fract_z
 _atom_site_occupancy
  Pr  Pr0  1  0.007688  0.169164  0.403734  1
  Pr  Pr1  1  0.507947  0.331095  0.403759  1
  Pr  Pr2  1  0.490799  0.670753  0.902422  1
  Pr  Pr3  1  0.490799  0.670753  0.597578  1
  Pr  Pr4  1  0.995259  0.831107  0.598106  1
  Pr  Pr5  1  0.995259  0.831107  0.901894  1
  Pr  Pr6  1  0.507947  0.331095  0.096241  1
  Pr  Pr7  1  0.007688  0.169164  0.096266  1
  Nb  Nb8  1  0.333300  0.172476  0.627743  1
  Nb  Nb9  1  0.665430  0.824502  0.373587  1
  Nb  Nb10  1  0.656063  0.010934  0.750000  1
  Nb  Nb11  1  0.165394  0.675490  0.373728  1
  Nb  Nb12  1  0.833082  0.324266  0.874080  1
  Nb  Nb13  1  0.833082  0.324266  0.625920  1
  Nb  Nb14  1  0.842398  0.512206  0.250000  1
  Nb  Nb15  1  0.342315  0.987639  0.250000  1
  Nb  Nb16  1  0.333300  0.172476  0.872257  1
  Nb  Nb17  1  0.165394  0.675490  0.126272  1
  Nb  Nb18  1  0.665430  0.824502  0.126413  1
  Nb  Nb19  1  0.158861  0.486376  0.750000  1
  Si  Si20  1  0.462662  0.630234  0.250000  1
  Si  Si21  1  0.032355  0.135341  0.750000  1
  Si  Si22  1  0.537745  0.368801  0.750000  1
  Si  Si23  1  0.155290  0.458400  0.543652  1
  Si  Si24  1  0.962373  0.869446  0.250000  1
  Si  Si25  1  0.705978  0.113228  0.250000  1
  Si  Si26  1  0.844503  0.541654  0.042812  1
  Si  Si27  1  0.345076  0.959593  0.043705  1
  Si  Si28  1  0.155290  0.458400  0.956348  1
  Si  Si29  1  0.655796  0.039652  0.542930  1
  Si  Si30  1  0.345076  0.959593  0.456295  1
  Si  Si31  1  0.844503  0.541654  0.457188  1
  Si  Si32  1  0.794262  0.611673  0.750000  1
  Si  Si33  1  0.206307  0.387097  0.250000  1
  Si  Si34  1  0.655796  0.039652  0.957070  1
  P  P35  1  0.299551  0.890719  0.750000  1
