# generated using pymatgen
data_Y4Sc4Re(B8Ru)3
_symmetry_space_group_name_H-M   'P 1'
_cell_length_a   3.57696200
_cell_length_b   8.98394165
_cell_length_c   11.37156882
_cell_angle_alpha   90.04357367
_cell_angle_beta   90.00000000
_cell_angle_gamma   90.00000000
_symmetry_Int_Tables_number   1
_chemical_formula_structural   Y4Sc4Re(B8Ru)3
_chemical_formula_sum   'Y4 Sc4 Re1 B24 Ru3'
_cell_volume   365.42773618
_cell_formula_units_Z   1
loop_
 _symmetry_equiv_pos_site_id
 _symmetry_equiv_pos_as_xyz
  1  'x, y, z'
loop_
 _atom_site_type_symbol
 _atom_site_label
 _atom_site_symmetry_multiplicity
 _atom_site_fract_x
 _atom_site_fract_y
 _atom_site_fract_z
 _atom_site_occupancy
  Y  Y0  1  0.000000  0.320185  0.415218  1
  Y  Y1  1  0.000000  0.680950  0.587119  1
  Y  Y2  1  0.000000  0.820471  0.084191  1
  Y  Y3  1  0.000000  0.178666  0.913699  1
  Sc  Sc4  1  0.000000  0.945154  0.372568  1
  Sc  Sc5  1  0.000000  0.053737  0.627506  1
  Sc  Sc6  1  0.000000  0.444589  0.127610  1
  Sc  Sc7  1  0.000000  0.555674  0.872771  1
  Re  Re8  1  0.000000  0.859386  0.818430  1
  B  B9  1  0.500000  0.555384  0.432632  1
  B  B10  1  0.500000  0.444583  0.567329  1
  B  B11  1  0.500000  0.055502  0.067706  1
  B  B12  1  0.500000  0.945446  0.932979  1
  B  B13  1  0.500000  0.753748  0.418225  1
  B  B14  1  0.500000  0.246250  0.581606  1
  B  B15  1  0.500000  0.253425  0.081790  1
  B  B16  1  0.500000  0.746173  0.918386  1
  B  B17  1  0.500000  0.793823  0.264999  1
  B  B18  1  0.500000  0.206128  0.734467  1
  B  B19  1  0.500000  0.294140  0.234945  1
  B  B20  1  0.500000  0.704988  0.764879  1
  B  B21  1  0.500000  0.628721  0.182700  1
  B  B22  1  0.500000  0.371048  0.816894  1
  B  B23  1  0.500000  0.129013  0.317393  1
  B  B24  1  0.500000  0.871129  0.682881  1
  B  B25  1  0.500000  0.982553  0.214339  1
  B  B26  1  0.500000  0.018801  0.785719  1
  B  B27  1  0.500000  0.482258  0.285911  1
  B  B28  1  0.500000  0.517595  0.713985  1
  B  B29  1  0.500000  0.598112  0.027223  1
  B  B30  1  0.500000  0.400917  0.973456  1
  B  B31  1  0.500000  0.099270  0.472856  1
  B  B32  1  0.500000  0.901200  0.526116  1
  Ru  Ru33  1  0.000000  0.640440  0.318188  1
  Ru  Ru34  1  0.000000  0.359658  0.681298  1
  Ru  Ru35  1  0.000000  0.140881  0.181985  1
