# generated using pymatgen
data_Pr9Nd(IrPt2)2
_symmetry_space_group_name_H-M   'P 1'
_cell_length_a   11.52117100
_cell_length_b   11.52117100
_cell_length_c   6.57713100
_cell_angle_alpha   90.00000000
_cell_angle_beta   90.00000000
_cell_angle_gamma   90.00000000
_symmetry_Int_Tables_number   1
_chemical_formula_structural   Pr9Nd(IrPt2)2
_chemical_formula_sum   'Pr18 Nd2 Ir4 Pt8'
_cell_volume   873.03114482
_cell_formula_units_Z   2
loop_
 _symmetry_equiv_pos_site_id
 _symmetry_equiv_pos_as_xyz
  1  'x, y, z'
loop_
 _atom_site_type_symbol
 _atom_site_label
 _atom_site_symmetry_multiplicity
 _atom_site_fract_x
 _atom_site_fract_y
 _atom_site_fract_z
 _atom_site_occupancy
  Pr  Pr0  1  0.294558  0.089448  0.373783  1
  Pr  Pr1  1  0.294558  0.910552  0.873783  1
  Pr  Pr2  1  0.705442  0.089448  0.873783  1
  Pr  Pr3  1  0.705442  0.910552  0.373783  1
  Pr  Pr4  1  0.589612  0.795275  0.873422  1
  Pr  Pr5  1  0.589612  0.204725  0.373422  1
  Pr  Pr6  1  0.410388  0.795275  0.373422  1
  Pr  Pr7  1  0.410388  0.204725  0.873422  1
  Pr  Pr8  1  0.204725  0.410388  0.626578  1
  Pr  Pr9  1  0.204725  0.589612  0.126578  1
  Pr  Pr10  1  0.795275  0.410388  0.126578  1
  Pr  Pr11  1  0.795275  0.589612  0.626578  1
  Pr  Pr12  1  0.910552  0.705442  0.126217  1
  Pr  Pr13  1  0.910552  0.294558  0.626217  1
  Pr  Pr14  1  0.089448  0.705442  0.626217  1
  Pr  Pr15  1  0.089448  0.294558  0.126217  1
  Pr  Pr16  1  0.500000  0.500000  0.000000  1
  Pr  Pr17  1  0.500000  0.500000  0.500000  1
  Nd  Nd18  1  0.000000  0.000000  0.500000  1
  Nd  Nd19  1  0.000000  0.000000  0.000000  1
  Ir  Ir20  1  0.500000  0.000000  0.113977  1
  Ir  Ir21  1  0.500000  0.000000  0.613977  1
  Ir  Ir22  1  0.000000  0.500000  0.886023  1
  Ir  Ir23  1  0.000000  0.500000  0.386023  1
  Pt  Pt24  1  0.847977  0.152023  0.250000  1
  Pt  Pt25  1  0.847977  0.847977  0.750000  1
  Pt  Pt26  1  0.152023  0.152023  0.750000  1
  Pt  Pt27  1  0.152023  0.847977  0.250000  1
  Pt  Pt28  1  0.653755  0.346245  0.750000  1
  Pt  Pt29  1  0.653755  0.653755  0.250000  1
  Pt  Pt30  1  0.346245  0.346245  0.250000  1
  Pt  Pt31  1  0.346245  0.653755  0.750000  1
