# generated using pymatgen
data_NdThSc2(Al3Rh)6
_symmetry_space_group_name_H-M   'P 1'
_cell_length_a   7.55740203
_cell_length_b   7.55925371
_cell_length_c   9.44471300
_cell_angle_alpha   90.00000000
_cell_angle_beta   90.00000000
_cell_angle_gamma   119.40539152
_symmetry_Int_Tables_number   1
_chemical_formula_structural   NdThSc2(Al3Rh)6
_chemical_formula_sum   'Nd1 Th1 Sc2 Al18 Rh6'
_cell_volume   470.04770296
_cell_formula_units_Z   1
loop_
 _symmetry_equiv_pos_site_id
 _symmetry_equiv_pos_as_xyz
  1  'x, y, z'
loop_
 _atom_site_type_symbol
 _atom_site_label
 _atom_site_symmetry_multiplicity
 _atom_site_fract_x
 _atom_site_fract_y
 _atom_site_fract_z
 _atom_site_occupancy
  Nd  Nd0  1  0.671287  0.993226  0.250000  1
  Th  Th1  1  0.992680  0.671146  0.250000  1
  Sc  Sc2  1  0.003128  0.326907  0.750000  1
  Sc  Sc3  1  0.326234  0.003254  0.750000  1
  Al  Al4  1  0.134284  0.134646  0.250000  1
  Al  Al5  1  0.879405  0.880361  0.750000  1
  Al  Al6  1  0.004264  0.332970  0.065253  1
  Al  Al7  1  0.003764  0.663773  0.911961  1
  Al  Al8  1  0.003764  0.663773  0.588039  1
  Al  Al9  1  0.338138  0.006195  0.434561  1
  Al  Al10  1  0.004264  0.332970  0.434747  1
  Al  Al11  1  0.664020  0.004600  0.585786  1
  Al  Al12  1  0.664020  0.004600  0.914214  1
  Al  Al13  1  0.338138  0.006195  0.065439  1
  Al  Al14  1  0.328596  0.328655  0.567360  1
  Al  Al15  1  0.662718  0.664813  0.466314  1
  Al  Al16  1  0.662718  0.664813  0.033686  1
  Al  Al17  1  0.328596  0.328655  0.932640  1
  Al  Al18  1  0.340714  0.545796  0.250000  1
  Al  Al19  1  0.659097  0.442214  0.750000  1
  Al  Al20  1  0.543979  0.337848  0.250000  1
  Al  Al21  1  0.442535  0.660325  0.750000  1
  Rh  Rh22  1  0.673414  0.329306  0.997508  1
  Rh  Rh23  1  0.326049  0.671569  0.997366  1
  Rh  Rh24  1  0.326049  0.671569  0.502634  1
  Rh  Rh25  1  0.673414  0.329306  0.502492  1
  Rh  Rh26  1  0.002367  0.000258  0.997124  1
  Rh  Rh27  1  0.002367  0.000258  0.502876  1
