# generated using pymatgen
data_HoTm15Cd4TcNi3
_symmetry_space_group_name_H-M   'P 1'
_cell_length_a   9.48906467
_cell_length_b   9.48906499
_cell_length_c   9.48932569
_cell_angle_alpha   59.33531316
_cell_angle_beta   59.33531043
_cell_angle_gamma   59.28743657
_symmetry_Int_Tables_number   1
_chemical_formula_structural   HoTm15Cd4TcNi3
_chemical_formula_sum   'Ho1 Tm15 Cd4 Tc1 Ni3'
_cell_volume   594.81813558
_cell_formula_units_Z   1
loop_
 _symmetry_equiv_pos_site_id
 _symmetry_equiv_pos_as_xyz
  1  'x, y, z'
loop_
 _atom_site_type_symbol
 _atom_site_label
 _atom_site_symmetry_multiplicity
 _atom_site_fract_x
 _atom_site_fract_y
 _atom_site_fract_z
 _atom_site_occupancy
  Ho  Ho0  1  0.939468  0.939468  0.555972  1
  Tm  Tm1  1  0.346705  0.346705  0.346725  1
  Tm  Tm2  1  0.352379  0.352379  0.953963  1
  Tm  Tm3  1  0.352599  0.953976  0.352071  1
  Tm  Tm4  1  0.953976  0.352599  0.352071  1
  Tm  Tm5  1  0.810141  0.187575  0.186949  1
  Tm  Tm6  1  0.186674  0.811330  0.811635  1
  Tm  Tm7  1  0.187575  0.810141  0.186949  1
  Tm  Tm8  1  0.811330  0.186674  0.811635  1
  Tm  Tm9  1  0.187336  0.187336  0.810328  1
  Tm  Tm10  1  0.811474  0.811474  0.186435  1
  Tm  Tm11  1  0.935825  0.565005  0.565421  1
  Tm  Tm12  1  0.555344  0.939577  0.939869  1
  Tm  Tm13  1  0.565005  0.935825  0.565421  1
  Tm  Tm14  1  0.939577  0.555344  0.939869  1
  Tm  Tm15  1  0.565455  0.565455  0.935920  1
  Cd  Cd16  1  0.579918  0.579918  0.579927  1
  Cd  Cd17  1  0.579726  0.579726  0.255520  1
  Cd  Cd18  1  0.579280  0.255941  0.579728  1
  Cd  Cd19  1  0.255941  0.579280  0.579728  1
  Tc  Tc20  1  0.144546  0.144546  0.144047  1
  Ni  Ni21  1  0.142089  0.142089  0.575737  1
  Ni  Ni22  1  0.142034  0.575602  0.142039  1
  Ni  Ni23  1  0.575602  0.142034  0.142039  1
