# generated using pymatgen
data_Nd2Re(TcB3)2
_symmetry_space_group_name_H-M   'P 1'
_cell_length_a   6.30144209
_cell_length_b   6.30144275
_cell_length_c   7.63421533
_cell_angle_alpha   90.63546378
_cell_angle_beta   90.63545940
_cell_angle_gamma   114.47173955
_symmetry_Int_Tables_number   1
_chemical_formula_structural   Nd2Re(TcB3)2
_chemical_formula_sum   'Nd4 Re2 Tc4 B12'
_cell_volume   275.85038831
_cell_formula_units_Z   2
loop_
 _symmetry_equiv_pos_site_id
 _symmetry_equiv_pos_as_xyz
  1  'x, y, z'
loop_
 _atom_site_type_symbol
 _atom_site_label
 _atom_site_symmetry_multiplicity
 _atom_site_fract_x
 _atom_site_fract_y
 _atom_site_fract_z
 _atom_site_occupancy
  Nd  Nd0  1  0.093944  0.440201  0.326189  1
  Nd  Nd1  1  0.559799  0.906056  0.173811  1
  Nd  Nd2  1  0.906223  0.558927  0.673934  1
  Nd  Nd3  1  0.441073  0.093777  0.826066  1
  Re  Re4  1  0.010517  0.195468  0.911459  1
  Re  Re5  1  0.804532  0.989483  0.588541  1
  Tc  Tc6  1  0.584240  0.415760  0.250000  1
  Tc  Tc7  1  0.416152  0.583848  0.750000  1
  Tc  Tc8  1  0.989135  0.804163  0.088261  1
  Tc  Tc9  1  0.195837  0.010865  0.411739  1
  B  B10  1  0.240232  0.153201  0.130270  1
  B  B11  1  0.846799  0.759768  0.369730  1
  B  B12  1  0.757779  0.847564  0.867500  1
  B  B13  1  0.152436  0.242221  0.632500  1
  B  B14  1  0.582842  0.156694  0.482261  1
  B  B15  1  0.843306  0.417158  0.017739  1
  B  B16  1  0.416904  0.842353  0.517822  1
  B  B17  1  0.157647  0.583096  0.982178  1
  B  B18  1  0.440458  0.349118  0.532456  1
  B  B19  1  0.650882  0.559542  0.967544  1
  B  B20  1  0.558752  0.649488  0.467275  1
  B  B21  1  0.350512  0.441248  0.032725  1
