# generated using pymatgen
data_YB2OsRu
_symmetry_space_group_name_H-M   'P 1'
_cell_length_a   6.62454133
_cell_length_b   5.92075436
_cell_length_c   5.59279897
_cell_angle_alpha   70.18479296
_cell_angle_beta   57.22913975
_cell_angle_gamma   52.58606114
_symmetry_Int_Tables_number   1
_chemical_formula_structural   YB2OsRu
_chemical_formula_sum   'Y2 B4 Os2 Ru2'
_cell_volume   146.48494890
_cell_formula_units_Z   2
loop_
 _symmetry_equiv_pos_site_id
 _symmetry_equiv_pos_as_xyz
  1  'x, y, z'
loop_
 _atom_site_type_symbol
 _atom_site_label
 _atom_site_symmetry_multiplicity
 _atom_site_fract_x
 _atom_site_fract_y
 _atom_site_fract_z
 _atom_site_occupancy
  Y  Y0  1  0.000000  0.000000  0.000000  1
  Y  Y1  1  0.250000  0.250000  0.250000  1
  B  B2  1  0.306966  0.693034  0.306966  1
  B  B3  1  0.693034  0.306966  0.693034  1
  B  B4  1  0.561593  0.938407  0.561593  1
  B  B5  1  0.938407  0.561593  0.938407  1
  Os  Os6  1  0.611097  0.611097  0.888903  1
  Os  Os7  1  0.888903  0.888903  0.611097  1
  Ru  Ru8  1  0.638457  0.638457  0.361543  1
  Ru  Ru9  1  0.361543  0.361543  0.638457  1
