# generated using pymatgen
data_Pr6DyHoO12
_symmetry_space_group_name_H-M   'P 1'
_cell_length_a   7.01070198
_cell_length_b   7.01070118
_cell_length_c   7.01070114
_cell_angle_alpha   92.04191896
_cell_angle_beta   92.04191480
_cell_angle_gamma   92.04192806
_symmetry_Int_Tables_number   1
_chemical_formula_structural   Pr6DyHoO12
_chemical_formula_sum   'Pr6 Dy1 Ho1 O12'
_cell_volume   343.90309186
_cell_formula_units_Z   1
loop_
 _symmetry_equiv_pos_site_id
 _symmetry_equiv_pos_as_xyz
  1  'x, y, z'
loop_
 _atom_site_type_symbol
 _atom_site_label
 _atom_site_symmetry_multiplicity
 _atom_site_fract_x
 _atom_site_fract_y
 _atom_site_fract_z
 _atom_site_occupancy
  Pr  Pr0  1  0.557744  0.064254  0.252981  1
  Pr  Pr1  1  0.064254  0.252981  0.557744  1
  Pr  Pr2  1  0.747019  0.442256  0.935746  1
  Pr  Pr3  1  0.252981  0.557744  0.064254  1
  Pr  Pr4  1  0.935746  0.747019  0.442256  1
  Pr  Pr5  1  0.442256  0.935746  0.747019  1
  Dy  Dy6  1  0.000000  0.000000  0.000000  1
  Ho  Ho7  1  0.500000  0.500000  0.500000  1
  O  O8  1  0.691662  0.088913  0.934110  1
  O  O9  1  0.911087  0.065890  0.308338  1
  O  O10  1  0.403790  0.191854  0.534074  1
  O  O11  1  0.065890  0.308338  0.911087  1
  O  O12  1  0.534074  0.403790  0.191854  1
  O  O13  1  0.808146  0.465926  0.596210  1
  O  O14  1  0.191854  0.534074  0.403790  1
  O  O15  1  0.465926  0.596210  0.808146  1
  O  O16  1  0.934110  0.691662  0.088913  1
  O  O17  1  0.596210  0.808146  0.465926  1
  O  O18  1  0.088913  0.934110  0.691662  1
  O  O19  1  0.308338  0.911087  0.065890  1
