# generated using pymatgen
data_Tb12Al5Ge3Ru8
_symmetry_space_group_name_H-M   'P 1'
_cell_length_a   5.63322923
_cell_length_b   7.70511215
_cell_length_c   13.75477200
_cell_angle_alpha   90.00000000
_cell_angle_beta   90.00000000
_cell_angle_gamma   89.89716828
_symmetry_Int_Tables_number   1
_chemical_formula_structural   Tb12Al5Ge3Ru8
_chemical_formula_sum   'Tb12 Al5 Ge3 Ru8'
_cell_volume   597.02028193
_cell_formula_units_Z   1
loop_
 _symmetry_equiv_pos_site_id
 _symmetry_equiv_pos_as_xyz
  1  'x, y, z'
loop_
 _atom_site_type_symbol
 _atom_site_label
 _atom_site_symmetry_multiplicity
 _atom_site_fract_x
 _atom_site_fract_y
 _atom_site_fract_z
 _atom_site_occupancy
  Tb  Tb0  1  0.848781  0.901393  0.595618  1
  Tb  Tb1  1  0.149733  0.403213  0.904629  1
  Tb  Tb2  1  0.848383  0.595638  0.099419  1
  Tb  Tb3  1  0.625282  0.272101  0.750000  1
  Tb  Tb4  1  0.625453  0.233660  0.250000  1
  Tb  Tb5  1  0.848383  0.595638  0.400581  1
  Tb  Tb6  1  0.373836  0.734123  0.250000  1
  Tb  Tb7  1  0.149420  0.096274  0.099905  1
  Tb  Tb8  1  0.149420  0.096274  0.400095  1
  Tb  Tb9  1  0.382438  0.759012  0.750000  1
  Tb  Tb10  1  0.149733  0.403213  0.595371  1
  Tb  Tb11  1  0.848781  0.901393  0.904382  1
  Al  Al12  1  0.379121  0.750774  0.499159  1
  Al  Al13  1  0.379121  0.750774  0.000841  1
  Al  Al14  1  0.133845  0.105416  0.750000  1
  Al  Al15  1  0.619426  0.251164  0.499928  1
  Al  Al16  1  0.619426  0.251164  0.000072  1
  Ge  Ge17  1  0.123870  0.386509  0.250000  1
  Ge  Ge18  1  0.875053  0.885261  0.250000  1
  Ge  Ge19  1  0.884909  0.613280  0.750000  1
  Ru  Ru20  1  0.349317  0.034618  0.906644  1
  Ru  Ru21  1  0.355489  0.468614  0.094222  1
  Ru  Ru22  1  0.642657  0.968723  0.095244  1
  Ru  Ru23  1  0.645330  0.534908  0.905842  1
  Ru  Ru24  1  0.642657  0.968723  0.404756  1
  Ru  Ru25  1  0.645330  0.534908  0.594158  1
  Ru  Ru26  1  0.355489  0.468614  0.405778  1
  Ru  Ru27  1  0.349317  0.034618  0.593356  1
