# generated using pymatgen
data_La7Nd5(IrCl3)4
_symmetry_space_group_name_H-M   'P 1'
_cell_length_a   10.34309519
_cell_length_b   10.35724509
_cell_length_c   10.30692200
_cell_angle_alpha   108.64506188
_cell_angle_beta   110.54739491
_cell_angle_gamma   109.14546247
_symmetry_Int_Tables_number   1
_chemical_formula_structural   La7Nd5(IrCl3)4
_chemical_formula_sum   'La7 Nd5 Ir4 Cl12'
_cell_volume   850.57050861
_cell_formula_units_Z   1
loop_
 _symmetry_equiv_pos_site_id
 _symmetry_equiv_pos_as_xyz
  1  'x, y, z'
loop_
 _atom_site_type_symbol
 _atom_site_label
 _atom_site_symmetry_multiplicity
 _atom_site_fract_x
 _atom_site_fract_y
 _atom_site_fract_z
 _atom_site_occupancy
  La  La0  1  0.015293  0.490366  0.755813  1
  La  La1  1  0.484293  0.242251  0.477976  1
  La  La2  1  0.264759  0.007766  0.022579  1
  La  La3  1  0.751771  0.239580  0.259633  1
  La  La4  1  0.746018  0.010136  0.486036  1
  La  La5  1  0.475966  0.492362  0.234305  1
  La  La6  1  0.024968  0.259265  0.015320  1
  Nd  Nd7  1  0.261541  0.752368  0.242393  1
  Nd  Nd8  1  0.487826  0.747751  0.009698  1
  Nd  Nd9  1  0.237054  0.476654  0.490463  1
  Nd  Nd10  1  0.010181  0.022743  0.263208  1
  Nd  Nd11  1  0.237299  0.260038  0.746038  1
  Ir  Ir12  1  0.500124  0.001094  0.250101  1
  Ir  Ir13  1  0.249620  0.499635  0.000594  1
  Ir  Ir14  1  0.997003  0.249475  0.498211  1
  Ir  Ir15  1  0.250616  0.250035  0.250160  1
  Cl  Cl16  1  0.244808  0.995729  0.496930  1
  Cl  Cl17  1  0.499080  0.502568  0.752830  1
  Cl  Cl18  1  0.256349  0.747829  0.747464  1
  Cl  Cl19  1  0.001065  0.751742  0.008066  1
  Cl  Cl20  1  0.008279  0.508146  0.255824  1
  Cl  Cl21  1  0.747921  0.991528  0.998580  1
  Cl  Cl22  1  0.751785  0.751479  0.244098  1
  Cl  Cl23  1  0.493240  0.748432  0.500664  1
  Cl  Cl24  1  0.497445  0.249489  0.993364  1
  Cl  Cl25  1  0.750481  0.501195  0.499604  1
  Cl  Cl26  1  0.749663  0.249606  0.751549  1
  Cl  Cl27  1  0.005550  0.000739  0.748497  1
