# generated using pymatgen
data_Nd2Dy4PtBr10
_symmetry_space_group_name_H-M   'P 1'
_cell_length_a   7.41424468
_cell_length_b   9.34042400
_cell_length_c   9.50397858
_cell_angle_alpha   107.48339095
_cell_angle_beta   96.23054707
_cell_angle_gamma   105.69381765
_symmetry_Int_Tables_number   1
_chemical_formula_structural   Nd2Dy4PtBr10
_chemical_formula_sum   'Nd2 Dy4 Pt1 Br10'
_cell_volume   591.31332874
_cell_formula_units_Z   1
loop_
 _symmetry_equiv_pos_site_id
 _symmetry_equiv_pos_as_xyz
  1  'x, y, z'
loop_
 _atom_site_type_symbol
 _atom_site_label
 _atom_site_symmetry_multiplicity
 _atom_site_fract_x
 _atom_site_fract_y
 _atom_site_fract_z
 _atom_site_occupancy
  Nd  Nd0  1  0.871024  0.951974  0.252545  1
  Nd  Nd1  1  0.128976  0.048026  0.747455  1
  Dy  Dy2  1  0.361289  0.134740  0.172478  1
  Dy  Dy3  1  0.638711  0.865260  0.827522  1
  Dy  Dy4  1  0.971712  0.298601  0.092202  1
  Dy  Dy5  1  0.028288  0.701399  0.907798  1
  Pt  Pt6  1  0.000000  0.000000  0.000000  1
  Br  Br7  1  0.347970  0.447483  0.267123  1
  Br  Br8  1  0.652030  0.552517  0.732877  1
  Br  Br9  1  0.919123  0.624292  0.168408  1
  Br  Br10  1  0.080877  0.375708  0.831592  1
  Br  Br11  1  0.447351  0.822998  0.082458  1
  Br  Br12  1  0.552649  0.177002  0.917542  1
  Br  Br13  1  0.265615  0.087000  0.448432  1
  Br  Br14  1  0.734385  0.913000  0.551568  1
  Br  Br15  1  0.779141  0.261308  0.338066  1
  Br  Br16  1  0.220859  0.738692  0.661934  1
