# generated using pymatgen
data_Ba3NaMoO6
_symmetry_space_group_name_H-M   'P 1'
_cell_length_a   7.20815255
_cell_length_b   7.20815224
_cell_length_c   7.20815311
_cell_angle_alpha   91.68033516
_cell_angle_beta   91.68033466
_cell_angle_gamma   91.68033277
_symmetry_Int_Tables_number   1
_chemical_formula_structural   Ba3NaMoO6
_chemical_formula_sum   'Ba6 Na2 Mo2 O12'
_cell_volume   374.02452472
_cell_formula_units_Z   2
loop_
 _symmetry_equiv_pos_site_id
 _symmetry_equiv_pos_as_xyz
  1  'x, y, z'
loop_
 _atom_site_type_symbol
 _atom_site_label
 _atom_site_symmetry_multiplicity
 _atom_site_fract_x
 _atom_site_fract_y
 _atom_site_fract_z
 _atom_site_occupancy
  Ba  Ba0  1  0.104064  0.750000  0.395936  1
  Ba  Ba1  1  0.395936  0.104064  0.750000  1
  Ba  Ba2  1  0.895936  0.250000  0.604064  1
  Ba  Ba3  1  0.604064  0.895936  0.250000  1
  Ba  Ba4  1  0.750000  0.395936  0.104064  1
  Ba  Ba5  1  0.250000  0.604064  0.895936  1
  Na  Na6  1  0.250000  0.250000  0.250000  1
  Na  Na7  1  0.750000  0.750000  0.750000  1
  Mo  Mo8  1  0.000000  0.000000  0.000000  1
  Mo  Mo9  1  0.500000  0.500000  0.500000  1
  O  O10  1  0.449037  0.766450  0.580717  1
  O  O11  1  0.580717  0.449037  0.766450  1
  O  O12  1  0.766450  0.580717  0.449037  1
  O  O13  1  0.050963  0.919283  0.733550  1
  O  O14  1  0.733550  0.050963  0.919283  1
  O  O15  1  0.919283  0.733550  0.050963  1
  O  O16  1  0.550963  0.233550  0.419283  1
  O  O17  1  0.419283  0.550963  0.233550  1
  O  O18  1  0.233550  0.419283  0.550963  1
  O  O19  1  0.949037  0.080717  0.266450  1
  O  O20  1  0.080717  0.266450  0.949037  1
  O  O21  1  0.266450  0.949037  0.080717  1
