# generated using pymatgen
data_Er2MnC2
_symmetry_space_group_name_H-M   'P 1'
_cell_length_a   4.98972000
_cell_length_b   6.29908000
_cell_length_c   9.59304000
_cell_angle_alpha   90.00000000
_cell_angle_beta   90.00000000
_cell_angle_gamma   90.00000000
_symmetry_Int_Tables_number   1
_chemical_formula_structural   Er2MnC2
_chemical_formula_sum   'Er8 Mn4 C8'
_cell_volume   301.51543910
_cell_formula_units_Z   4
loop_
 _symmetry_equiv_pos_site_id
 _symmetry_equiv_pos_as_xyz
  1  'x, y, z'
loop_
 _atom_site_type_symbol
 _atom_site_label
 _atom_site_symmetry_multiplicity
 _atom_site_fract_x
 _atom_site_fract_y
 _atom_site_fract_z
 _atom_site_occupancy
  Er  Er0  1  0.750000  0.526147  0.784941  1
  Er  Er1  1  0.250000  0.973853  0.284941  1
  Er  Er2  1  0.750000  0.681608  0.444688  1
  Er  Er3  1  0.250000  0.818392  0.944688  1
  Er  Er4  1  0.750000  0.181608  0.055312  1
  Er  Er5  1  0.250000  0.318392  0.555312  1
  Er  Er6  1  0.250000  0.473853  0.215059  1
  Er  Er7  1  0.750000  0.026147  0.715059  1
  Mn  Mn8  1  0.250000  0.273205  0.857778  1
  Mn  Mn9  1  0.250000  0.773205  0.642222  1
  Mn  Mn10  1  0.750000  0.226795  0.357778  1
  Mn  Mn11  1  0.750000  0.726795  0.142222  1
  C  C12  1  0.250000  0.689765  0.462986  1
  C  C13  1  0.250000  0.539009  0.760387  1
  C  C14  1  0.750000  0.460991  0.239613  1
  C  C15  1  0.750000  0.810235  0.962986  1
  C  C16  1  0.250000  0.039009  0.739613  1
  C  C17  1  0.250000  0.189765  0.037014  1
  C  C18  1  0.750000  0.310235  0.537014  1
  C  C19  1  0.750000  0.960991  0.260387  1
