# generated using pymatgen
data_Sm2Er3Tm(RuO7)2
_symmetry_space_group_name_H-M   'P 1'
_cell_length_a   6.38894413
_cell_length_b   6.39028138
_cell_length_c   7.43505700
_cell_angle_alpha   90.00048952
_cell_angle_beta   89.99974327
_cell_angle_gamma   109.89227720
_symmetry_Int_Tables_number   1
_chemical_formula_structural   Sm2Er3Tm(RuO7)2
_chemical_formula_sum   'Sm2 Er3 Tm1 Ru2 O14'
_cell_volume   285.44044698
_cell_formula_units_Z   1
loop_
 _symmetry_equiv_pos_site_id
 _symmetry_equiv_pos_as_xyz
  1  'x, y, z'
loop_
 _atom_site_type_symbol
 _atom_site_label
 _atom_site_symmetry_multiplicity
 _atom_site_fract_x
 _atom_site_fract_y
 _atom_site_fract_z
 _atom_site_occupancy
  Sm  Sm0  1  0.000114  0.999983  0.499806  1
  Sm  Sm1  1  0.000107  0.999983  0.000192  1
  Er  Er2  1  0.483265  0.932881  0.750000  1
  Er  Er3  1  0.516648  0.066872  0.249999  1
  Er  Er4  1  0.933009  0.483344  0.750000  1
  Tm  Tm5  1  0.065572  0.516287  0.249996  1
  Ru  Ru6  1  0.500020  0.500090  0.499770  1
  Ru  Ru7  1  0.500021  0.500090  0.000231  1
  O  O8  1  0.591668  0.591493  0.750001  1
  O  O9  1  0.407703  0.408637  0.249998  1
  O  O10  1  0.839981  0.117095  0.750005  1
  O  O11  1  0.160011  0.880720  0.250003  1
  O  O12  1  0.117131  0.839998  0.749999  1
  O  O13  1  0.883702  0.161846  0.250006  1
  O  O14  1  0.438618  0.179356  0.962831  1
  O  O15  1  0.561672  0.820788  0.462732  1
  O  O16  1  0.179304  0.439190  0.963897  1
  O  O17  1  0.820929  0.561001  0.461979  1
  O  O18  1  0.438616  0.179355  0.537163  1
  O  O19  1  0.561668  0.820791  0.037275  1
  O  O20  1  0.820935  0.561007  0.038014  1
  O  O21  1  0.179308  0.439193  0.536106  1
