# generated using pymatgen
data_Ho2Sc5Co6Sn22Hg
_symmetry_space_group_name_H-M   'P 1'
_cell_length_a   9.56840561
_cell_length_b   9.56840383
_cell_length_c   9.85991940
_cell_angle_alpha   90.15699231
_cell_angle_beta   89.84300955
_cell_angle_gamma   120.04333073
_symmetry_Int_Tables_number   1
_chemical_formula_structural   Ho2Sc5Co6Sn22Hg
_chemical_formula_sum   'Ho2 Sc5 Co6 Sn22 Hg1'
_cell_volume   781.43184518
_cell_formula_units_Z   1
loop_
 _symmetry_equiv_pos_site_id
 _symmetry_equiv_pos_as_xyz
  1  'x, y, z'
loop_
 _atom_site_type_symbol
 _atom_site_label
 _atom_site_symmetry_multiplicity
 _atom_site_fract_x
 _atom_site_fract_y
 _atom_site_fract_z
 _atom_site_occupancy
  Ho  Ho0  1  0.000704  0.999296  0.998737  1
  Ho  Ho1  1  0.480986  0.519014  0.308277  1
  Sc  Sc2  1  0.516919  0.483081  0.690732  1
  Sc  Sc3  1  0.516515  0.034032  0.693013  1
  Sc  Sc4  1  0.965968  0.483485  0.693013  1
  Sc  Sc5  1  0.035309  0.516281  0.308428  1
  Sc  Sc6  1  0.483719  0.964691  0.308428  1
  Co  Co7  1  0.169714  0.830286  0.800327  1
  Co  Co8  1  0.168770  0.337839  0.801083  1
  Co  Co9  1  0.662161  0.831230  0.801083  1
  Co  Co10  1  0.337711  0.168067  0.199151  1
  Co  Co11  1  0.831933  0.662289  0.199151  1
  Co  Co12  1  0.829289  0.170711  0.198442  1
  Sn  Sn13  1  0.667094  0.332906  0.178062  1
  Sn  Sn14  1  0.666132  0.333868  0.861762  1
  Sn  Sn15  1  0.328519  0.671481  0.132776  1
  Sn  Sn16  1  0.346841  0.347236  0.999262  1
  Sn  Sn17  1  0.000115  0.652340  0.998881  1
  Sn  Sn18  1  0.652442  0.999594  0.000004  1
  Sn  Sn19  1  0.652764  0.653159  0.999262  1
  Sn  Sn20  1  0.333574  0.666426  0.820528  1
  Sn  Sn21  1  0.439135  0.214660  0.457813  1
  Sn  Sn22  1  0.220161  0.779839  0.544582  1
  Sn  Sn23  1  0.216686  0.437842  0.546965  1
  Sn  Sn24  1  0.562158  0.783314  0.546965  1
  Sn  Sn25  1  0.121848  0.878152  0.270663  1
  Sn  Sn26  1  0.785340  0.560865  0.457813  1
  Sn  Sn27  1  0.780355  0.219645  0.455849  1
  Sn  Sn28  1  0.347660  0.999885  0.998881  1
  Sn  Sn29  1  0.115418  0.236326  0.271680  1
  Sn  Sn30  1  0.763674  0.884582  0.271680  1
  Sn  Sn31  1  0.240252  0.119368  0.728177  1
  Sn  Sn32  1  0.880632  0.759748  0.728177  1
  Sn  Sn33  1  0.878610  0.121390  0.729494  1
  Sn  Sn34  1  0.000406  0.347558  0.000004  1
  Hg  Hg35  1  0.000486  0.999514  0.500857  1
