# generated using pymatgen
data_Rb8NbAs5Pb
_symmetry_space_group_name_H-M   'P 1'
_cell_length_a   17.03247981
_cell_length_b   17.03248011
_cell_length_c   13.93316200
_cell_angle_alpha   85.06358290
_cell_angle_beta   85.06358281
_cell_angle_gamma   33.28859327
_symmetry_Int_Tables_number   1
_chemical_formula_structural   Rb8NbAs5Pb
_chemical_formula_sum   'Rb32 Nb4 As20 Pb4'
_cell_volume   2209.55846730
_cell_formula_units_Z   4
loop_
 _symmetry_equiv_pos_site_id
 _symmetry_equiv_pos_as_xyz
  1  'x, y, z'
loop_
 _atom_site_type_symbol
 _atom_site_label
 _atom_site_symmetry_multiplicity
 _atom_site_fract_x
 _atom_site_fract_y
 _atom_site_fract_z
 _atom_site_occupancy
  Rb  Rb0  1  0.477138  0.818426  0.040672  1
  Rb  Rb1  1  0.181574  0.522862  0.459328  1
  Rb  Rb2  1  0.522862  0.181574  0.959328  1
  Rb  Rb3  1  0.818426  0.477138  0.540672  1
  Rb  Rb4  1  0.278019  0.191788  0.945116  1
  Rb  Rb5  1  0.808212  0.721981  0.554884  1
  Rb  Rb6  1  0.721981  0.808212  0.054884  1
  Rb  Rb7  1  0.191788  0.278019  0.445116  1
  Rb  Rb8  1  0.393482  0.735435  0.792133  1
  Rb  Rb9  1  0.264565  0.606518  0.707867  1
  Rb  Rb10  1  0.606518  0.264565  0.207867  1
  Rb  Rb11  1  0.735435  0.393482  0.292133  1
  Rb  Rb12  1  0.639355  0.715947  0.778142  1
  Rb  Rb13  1  0.284053  0.360645  0.721858  1
  Rb  Rb14  1  0.360645  0.284053  0.221858  1
  Rb  Rb15  1  0.715947  0.639355  0.278142  1
  Rb  Rb16  1  0.012523  0.064413  0.879287  1
  Rb  Rb17  1  0.935587  0.987477  0.620713  1
  Rb  Rb18  1  0.987477  0.935587  0.120713  1
  Rb  Rb19  1  0.064413  0.012523  0.379287  1
  Rb  Rb20  1  0.076818  0.152455  0.102838  1
  Rb  Rb21  1  0.847545  0.923182  0.397162  1
  Rb  Rb22  1  0.923182  0.847545  0.897162  1
  Rb  Rb23  1  0.152455  0.076818  0.602838  1
  Rb  Rb24  1  0.595953  0.364166  0.891313  1
  Rb  Rb25  1  0.635834  0.404047  0.608687  1
  Rb  Rb26  1  0.404047  0.635834  0.108687  1
  Rb  Rb27  1  0.364166  0.595953  0.391313  1
  Rb  Rb28  1  0.932301  0.620513  0.832942  1
  Rb  Rb29  1  0.379487  0.067699  0.667058  1
  Rb  Rb30  1  0.067699  0.379487  0.167058  1
  Rb  Rb31  1  0.620513  0.932301  0.332942  1
  Nb  Nb32  1  0.994873  0.317457  0.820009  1
  Nb  Nb33  1  0.682543  0.005127  0.679991  1
  Nb  Nb34  1  0.005127  0.682543  0.179991  1
  Nb  Nb35  1  0.317457  0.994873  0.320009  1
  As  As36  1  0.787023  0.272396  0.076209  1
  As  As37  1  0.727604  0.212977  0.423791  1
  As  As38  1  0.212977  0.727604  0.923791  1
  As  As39  1  0.272396  0.787023  0.576209  1
  As  As40  1  0.884760  0.465320  0.970981  1
  As  As41  1  0.534680  0.115240  0.529019  1
  As  As42  1  0.115240  0.534680  0.029019  1
  As  As43  1  0.465320  0.884760  0.470981  1
  As  As44  1  0.025604  0.400312  0.690618  1
  As  As45  1  0.599688  0.974396  0.809382  1
  As  As46  1  0.974396  0.599688  0.309382  1
  As  As47  1  0.400312  0.025604  0.190618  1
  As  As48  1  0.228781  0.053831  0.851549  1
  As  As49  1  0.946169  0.771219  0.648451  1
  As  As50  1  0.771219  0.946169  0.148451  1
  As  As51  1  0.053831  0.228781  0.351549  1
  As  As52  1  0.805834  0.381286  0.765767  1
  As  As53  1  0.618714  0.194166  0.734233  1
  As  As54  1  0.194166  0.618714  0.234233  1
  As  As55  1  0.381286  0.805834  0.265767  1
  Pb  Pb56  1  0.712296  0.468656  0.963128  1
  Pb  Pb57  1  0.531344  0.287704  0.536872  1
  Pb  Pb58  1  0.287704  0.531344  0.036872  1
  Pb  Pb59  1  0.468656  0.712296  0.463128  1
