# generated using pymatgen
data_Lu4ScCo4
_symmetry_space_group_name_H-M   'P 1'
_cell_length_a   5.47104181
_cell_length_b   5.47104176
_cell_length_c   9.07145437
_cell_angle_alpha   71.01655118
_cell_angle_beta   71.01655260
_cell_angle_gamma   42.46382624
_symmetry_Int_Tables_number   1
_chemical_formula_structural   Lu4ScCo4
_chemical_formula_sum   'Lu4 Sc1 Co4'
_cell_volume   171.79094993
_cell_formula_units_Z   1
loop_
 _symmetry_equiv_pos_site_id
 _symmetry_equiv_pos_as_xyz
  1  'x, y, z'
loop_
 _atom_site_type_symbol
 _atom_site_label
 _atom_site_symmetry_multiplicity
 _atom_site_fract_x
 _atom_site_fract_y
 _atom_site_fract_z
 _atom_site_occupancy
  Lu  Lu0  1  0.740783  0.740783  0.672219  1
  Lu  Lu1  1  0.259217  0.259217  0.327781  1
  Lu  Lu2  1  0.389979  0.389979  0.894057  1
  Lu  Lu3  1  0.610021  0.610021  0.105943  1
  Sc  Sc4  1  0.500000  0.500000  0.500000  1
  Co  Co5  1  0.042839  0.042839  0.654296  1
  Co  Co6  1  0.957161  0.957161  0.345704  1
  Co  Co7  1  0.095143  0.095143  0.883327  1
  Co  Co8  1  0.904857  0.904857  0.116673  1
