# generated using pymatgen
data_Tm8V(B8Ir)3
_symmetry_space_group_name_H-M   'P 1'
_cell_length_a   3.59563400
_cell_length_b   9.10872499
_cell_length_c   11.46718482
_cell_angle_alpha   89.83832228
_cell_angle_beta   90.00000000
_cell_angle_gamma   90.00000000
_symmetry_Int_Tables_number   1
_chemical_formula_structural   Tm8V(B8Ir)3
_chemical_formula_sum   'Tm8 V1 B24 Ir3'
_cell_volume   375.56762832
_cell_formula_units_Z   1
loop_
 _symmetry_equiv_pos_site_id
 _symmetry_equiv_pos_as_xyz
  1  'x, y, z'
loop_
 _atom_site_type_symbol
 _atom_site_label
 _atom_site_symmetry_multiplicity
 _atom_site_fract_x
 _atom_site_fract_y
 _atom_site_fract_z
 _atom_site_occupancy
  Tm  Tm0  1  0.000000  0.324547  0.411985  1
  Tm  Tm1  1  0.000000  0.678584  0.580792  1
  Tm  Tm2  1  0.000000  0.816446  0.091258  1
  Tm  Tm3  1  0.000000  0.179178  0.915564  1
  Tm  Tm4  1  0.000000  0.942080  0.374583  1
  Tm  Tm5  1  0.000000  0.057032  0.625917  1
  Tm  Tm6  1  0.000000  0.446951  0.127282  1
  Tm  Tm7  1  0.000000  0.556347  0.872734  1
  V  V8  1  0.000000  0.637617  0.320867  1
  B  B9  1  0.500000  0.551493  0.434583  1
  B  B10  1  0.500000  0.447223  0.565897  1
  B  B11  1  0.500000  0.052339  0.066104  1
  B  B12  1  0.500000  0.946533  0.934728  1
  B  B13  1  0.500000  0.748878  0.420874  1
  B  B14  1  0.500000  0.251647  0.578788  1
  B  B15  1  0.500000  0.250009  0.079210  1
  B  B16  1  0.500000  0.750174  0.921266  1
  B  B17  1  0.500000  0.793534  0.264467  1
  B  B18  1  0.500000  0.207094  0.735747  1
  B  B19  1  0.500000  0.292443  0.234161  1
  B  B20  1  0.500000  0.708376  0.764245  1
  B  B21  1  0.500000  0.631389  0.184242  1
  B  B22  1  0.500000  0.367965  0.816895  1
  B  B23  1  0.500000  0.131705  0.315583  1
  B  B24  1  0.500000  0.868775  0.683244  1
  B  B25  1  0.500000  0.980237  0.212733  1
  B  B26  1  0.500000  0.019076  0.787452  1
  B  B27  1  0.500000  0.480318  0.287099  1
  B  B28  1  0.500000  0.518670  0.712651  1
  B  B29  1  0.500000  0.607487  0.028373  1
  B  B30  1  0.500000  0.392407  0.970123  1
  B  B31  1  0.500000  0.108219  0.470584  1
  B  B32  1  0.500000  0.893698  0.530568  1
  Ir  Ir33  1  0.000000  0.361163  0.680147  1
  Ir  Ir34  1  0.000000  0.137615  0.177707  1
  Ir  Ir35  1  0.000000  0.862751  0.821546  1
