# generated using pymatgen
data_Dy3Er7Ru4
_symmetry_space_group_name_H-M   'P 1'
_cell_length_a   6.29896925
_cell_length_b   7.27214511
_cell_length_c   8.42757500
_cell_angle_alpha   96.77080575
_cell_angle_beta   112.04438095
_cell_angle_gamma   89.99906036
_symmetry_Int_Tables_number   1
_chemical_formula_structural   Dy3Er7Ru4
_chemical_formula_sum   'Dy3 Er7 Ru4'
_cell_volume   354.91376909
_cell_formula_units_Z   1
loop_
 _symmetry_equiv_pos_site_id
 _symmetry_equiv_pos_as_xyz
  1  'x, y, z'
loop_
 _atom_site_type_symbol
 _atom_site_label
 _atom_site_symmetry_multiplicity
 _atom_site_fract_x
 _atom_site_fract_y
 _atom_site_fract_z
 _atom_site_occupancy
  Dy  Dy0  1  0.790785  0.584132  0.812616  1
  Dy  Dy1  1  0.977498  0.915930  0.186647  1
  Dy  Dy2  1  0.209486  0.415753  0.187028  1
  Er  Er3  1  0.022120  0.084354  0.813335  1
  Er  Er4  1  0.205605  0.684848  0.565578  1
  Er  Er5  1  0.640463  0.815454  0.435102  1
  Er  Er6  1  0.794499  0.315041  0.434727  1
  Er  Er7  1  0.359574  0.184844  0.565518  1
  Er  Er8  1  0.419126  0.749898  0.999713  1
  Er  Er9  1  0.580441  0.250105  0.999922  1
  Ru  Ru10  1  0.602225  0.924628  0.779078  1
  Ru  Ru11  1  0.822268  0.576384  0.220775  1
  Ru  Ru12  1  0.398478  0.075580  0.220598  1
  Ru  Ru13  1  0.177433  0.423050  0.779363  1
