# generated using pymatgen
data_AcLa(GaNi)2
_symmetry_space_group_name_H-M   'P 1'
_cell_length_a   6.17582724
_cell_length_b   6.44019600
_cell_length_c   7.86540385
_cell_angle_alpha   90.00000000
_cell_angle_beta   123.49310568
_cell_angle_gamma   90.00000000
_symmetry_Int_Tables_number   1
_chemical_formula_structural   AcLa(GaNi)2
_chemical_formula_sum   'Ac2 La2 Ga4 Ni4'
_cell_volume   260.88939421
_cell_formula_units_Z   2
loop_
 _symmetry_equiv_pos_site_id
 _symmetry_equiv_pos_as_xyz
  1  'x, y, z'
loop_
 _atom_site_type_symbol
 _atom_site_label
 _atom_site_symmetry_multiplicity
 _atom_site_fract_x
 _atom_site_fract_y
 _atom_site_fract_z
 _atom_site_occupancy
  Ac  Ac0  1  0.712152  0.857879  0.915068  1
  Ac  Ac1  1  0.287848  0.357879  0.584932  1
  La  La2  1  0.288400  0.148464  0.083829  1
  La  La3  1  0.711600  0.648464  0.416171  1
  Ga  Ga4  1  0.232873  0.864416  0.416220  1
  Ga  Ga5  1  0.767127  0.364416  0.083780  1
  Ga  Ga6  1  0.763294  0.138495  0.575875  1
  Ga  Ga7  1  0.236706  0.638495  0.924125  1
  Ni  Ni8  1  0.860973  0.089309  0.320270  1
  Ni  Ni9  1  0.139027  0.589309  0.179730  1
  Ni  Ni10  1  0.125345  0.901437  0.671489  1
  Ni  Ni11  1  0.874655  0.401437  0.828511  1
