# generated using pymatgen
data_Tb3Yb(PbAu2)2
_symmetry_space_group_name_H-M   'P 1'
_cell_length_a   8.16482603
_cell_length_b   8.16482603
_cell_length_c   3.70377800
_cell_angle_alpha   90.00000000
_cell_angle_beta   90.00000000
_cell_angle_gamma   90.09866453
_symmetry_Int_Tables_number   1
_chemical_formula_structural   Tb3Yb(PbAu2)2
_chemical_formula_sum   'Tb3 Yb1 Pb2 Au4'
_cell_volume   246.90971291
_cell_formula_units_Z   1
loop_
 _symmetry_equiv_pos_site_id
 _symmetry_equiv_pos_as_xyz
  1  'x, y, z'
loop_
 _atom_site_type_symbol
 _atom_site_label
 _atom_site_symmetry_multiplicity
 _atom_site_fract_x
 _atom_site_fract_y
 _atom_site_fract_z
 _atom_site_occupancy
  Tb  Tb0  1  0.328956  0.830082  0.000000  1
  Tb  Tb1  1  0.669918  0.171044  0.000000  1
  Tb  Tb2  1  0.830337  0.669663  0.000000  1
  Yb  Yb3  1  0.170780  0.329220  0.000000  1
  Pb  Pb4  1  0.000339  0.003091  0.500000  1
  Pb  Pb5  1  0.496909  0.499661  0.500000  1
  Au  Au6  1  0.375386  0.124614  0.500000  1
  Au  Au7  1  0.625954  0.874046  0.500000  1
  Au  Au8  1  0.876398  0.374979  0.500000  1
  Au  Au9  1  0.125021  0.623602  0.500000  1
