# generated using pymatgen
data_La6YbOsCl12
_symmetry_space_group_name_H-M   'P 1'
_cell_length_a   9.35109525
_cell_length_b   9.35630253
_cell_length_c   9.13230600
_cell_angle_alpha   107.04934523
_cell_angle_beta   107.07123104
_cell_angle_gamma   107.33692427
_symmetry_Int_Tables_number   1
_chemical_formula_structural   La6YbOsCl12
_chemical_formula_sum   'La6 Yb1 Os1 Cl12'
_cell_volume   662.62384289
_cell_formula_units_Z   1
loop_
 _symmetry_equiv_pos_site_id
 _symmetry_equiv_pos_as_xyz
  1  'x, y, z'
loop_
 _atom_site_type_symbol
 _atom_site_label
 _atom_site_symmetry_multiplicity
 _atom_site_fract_x
 _atom_site_fract_y
 _atom_site_fract_z
 _atom_site_occupancy
  La  La0  1  0.117901  0.333226  0.026714  1
  La  La1  1  0.334411  0.028520  0.120466  1
  La  La2  1  0.027029  0.109545  0.316929  1
  La  La3  1  0.972971  0.890456  0.683071  1
  La  La4  1  0.665589  0.971481  0.879534  1
  La  La5  1  0.882099  0.666774  0.973286  1
  Yb  Yb6  1  0.500000  0.500000  0.500000  1
  Os  Os7  1  0.000000  0.000000  0.000000  1
  Cl  Cl8  1  0.215562  0.686227  0.069552  1
  Cl  Cl9  1  0.459939  0.379980  0.174464  1
  Cl  Cl10  1  0.685514  0.069725  0.216254  1
  Cl  Cl11  1  0.930893  0.782894  0.317741  1
  Cl  Cl12  1  0.180070  0.459921  0.382637  1
  Cl  Cl13  1  0.383371  0.180195  0.464364  1
  Cl  Cl14  1  0.616629  0.819805  0.535637  1
  Cl  Cl15  1  0.819930  0.540079  0.617363  1
  Cl  Cl16  1  0.069107  0.217106  0.682260  1
  Cl  Cl17  1  0.314486  0.930275  0.783746  1
  Cl  Cl18  1  0.540061  0.620020  0.825537  1
  Cl  Cl19  1  0.784438  0.313774  0.930448  1
