# generated using pymatgen
data_Np2Te4Cl10F
_symmetry_space_group_name_H-M   'P 1'
_cell_length_a   7.07621270
_cell_length_b   8.95828436
_cell_length_c   9.47064300
_cell_angle_alpha   99.93611489
_cell_angle_beta   89.25467851
_cell_angle_gamma   105.00398565
_symmetry_Int_Tables_number   1
_chemical_formula_structural   Np2Te4Cl10F
_chemical_formula_sum   'Np2 Te4 Cl10 F1'
_cell_volume   570.86945332
_cell_formula_units_Z   1
loop_
 _symmetry_equiv_pos_site_id
 _symmetry_equiv_pos_as_xyz
  1  'x, y, z'
loop_
 _atom_site_type_symbol
 _atom_site_label
 _atom_site_symmetry_multiplicity
 _atom_site_fract_x
 _atom_site_fract_y
 _atom_site_fract_z
 _atom_site_occupancy
  Np  Np0  1  0.479376  0.654762  0.346859  1
  Np  Np1  1  0.520624  0.345238  0.653141  1
  Te  Te2  1  0.820135  0.906079  0.837665  1
  Te  Te3  1  0.919088  0.189879  0.014843  1
  Te  Te4  1  0.080912  0.810121  0.985157  1
  Te  Te5  1  0.179865  0.093921  0.162335  1
  Cl  Cl6  1  0.547917  0.156780  0.829116  1
  Cl  Cl7  1  0.619888  0.477875  0.163134  1
  Cl  Cl8  1  0.178132  0.191074  0.569666  1
  Cl  Cl9  1  0.864221  0.533415  0.725097  1
  Cl  Cl10  1  0.380112  0.522125  0.836866  1
  Cl  Cl11  1  0.658751  0.195069  0.448785  1
  Cl  Cl12  1  0.135779  0.466585  0.274903  1
  Cl  Cl13  1  0.341249  0.804931  0.551215  1
  Cl  Cl14  1  0.821868  0.808926  0.430334  1
  Cl  Cl15  1  0.452083  0.843220  0.170884  1
  F  F16  1  0.500000  0.500000  0.500000  1
