# generated using pymatgen
data_Mg2Mn2As(PN2)6
_symmetry_space_group_name_H-M   'P 1'
_cell_length_a   7.28315557
_cell_length_b   7.24386975
_cell_length_c   7.28315614
_cell_angle_alpha   109.75529943
_cell_angle_beta   109.12554145
_cell_angle_gamma   109.75529065
_symmetry_Int_Tables_number   1
_chemical_formula_structural   Mg2Mn2As(PN2)6
_chemical_formula_sum   'Mg2 Mn2 As1 P6 N12'
_cell_volume   294.96923731
_cell_formula_units_Z   1
loop_
 _symmetry_equiv_pos_site_id
 _symmetry_equiv_pos_as_xyz
  1  'x, y, z'
loop_
 _atom_site_type_symbol
 _atom_site_label
 _atom_site_symmetry_multiplicity
 _atom_site_fract_x
 _atom_site_fract_y
 _atom_site_fract_z
 _atom_site_occupancy
  Mg  Mg0  1  0.650416  0.000000  0.999126  1
  Mg  Mg1  1  0.999126  0.000000  0.650416  1
  Mn  Mn2  1  0.349039  0.343994  0.349039  1
  Mn  Mn3  1  0.005045  0.656006  0.005045  1
  As  As4  1  0.008683  0.000000  0.008683  1
  P  P5  1  0.498482  0.250247  0.749597  1
  P  P6  1  0.499349  0.749753  0.248235  1
  P  P7  1  0.749597  0.250247  0.498482  1
  P  P8  1  0.249809  0.500000  0.749809  1
  P  P9  1  0.749809  0.500000  0.249809  1
  P  P10  1  0.248235  0.749753  0.499349  1
  N  N11  1  0.999586  0.723075  0.435649  1
  N  N12  1  0.276663  0.712563  0.276663  1
  N  N13  1  0.284624  0.561060  0.560821  1
  N  N14  1  0.560821  0.561060  0.284624  1
  N  N15  1  0.564100  0.287437  0.564100  1
  N  N16  1  0.723162  0.000000  0.435394  1
  N  N17  1  0.435394  0.000000  0.723162  1
  N  N18  1  0.723564  0.438940  0.999762  1
  N  N19  1  0.276511  0.276925  0.712574  1
  N  N20  1  0.712574  0.276925  0.276511  1
  N  N21  1  0.999762  0.438940  0.723564  1
  N  N22  1  0.435649  0.723075  0.999586  1
