# generated using pymatgen
data_Tb8Zr12Si15Pd
_symmetry_space_group_name_H-M   'P 1'
_cell_length_a   7.34430811
_cell_length_b   7.38785834
_cell_length_c   13.56502734
_cell_angle_alpha   89.89425207
_cell_angle_beta   89.84313698
_cell_angle_gamma   90.05429273
_symmetry_Int_Tables_number   1
_chemical_formula_structural   Tb8Zr12Si15Pd
_chemical_formula_sum   'Tb8 Zr12 Si15 Pd1'
_cell_volume   736.01651046
_cell_formula_units_Z   1
loop_
 _symmetry_equiv_pos_site_id
 _symmetry_equiv_pos_as_xyz
  1  'x, y, z'
loop_
 _atom_site_type_symbol
 _atom_site_label
 _atom_site_symmetry_multiplicity
 _atom_site_fract_x
 _atom_site_fract_y
 _atom_site_fract_z
 _atom_site_occupancy
  Tb  Tb0  1  0.993083  0.349253  0.212871  1
  Tb  Tb1  1  0.004978  0.653029  0.713876  1
  Tb  Tb2  1  0.154875  0.498238  0.463895  1
  Tb  Tb3  1  0.504106  0.844602  0.034374  1
  Tb  Tb4  1  0.845531  0.502756  0.963892  1
  Tb  Tb5  1  0.497212  0.153772  0.538924  1
  Tb  Tb6  1  0.345510  0.997983  0.786464  1
  Tb  Tb7  1  0.659769  0.998914  0.284733  1
  Zr  Zr8  1  0.175229  0.177025  0.998900  1
  Zr  Zr9  1  0.826531  0.824117  0.500256  1
  Zr  Zr10  1  0.324965  0.681519  0.249789  1
  Zr  Zr11  1  0.676210  0.324227  0.750304  1
  Zr  Zr12  1  0.147899  0.000832  0.373852  1
  Zr  Zr13  1  0.852823  0.003453  0.875005  1
  Zr  Zr14  1  0.504144  0.648292  0.625178  1
  Zr  Zr15  1  0.353313  0.495983  0.874460  1
  Zr  Zr16  1  0.492140  0.349782  0.124559  1
  Zr  Zr17  1  0.647735  0.509143  0.380544  1
  Zr  Zr18  1  0.997045  0.146910  0.625820  1
  Zr  Zr19  1  0.000016  0.849668  0.122848  1
  Si  Si20  1  0.639039  0.707389  0.817605  1
  Si  Si21  1  0.205973  0.861182  0.566319  1
  Si  Si22  1  0.138908  0.793757  0.932480  1
  Si  Si23  1  0.794149  0.138938  0.065873  1
  Si  Si24  1  0.858321  0.202190  0.435317  1
  Si  Si25  1  0.294616  0.360946  0.684208  1
  Si  Si26  1  0.703307  0.639434  0.183589  1
  Si  Si27  1  0.291311  0.046711  0.182267  1
  Si  Si28  1  0.705720  0.948439  0.687046  1
  Si  Si29  1  0.447244  0.796912  0.437620  1
  Si  Si30  1  0.204593  0.551713  0.062440  1
  Si  Si31  1  0.550724  0.204681  0.936529  1
  Si  Si32  1  0.795634  0.447608  0.565143  1
  Si  Si33  1  0.050758  0.295685  0.813245  1
  Si  Si34  1  0.949282  0.706201  0.312589  1
  Pd  Pd35  1  0.367309  0.288716  0.317186  1
