# generated using pymatgen
data_YLu7(CdPt)2
_symmetry_space_group_name_H-M   'P 1'
_cell_length_a   9.51518933
_cell_length_b   9.51519043
_cell_length_c   9.50536200
_cell_angle_alpha   60.03416283
_cell_angle_beta   60.03415900
_cell_angle_gamma   59.93167850
_symmetry_Int_Tables_number   1
_chemical_formula_structural   YLu7(CdPt)2
_chemical_formula_sum   'Y2 Lu14 Cd4 Pt4'
_cell_volume   608.53793570
_cell_formula_units_Z   2
loop_
 _symmetry_equiv_pos_site_id
 _symmetry_equiv_pos_as_xyz
  1  'x, y, z'
loop_
 _atom_site_type_symbol
 _atom_site_label
 _atom_site_symmetry_multiplicity
 _atom_site_fract_x
 _atom_site_fract_y
 _atom_site_fract_z
 _atom_site_occupancy
  Y  Y0  1  0.815752  0.815752  0.184248  1
  Y  Y1  1  0.184248  0.184248  0.815752  1
  Lu  Lu2  1  0.602521  0.602521  0.603070  1
  Lu  Lu3  1  0.602521  0.602521  0.191888  1
  Lu  Lu4  1  0.603070  0.191888  0.602521  1
  Lu  Lu5  1  0.191888  0.603070  0.602521  1
  Lu  Lu6  1  0.060668  0.439332  0.439332  1
  Lu  Lu7  1  0.439332  0.060668  0.060668  1
  Lu  Lu8  1  0.439332  0.060668  0.439332  1
  Lu  Lu9  1  0.060668  0.439332  0.060668  1
  Lu  Lu10  1  0.439428  0.439428  0.060572  1
  Lu  Lu11  1  0.060572  0.060572  0.439428  1
  Lu  Lu12  1  0.186556  0.813444  0.813444  1
  Lu  Lu13  1  0.813444  0.186556  0.186556  1
  Lu  Lu14  1  0.813444  0.186556  0.813444  1
  Lu  Lu15  1  0.186556  0.813444  0.186556  1
  Cd  Cd16  1  0.832421  0.832421  0.831237  1
  Cd  Cd17  1  0.832421  0.832421  0.503922  1
  Cd  Cd18  1  0.831237  0.503922  0.832421  1
  Cd  Cd19  1  0.503922  0.831237  0.832421  1
  Pt  Pt20  1  0.393638  0.393638  0.392654  1
  Pt  Pt21  1  0.393638  0.393638  0.820069  1
  Pt  Pt22  1  0.392654  0.820069  0.393638  1
  Pt  Pt23  1  0.820069  0.392654  0.393638  1
