# generated using pymatgen
data_Ta2Co2Ni19B6
_symmetry_space_group_name_H-M   'P 1'
_cell_length_a   7.42910864
_cell_length_b   7.43029592
_cell_length_c   7.43029606
_cell_angle_alpha   59.99456814
_cell_angle_beta   60.00529280
_cell_angle_gamma   60.00528726
_symmetry_Int_Tables_number   1
_chemical_formula_structural   Ta2Co2Ni19B6
_chemical_formula_sum   'Ta2 Co2 Ni19 B6'
_cell_volume   290.03527911
_cell_formula_units_Z   1
loop_
 _symmetry_equiv_pos_site_id
 _symmetry_equiv_pos_as_xyz
  1  'x, y, z'
loop_
 _atom_site_type_symbol
 _atom_site_label
 _atom_site_symmetry_multiplicity
 _atom_site_fract_x
 _atom_site_fract_y
 _atom_site_fract_z
 _atom_site_occupancy
  Ta  Ta0  1  0.745788  0.754212  0.754212  1
  Ta  Ta1  1  0.249788  0.250212  0.250212  1
  Co  Co2  1  0.616269  0.616673  0.150789  1
  Co  Co3  1  0.616269  0.150789  0.616673  1
  Ni  Ni4  1  0.999617  0.000383  0.000383  1
  Ni  Ni5  1  0.153378  0.615544  0.615544  1
  Ni  Ni6  1  0.615534  0.615544  0.615544  1
  Ni  Ni7  1  0.384167  0.384343  0.847323  1
  Ni  Ni8  1  0.384167  0.847323  0.384343  1
  Ni  Ni9  1  0.847607  0.384133  0.384133  1
  Ni  Ni10  1  0.384127  0.384133  0.384133  1
  Ni  Ni11  1  0.000847  0.999886  0.339284  1
  Ni  Ni12  1  0.659983  0.999886  0.339284  1
  Ni  Ni13  1  0.000291  0.659636  0.339781  1
  Ni  Ni14  1  0.659983  0.339284  0.999886  1
  Ni  Ni15  1  0.000847  0.339284  0.999886  1
  Ni  Ni16  1  0.000291  0.339781  0.659636  1
  Ni  Ni17  1  0.339516  0.659002  0.000294  1
  Ni  Ni18  1  0.339516  0.000294  0.659002  1
  Ni  Ni19  1  0.338877  0.000843  0.000843  1
  Ni  Ni20  1  0.001188  0.000294  0.659002  1
  Ni  Ni21  1  0.001188  0.659002  0.000294  1
  Ni  Ni22  1  0.659436  0.000843  0.000843  1
  B  B23  1  0.730285  0.730135  0.267767  1
  B  B24  1  0.271813  0.730135  0.267767  1
  B  B25  1  0.728827  0.271173  0.271173  1
  B  B26  1  0.271813  0.267767  0.730135  1
  B  B27  1  0.730285  0.267767  0.730135  1
  B  B28  1  0.268305  0.731695  0.731695  1
