# generated using pymatgen
data_Yb6Co13CuC4
_symmetry_space_group_name_H-M   'P 1'
_cell_length_a   5.06403900
_cell_length_b   5.06403852
_cell_length_c   13.62612000
_cell_angle_alpha   90.00000000
_cell_angle_beta   90.00000000
_cell_angle_gamma   120.00002273
_symmetry_Int_Tables_number   1
_chemical_formula_structural   Yb6Co13CuC4
_chemical_formula_sum   'Yb6 Co13 Cu1 C4'
_cell_volume   302.61941246
_cell_formula_units_Z   1
loop_
 _symmetry_equiv_pos_site_id
 _symmetry_equiv_pos_as_xyz
  1  'x, y, z'
loop_
 _atom_site_type_symbol
 _atom_site_label
 _atom_site_symmetry_multiplicity
 _atom_site_fract_x
 _atom_site_fract_y
 _atom_site_fract_z
 _atom_site_occupancy
  Yb  Yb0  1  0.666667  0.333333  0.536257  1
  Yb  Yb1  1  0.333333  0.666667  0.463743  1
  Yb  Yb2  1  0.333333  0.666667  0.036108  1
  Yb  Yb3  1  0.666667  0.333333  0.749407  1
  Yb  Yb4  1  0.666667  0.333333  0.963892  1
  Yb  Yb5  1  0.333333  0.666667  0.250593  1
  Co  Co6  1  0.166440  0.332880  0.652212  1
  Co  Co7  1  0.332880  0.166440  0.347788  1
  Co  Co8  1  0.330007  0.165004  0.158065  1
  Co  Co9  1  0.165004  0.834996  0.841935  1
  Co  Co10  1  0.833560  0.667120  0.347788  1
  Co  Co11  1  0.834996  0.165004  0.158065  1
  Co  Co12  1  0.667120  0.833560  0.652212  1
  Co  Co13  1  0.669993  0.834996  0.841935  1
  Co  Co14  1  0.166440  0.833560  0.652212  1
  Co  Co15  1  0.834996  0.669993  0.158065  1
  Co  Co16  1  0.165004  0.330007  0.841935  1
  Co  Co17  1  0.833560  0.166440  0.347788  1
  Co  Co18  1  0.000000  0.000000  0.500000  1
  Cu  Cu19  1  0.000000  0.000000  0.000000  1
  C  C20  1  0.666667  0.333333  0.249282  1
  C  C21  1  0.000000  0.000000  0.748180  1
  C  C22  1  0.333333  0.666667  0.750718  1
  C  C23  1  0.000000  0.000000  0.251820  1
