# generated using pymatgen
data_LiGd(WO4)2
_symmetry_space_group_name_H-M   'P 1'
_cell_length_a   6.06703300
_cell_length_b   5.08466111
_cell_length_c   11.10691164
_cell_angle_alpha   65.65780772
_cell_angle_beta   90.00000000
_cell_angle_gamma   90.00000000
_symmetry_Int_Tables_number   1
_chemical_formula_structural   LiGd(WO4)2
_chemical_formula_sum   'Li2 Gd2 W4 O16'
_cell_volume   312.17471945
_cell_formula_units_Z   2
loop_
 _symmetry_equiv_pos_site_id
 _symmetry_equiv_pos_as_xyz
  1  'x, y, z'
loop_
 _atom_site_type_symbol
 _atom_site_label
 _atom_site_symmetry_multiplicity
 _atom_site_fract_x
 _atom_site_fract_y
 _atom_site_fract_z
 _atom_site_occupancy
  Li  Li0  1  0.245498  0.500000  0.750000  1
  Li  Li1  1  0.754502  0.500000  0.250000  1
  Gd  Gd2  1  0.666896  0.000000  0.750000  1
  Gd  Gd3  1  0.333104  0.000000  0.250000  1
  W  W4  1  0.168330  0.235577  0.513387  1
  W  W5  1  0.831670  0.764423  0.486613  1
  W  W6  1  0.168330  0.764423  0.986613  1
  W  W7  1  0.831670  0.235577  0.013387  1
  O  O8  1  0.634876  0.781591  0.607870  1
  O  O9  1  0.365124  0.218409  0.392130  1
  O  O10  1  0.634876  0.218409  0.892130  1
  O  O11  1  0.365124  0.781591  0.107870  1
  O  O12  1  0.353711  0.269067  0.636218  1
  O  O13  1  0.646289  0.730933  0.363782  1
  O  O14  1  0.353711  0.730933  0.863782  1
  O  O15  1  0.646289  0.269067  0.136218  1
  O  O16  1  0.087097  0.841058  0.609331  1
  O  O17  1  0.912903  0.158942  0.390669  1
  O  O18  1  0.087097  0.158942  0.890669  1
  O  O19  1  0.912903  0.841058  0.109331  1
  O  O20  1  0.889201  0.345513  0.596296  1
  O  O21  1  0.110799  0.654487  0.403704  1
  O  O22  1  0.889201  0.654487  0.903704  1
  O  O23  1  0.110799  0.345513  0.096296  1
