# generated using pymatgen
data_YTmI26
_symmetry_space_group_name_H-M   'P 1'
_cell_length_a   12.93333315
_cell_length_b   11.52744777
_cell_length_c   15.34789423
_cell_angle_alpha   122.31493591
_cell_angle_beta   88.61762602
_cell_angle_gamma   105.81820405
_symmetry_Int_Tables_number   1
_chemical_formula_structural   YTmI26
_chemical_formula_sum   'Y1 Tm1 I26'
_cell_volume   1839.65170289
_cell_formula_units_Z   1
loop_
 _symmetry_equiv_pos_site_id
 _symmetry_equiv_pos_as_xyz
  1  'x, y, z'
loop_
 _atom_site_type_symbol
 _atom_site_label
 _atom_site_symmetry_multiplicity
 _atom_site_fract_x
 _atom_site_fract_y
 _atom_site_fract_z
 _atom_site_occupancy
  Y  Y0  1  0.671292  0.133387  0.064360  1
  Tm  Tm1  1  0.329299  0.865788  0.935850  1
  I  I2  1  0.379970  0.654855  0.974506  1
  I  I3  1  0.615569  0.340489  0.020709  1
  I  I4  1  0.578799  0.808202  0.392042  1
  I  I5  1  0.427095  0.197516  0.605654  1
  I  I6  1  0.731601  0.695120  0.010683  1
  I  I7  1  0.266001  0.304244  0.991245  1
  I  I8  1  0.713444  0.969067  0.161939  1
  I  I9  1  0.283409  0.028233  0.841098  1
  I  I10  1  0.444143  0.131991  0.137026  1
  I  I11  1  0.551713  0.862940  0.861167  1
  I  I12  1  0.230893  0.649432  0.706618  1
  I  I13  1  0.768062  0.351990  0.296803  1
  I  I14  1  0.117358  0.822715  0.999601  1
  I  I15  1  0.886197  0.176082  0.000991  1
  I  I16  1  0.090099  0.089004  0.215783  1
  I  I17  1  0.909025  0.907369  0.784046  1
  I  I18  1  0.278331  0.912959  0.456366  1
  I  I19  1  0.725838  0.092666  0.543493  1
  I  I20  1  0.328122  0.419098  0.649335  1
  I  I21  1  0.674018  0.583704  0.350007  1
  I  I22  1  0.857061  0.391214  0.704782  1
  I  I23  1  0.144603  0.615585  0.297285  1
  I  I24  1  0.946619  0.684387  0.598100  1
  I  I25  1  0.051751  0.311043  0.401315  1
  I  I26  1  0.254163  0.623071  0.128482  1
  I  I27  1  0.745526  0.377850  0.870716  1
