# generated using pymatgen
data_KMnSF
_symmetry_space_group_name_H-M   'P 1'
_cell_length_a   6.38297000
_cell_length_b   8.21576200
_cell_length_c   14.70848600
_cell_angle_alpha   90.00000000
_cell_angle_beta   90.00000000
_cell_angle_gamma   90.00000000
_symmetry_Int_Tables_number   1
_chemical_formula_structural   KMnSF
_chemical_formula_sum   'K8 Mn8 S8 F8'
_cell_volume   771.32716089
_cell_formula_units_Z   8
loop_
 _symmetry_equiv_pos_site_id
 _symmetry_equiv_pos_as_xyz
  1  'x, y, z'
loop_
 _atom_site_type_symbol
 _atom_site_label
 _atom_site_symmetry_multiplicity
 _atom_site_fract_x
 _atom_site_fract_y
 _atom_site_fract_z
 _atom_site_occupancy
  K  K0  1  0.247543  0.375612  0.084961  1
  K  K1  1  0.252458  0.875612  0.084961  1
  K  K2  1  0.747542  0.375612  0.415039  1
  K  K3  1  0.752457  0.875612  0.415039  1
  K  K4  1  0.247543  0.124387  0.584961  1
  K  K5  1  0.252458  0.624388  0.584961  1
  K  K6  1  0.747542  0.124387  0.915039  1
  K  K7  1  0.752457  0.624388  0.915039  1
  Mn  Mn8  1  0.797179  0.125588  0.172064  1
  Mn  Mn9  1  0.702822  0.625587  0.172064  1
  Mn  Mn10  1  0.297178  0.125588  0.327936  1
  Mn  Mn11  1  0.202821  0.625587  0.327936  1
  Mn  Mn12  1  0.797179  0.374413  0.672064  1
  Mn  Mn13  1  0.702822  0.874413  0.672064  1
  Mn  Mn14  1  0.297178  0.374413  0.827936  1
  Mn  Mn15  1  0.202821  0.874413  0.827936  1
  S  S16  1  0.747970  0.375298  0.089149  1
  S  S17  1  0.752031  0.875298  0.089149  1
  S  S18  1  0.247969  0.375298  0.410852  1
  S  S19  1  0.252030  0.875298  0.410852  1
  S  S20  1  0.747970  0.124703  0.589149  1
  S  S21  1  0.752031  0.624702  0.589149  1
  S  S22  1  0.247969  0.124703  0.910852  1
  S  S23  1  0.252030  0.624702  0.910852  1
  F  F24  1  0.125968  0.125648  0.206507  1
  F  F25  1  0.374032  0.625648  0.206507  1
  F  F26  1  0.625968  0.125648  0.293493  1
  F  F27  1  0.874031  0.625648  0.293493  1
  F  F28  1  0.125968  0.374353  0.706508  1
  F  F29  1  0.374032  0.874352  0.706508  1
  F  F30  1  0.625968  0.374353  0.793493  1
  F  F31  1  0.874031  0.874352  0.793493  1
