# generated using pymatgen
data_Li2CeNdSb4
_symmetry_space_group_name_H-M   'P 1'
_cell_length_a   4.35159000
_cell_length_b   4.35159000
_cell_length_c   10.66767000
_cell_angle_alpha   90.00000000
_cell_angle_beta   90.00000000
_cell_angle_gamma   90.00000000
_symmetry_Int_Tables_number   1
_chemical_formula_structural   Li2CeNdSb4
_chemical_formula_sum   'Li2 Ce1 Nd1 Sb4'
_cell_volume   202.00657842
_cell_formula_units_Z   1
loop_
 _symmetry_equiv_pos_site_id
 _symmetry_equiv_pos_as_xyz
  1  'x, y, z'
loop_
 _atom_site_type_symbol
 _atom_site_label
 _atom_site_symmetry_multiplicity
 _atom_site_fract_x
 _atom_site_fract_y
 _atom_site_fract_z
 _atom_site_occupancy
  Li  Li0  1  0.500000  0.500000  0.500273  1
  Li  Li1  1  0.000000  0.000000  0.500273  1
  Ce  Ce2  1  0.000000  0.500000  0.765430  1
  Nd  Nd3  1  0.500000  0.000000  0.231481  1
  Sb  Sb4  1  0.500000  0.500000  0.995485  1
  Sb  Sb5  1  0.000000  0.000000  0.995485  1
  Sb  Sb6  1  0.000000  0.500000  0.340198  1
  Sb  Sb7  1  0.500000  0.000000  0.671374  1
