# generated using pymatgen
data_Y5HoAl17Si7Os8
_symmetry_space_group_name_H-M   'P 1'
_cell_length_a   8.70614806
_cell_length_b   8.69604964
_cell_length_c   9.49592400
_cell_angle_alpha   90.00000000
_cell_angle_beta   90.00000000
_cell_angle_gamma   120.10000771
_symmetry_Int_Tables_number   1
_chemical_formula_structural   Y5HoAl17Si7Os8
_chemical_formula_sum   'Y5 Ho1 Al17 Si7 Os8'
_cell_volume   621.98137492
_cell_formula_units_Z   1
loop_
 _symmetry_equiv_pos_site_id
 _symmetry_equiv_pos_as_xyz
  1  'x, y, z'
loop_
 _atom_site_type_symbol
 _atom_site_label
 _atom_site_symmetry_multiplicity
 _atom_site_fract_x
 _atom_site_fract_y
 _atom_site_fract_z
 _atom_site_occupancy
  Y  Y0  1  0.192725  0.387682  0.250000  1
  Y  Y1  1  0.807402  0.614629  0.750000  1
  Y  Y2  1  0.611424  0.807485  0.250000  1
  Y  Y3  1  0.387457  0.191029  0.750000  1
  Y  Y4  1  0.803273  0.191504  0.750000  1
  Ho  Ho5  1  0.196041  0.805346  0.250000  1
  Al  Al6  1  0.164554  0.329887  0.577903  1
  Al  Al7  1  0.834199  0.670890  0.421215  1
  Al  Al8  1  0.670949  0.834714  0.577434  1
  Al  Al9  1  0.834199  0.670890  0.078785  1
  Al  Al10  1  0.329929  0.165933  0.422375  1
  Al  Al11  1  0.164554  0.329887  0.922097  1
  Al  Al12  1  0.163711  0.834180  0.576221  1
  Al  Al13  1  0.329929  0.165933  0.077625  1
  Al  Al14  1  0.835234  0.164369  0.421793  1
  Al  Al15  1  0.670949  0.834714  0.922566  1
  Al  Al16  1  0.835234  0.164369  0.078207  1
  Al  Al17  1  0.163711  0.834180  0.923779  1
  Al  Al18  1  0.126072  0.565800  0.750000  1
  Al  Al19  1  0.564827  0.434970  0.250000  1
  Al  Al20  1  0.438761  0.566532  0.750000  1
  Al  Al21  1  0.999952  0.998952  0.250000  1
  Al  Al22  1  0.000044  0.000643  0.750000  1
  Si  Si23  1  0.333135  0.664783  0.038477  1
  Si  Si24  1  0.666456  0.335735  0.961115  1
  Si  Si25  1  0.666456  0.335735  0.538885  1
  Si  Si26  1  0.333135  0.664783  0.461523  1
  Si  Si27  1  0.564630  0.124453  0.250000  1
  Si  Si28  1  0.436326  0.872812  0.750000  1
  Si  Si29  1  0.874752  0.435103  0.250000  1
  Os  Os30  1  0.500494  0.000806  0.001286  1
  Os  Os31  1  0.998525  0.499657  0.006999  1
  Os  Os32  1  0.500494  0.000806  0.498714  1
  Os  Os33  1  0.500583  0.500177  0.000452  1
  Os  Os34  1  0.998525  0.499657  0.493001  1
  Os  Os35  1  0.500583  0.500177  0.499548  1
  Os  Os36  1  0.000389  0.000397  0.000159  1
  Os  Os37  1  0.000389  0.000397  0.499841  1
