# generated using pymatgen
data_Ac8Ho12Si15Tc
_symmetry_space_group_name_H-M   'P 1'
_cell_length_a   7.58101000
_cell_length_b   7.99634108
_cell_length_c   15.00850200
_cell_angle_alpha   90.00000000
_cell_angle_beta   90.00000000
_cell_angle_gamma   90.14633605
_symmetry_Int_Tables_number   1
_chemical_formula_structural   Ac8Ho12Si15Tc
_chemical_formula_sum   'Ac8 Ho12 Si15 Tc1'
_cell_volume   909.81755214
_cell_formula_units_Z   1
loop_
 _symmetry_equiv_pos_site_id
 _symmetry_equiv_pos_as_xyz
  1  'x, y, z'
loop_
 _atom_site_type_symbol
 _atom_site_label
 _atom_site_symmetry_multiplicity
 _atom_site_fract_x
 _atom_site_fract_y
 _atom_site_fract_z
 _atom_site_occupancy
  Ac  Ac0  1  0.015941  0.178502  0.097979  1
  Ac  Ac1  1  0.985829  0.831980  0.901433  1
  Ac  Ac2  1  0.485064  0.669861  0.904509  1
  Ac  Ac3  1  0.985829  0.831980  0.598567  1
  Ac  Ac4  1  0.516150  0.327059  0.096145  1
  Ac  Ac5  1  0.015941  0.178502  0.402021  1
  Ac  Ac6  1  0.516150  0.327059  0.403855  1
  Ac  Ac7  1  0.485064  0.669861  0.595491  1
  Ho  Ho8  1  0.148152  0.495726  0.750000  1
  Ho  Ho9  1  0.845425  0.496072  0.250000  1
  Ho  Ho10  1  0.341889  0.010151  0.250000  1
  Ho  Ho11  1  0.660222  0.998283  0.750000  1
  Ho  Ho12  1  0.312988  0.173776  0.626983  1
  Ho  Ho13  1  0.678705  0.828325  0.374168  1
  Ho  Ho14  1  0.180175  0.677795  0.375140  1
  Ho  Ho15  1  0.678705  0.828325  0.125832  1
  Ho  Ho16  1  0.832416  0.313495  0.626355  1
  Ho  Ho17  1  0.312988  0.173776  0.873017  1
  Ho  Ho18  1  0.832416  0.313495  0.873645  1
  Ho  Ho19  1  0.180175  0.677795  0.124860  1
  Si  Si20  1  0.974754  0.871416  0.250000  1
  Si  Si21  1  0.475149  0.625951  0.250000  1
  Si  Si22  1  0.527064  0.379383  0.750000  1
  Si  Si23  1  0.280172  0.881236  0.750000  1
  Si  Si24  1  0.713859  0.121308  0.250000  1
  Si  Si25  1  0.218048  0.382163  0.250000  1
  Si  Si26  1  0.772514  0.609757  0.750000  1
  Si  Si27  1  0.144809  0.470438  0.537598  1
  Si  Si28  1  0.857787  0.538797  0.461726  1
  Si  Si29  1  0.355401  0.965186  0.460645  1
  Si  Si30  1  0.857787  0.538797  0.038274  1
  Si  Si31  1  0.641019  0.031462  0.538487  1
  Si  Si32  1  0.144809  0.470438  0.962402  1
  Si  Si33  1  0.641019  0.031462  0.961513  1
  Si  Si34  1  0.355401  0.965186  0.039355  1
  Tc  Tc35  1  0.030177  0.115202  0.750000  1
