# generated using pymatgen
data_K3RbIn2(BSe)18
_symmetry_space_group_name_H-M   'P 1'
_cell_length_a   10.02170485
_cell_length_b   10.72476757
_cell_length_c   11.20010018
_cell_angle_alpha   100.64184175
_cell_angle_beta   91.55957082
_cell_angle_gamma   116.27539552
_symmetry_Int_Tables_number   1
_chemical_formula_structural   K3RbIn2(BSe)18
_chemical_formula_sum   'K3 Rb1 In2 B18 Se18'
_cell_volume   1052.70594182
_cell_formula_units_Z   1
loop_
 _symmetry_equiv_pos_site_id
 _symmetry_equiv_pos_as_xyz
  1  'x, y, z'
loop_
 _atom_site_type_symbol
 _atom_site_label
 _atom_site_symmetry_multiplicity
 _atom_site_fract_x
 _atom_site_fract_y
 _atom_site_fract_z
 _atom_site_occupancy
  K  K0  1  0.790156  0.175924  0.008297  1
  K  K1  1  0.210387  0.824395  0.991375  1
  K  K2  1  0.177737  0.348002  0.505351  1
  Rb  Rb3  1  0.825679  0.655511  0.490386  1
  In  In4  1  0.331548  0.344375  0.060531  1
  In  In5  1  0.667553  0.655828  0.940150  1
  B  B6  1  0.518122  0.164798  0.553725  1
  B  B7  1  0.481918  0.835002  0.446372  1
  B  B8  1  0.661839  0.118961  0.591673  1
  B  B9  1  0.338008  0.880699  0.408167  1
  B  B10  1  0.485658  0.042904  0.649597  1
  B  B11  1  0.514021  0.956684  0.350324  1
  B  B12  1  0.340579  0.011132  0.535619  1
  B  B13  1  0.659341  0.988988  0.464311  1
  B  B14  1  0.426713  0.066152  0.403819  1
  B  B15  1  0.572982  0.933605  0.596216  1
  B  B16  1  0.623194  0.131247  0.439207  1
  B  B17  1  0.376285  0.868362  0.560622  1
  B  B18  1  0.760760  0.420182  0.714314  1
  B  B19  1  0.238966  0.578392  0.287110  1
  B  B20  1  0.247619  0.078921  0.779139  1
  B  B21  1  0.753012  0.922852  0.220685  1
  B  B22  1  0.582327  0.287130  0.261836  1
  B  B23  1  0.416674  0.712068  0.737989  1
  Se  Se24  1  0.563151  0.366673  0.629337  1
  Se  Se25  1  0.436873  0.632779  0.371868  1
  Se  Se26  1  0.841502  0.280364  0.701825  1
  Se  Se27  1  0.159311  0.718760  0.297130  1
  Se  Se28  1  0.445627  0.093012  0.822592  1
  Se  Se29  1  0.553696  0.905919  0.177317  1
  Se  Se30  1  0.166012  0.032597  0.605193  1
  Se  Se31  1  0.836064  0.972269  0.394539  1
  Se  Se32  1  0.373069  0.163311  0.285605  1
  Se  Se33  1  0.626032  0.837009  0.715389  1
  Se  Se34  1  0.751383  0.285894  0.354511  1
  Se  Se35  1  0.247727  0.712494  0.644227  1
  Se  Se36  1  0.880081  0.615018  0.806803  1
  Se  Se37  1  0.119411  0.382061  0.197698  1
  Se  Se38  1  0.124044  0.099222  0.904445  1
  Se  Se39  1  0.876202  0.901754  0.095359  1
  Se  Se40  1  0.630072  0.410909  0.146476  1
  Se  Se41  1  0.368665  0.587844  0.852876  1
