# generated using pymatgen
data_Tb7DyAlPd24
_symmetry_space_group_name_H-M   'P 1'
_cell_length_a   8.36412246
_cell_length_b   8.36412291
_cell_length_c   8.36412300
_cell_angle_alpha   89.98108664
_cell_angle_beta   90.01892021
_cell_angle_gamma   90.01891275
_symmetry_Int_Tables_number   1
_chemical_formula_structural   Tb7DyAlPd24
_chemical_formula_sum   'Tb7 Dy1 Al1 Pd24'
_cell_volume   585.14180695
_cell_formula_units_Z   1
loop_
 _symmetry_equiv_pos_site_id
 _symmetry_equiv_pos_as_xyz
  1  'x, y, z'
loop_
 _atom_site_type_symbol
 _atom_site_label
 _atom_site_symmetry_multiplicity
 _atom_site_fract_x
 _atom_site_fract_y
 _atom_site_fract_z
 _atom_site_occupancy
  Tb  Tb0  1  0.251266  0.251602  0.251602  1
  Tb  Tb1  1  0.748435  0.748281  0.748281  1
  Tb  Tb2  1  0.748398  0.748734  0.251602  1
  Tb  Tb3  1  0.748398  0.251602  0.748734  1
  Tb  Tb4  1  0.251719  0.251565  0.748281  1
  Tb  Tb5  1  0.251719  0.748281  0.251565  1
  Tb  Tb6  1  0.251691  0.748309  0.748309  1
  Dy  Dy7  1  0.747936  0.252064  0.252064  1
  Al  Al8  1  0.000249  0.999751  0.999751  1
  Pd  Pd9  1  0.259629  0.499684  0.999946  1
  Pd  Pd10  1  0.740400  0.499757  0.000785  1
  Pd  Pd11  1  0.999215  0.259600  0.499757  1
  Pd  Pd12  1  0.500243  0.259600  0.000785  1
  Pd  Pd13  1  0.000054  0.740371  0.499684  1
  Pd  Pd14  1  0.500316  0.740371  0.999946  1
  Pd  Pd15  1  0.500243  0.000785  0.259600  1
  Pd  Pd16  1  0.259629  0.999946  0.499684  1
  Pd  Pd17  1  0.500316  0.999946  0.740371  1
  Pd  Pd18  1  0.740400  0.000785  0.499757  1
  Pd  Pd19  1  0.999215  0.499757  0.259600  1
  Pd  Pd20  1  0.000054  0.499684  0.740371  1
  Pd  Pd21  1  0.252471  0.499802  0.499802  1
  Pd  Pd22  1  0.747361  0.499777  0.499777  1
  Pd  Pd23  1  0.500223  0.252639  0.499777  1
  Pd  Pd24  1  0.500198  0.747529  0.499802  1
  Pd  Pd25  1  0.500223  0.499777  0.252639  1
  Pd  Pd26  1  0.500198  0.499802  0.747529  1
  Pd  Pd27  1  0.289474  0.999923  0.999923  1
  Pd  Pd28  1  0.711125  0.000475  0.000475  1
  Pd  Pd29  1  0.999525  0.288875  0.000475  1
  Pd  Pd30  1  0.000077  0.710526  0.999923  1
  Pd  Pd31  1  0.999525  0.000475  0.288875  1
  Pd  Pd32  1  0.000077  0.999923  0.710526  1
