# generated using pymatgen
data_LaY12Th3(MgIr)4
_symmetry_space_group_name_H-M   'P 1'
_cell_length_a   9.83780131
_cell_length_b   9.85972024
_cell_length_c   9.85972000
_cell_angle_alpha   60.00000082
_cell_angle_beta   59.92627072
_cell_angle_gamma   59.92627127
_symmetry_Int_Tables_number   1
_chemical_formula_structural   LaY12Th3(MgIr)4
_chemical_formula_sum   'La1 Y12 Th3 Mg4 Ir4'
_cell_volume   675.50309448
_cell_formula_units_Z   1
loop_
 _symmetry_equiv_pos_site_id
 _symmetry_equiv_pos_as_xyz
  1  'x, y, z'
loop_
 _atom_site_type_symbol
 _atom_site_label
 _atom_site_symmetry_multiplicity
 _atom_site_fract_x
 _atom_site_fract_y
 _atom_site_fract_z
 _atom_site_occupancy
  La  La0  1  0.201942  0.599353  0.599353  1
  Y  Y1  1  0.062344  0.436943  0.436943  1
  Y  Y2  1  0.438031  0.062486  0.062486  1
  Y  Y3  1  0.438031  0.062486  0.436997  1
  Y  Y4  1  0.062344  0.436943  0.063771  1
  Y  Y5  1  0.438031  0.436997  0.062486  1
  Y  Y6  1  0.062344  0.063771  0.436943  1
  Y  Y7  1  0.185507  0.815743  0.815743  1
  Y  Y8  1  0.814361  0.185450  0.185450  1
  Y  Y9  1  0.814361  0.185450  0.814737  1
  Y  Y10  1  0.185507  0.815743  0.183009  1
  Y  Y11  1  0.814361  0.814737  0.185450  1
  Y  Y12  1  0.185507  0.183009  0.815743  1
  Th  Th13  1  0.597076  0.597644  0.597644  1
  Th  Th14  1  0.597076  0.597644  0.207637  1
  Th  Th15  1  0.597076  0.207637  0.597644  1
  Mg  Mg16  1  0.828453  0.832026  0.832026  1
  Mg  Mg17  1  0.828453  0.832026  0.507495  1
  Mg  Mg18  1  0.828453  0.507495  0.832026  1
  Mg  Mg19  1  0.508274  0.830576  0.830576  1
  Ir  Ir20  1  0.397759  0.390179  0.390179  1
  Ir  Ir21  1  0.397759  0.390179  0.821884  1
  Ir  Ir22  1  0.397759  0.821884  0.390179  1
  Ir  Ir23  1  0.819196  0.393601  0.393601  1
