# generated using pymatgen
data_SmNpN3
_symmetry_space_group_name_H-M   'P 1'
_cell_length_a   5.98360800
_cell_length_b   5.78776300
_cell_length_c   8.31782400
_cell_angle_alpha   90.00000000
_cell_angle_beta   90.00000000
_cell_angle_gamma   90.00000000
_symmetry_Int_Tables_number   1
_chemical_formula_structural   SmNpN3
_chemical_formula_sum   'Sm4 Np4 N12'
_cell_volume   288.06042692
_cell_formula_units_Z   4
loop_
 _symmetry_equiv_pos_site_id
 _symmetry_equiv_pos_as_xyz
  1  'x, y, z'
loop_
 _atom_site_type_symbol
 _atom_site_label
 _atom_site_symmetry_multiplicity
 _atom_site_fract_x
 _atom_site_fract_y
 _atom_site_fract_z
 _atom_site_occupancy
  Sm  Sm0  1  0.052693  0.986038  0.250000  1
  Sm  Sm1  1  0.947307  0.013962  0.750000  1
  Sm  Sm2  1  0.552693  0.513962  0.250000  1
  Sm  Sm3  1  0.447307  0.486038  0.750000  1
  Np  Np4  1  0.500000  0.000000  0.000000  1
  Np  Np5  1  0.000000  0.500000  0.500000  1
  Np  Np6  1  0.000000  0.500000  0.000000  1
  Np  Np7  1  0.500000  0.000000  0.500000  1
  N  N8  1  0.695662  0.281638  0.942428  1
  N  N9  1  0.804338  0.781638  0.442428  1
  N  N10  1  0.804338  0.781638  0.057572  1
  N  N11  1  0.695662  0.281638  0.557572  1
  N  N12  1  0.195662  0.218362  0.942428  1
  N  N13  1  0.304338  0.718362  0.442428  1
  N  N14  1  0.039646  0.607944  0.750000  1
  N  N15  1  0.960354  0.392056  0.250000  1
  N  N16  1  0.460354  0.107944  0.250000  1
  N  N17  1  0.304338  0.718362  0.057572  1
  N  N18  1  0.195662  0.218362  0.557572  1
  N  N19  1  0.539646  0.892056  0.750000  1
