# generated using pymatgen
data_Dy3BrO4
_symmetry_space_group_name_H-M   'P 1'
_cell_length_a   6.23353813
_cell_length_b   6.23353856
_cell_length_c   11.68596000
_cell_angle_alpha   90.00000000
_cell_angle_beta   90.00000000
_cell_angle_gamma   141.71897112
_symmetry_Int_Tables_number   1
_chemical_formula_structural   Dy3BrO4
_chemical_formula_sum   'Dy6 Br2 O8'
_cell_volume   281.31209353
_cell_formula_units_Z   2
loop_
 _symmetry_equiv_pos_site_id
 _symmetry_equiv_pos_as_xyz
  1  'x, y, z'
loop_
 _atom_site_type_symbol
 _atom_site_label
 _atom_site_symmetry_multiplicity
 _atom_site_fract_x
 _atom_site_fract_y
 _atom_site_fract_z
 _atom_site_occupancy
  Dy  Dy0  1  0.314202  0.685798  0.103329  1
  Dy  Dy1  1  0.685798  0.314202  0.896671  1
  Dy  Dy2  1  0.685798  0.314202  0.603329  1
  Dy  Dy3  1  0.314202  0.685798  0.396671  1
  Dy  Dy4  1  0.618723  0.381277  0.250000  1
  Dy  Dy5  1  0.381277  0.618723  0.750000  1
  Br  Br6  1  0.000000  0.000000  0.000000  1
  Br  Br7  1  0.000000  0.000000  0.500000  1
  O  O8  1  0.191448  0.808552  0.250000  1
  O  O9  1  0.269917  0.730083  0.589946  1
  O  O10  1  0.269917  0.730083  0.910054  1
  O  O11  1  0.808552  0.191448  0.750000  1
  O  O12  1  0.730083  0.269917  0.410054  1
  O  O13  1  0.433779  0.566221  0.250000  1
  O  O14  1  0.566221  0.433779  0.750000  1
  O  O15  1  0.730083  0.269917  0.089946  1
