# generated using pymatgen
data_KSc2H12IrOs
_symmetry_space_group_name_H-M   'P 1'
_cell_length_a   4.77488000
_cell_length_b   4.77488327
_cell_length_c   8.67248500
_cell_angle_alpha   90.00000000
_cell_angle_beta   90.00000000
_cell_angle_gamma   120.00000506
_symmetry_Int_Tables_number   1
_chemical_formula_structural   KSc2H12IrOs
_chemical_formula_sum   'K1 Sc2 H12 Ir1 Os1'
_cell_volume   171.23770057
_cell_formula_units_Z   1
loop_
 _symmetry_equiv_pos_site_id
 _symmetry_equiv_pos_as_xyz
  1  'x, y, z'
loop_
 _atom_site_type_symbol
 _atom_site_label
 _atom_site_symmetry_multiplicity
 _atom_site_fract_x
 _atom_site_fract_y
 _atom_site_fract_z
 _atom_site_occupancy
  K  K0  1  0.000000  0.000000  0.990345  1
  Sc  Sc1  1  0.666667  0.333333  0.384967  1
  Sc  Sc2  1  0.333333  0.666667  0.638135  1
  H  H3  1  0.159685  0.840315  0.396092  1
  H  H4  1  0.680631  0.840315  0.396092  1
  H  H5  1  0.159685  0.319369  0.396092  1
  H  H6  1  0.843818  0.156182  0.598429  1
  H  H7  1  0.312365  0.156182  0.598429  1
  H  H8  1  0.843818  0.687635  0.598429  1
  H  H9  1  0.502938  0.005876  0.821559  1
  H  H10  1  0.502938  0.497062  0.821559  1
  H  H11  1  0.994124  0.497062  0.821559  1
  H  H12  1  0.494988  0.989977  0.180821  1
  H  H13  1  0.494988  0.505012  0.180821  1
  H  H14  1  0.010023  0.505012  0.180821  1
  Ir  Ir15  1  0.333333  0.666667  0.297028  1
  Os  Os16  1  0.666667  0.333333  0.698828  1
