# generated using pymatgen
data_Hf2BeB3Ru5
_symmetry_space_group_name_H-M   'P 1'
_cell_length_a   3.04066800
_cell_length_b   8.70061501
_cell_length_c   10.08599256
_cell_angle_alpha   90.05441069
_cell_angle_beta   90.00000000
_cell_angle_gamma   90.00000000
_symmetry_Int_Tables_number   1
_chemical_formula_structural   Hf2BeB3Ru5
_chemical_formula_sum   'Hf4 Be2 B6 Ru10'
_cell_volume   266.83168789
_cell_formula_units_Z   2
loop_
 _symmetry_equiv_pos_site_id
 _symmetry_equiv_pos_as_xyz
  1  'x, y, z'
loop_
 _atom_site_type_symbol
 _atom_site_label
 _atom_site_symmetry_multiplicity
 _atom_site_fract_x
 _atom_site_fract_y
 _atom_site_fract_z
 _atom_site_occupancy
  Hf  Hf0  1  0.500000  0.841724  0.182888  1
  Hf  Hf1  1  0.500000  0.158276  0.817112  1
  Hf  Hf2  1  0.500000  0.660084  0.680088  1
  Hf  Hf3  1  0.500000  0.339916  0.319912  1
  Be  Be4  1  0.500000  0.962237  0.592664  1
  Be  Be5  1  0.500000  0.037763  0.407336  1
  B  B6  1  0.500000  0.852425  0.899325  1
  B  B7  1  0.500000  0.147575  0.100675  1
  B  B8  1  0.500000  0.650499  0.401072  1
  B  B9  1  0.500000  0.349501  0.598928  1
  B  B10  1  0.500000  0.466270  0.912543  1
  B  B11  1  0.500000  0.533730  0.087457  1
  Ru  Ru12  1  0.000000  0.664170  0.953960  1
  Ru  Ru13  1  0.000000  0.335830  0.046040  1
  Ru  Ru14  1  0.000000  0.824402  0.444750  1
  Ru  Ru15  1  0.000000  0.175598  0.555250  1
  Ru  Ru16  1  0.000000  0.000000  0.000000  1
  Ru  Ru17  1  0.000000  0.409532  0.763575  1
  Ru  Ru18  1  0.000000  0.590468  0.236425  1
  Ru  Ru19  1  0.000000  0.500000  0.500000  1
  Ru  Ru20  1  0.000000  0.899570  0.746581  1
  Ru  Ru21  1  0.000000  0.100430  0.253419  1
