# generated using pymatgen
data_Ta4BeB3W2
_symmetry_space_group_name_H-M   'P 1'
_cell_length_a   6.19858213
_cell_length_b   6.19858287
_cell_length_c   3.28617800
_cell_angle_alpha   90.00000000
_cell_angle_beta   90.00000000
_cell_angle_gamma   90.13877997
_symmetry_Int_Tables_number   1
_chemical_formula_structural   Ta4BeB3W2
_chemical_formula_sum   'Ta4 Be1 B3 W2'
_cell_volume   126.26255733
_cell_formula_units_Z   1
loop_
 _symmetry_equiv_pos_site_id
 _symmetry_equiv_pos_as_xyz
  1  'x, y, z'
loop_
 _atom_site_type_symbol
 _atom_site_label
 _atom_site_symmetry_multiplicity
 _atom_site_fract_x
 _atom_site_fract_y
 _atom_site_fract_z
 _atom_site_occupancy
  Ta  Ta0  1  0.677163  0.177163  0.500000  1
  Ta  Ta1  1  0.328403  0.828403  0.500000  1
  Ta  Ta2  1  0.178420  0.316768  0.500000  1
  Ta  Ta3  1  0.816768  0.678420  0.500000  1
  Be  Be4  1  0.112695  0.612695  0.000000  1
  B  B5  1  0.884898  0.384898  0.000000  1
  B  B6  1  0.611561  0.889723  0.000000  1
  B  B7  1  0.389723  0.111561  0.000000  1
  W  W8  1  0.998428  0.001941  0.000000  1
  W  W9  1  0.501941  0.498428  0.000000  1
