# generated using pymatgen
data_NbCdOF5
_symmetry_space_group_name_H-M   'P 1'
_cell_length_a   5.68649266
_cell_length_b   5.74871610
_cell_length_c   5.64267100
_cell_angle_alpha   118.46331529
_cell_angle_beta   118.98184182
_cell_angle_gamma   91.46920895
_symmetry_Int_Tables_number   1
_chemical_formula_structural   NbCdOF5
_chemical_formula_sum   'Nb1 Cd1 O1 F5'
_cell_volume   133.72781211
_cell_formula_units_Z   1
loop_
 _symmetry_equiv_pos_site_id
 _symmetry_equiv_pos_as_xyz
  1  'x, y, z'
loop_
 _atom_site_type_symbol
 _atom_site_label
 _atom_site_symmetry_multiplicity
 _atom_site_fract_x
 _atom_site_fract_y
 _atom_site_fract_z
 _atom_site_occupancy
  Nb  Nb0  1  0.686018  0.995546  0.327039  1
  Cd  Cd1  1  0.161578  0.476584  0.320205  1
  O  O2  1  0.976639  0.218283  0.409793  1
  F  F3  1  0.327959  0.734105  0.217851  1
  F  F4  1  0.411604  0.184944  0.188428  1
  F  F5  1  0.539319  0.721414  0.861405  1
  F  F6  1  0.887116  0.748993  0.435350  1
  F  F7  1  0.770922  0.215365  0.773407  1
