# generated using pymatgen
data_TmTi2(Nb2Sn3)2
_symmetry_space_group_name_H-M   'P 1'
_cell_length_a   5.76171500
_cell_length_b   5.75755475
_cell_length_c   9.68119100
_cell_angle_alpha   90.00000000
_cell_angle_beta   90.00000000
_cell_angle_gamma   120.02388816
_symmetry_Int_Tables_number   1
_chemical_formula_structural   TmTi2(Nb2Sn3)2
_chemical_formula_sum   'Tm1 Ti2 Nb4 Sn6'
_cell_volume   278.06394370
_cell_formula_units_Z   1
loop_
 _symmetry_equiv_pos_site_id
 _symmetry_equiv_pos_as_xyz
  1  'x, y, z'
loop_
 _atom_site_type_symbol
 _atom_site_label
 _atom_site_symmetry_multiplicity
 _atom_site_fract_x
 _atom_site_fract_y
 _atom_site_fract_z
 _atom_site_occupancy
  Tm  Tm0  1  0.000000  0.000000  0.000000  1
  Ti  Ti1  1  0.500000  0.000000  0.751227  1
  Ti  Ti2  1  0.500000  0.000000  0.248773  1
  Nb  Nb3  1  0.000000  0.500000  0.752190  1
  Nb  Nb4  1  0.500000  0.500000  0.752190  1
  Nb  Nb5  1  0.000000  0.500000  0.247810  1
  Nb  Nb6  1  0.500000  0.500000  0.247810  1
  Sn  Sn7  1  0.664636  0.329272  0.500000  1
  Sn  Sn8  1  0.335364  0.670728  0.500000  1
  Sn  Sn9  1  0.663838  0.327673  0.000000  1
  Sn  Sn10  1  0.336162  0.672327  0.000000  1
  Sn  Sn11  1  0.000000  0.000000  0.685148  1
  Sn  Sn12  1  0.000000  0.000000  0.314852  1
