# generated using pymatgen
data_Er20Ir5Ru5Rh2
_symmetry_space_group_name_H-M   'P 1'
_cell_length_a   10.75320492
_cell_length_b   10.75320503
_cell_length_c   6.37014420
_cell_angle_alpha   89.94721298
_cell_angle_beta   89.94721544
_cell_angle_gamma   89.95212059
_symmetry_Int_Tables_number   1
_chemical_formula_structural   Er20Ir5Ru5Rh2
_chemical_formula_sum   'Er20 Ir5 Ru5 Rh2'
_cell_volume   736.58791950
_cell_formula_units_Z   1
loop_
 _symmetry_equiv_pos_site_id
 _symmetry_equiv_pos_as_xyz
  1  'x, y, z'
loop_
 _atom_site_type_symbol
 _atom_site_label
 _atom_site_symmetry_multiplicity
 _atom_site_fract_x
 _atom_site_fract_y
 _atom_site_fract_z
 _atom_site_occupancy
  Er  Er0  1  0.294478  0.087768  0.378347  1
  Er  Er1  1  0.293491  0.914030  0.876599  1
  Er  Er2  1  0.707321  0.085738  0.877569  1
  Er  Er3  1  0.707503  0.914220  0.375930  1
  Er  Er4  1  0.586365  0.793531  0.877294  1
  Er  Er5  1  0.587325  0.205949  0.376390  1
  Er  Er6  1  0.415032  0.793477  0.376810  1
  Er  Er7  1  0.411971  0.205699  0.877371  1
  Er  Er8  1  0.206469  0.413635  0.622706  1
  Er  Er9  1  0.206523  0.584968  0.123190  1
  Er  Er10  1  0.794051  0.412675  0.123610  1
  Er  Er11  1  0.794301  0.588029  0.622629  1
  Er  Er12  1  0.912232  0.705522  0.121653  1
  Er  Er13  1  0.914262  0.292679  0.622431  1
  Er  Er14  1  0.085970  0.706509  0.623401  1
  Er  Er15  1  0.085780  0.292497  0.124070  1
  Er  Er16  1  0.999383  0.001619  0.499082  1
  Er  Er17  1  0.998381  0.000617  0.000918  1
  Er  Er18  1  0.499839  0.500145  0.999789  1
  Er  Er19  1  0.499855  0.500161  0.500211  1
  Ir  Ir20  1  0.847424  0.846693  0.749561  1
  Ir  Ir21  1  0.153307  0.152576  0.750439  1
  Ir  Ir22  1  0.653146  0.651894  0.249560  1
  Ir  Ir23  1  0.348106  0.346854  0.250440  1
  Ir  Ir24  1  0.346879  0.653121  0.750000  1
  Ru  Ru25  1  0.847070  0.152930  0.250000  1
  Ru  Ru26  1  0.500131  0.000386  0.123519  1
  Ru  Ru27  1  0.500108  0.000223  0.623641  1
  Ru  Ru28  1  0.999777  0.499892  0.876359  1
  Ru  Ru29  1  0.999614  0.499869  0.376481  1
  Rh  Rh30  1  0.152489  0.847511  0.250000  1
  Rh  Rh31  1  0.651419  0.348581  0.750000  1
