# generated using pymatgen
data_MgTe28
_symmetry_space_group_name_H-M   'P 1'
_cell_length_a   8.45787205
_cell_length_b   14.49432284
_cell_length_c   14.24579691
_cell_angle_alpha   131.14685834
_cell_angle_beta   117.26201573
_cell_angle_gamma   83.79495777
_symmetry_Int_Tables_number   1
_chemical_formula_structural   MgTe28
_chemical_formula_sum   'Mg1 Te28'
_cell_volume   1119.20123722
_cell_formula_units_Z   1
loop_
 _symmetry_equiv_pos_site_id
 _symmetry_equiv_pos_as_xyz
  1  'x, y, z'
loop_
 _atom_site_type_symbol
 _atom_site_label
 _atom_site_symmetry_multiplicity
 _atom_site_fract_x
 _atom_site_fract_y
 _atom_site_fract_z
 _atom_site_occupancy
  Mg  Mg0  1  0.500000  0.000000  0.000000  1
  Te  Te1  1  0.979040  0.103269  0.328752  1
  Te  Te2  1  0.490062  0.121095  0.370460  1
  Te  Te3  1  0.222319  0.340789  0.788376  1
  Te  Te4  1  0.723746  0.346520  0.795374  1
  Te  Te5  1  0.231038  0.602723  0.735950  1
  Te  Te6  1  0.727720  0.552328  0.701510  1
  Te  Te7  1  0.509938  0.878905  0.629540  1
  Te  Te8  1  0.020960  0.896731  0.671248  1
  Te  Te9  1  0.276254  0.653480  0.204626  1
  Te  Te10  1  0.777681  0.659211  0.211624  1
  Te  Te11  1  0.272280  0.447672  0.298490  1
  Te  Te12  1  0.768962  0.397277  0.264050  1
  Te  Te13  1  0.832618  0.088005  0.797528  1
  Te  Te14  1  0.377632  0.068525  0.833032  1
  Te  Te15  1  0.834746  0.639408  0.022268  1
  Te  Te16  1  0.353960  0.676882  0.050001  1
  Te  Te17  1  0.542767  0.256664  0.254540  1
  Te  Te18  1  0.038057  0.261632  0.238440  1
  Te  Te19  1  0.622368  0.931475  0.166968  1
  Te  Te20  1  0.167382  0.911995  0.202472  1
  Te  Te21  1  0.646040  0.323118  0.949999  1
  Te  Te22  1  0.165254  0.360592  0.977732  1
  Te  Te23  1  0.961943  0.738368  0.761560  1
  Te  Te24  1  0.457233  0.743336  0.745460  1
  Te  Te25  1  0.892629  0.343659  0.590246  1
  Te  Te26  1  0.388389  0.339627  0.598310  1
  Te  Te27  1  0.611611  0.660373  0.401690  1
  Te  Te28  1  0.107371  0.656341  0.409754  1
