# generated using pymatgen
data_LaPr(Br2F)2
_symmetry_space_group_name_H-M   'P 1'
_cell_length_a   4.20874500
_cell_length_b   4.20874467
_cell_length_c   14.95050500
_cell_angle_alpha   90.00000000
_cell_angle_beta   90.00000000
_cell_angle_gamma   119.99999470
_symmetry_Int_Tables_number   1
_chemical_formula_structural   LaPr(Br2F)2
_chemical_formula_sum   'La1 Pr1 Br4 F2'
_cell_volume   229.34628550
_cell_formula_units_Z   1
loop_
 _symmetry_equiv_pos_site_id
 _symmetry_equiv_pos_as_xyz
  1  'x, y, z'
loop_
 _atom_site_type_symbol
 _atom_site_label
 _atom_site_symmetry_multiplicity
 _atom_site_fract_x
 _atom_site_fract_y
 _atom_site_fract_z
 _atom_site_occupancy
  La  La0  1  0.000000  0.000000  0.750000  1
  Pr  Pr1  1  0.000000  0.000000  0.250000  1
  Br  Br2  1  0.333333  0.666667  0.119041  1
  Br  Br3  1  0.666667  0.333333  0.882934  1
  Br  Br4  1  0.666667  0.333333  0.617066  1
  Br  Br5  1  0.333333  0.666667  0.380959  1
  F  F6  1  0.333333  0.666667  0.750000  1
  F  F7  1  0.666667  0.333333  0.250000  1
