# generated using pymatgen
data_Er4ScSiBi2
_symmetry_space_group_name_H-M   'P 1'
_cell_length_a   11.76892300
_cell_length_b   9.04944700
_cell_length_c   7.89559300
_cell_angle_alpha   90.00000000
_cell_angle_beta   90.00000000
_cell_angle_gamma   90.00000000
_symmetry_Int_Tables_number   1
_chemical_formula_structural   Er4ScSiBi2
_chemical_formula_sum   'Er16 Sc4 Si4 Bi8'
_cell_volume   840.89837960
_cell_formula_units_Z   4
loop_
 _symmetry_equiv_pos_site_id
 _symmetry_equiv_pos_as_xyz
  1  'x, y, z'
loop_
 _atom_site_type_symbol
 _atom_site_label
 _atom_site_symmetry_multiplicity
 _atom_site_fract_x
 _atom_site_fract_y
 _atom_site_fract_z
 _atom_site_occupancy
  Er  Er0  1  0.061454  0.554177  0.817537  1
  Er  Er1  1  0.561454  0.945823  0.682463  1
  Er  Er2  1  0.938546  0.054177  0.182463  1
  Er  Er3  1  0.438546  0.445823  0.317537  1
  Er  Er4  1  0.938546  0.445823  0.182463  1
  Er  Er5  1  0.438546  0.054177  0.317537  1
  Er  Er6  1  0.061454  0.945823  0.817537  1
  Er  Er7  1  0.561454  0.554177  0.682463  1
  Er  Er8  1  0.212474  0.750000  0.168323  1
  Er  Er9  1  0.712474  0.750000  0.331677  1
  Er  Er10  1  0.787526  0.250000  0.831677  1
  Er  Er11  1  0.287526  0.250000  0.668323  1
  Er  Er12  1  0.293214  0.750000  0.638542  1
  Er  Er13  1  0.793214  0.750000  0.861458  1
  Er  Er14  1  0.706786  0.250000  0.361458  1
  Er  Er15  1  0.206786  0.250000  0.138542  1
  Sc  Sc16  1  0.001293  0.750000  0.459255  1
  Sc  Sc17  1  0.501293  0.750000  0.040745  1
  Sc  Sc18  1  0.998707  0.250000  0.540745  1
  Sc  Sc19  1  0.498707  0.250000  0.959255  1
  Si  Si20  1  0.476016  0.750000  0.406014  1
  Si  Si21  1  0.976016  0.750000  0.093986  1
  Si  Si22  1  0.523984  0.250000  0.593986  1
  Si  Si23  1  0.023984  0.250000  0.906014  1
  Bi  Bi24  1  0.330319  0.511077  0.934360  1
  Bi  Bi25  1  0.830319  0.988923  0.565640  1
  Bi  Bi26  1  0.669681  0.011077  0.065640  1
  Bi  Bi27  1  0.169681  0.488923  0.434360  1
  Bi  Bi28  1  0.669681  0.488923  0.065640  1
  Bi  Bi29  1  0.169681  0.011077  0.434360  1
  Bi  Bi30  1  0.330319  0.988923  0.934360  1
  Bi  Bi31  1  0.830319  0.511077  0.565640  1
