# generated using pymatgen
data_Nb5Re6Si6W
_symmetry_space_group_name_H-M   'P 1'
_cell_length_a   7.53776788
_cell_length_b   7.57391686
_cell_length_c   7.53776810
_cell_angle_alpha   127.47436453
_cell_angle_beta   124.00295303
_cell_angle_gamma   80.22696610
_symmetry_Int_Tables_number   1
_chemical_formula_structural   Nb5Re6Si6W
_chemical_formula_sum   'Nb5 Re6 Si6 W1'
_cell_volume   273.45473154
_cell_formula_units_Z   1
loop_
 _symmetry_equiv_pos_site_id
 _symmetry_equiv_pos_as_xyz
  1  'x, y, z'
loop_
 _atom_site_type_symbol
 _atom_site_label
 _atom_site_symmetry_multiplicity
 _atom_site_fract_x
 _atom_site_fract_y
 _atom_site_fract_z
 _atom_site_occupancy
  Nb  Nb0  1  0.441880  0.477046  0.535165  1
  Nb  Nb1  1  0.966531  0.500023  0.033493  1
  Nb  Nb2  1  0.038128  0.071439  0.533311  1
  Nb  Nb3  1  0.754337  0.911772  0.657435  1
  Nb  Nb4  1  0.245641  0.910674  0.165033  1
  Re  Re5  1  0.524782  0.245888  0.773987  1
  Re  Re6  1  0.971902  0.245888  0.221106  1
  Re  Re7  1  0.166170  0.750563  0.663825  1
  Re  Re8  1  0.838002  0.492283  0.584366  1
  Re  Re9  1  0.586738  0.750563  0.084393  1
  Re  Re10  1  0.407917  0.492283  0.154281  1
  Si  Si11  1  0.781775  0.552623  0.270848  1
  Si  Si12  1  0.225491  0.468548  0.743057  1
  Si  Si13  1  0.339427  0.827342  0.502840  1
  Si  Si14  1  0.664340  0.160693  0.490813  1
  Si  Si15  1  0.824502  0.827342  0.987914  1
  Si  Si16  1  0.169880  0.160693  0.996352  1
  W  W17  1  0.552557  0.096538  0.043980  1
