# generated using pymatgen
data_Pr3ThSi7
_symmetry_space_group_name_H-M   'P 1'
_cell_length_a   8.07810178
_cell_length_b   8.07810136
_cell_length_c   8.54235870
_cell_angle_alpha   90.03806224
_cell_angle_beta   89.96193714
_cell_angle_gamma   120.38905511
_symmetry_Int_Tables_number   1
_chemical_formula_structural   Pr3ThSi7
_chemical_formula_sum   'Pr6 Th2 Si14'
_cell_volume   480.85146575
_cell_formula_units_Z   2
loop_
 _symmetry_equiv_pos_site_id
 _symmetry_equiv_pos_as_xyz
  1  'x, y, z'
loop_
 _atom_site_type_symbol
 _atom_site_label
 _atom_site_symmetry_multiplicity
 _atom_site_fract_x
 _atom_site_fract_y
 _atom_site_fract_z
 _atom_site_occupancy
  Pr  Pr0  1  0.253006  0.253006  0.000000  1
  Pr  Pr1  1  0.746994  0.746994  0.000000  1
  Pr  Pr2  1  0.744202  0.744202  0.500000  1
  Pr  Pr3  1  0.255798  0.255798  0.500000  1
  Pr  Pr4  1  0.251702  0.748298  0.495558  1
  Pr  Pr5  1  0.748298  0.251702  0.504442  1
  Th  Th6  1  0.748892  0.251108  0.995919  1
  Th  Th7  1  0.251108  0.748892  0.004081  1
  Si  Si8  1  0.066727  0.385597  0.248710  1
  Si  Si9  1  0.933273  0.614403  0.751290  1
  Si  Si10  1  0.583180  0.416820  0.249144  1
  Si  Si11  1  0.416820  0.583180  0.750856  1
  Si  Si12  1  0.412053  0.587947  0.247374  1
  Si  Si13  1  0.587947  0.412053  0.752626  1
  Si  Si14  1  0.071819  0.928181  0.250301  1
  Si  Si15  1  0.928181  0.071819  0.749699  1
  Si  Si16  1  0.614403  0.933273  0.248710  1
  Si  Si17  1  0.385597  0.066727  0.751290  1
  Si  Si18  1  0.924314  0.583372  0.247338  1
  Si  Si19  1  0.075686  0.416628  0.752662  1
  Si  Si20  1  0.416628  0.075686  0.247338  1
  Si  Si21  1  0.583372  0.924314  0.752662  1
