# generated using pymatgen
data_Zr2FeAs2Rh
_symmetry_space_group_name_H-M   'P 1'
_cell_length_a   3.93938900
_cell_length_b   6.58565364
_cell_length_c   7.47406373
_cell_angle_alpha   90.85981511
_cell_angle_beta   90.00000000
_cell_angle_gamma   90.00000000
_symmetry_Int_Tables_number   1
_chemical_formula_structural   Zr2FeAs2Rh
_chemical_formula_sum   'Zr4 Fe2 As4 Rh2'
_cell_volume   193.88117702
_cell_formula_units_Z   2
loop_
 _symmetry_equiv_pos_site_id
 _symmetry_equiv_pos_as_xyz
  1  'x, y, z'
loop_
 _atom_site_type_symbol
 _atom_site_label
 _atom_site_symmetry_multiplicity
 _atom_site_fract_x
 _atom_site_fract_y
 _atom_site_fract_z
 _atom_site_occupancy
  Zr  Zr0  1  0.250000  0.474707  0.188043  1
  Zr  Zr1  1  0.750000  0.525293  0.811957  1
  Zr  Zr2  1  0.750000  0.017804  0.683485  1
  Zr  Zr3  1  0.250000  0.982196  0.316515  1
  Fe  Fe4  1  0.750000  0.642552  0.441266  1
  Fe  Fe5  1  0.250000  0.357448  0.558734  1
  As  As6  1  0.250000  0.722248  0.605143  1
  As  As7  1  0.750000  0.277752  0.394857  1
  As  As8  1  0.750000  0.758523  0.132995  1
  As  As9  1  0.250000  0.241477  0.867005  1
  Rh  Rh10  1  0.250000  0.852466  0.933987  1
  Rh  Rh11  1  0.750000  0.147534  0.066013  1
