# generated using pymatgen
data_Tm3Lu(ScRh)4
_symmetry_space_group_name_H-M   'P 1'
_cell_length_a   4.21370600
_cell_length_b   7.15137581
_cell_length_c   8.60487673
_cell_angle_alpha   90.18273178
_cell_angle_beta   90.00000000
_cell_angle_gamma   90.00000000
_symmetry_Int_Tables_number   1
_chemical_formula_structural   Tm3Lu(ScRh)4
_chemical_formula_sum   'Tm3 Lu1 Sc4 Rh4'
_cell_volume   259.29627408
_cell_formula_units_Z   1
loop_
 _symmetry_equiv_pos_site_id
 _symmetry_equiv_pos_as_xyz
  1  'x, y, z'
loop_
 _atom_site_type_symbol
 _atom_site_label
 _atom_site_symmetry_multiplicity
 _atom_site_fract_x
 _atom_site_fract_y
 _atom_site_fract_z
 _atom_site_occupancy
  Tm  Tm0  1  0.750000  0.517871  0.827615  1
  Tm  Tm1  1  0.250000  0.481915  0.172879  1
  Tm  Tm2  1  0.750000  0.018501  0.672277  1
  Lu  Lu3  1  0.250000  0.980946  0.327960  1
  Sc  Sc4  1  0.750000  0.642428  0.434171  1
  Sc  Sc5  1  0.750000  0.141682  0.066876  1
  Sc  Sc6  1  0.250000  0.358152  0.564565  1
  Sc  Sc7  1  0.250000  0.858729  0.935095  1
  Rh  Rh8  1  0.750000  0.758556  0.107976  1
  Rh  Rh9  1  0.750000  0.256958  0.391500  1
  Rh  Rh10  1  0.250000  0.241821  0.892368  1
  Rh  Rh11  1  0.250000  0.742441  0.606717  1
