# generated using pymatgen
data_HoTm2Ga2Ag3Ge
_symmetry_space_group_name_H-M   'P 1'
_cell_length_a   7.20735043
_cell_length_b   7.20636342
_cell_length_c   4.12883000
_cell_angle_alpha   90.00000000
_cell_angle_beta   90.00000000
_cell_angle_gamma   120.04422272
_symmetry_Int_Tables_number   1
_chemical_formula_structural   HoTm2Ga2Ag3Ge
_chemical_formula_sum   'Ho1 Tm2 Ga2 Ag3 Ge1'
_cell_volume   185.63323366
_cell_formula_units_Z   1
loop_
 _symmetry_equiv_pos_site_id
 _symmetry_equiv_pos_as_xyz
  1  'x, y, z'
loop_
 _atom_site_type_symbol
 _atom_site_label
 _atom_site_symmetry_multiplicity
 _atom_site_fract_x
 _atom_site_fract_y
 _atom_site_fract_z
 _atom_site_occupancy
  Ho  Ho0  1  0.417439  0.420203  0.500000  1
  Tm  Tm1  1  0.579980  0.997372  0.500000  1
  Tm  Tm2  1  0.002815  0.582757  0.500000  1
  Ga  Ga3  1  0.667112  0.333109  0.000000  1
  Ga  Ga4  1  0.999468  0.999485  0.500000  1
  Ag  Ag5  1  0.752626  0.749602  0.000000  1
  Ag  Ag6  1  0.250721  0.002726  0.000000  1
  Ag  Ag7  1  0.996772  0.247660  0.000000  1
  Ge  Ge8  1  0.333068  0.667087  0.000000  1
