# generated using pymatgen
data_Tb7YEr2(SiB4)4
_symmetry_space_group_name_H-M   'P 1'
_cell_length_a   7.24016500
_cell_length_b   7.24016500
_cell_length_c   8.10792701
_cell_angle_alpha   89.99674446
_cell_angle_beta   90.00325554
_cell_angle_gamma   90.00096551
_symmetry_Int_Tables_number   1
_chemical_formula_structural   Tb7YEr2(SiB4)4
_chemical_formula_sum   'Tb7 Y1 Er2 Si4 B16'
_cell_volume   425.01744528
_cell_formula_units_Z   1
loop_
 _symmetry_equiv_pos_site_id
 _symmetry_equiv_pos_as_xyz
  1  'x, y, z'
loop_
 _atom_site_type_symbol
 _atom_site_label
 _atom_site_symmetry_multiplicity
 _atom_site_fract_x
 _atom_site_fract_y
 _atom_site_fract_z
 _atom_site_occupancy
  Tb  Tb0  1  0.680255  0.180179  0.225075  1
  Tb  Tb1  1  0.319778  0.819850  0.774952  1
  Tb  Tb2  1  0.319821  0.819745  0.225075  1
  Tb  Tb3  1  0.819557  0.680443  0.225005  1
  Tb  Tb4  1  0.819688  0.680312  0.775059  1
  Tb  Tb5  1  0.680150  0.180222  0.774952  1
  Tb  Tb6  1  0.180349  0.319651  0.775156  1
  Y  Y7  1  0.180311  0.319689  0.224417  1
  Er  Er8  1  0.000055  0.000156  0.499906  1
  Er  Er9  1  0.499844  0.499945  0.499906  1
  Si  Si10  1  0.115236  0.615098  0.499965  1
  Si  Si11  1  0.884902  0.384764  0.499965  1
  Si  Si12  1  0.384762  0.115238  0.499953  1
  Si  Si13  1  0.615099  0.884901  0.499931  1
  B  B14  1  0.172324  0.039092  0.000020  1
  B  B15  1  0.827762  0.960944  0.000104  1
  B  B16  1  0.960919  0.172252  0.000009  1
  B  B17  1  0.327748  0.539081  0.000009  1
  B  B18  1  0.039059  0.827766  0.000081  1
  B  B19  1  0.672234  0.460941  0.000081  1
  B  B20  1  0.539056  0.672238  0.000104  1
  B  B21  1  0.460908  0.327676  0.000020  1
  B  B22  1  0.089884  0.589848  0.999993  1
  B  B23  1  0.910152  0.410116  0.999993  1
  B  B24  1  0.410097  0.089903  0.999899  1
  B  B25  1  0.589990  0.910010  0.000060  1
  B  B26  1  0.000021  0.000016  0.161976  1
  B  B27  1  0.000096  0.000041  0.838179  1
  B  B28  1  0.499959  0.499904  0.838179  1
  B  B29  1  0.499984  0.499979  0.161976  1
