# generated using pymatgen
data_Rb6Ge2S6O
_symmetry_space_group_name_H-M   'P 1'
_cell_length_a   12.39130900
_cell_length_b   8.82702225
_cell_length_c   9.29182282
_cell_angle_alpha   68.65002524
_cell_angle_beta   90.00000000
_cell_angle_gamma   90.00000000
_symmetry_Int_Tables_number   1
_chemical_formula_structural   Rb6Ge2S6O
_chemical_formula_sum   'Rb12 Ge4 S12 O2'
_cell_volume   946.57810617
_cell_formula_units_Z   2
loop_
 _symmetry_equiv_pos_site_id
 _symmetry_equiv_pos_as_xyz
  1  'x, y, z'
loop_
 _atom_site_type_symbol
 _atom_site_label
 _atom_site_symmetry_multiplicity
 _atom_site_fract_x
 _atom_site_fract_y
 _atom_site_fract_z
 _atom_site_occupancy
  Rb  Rb0  1  0.326856  0.989142  0.007954  1
  Rb  Rb1  1  0.221408  0.692019  0.457326  1
  Rb  Rb2  1  0.561843  0.284020  0.225890  1
  Rb  Rb3  1  0.826856  0.510858  0.992046  1
  Rb  Rb4  1  0.438157  0.715980  0.774110  1
  Rb  Rb5  1  0.778592  0.307981  0.542674  1
  Rb  Rb6  1  0.061843  0.215980  0.774110  1
  Rb  Rb7  1  0.938157  0.784020  0.225890  1
  Rb  Rb8  1  0.278592  0.192019  0.457326  1
  Rb  Rb9  1  0.721408  0.807981  0.542674  1
  Rb  Rb10  1  0.673144  0.010858  0.992046  1
  Rb  Rb11  1  0.173144  0.489142  0.007954  1
  Ge  Ge12  1  0.489602  0.346380  0.689123  1
  Ge  Ge13  1  0.989602  0.153620  0.310877  1
  Ge  Ge14  1  0.510398  0.653620  0.310877  1
  Ge  Ge15  1  0.010398  0.846380  0.689123  1
  S  S16  1  0.977239  0.608208  0.665430  1
  S  S17  1  0.883917  0.911397  0.827849  1
  S  S18  1  0.820245  0.130312  0.239094  1
  S  S19  1  0.616083  0.411397  0.827849  1
  S  S20  1  0.320245  0.369688  0.760906  1
  S  S21  1  0.116083  0.088603  0.172151  1
  S  S22  1  0.477239  0.891792  0.334570  1
  S  S23  1  0.383917  0.588603  0.172151  1
  S  S24  1  0.022761  0.391792  0.334570  1
  S  S25  1  0.679755  0.630312  0.239094  1
  S  S26  1  0.522761  0.108208  0.665430  1
  S  S27  1  0.179755  0.869688  0.760906  1
  O  O28  1  0.500000  0.500000  0.500000  1
  O  O29  1  0.000000  0.000000  0.500000  1
