# generated using pymatgen
data_Ti10SiSb6Pd
_symmetry_space_group_name_H-M   'P 1'
_cell_length_a   8.23755900
_cell_length_b   8.23756117
_cell_length_c   5.53999100
_cell_angle_alpha   90.00000000
_cell_angle_beta   90.00000000
_cell_angle_gamma   120.00000333
_symmetry_Int_Tables_number   1
_chemical_formula_structural   Ti10SiSb6Pd
_chemical_formula_sum   'Ti10 Si1 Sb6 Pd1'
_cell_volume   325.56436835
_cell_formula_units_Z   1
loop_
 _symmetry_equiv_pos_site_id
 _symmetry_equiv_pos_as_xyz
  1  'x, y, z'
loop_
 _atom_site_type_symbol
 _atom_site_label
 _atom_site_symmetry_multiplicity
 _atom_site_fract_x
 _atom_site_fract_y
 _atom_site_fract_z
 _atom_site_occupancy
  Ti  Ti0  1  0.666667  0.333333  0.500000  1
  Ti  Ti1  1  0.333333  0.666667  0.500000  1
  Ti  Ti2  1  0.333333  0.666667  0.000000  1
  Ti  Ti3  1  0.666667  0.333333  0.000000  1
  Ti  Ti4  1  0.729515  0.729515  0.236053  1
  Ti  Ti5  1  0.270485  0.000000  0.236053  1
  Ti  Ti6  1  0.000000  0.270485  0.236053  1
  Ti  Ti7  1  0.270485  0.270485  0.763947  1
  Ti  Ti8  1  0.729515  0.000000  0.763947  1
  Ti  Ti9  1  0.000000  0.729515  0.763947  1
  Si  Si10  1  0.000000  0.000000  0.000000  1
  Sb  Sb11  1  0.385701  0.385701  0.255517  1
  Sb  Sb12  1  0.614299  0.000000  0.255517  1
  Sb  Sb13  1  0.000000  0.614299  0.255517  1
  Sb  Sb14  1  0.614299  0.614299  0.744483  1
  Sb  Sb15  1  0.385701  0.000000  0.744483  1
  Sb  Sb16  1  0.000000  0.385701  0.744483  1
  Pd  Pd17  1  0.000000  0.000000  0.500000  1
