# generated using pymatgen
data_YEr5Sc4(In2Rh)4
_symmetry_space_group_name_H-M   'P 1'
_cell_length_a   3.52941300
_cell_length_b   7.87128601
_cell_length_c   17.92632101
_cell_angle_alpha   89.99571851
_cell_angle_beta   90.00000000
_cell_angle_gamma   90.00000000
_symmetry_Int_Tables_number   1
_chemical_formula_structural   YEr5Sc4(In2Rh)4
_chemical_formula_sum   'Y1 Er5 Sc4 In8 Rh4'
_cell_volume   498.01146603
_cell_formula_units_Z   1
loop_
 _symmetry_equiv_pos_site_id
 _symmetry_equiv_pos_as_xyz
  1  'x, y, z'
loop_
 _atom_site_type_symbol
 _atom_site_label
 _atom_site_symmetry_multiplicity
 _atom_site_fract_x
 _atom_site_fract_y
 _atom_site_fract_z
 _atom_site_occupancy
  Y  Y0  1  0.000000  0.000000  0.000000  1
  Er  Er1  1  0.000000  0.500000  0.500000  1
  Er  Er2  1  0.000000  0.748094  0.781936  1
  Er  Er3  1  0.000000  0.251906  0.218064  1
  Er  Er4  1  0.000000  0.248287  0.718100  1
  Er  Er5  1  0.000000  0.751713  0.281900  1
  Sc  Sc6  1  0.000000  0.877433  0.588645  1
  Sc  Sc7  1  0.000000  0.122567  0.411355  1
  Sc  Sc8  1  0.000000  0.377706  0.911204  1
  Sc  Sc9  1  0.000000  0.622294  0.088796  1
  In  In10  1  0.500000  0.808634  0.438156  1
  In  In11  1  0.500000  0.191366  0.561844  1
  In  In12  1  0.500000  0.309327  0.061979  1
  In  In13  1  0.500000  0.690673  0.938021  1
  In  In14  1  0.500000  0.925606  0.149741  1
  In  In15  1  0.500000  0.074394  0.850259  1
  In  In16  1  0.500000  0.425875  0.350542  1
  In  In17  1  0.500000  0.574125  0.649458  1
  Rh  Rh18  1  0.500000  0.962931  0.692717  1
  Rh  Rh19  1  0.500000  0.037069  0.307283  1
  Rh  Rh20  1  0.500000  0.462964  0.807216  1
  Rh  Rh21  1  0.500000  0.537036  0.192784  1
