# generated using pymatgen
data_Y2Tm2Lu2Ni20P13
_symmetry_space_group_name_H-M   'P 1'
_cell_length_a   12.62370189
_cell_length_b   12.63667508
_cell_length_c   3.72840400
_cell_angle_alpha   90.00000000
_cell_angle_beta   90.00000000
_cell_angle_gamma   120.11042230
_symmetry_Int_Tables_number   1
_chemical_formula_structural   Y2Tm2Lu2Ni20P13
_chemical_formula_sum   'Y2 Tm2 Lu2 Ni20 P13'
_cell_volume   514.50409444
_cell_formula_units_Z   1
loop_
 _symmetry_equiv_pos_site_id
 _symmetry_equiv_pos_as_xyz
  1  'x, y, z'
loop_
 _atom_site_type_symbol
 _atom_site_label
 _atom_site_symmetry_multiplicity
 _atom_site_fract_x
 _atom_site_fract_y
 _atom_site_fract_z
 _atom_site_occupancy
  Y  Y0  1  0.717777  0.529556  0.000000  1
  Y  Y1  1  0.811215  0.281233  0.000000  1
  Tm  Tm2  1  0.470548  0.188376  0.000000  1
  Tm  Tm3  1  0.189282  0.718278  0.500000  1
  Lu  Lu4  1  0.529029  0.811175  0.500000  1
  Lu  Lu5  1  0.281817  0.470649  0.500000  1
  Ni  Ni6  1  0.333840  0.666602  0.000000  1
  Ni  Ni7  1  0.665236  0.332355  0.500000  1
  Ni  Ni8  1  0.197104  0.092355  0.000000  1
  Ni  Ni9  1  0.895992  0.804234  0.000000  1
  Ni  Ni10  1  0.907991  0.104039  0.000000  1
  Ni  Ni11  1  0.849063  0.927187  0.500000  1
  Ni  Ni12  1  0.078604  0.151528  0.500000  1
  Ni  Ni13  1  0.073703  0.922107  0.500000  1
  Ni  Ni14  1  0.436798  0.417184  0.000000  1
  Ni  Ni15  1  0.980648  0.562742  0.000000  1
  Ni  Ni16  1  0.581505  0.019426  0.000000  1
  Ni  Ni17  1  0.564154  0.586919  0.500000  1
  Ni  Ni18  1  0.022837  0.435419  0.500000  1
  Ni  Ni19  1  0.413027  0.978505  0.500000  1
  Ni  Ni20  1  0.079679  0.321648  0.000000  1
  Ni  Ni21  1  0.242664  0.921106  0.000000  1
  Ni  Ni22  1  0.678336  0.758304  0.000000  1
  Ni  Ni23  1  0.930767  0.682654  0.500000  1
  Ni  Ni24  1  0.751107  0.069014  0.500000  1
  Ni  Ni25  1  0.318232  0.247728  0.500000  1
  P  P26  1  0.234353  0.284542  0.000000  1
  P  P27  1  0.049930  0.765532  0.000000  1
  P  P28  1  0.714644  0.949983  0.000000  1
  P  P29  1  0.767799  0.720594  0.500000  1
  P  P30  1  0.952543  0.232004  0.500000  1
  P  P31  1  0.280928  0.048374  0.500000  1
  P  P32  1  0.475471  0.614665  0.000000  1
  P  P33  1  0.139498  0.524156  0.000000  1
  P  P34  1  0.385314  0.860620  0.000000  1
  P  P35  1  0.523497  0.385899  0.500000  1
  P  P36  1  0.862719  0.475771  0.500000  1
  P  P37  1  0.611918  0.137135  0.500000  1
  P  P38  1  0.000433  0.000400  0.000000  1
