# generated using pymatgen
data_Nb4P2C
_symmetry_space_group_name_H-M   'P 1'
_cell_length_a   10.31451900
_cell_length_b   10.31451970
_cell_length_c   3.36823100
_cell_angle_alpha   90.00000000
_cell_angle_beta   90.00000000
_cell_angle_gamma   120.00000097
_symmetry_Int_Tables_number   1
_chemical_formula_structural   Nb4P2C
_chemical_formula_sum   'Nb12 P6 C3'
_cell_volume   310.33480510
_cell_formula_units_Z   3
loop_
 _symmetry_equiv_pos_site_id
 _symmetry_equiv_pos_as_xyz
  1  'x, y, z'
loop_
 _atom_site_type_symbol
 _atom_site_label
 _atom_site_symmetry_multiplicity
 _atom_site_fract_x
 _atom_site_fract_y
 _atom_site_fract_z
 _atom_site_occupancy
  Nb  Nb0  1  0.815678  0.000000  0.000000  1
  Nb  Nb1  1  0.184322  0.184322  0.000000  1
  Nb  Nb2  1  0.000000  0.815678  0.000000  1
  Nb  Nb3  1  0.000000  0.532670  0.000000  1
  Nb  Nb4  1  0.467330  0.467330  0.000000  1
  Nb  Nb5  1  0.532670  0.000000  0.000000  1
  Nb  Nb6  1  0.452738  0.208050  0.500000  1
  Nb  Nb7  1  0.791950  0.244688  0.500000  1
  Nb  Nb8  1  0.755312  0.547262  0.500000  1
  Nb  Nb9  1  0.547262  0.755312  0.500000  1
  Nb  Nb10  1  0.244688  0.791950  0.500000  1
  Nb  Nb11  1  0.208050  0.452738  0.500000  1
  P  P12  1  0.000000  0.000000  0.500000  1
  P  P13  1  0.666667  0.333333  0.000000  1
  P  P14  1  0.333333  0.666667  0.000000  1
  P  P15  1  0.000000  0.281884  0.000000  1
  P  P16  1  0.718116  0.718116  0.000000  1
  P  P17  1  0.281884  0.000000  0.000000  1
  C  C18  1  0.000000  0.670427  0.500000  1
  C  C19  1  0.329573  0.329573  0.500000  1
  C  C20  1  0.670427  0.000000  0.500000  1
