# generated using pymatgen
data_CeSmErSiPd5
_symmetry_space_group_name_H-M   'P 1'
_cell_length_a   8.33412292
_cell_length_b   8.30802055
_cell_length_c   8.30831686
_cell_angle_alpha   128.22444217
_cell_angle_beta   125.79585406
_cell_angle_gamma   78.18252792
_symmetry_Int_Tables_number   1
_chemical_formula_structural   CeSmErSiPd5
_chemical_formula_sum   'Ce2 Sm2 Er2 Si2 Pd10'
_cell_volume   355.24398377
_cell_formula_units_Z   2
loop_
 _symmetry_equiv_pos_site_id
 _symmetry_equiv_pos_as_xyz
  1  'x, y, z'
loop_
 _atom_site_type_symbol
 _atom_site_label
 _atom_site_symmetry_multiplicity
 _atom_site_fract_x
 _atom_site_fract_y
 _atom_site_fract_z
 _atom_site_occupancy
  Ce  Ce0  1  0.380920  0.249502  0.131426  1
  Ce  Ce1  1  0.619080  0.750498  0.868574  1
  Sm  Sm2  1  0.222250  0.449122  0.773122  1
  Sm  Sm3  1  0.777750  0.550878  0.226878  1
  Er  Er4  1  0.823734  0.050676  0.773173  1
  Er  Er5  1  0.176266  0.949324  0.226827  1
  Si  Si6  1  0.782896  0.249978  0.532918  1
  Si  Si7  1  0.217104  0.750022  0.467082  1
  Pd  Pd8  1  0.167486  0.395303  0.350995  1
  Pd  Pd9  1  0.832501  0.183489  0.227795  1
  Pd  Pd10  1  0.457316  0.097822  0.765579  1
  Pd  Pd11  1  0.542689  0.308282  0.640520  1
  Pd  Pd12  1  0.000000  0.500000  0.000000  1
  Pd  Pd13  1  0.000000  0.000000  0.500000  1
  Pd  Pd14  1  0.457311  0.691718  0.359480  1
  Pd  Pd15  1  0.542684  0.902178  0.234421  1
  Pd  Pd16  1  0.167499  0.816511  0.772205  1
  Pd  Pd17  1  0.832514  0.604697  0.649005  1
