# generated using pymatgen
data_Zr12Ti4Co3Rh5N4
_symmetry_space_group_name_H-M   'P 1'
_cell_length_a   8.58640802
_cell_length_b   8.59575968
_cell_length_c   8.59576000
_cell_angle_alpha   59.99999876
_cell_angle_beta   59.96396431
_cell_angle_gamma   59.96397394
_symmetry_Int_Tables_number   1
_chemical_formula_structural   Zr12Ti4Co3Rh5N4
_chemical_formula_sum   'Zr12 Ti4 Co3 Rh5 N4'
_cell_volume   448.36151898
_cell_formula_units_Z   1
loop_
 _symmetry_equiv_pos_site_id
 _symmetry_equiv_pos_as_xyz
  1  'x, y, z'
loop_
 _atom_site_type_symbol
 _atom_site_label
 _atom_site_symmetry_multiplicity
 _atom_site_fract_x
 _atom_site_fract_y
 _atom_site_fract_z
 _atom_site_occupancy
  Zr  Zr0  1  0.814249  0.811766  0.186993  1
  Zr  Zr1  1  0.187599  0.192364  0.810019  1
  Zr  Zr2  1  0.814249  0.186993  0.811766  1
  Zr  Zr3  1  0.187599  0.810019  0.192364  1
  Zr  Zr4  1  0.187599  0.810019  0.810019  1
  Zr  Zr5  1  0.814249  0.186993  0.186993  1
  Zr  Zr6  1  0.440796  0.437540  0.060833  1
  Zr  Zr7  1  0.065453  0.061798  0.436375  1
  Zr  Zr8  1  0.440796  0.060833  0.437540  1
  Zr  Zr9  1  0.065453  0.436375  0.061798  1
  Zr  Zr10  1  0.065453  0.436375  0.436375  1
  Zr  Zr11  1  0.440796  0.060833  0.060833  1
  Ti  Ti12  1  0.079540  0.640153  0.640153  1
  Ti  Ti13  1  0.636472  0.111969  0.625780  1
  Ti  Ti14  1  0.636472  0.625780  0.111969  1
  Ti  Ti15  1  0.636472  0.625780  0.625780  1
  Co  Co16  1  0.828461  0.487492  0.842024  1
  Co  Co17  1  0.828461  0.842024  0.487492  1
  Co  Co18  1  0.828461  0.842024  0.842024  1
  Rh  Rh19  1  0.748432  0.417189  0.417189  1
  Rh  Rh20  1  0.411521  0.746946  0.420766  1
  Rh  Rh21  1  0.411521  0.420766  0.746946  1
  Rh  Rh22  1  0.411521  0.420766  0.420766  1
  Rh  Rh23  1  0.511346  0.829552  0.829552  1
  N  N24  1  0.624365  0.125212  0.125212  1
  N  N25  1  0.127554  0.624645  0.123901  1
  N  N26  1  0.127554  0.123901  0.624645  1
  N  N27  1  0.127554  0.123901  0.123901  1
