# generated using pymatgen
data_PrDyCo4(B2Ru)4
_symmetry_space_group_name_H-M   'P 1'
_cell_length_a   7.28018508
_cell_length_b   7.24599008
_cell_length_c   3.92086000
_cell_angle_alpha   90.00000000
_cell_angle_beta   90.00000000
_cell_angle_gamma   90.01684225
_symmetry_Int_Tables_number   1
_chemical_formula_structural   PrDyCo4(B2Ru)4
_chemical_formula_sum   'Pr1 Dy1 Co4 B8 Ru4'
_cell_volume   206.83378139
_cell_formula_units_Z   1
loop_
 _symmetry_equiv_pos_site_id
 _symmetry_equiv_pos_as_xyz
  1  'x, y, z'
loop_
 _atom_site_type_symbol
 _atom_site_label
 _atom_site_symmetry_multiplicity
 _atom_site_fract_x
 _atom_site_fract_y
 _atom_site_fract_z
 _atom_site_occupancy
  Pr  Pr0  1  0.500000  0.500000  0.578580  1
  Dy  Dy1  1  0.000000  0.000000  0.089715  1
  Co  Co2  1  0.623113  0.115912  0.377175  1
  Co  Co3  1  0.376887  0.884088  0.377175  1
  Co  Co4  1  0.617824  0.878762  0.877819  1
  Co  Co5  1  0.382176  0.121238  0.877819  1
  B  B6  1  0.339466  0.822262  0.881831  1
  B  B7  1  0.660534  0.177738  0.881831  1
  B  B8  1  0.315708  0.156324  0.379171  1
  B  B9  1  0.684292  0.843676  0.379171  1
  B  B10  1  0.171340  0.734247  0.598405  1
  B  B11  1  0.828660  0.265753  0.598405  1
  B  B12  1  0.223784  0.324643  0.097747  1
  B  B13  1  0.776216  0.675357  0.097747  1
  Ru  Ru14  1  0.843912  0.388186  0.101965  1
  Ru  Ru15  1  0.156088  0.611814  0.101965  1
  Ru  Ru16  1  0.890979  0.662865  0.601739  1
  Ru  Ru17  1  0.109021  0.337135  0.601739  1
