# generated using pymatgen
data_Lu16Ni3Ag4Rh
_symmetry_space_group_name_H-M   'P 1'
_cell_length_a   9.27997712
_cell_length_b   9.27997743
_cell_length_c   9.27997764
_cell_angle_alpha   59.84557245
_cell_angle_beta   59.84556749
_cell_angle_gamma   59.84557240
_symmetry_Int_Tables_number   1
_chemical_formula_structural   Lu16Ni3Ag4Rh
_chemical_formula_sum   'Lu16 Ni3 Ag4 Rh1'
_cell_volume   563.12008675
_cell_formula_units_Z   1
loop_
 _symmetry_equiv_pos_site_id
 _symmetry_equiv_pos_as_xyz
  1  'x, y, z'
loop_
 _atom_site_type_symbol
 _atom_site_label
 _atom_site_symmetry_multiplicity
 _atom_site_fract_x
 _atom_site_fract_y
 _atom_site_fract_z
 _atom_site_occupancy
  Lu  Lu0  1  0.349942  0.349942  0.349942  1
  Lu  Lu1  1  0.353393  0.353393  0.946984  1
  Lu  Lu2  1  0.353393  0.946984  0.353393  1
  Lu  Lu3  1  0.946984  0.353393  0.353393  1
  Lu  Lu4  1  0.807966  0.188776  0.188776  1
  Lu  Lu5  1  0.188632  0.811156  0.811156  1
  Lu  Lu6  1  0.188776  0.807966  0.188776  1
  Lu  Lu7  1  0.811156  0.188632  0.811156  1
  Lu  Lu8  1  0.188776  0.188776  0.807966  1
  Lu  Lu9  1  0.811156  0.811156  0.188632  1
  Lu  Lu10  1  0.935174  0.564879  0.564879  1
  Lu  Lu11  1  0.563654  0.935560  0.935560  1
  Lu  Lu12  1  0.564879  0.935174  0.564879  1
  Lu  Lu13  1  0.935560  0.563654  0.935560  1
  Lu  Lu14  1  0.564879  0.564879  0.935174  1
  Lu  Lu15  1  0.935560  0.935560  0.563654  1
  Ni  Ni16  1  0.142763  0.142763  0.571775  1
  Ni  Ni17  1  0.142763  0.571775  0.142763  1
  Ni  Ni18  1  0.571775  0.142763  0.142763  1
  Ag  Ag19  1  0.582506  0.582506  0.582506  1
  Ag  Ag20  1  0.582537  0.582537  0.252228  1
  Ag  Ag21  1  0.582537  0.252228  0.582537  1
  Ag  Ag22  1  0.252228  0.582537  0.582537  1
  Rh  Rh23  1  0.143010  0.143010  0.143010  1
