# generated using pymatgen
data_Tm8V11Si16Mo
_symmetry_space_group_name_H-M   'P 1'
_cell_length_a   6.62913002
_cell_length_b   6.82029258
_cell_length_c   12.82074300
_cell_angle_alpha   90.00000000
_cell_angle_beta   90.00000000
_cell_angle_gamma   90.05433032
_symmetry_Int_Tables_number   1
_chemical_formula_structural   Tm8V11Si16Mo
_chemical_formula_sum   'Tm8 V11 Si16 Mo1'
_cell_volume   579.65894527
_cell_formula_units_Z   1
loop_
 _symmetry_equiv_pos_site_id
 _symmetry_equiv_pos_as_xyz
  1  'x, y, z'
loop_
 _atom_site_type_symbol
 _atom_site_label
 _atom_site_symmetry_multiplicity
 _atom_site_fract_x
 _atom_site_fract_y
 _atom_site_fract_z
 _atom_site_occupancy
  Tm  Tm0  1  0.499202  0.330721  0.094486  1
  Tm  Tm1  1  0.998686  0.169558  0.405556  1
  Tm  Tm2  1  0.500520  0.669712  0.595529  1
  Tm  Tm3  1  0.000723  0.831236  0.904467  1
  Tm  Tm4  1  0.500520  0.669712  0.904471  1
  Tm  Tm5  1  0.000723  0.831236  0.595533  1
  Tm  Tm6  1  0.499202  0.330721  0.405514  1
  Tm  Tm7  1  0.998686  0.169558  0.094444  1
  V  V8  1  0.836417  0.328356  0.626901  1
  V  V9  1  0.336130  0.171725  0.873331  1
  V  V10  1  0.164410  0.670045  0.126429  1
  V  V11  1  0.663387  0.829052  0.373721  1
  V  V12  1  0.164410  0.670045  0.373571  1
  V  V13  1  0.663387  0.829052  0.126279  1
  V  V14  1  0.836417  0.328356  0.873099  1
  V  V15  1  0.336130  0.171725  0.626669  1
  V  V16  1  0.663588  0.013221  0.750000  1
  V  V17  1  0.163168  0.486472  0.750000  1
  V  V18  1  0.336446  0.986787  0.250000  1
  Si  Si19  1  0.661042  0.043263  0.544609  1
  Si  Si20  1  0.161415  0.457187  0.955415  1
  Si  Si21  1  0.338828  0.956922  0.043876  1
  Si  Si22  1  0.838883  0.544142  0.457708  1
  Si  Si23  1  0.338828  0.956922  0.456124  1
  Si  Si24  1  0.838883  0.544142  0.042292  1
  Si  Si25  1  0.661042  0.043263  0.955391  1
  Si  Si26  1  0.161415  0.457187  0.544585  1
  Si  Si27  1  0.538018  0.367200  0.750000  1
  Si  Si28  1  0.037406  0.132197  0.750000  1
  Si  Si29  1  0.460515  0.633782  0.250000  1
  Si  Si30  1  0.963982  0.870090  0.250000  1
  Si  Si31  1  0.802455  0.621086  0.750000  1
  Si  Si32  1  0.302518  0.879165  0.750000  1
  Si  Si33  1  0.200424  0.375256  0.250000  1
  Si  Si34  1  0.696154  0.120710  0.250000  1
  Mo  Mo35  1  0.836043  0.510199  0.250000  1
