# generated using pymatgen
data_Ho4Hf3IrF28
_symmetry_space_group_name_H-M   'P 1'
_cell_length_a   5.66150907
_cell_length_b   8.99984118
_cell_length_c   12.06291200
_cell_angle_alpha   62.60345607
_cell_angle_beta   89.99111444
_cell_angle_gamma   89.98251026
_symmetry_Int_Tables_number   1
_chemical_formula_structural   Ho4Hf3IrF28
_chemical_formula_sum   'Ho4 Hf3 Ir1 F28'
_cell_volume   545.70186353
_cell_formula_units_Z   1
loop_
 _symmetry_equiv_pos_site_id
 _symmetry_equiv_pos_as_xyz
  1  'x, y, z'
loop_
 _atom_site_type_symbol
 _atom_site_label
 _atom_site_symmetry_multiplicity
 _atom_site_fract_x
 _atom_site_fract_y
 _atom_site_fract_z
 _atom_site_occupancy
  Ho  Ho0  1  0.757635  0.813356  0.767051  1
  Ho  Ho1  1  0.260255  0.185123  0.730671  1
  Ho  Ho2  1  0.238489  0.186109  0.238554  1
  Ho  Ho3  1  0.742441  0.816392  0.266712  1
  Hf  Hf4  1  0.755890  0.273346  0.955738  1
  Hf  Hf5  1  0.255431  0.725418  0.544196  1
  Hf  Hf6  1  0.244878  0.725901  0.045965  1
  Ir  Ir7  1  0.741717  0.272535  0.455058  1
  F  F8  1  0.464982  0.708504  0.922448  1
  F  F9  1  0.938469  0.291336  0.580253  1
  F  F10  1  0.532098  0.289873  0.077904  1
  F  F11  1  0.035241  0.711133  0.419895  1
  F  F12  1  0.445965  0.280721  0.544899  1
  F  F13  1  0.953060  0.721228  0.951099  1
  F  F14  1  0.547061  0.717135  0.450981  1
  F  F15  1  0.043727  0.278717  0.052473  1
  F  F16  1  0.771430  0.523498  0.858796  1
  F  F17  1  0.263455  0.475644  0.640044  1
  F  F18  1  0.230661  0.476184  0.142669  1
  F  F19  1  0.734653  0.515605  0.358806  1
  F  F20  1  0.758213  0.023926  0.057987  1
  F  F21  1  0.263667  0.974759  0.443997  1
  F  F22  1  0.244484  0.974399  0.941664  1
  F  F23  1  0.745704  0.029309  0.548241  1
  F  F24  1  0.982484  0.734511  0.646936  1
  F  F25  1  0.488929  0.266142  0.848759  1
  F  F26  1  0.028963  0.270823  0.358790  1
  F  F27  1  0.516085  0.731921  0.150834  1
  F  F28  1  0.035073  0.748826  0.172486  1
  F  F29  1  0.548856  0.256405  0.326187  1
  F  F30  1  0.970494  0.252303  0.829377  1
  F  F31  1  0.466692  0.746405  0.671518  1
  F  F32  1  0.426222  0.975149  0.235845  1
  F  F33  1  0.924069  0.027698  0.268193  1
  F  F34  1  0.572204  0.024778  0.763675  1
  F  F35  1  0.070322  0.974886  0.731297  1
