# generated using pymatgen
data_Nd6Gd3PtRh5
_symmetry_space_group_name_H-M   'P 1'
_cell_length_a   7.67591992
_cell_length_b   7.68936915
_cell_length_c   7.67481000
_cell_angle_alpha   70.50203280
_cell_angle_beta   70.59023621
_cell_angle_gamma   70.74526762
_symmetry_Int_Tables_number   1
_chemical_formula_structural   Nd6Gd3PtRh5
_chemical_formula_sum   'Nd6 Gd3 Pt1 Rh5'
_cell_volume   390.35194932
_cell_formula_units_Z   1
loop_
 _symmetry_equiv_pos_site_id
 _symmetry_equiv_pos_as_xyz
  1  'x, y, z'
loop_
 _atom_site_type_symbol
 _atom_site_label
 _atom_site_symmetry_multiplicity
 _atom_site_fract_x
 _atom_site_fract_y
 _atom_site_fract_z
 _atom_site_occupancy
  Nd  Nd0  1  0.333985  0.610305  0.840870  1
  Nd  Nd1  1  0.839281  0.330019  0.605733  1
  Nd  Nd2  1  0.609431  0.838374  0.330530  1
  Nd  Nd3  1  0.666032  0.390898  0.162057  1
  Nd  Nd4  1  0.159181  0.669461  0.391318  1
  Nd  Nd5  1  0.394468  0.155644  0.666380  1
  Gd  Gd6  1  0.999334  0.998697  0.999851  1
  Gd  Gd7  1  0.799079  0.806757  0.801354  1
  Gd  Gd8  1  0.201464  0.196643  0.200809  1
  Pt  Pt9  1  0.041280  0.411112  0.841707  1
  Rh  Rh10  1  0.156497  0.958746  0.593145  1
  Rh  Rh11  1  0.594223  0.157328  0.958735  1
  Rh  Rh12  1  0.960453  0.590438  0.157669  1
  Rh  Rh13  1  0.839552  0.041771  0.407713  1
  Rh  Rh14  1  0.405738  0.843809  0.042130  1
