# generated using pymatgen
data_Dy2Er6In3Co
_symmetry_space_group_name_H-M   'P 1'
_cell_length_a   10.30199300
_cell_length_b   10.30260015
_cell_length_c   6.95186000
_cell_angle_alpha   90.00314813
_cell_angle_beta   90.00000000
_cell_angle_gamma   119.99804737
_symmetry_Int_Tables_number   1
_chemical_formula_structural   Dy2Er6In3Co
_chemical_formula_sum   'Dy4 Er12 In6 Co2'
_cell_volume   639.01093306
_cell_formula_units_Z   2
loop_
 _symmetry_equiv_pos_site_id
 _symmetry_equiv_pos_as_xyz
  1  'x, y, z'
loop_
 _atom_site_type_symbol
 _atom_site_label
 _atom_site_symmetry_multiplicity
 _atom_site_fract_x
 _atom_site_fract_y
 _atom_site_fract_z
 _atom_site_occupancy
  Dy  Dy0  1  0.534357  0.068713  0.790976  1
  Dy  Dy1  1  0.931543  0.465792  0.791147  1
  Dy  Dy2  1  0.534250  0.465792  0.791147  1
  Dy  Dy3  1  0.465457  0.930914  0.290861  1
  Er  Er4  1  0.069205  0.534560  0.291354  1
  Er  Er5  1  0.465355  0.534560  0.291354  1
  Er  Er6  1  0.821729  0.643458  0.499010  1
  Er  Er7  1  0.356396  0.178475  0.499207  1
  Er  Er8  1  0.822079  0.178475  0.499207  1
  Er  Er9  1  0.178293  0.356586  0.000083  1
  Er  Er10  1  0.643674  0.821626  0.999800  1
  Er  Er11  1  0.177952  0.821626  0.999800  1
  Er  Er12  1  0.666832  0.333663  0.182887  1
  Er  Er13  1  0.333141  0.666283  0.682404  1
  Er  Er14  1  0.999991  0.999981  0.779133  1
  Er  Er15  1  0.000024  0.000047  0.279316  1
  In  In16  1  0.837361  0.674724  0.039182  1
  In  In17  1  0.325417  0.162739  0.038840  1
  In  In18  1  0.837321  0.162739  0.038840  1
  In  In19  1  0.162928  0.325855  0.538105  1
  In  In20  1  0.674501  0.836978  0.538491  1
  In  In21  1  0.162477  0.836978  0.538491  1
  Co  Co22  1  0.666669  0.333337  0.567908  1
  Co  Co23  1  0.333049  0.666098  0.068364  1
