# generated using pymatgen
data_Ho6Co17ReP12
_symmetry_space_group_name_H-M   'P 1'
_cell_length_a   3.70389000
_cell_length_b   10.51970200
_cell_length_c   12.21041400
_cell_angle_alpha   90.00000000
_cell_angle_beta   90.00000000
_cell_angle_gamma   90.00000000
_symmetry_Int_Tables_number   1
_chemical_formula_structural   Ho6Co17ReP12
_chemical_formula_sum   'Ho6 Co17 Re1 P12'
_cell_volume   475.76436151
_cell_formula_units_Z   1
loop_
 _symmetry_equiv_pos_site_id
 _symmetry_equiv_pos_as_xyz
  1  'x, y, z'
loop_
 _atom_site_type_symbol
 _atom_site_label
 _atom_site_symmetry_multiplicity
 _atom_site_fract_x
 _atom_site_fract_y
 _atom_site_fract_z
 _atom_site_occupancy
  Ho  Ho0  1  0.000000  0.500000  0.523908  1
  Ho  Ho1  1  0.500000  0.000000  0.477661  1
  Ho  Ho2  1  0.500000  0.817700  0.206637  1
  Ho  Ho3  1  0.500000  0.182300  0.206637  1
  Ho  Ho4  1  0.000000  0.682810  0.795009  1
  Ho  Ho5  1  0.000000  0.317190  0.795009  1
  Co  Co6  1  0.000000  0.500000  0.987728  1
  Co  Co7  1  0.500000  0.000000  0.014606  1
  Co  Co8  1  0.500000  0.296715  0.430585  1
  Co  Co9  1  0.500000  0.703285  0.430585  1
  Co  Co10  1  0.000000  0.203132  0.568874  1
  Co  Co11  1  0.000000  0.796868  0.568874  1
  Co  Co12  1  0.500000  0.878863  0.709096  1
  Co  Co13  1  0.500000  0.121137  0.709096  1
  Co  Co14  1  0.000000  0.620801  0.291216  1
  Co  Co15  1  0.000000  0.379199  0.291216  1
  Co  Co16  1  0.500000  0.332576  0.991360  1
  Co  Co17  1  0.500000  0.667424  0.991360  1
  Co  Co18  1  0.000000  0.166767  0.006197  1
  Co  Co19  1  0.000000  0.833233  0.006197  1
  Co  Co20  1  0.000000  0.000000  0.840169  1
  Co  Co21  1  0.500000  0.500000  0.702501  1
  Co  Co22  1  0.000000  0.000000  0.296527  1
  Re  Re23  1  0.500000  0.500000  0.156893  1
  P  P24  1  0.500000  0.311316  0.616437  1
  P  P25  1  0.500000  0.688684  0.616437  1
  P  P26  1  0.000000  0.188321  0.384039  1
  P  P27  1  0.000000  0.811679  0.384039  1
  P  P28  1  0.500000  0.500000  0.880397  1
  P  P29  1  0.000000  0.000000  0.117630  1
  P  P30  1  0.500000  0.849041  0.892103  1
  P  P31  1  0.500000  0.150959  0.892103  1
  P  P32  1  0.000000  0.655957  0.106684  1
  P  P33  1  0.000000  0.344043  0.106684  1
  P  P34  1  0.500000  0.500000  0.349783  1
  P  P35  1  0.000000  0.000000  0.655720  1
