# generated using pymatgen
data_Li4Er4Pt3Rh
_symmetry_space_group_name_H-M   'P 1'
_cell_length_a   3.96513900
_cell_length_b   6.97668525
_cell_length_c   8.36226935
_cell_angle_alpha   90.07370923
_cell_angle_beta   90.00000000
_cell_angle_gamma   90.00000000
_symmetry_Int_Tables_number   1
_chemical_formula_structural   Li4Er4Pt3Rh
_chemical_formula_sum   'Li4 Er4 Pt3 Rh1'
_cell_volume   231.32967049
_cell_formula_units_Z   1
loop_
 _symmetry_equiv_pos_site_id
 _symmetry_equiv_pos_as_xyz
  1  'x, y, z'
loop_
 _atom_site_type_symbol
 _atom_site_label
 _atom_site_symmetry_multiplicity
 _atom_site_fract_x
 _atom_site_fract_y
 _atom_site_fract_z
 _atom_site_occupancy
  Li  Li0  1  0.250000  0.877017  0.944747  1
  Li  Li1  1  0.750000  0.122425  0.056231  1
  Li  Li2  1  0.750000  0.625317  0.446041  1
  Li  Li3  1  0.250000  0.376346  0.555546  1
  Er  Er4  1  0.250000  0.449211  0.176581  1
  Er  Er5  1  0.750000  0.552816  0.819356  1
  Er  Er6  1  0.750000  0.043884  0.676492  1
  Er  Er7  1  0.250000  0.948034  0.326339  1
  Pt  Pt8  1  0.750000  0.244092  0.371707  1
  Pt  Pt9  1  0.750000  0.743102  0.128249  1
  Pt  Pt10  1  0.250000  0.257237  0.869581  1
  Rh  Rh11  1  0.250000  0.760515  0.629132  1
