# generated using pymatgen
data_Sr2Ta5WS12
_symmetry_space_group_name_H-M   'P 1'
_cell_length_a   5.78175700
_cell_length_b   5.78201809
_cell_length_c   15.06034000
_cell_angle_alpha   90.00000000
_cell_angle_beta   90.00000000
_cell_angle_gamma   119.99668127
_symmetry_Int_Tables_number   1
_chemical_formula_structural   Sr2Ta5WS12
_chemical_formula_sum   'Sr2 Ta5 W1 S12'
_cell_volume   436.03285244
_cell_formula_units_Z   1
loop_
 _symmetry_equiv_pos_site_id
 _symmetry_equiv_pos_as_xyz
  1  'x, y, z'
loop_
 _atom_site_type_symbol
 _atom_site_label
 _atom_site_symmetry_multiplicity
 _atom_site_fract_x
 _atom_site_fract_y
 _atom_site_fract_z
 _atom_site_occupancy
  Sr  Sr0  1  0.000031  0.000092  0.250843  1
  Sr  Sr1  1  0.000031  0.000092  0.749157  1
  Ta  Ta2  1  0.333334  0.666644  0.000000  1
  Ta  Ta3  1  0.999975  0.999861  0.000000  1
  Ta  Ta4  1  0.999993  0.999997  0.500000  1
  Ta  Ta5  1  0.666960  0.333537  0.500000  1
  Ta  Ta6  1  0.333342  0.666886  0.500000  1
  W  W7  1  0.666611  0.333151  0.000000  1
  S  S8  1  0.995542  0.658372  0.103004  1
  S  S9  1  0.662631  0.004143  0.102985  1
  S  S10  1  0.341358  0.337021  0.102972  1
  S  S11  1  0.663102  0.663045  0.396078  1
  S  S12  1  0.337125  0.000133  0.396092  1
  S  S13  1  0.000101  0.337160  0.396101  1
  S  S14  1  0.337125  0.000133  0.603908  1
  S  S15  1  0.000101  0.337160  0.603899  1
  S  S16  1  0.663102  0.663045  0.603922  1
  S  S17  1  0.341358  0.337021  0.897028  1
  S  S18  1  0.995542  0.658372  0.896995  1
  S  S19  1  0.662631  0.004143  0.897014  1
