# generated using pymatgen
data_YbEu2SbO7
_symmetry_space_group_name_H-M   'P 1'
_cell_length_a   6.55097719
_cell_length_b   6.55097717
_cell_length_c   7.65305000
_cell_angle_alpha   90.00000000
_cell_angle_beta   90.00000000
_cell_angle_gamma   110.54544192
_symmetry_Int_Tables_number   1
_chemical_formula_structural   YbEu2SbO7
_chemical_formula_sum   'Yb2 Eu4 Sb2 O14'
_cell_volume   307.54269202
_cell_formula_units_Z   2
loop_
 _symmetry_equiv_pos_site_id
 _symmetry_equiv_pos_as_xyz
  1  'x, y, z'
loop_
 _atom_site_type_symbol
 _atom_site_label
 _atom_site_symmetry_multiplicity
 _atom_site_fract_x
 _atom_site_fract_y
 _atom_site_fract_z
 _atom_site_occupancy
  Yb  Yb0  1  0.534165  0.995122  0.750000  1
  Yb  Yb1  1  0.995122  0.534165  0.250000  1
  Eu  Eu2  1  0.500289  0.500289  0.500000  1
  Eu  Eu3  1  0.500289  0.500289  0.000000  1
  Eu  Eu4  1  0.475451  0.999867  0.250000  1
  Eu  Eu5  1  0.999867  0.475451  0.750000  1
  Sb  Sb6  1  0.002834  0.002834  0.500000  1
  Sb  Sb7  1  0.002834  0.002834  0.000000  1
  O  O8  1  0.679246  0.923247  0.471859  1
  O  O9  1  0.923247  0.679246  0.528141  1
  O  O10  1  0.679246  0.923247  0.028141  1
  O  O11  1  0.923247  0.679246  0.971859  1
  O  O12  1  0.323855  0.072974  0.529405  1
  O  O13  1  0.072974  0.323855  0.470595  1
  O  O14  1  0.323855  0.072974  0.970595  1
  O  O15  1  0.072974  0.323855  0.029405  1
  O  O16  1  0.936347  0.065464  0.750000  1
  O  O17  1  0.065464  0.936347  0.250000  1
  O  O18  1  0.364863  0.619845  0.750000  1
  O  O19  1  0.619845  0.364863  0.250000  1
  O  O20  1  0.636999  0.366987  0.750000  1
  O  O21  1  0.366987  0.636999  0.250000  1
