# generated using pymatgen
data_Ho2Er2Si10Ir5Ru
_symmetry_space_group_name_H-M   'P 1'
_cell_length_a   8.13214369
_cell_length_b   8.13644564
_cell_length_c   8.13644380
_cell_angle_alpha   138.09471451
_cell_angle_beta   104.83246165
_cell_angle_gamma   89.99380714
_symmetry_Int_Tables_number   1
_chemical_formula_structural   Ho2Er2Si10Ir5Ru
_chemical_formula_sum   'Ho2 Er2 Si10 Ir5 Ru1'
_cell_volume   332.13076224
_cell_formula_units_Z   1
loop_
 _symmetry_equiv_pos_site_id
 _symmetry_equiv_pos_as_xyz
  1  'x, y, z'
loop_
 _atom_site_type_symbol
 _atom_site_label
 _atom_site_symmetry_multiplicity
 _atom_site_fract_x
 _atom_site_fract_y
 _atom_site_fract_z
 _atom_site_occupancy
  Ho  Ho0  1  0.902600  0.130944  0.770269  1
  Ho  Ho1  1  0.097400  0.867669  0.228344  1
  Er  Er2  1  0.639583  0.369240  0.272155  1
  Er  Er3  1  0.360417  0.632572  0.729657  1
  Si  Si4  1  0.000000  0.750212  0.750212  1
  Si  Si5  1  0.000000  0.249717  0.249717  1
  Si  Si6  1  0.723697  0.473916  0.750031  1
  Si  Si7  1  0.276303  0.026335  0.750219  1
  Si  Si8  1  0.277785  0.527504  0.249903  1
  Si  Si9  1  0.722215  0.972118  0.249720  1
  Si  Si10  1  0.241388  0.399460  0.847894  1
  Si  Si11  1  0.550976  0.893020  0.651865  1
  Si  Si12  1  0.449024  0.100887  0.342042  1
  Si  Si13  1  0.758612  0.606506  0.158073  1
  Ir  Ir14  1  0.745406  0.860511  0.887878  1
  Ir  Ir15  1  0.500000  0.249914  0.749914  1
  Ir  Ir16  1  0.972609  0.357777  0.611800  1
  Ir  Ir17  1  0.027391  0.639191  0.385168  1
  Ir  Ir18  1  0.254594  0.142471  0.115104  1
  Ru  Ru19  1  0.500000  0.750037  0.250037  1
