# generated using pymatgen
data_La2Eu(MgPd)3
_symmetry_space_group_name_H-M   'P 1'
_cell_length_a   7.69488600
_cell_length_b   7.81252120
_cell_length_c   4.19288600
_cell_angle_alpha   90.00000000
_cell_angle_beta   90.00000000
_cell_angle_gamma   119.50314723
_symmetry_Int_Tables_number   1
_chemical_formula_structural   La2Eu(MgPd)3
_chemical_formula_sum   'La2 Eu1 Mg3 Pd3'
_cell_volume   219.37631233
_cell_formula_units_Z   1
loop_
 _symmetry_equiv_pos_site_id
 _symmetry_equiv_pos_as_xyz
  1  'x, y, z'
loop_
 _atom_site_type_symbol
 _atom_site_label
 _atom_site_symmetry_multiplicity
 _atom_site_fract_x
 _atom_site_fract_y
 _atom_site_fract_z
 _atom_site_occupancy
  La  La0  1  0.999651  0.583758  0.500001  1
  La  La1  1  0.415892  0.416241  0.500001  1
  Eu  Eu2  1  0.587441  0.000000  0.500001  1
  Mg  Mg3  1  0.241654  0.000000  0.000000  1
  Mg  Mg4  1  0.999761  0.235337  0.000000  1
  Mg  Mg5  1  0.764425  0.764664  0.000000  1
  Pd  Pd6  1  0.321932  0.654156  0.000000  1
  Pd  Pd7  1  0.667775  0.345843  0.000000  1
  Pd  Pd8  1  0.001369  0.000000  0.500001  1
