# generated using pymatgen
data_CaPu2F12
_symmetry_space_group_name_H-M   'P 1'
_cell_length_a   12.28899130
_cell_length_b   6.16836650
_cell_length_c   6.17350148
_cell_angle_alpha   57.40966819
_cell_angle_beta   56.99027045
_cell_angle_gamma   56.72859764
_symmetry_Int_Tables_number   1
_chemical_formula_structural   CaPu2F12
_chemical_formula_sum   'Ca1 Pu2 F12'
_cell_volume   308.32235630
_cell_formula_units_Z   1
loop_
 _symmetry_equiv_pos_site_id
 _symmetry_equiv_pos_as_xyz
  1  'x, y, z'
loop_
 _atom_site_type_symbol
 _atom_site_label
 _atom_site_symmetry_multiplicity
 _atom_site_fract_x
 _atom_site_fract_y
 _atom_site_fract_z
 _atom_site_occupancy
  Ca  Ca0  1  0.750000  0.500000  0.500000  1
  Pu  Pu1  1  0.006173  0.992436  0.998333  1
  Pu  Pu2  1  0.493827  0.007564  0.001667  1
  F  F3  1  0.163752  0.133744  0.769477  1
  F  F4  1  0.666422  0.144543  0.762686  1
  F  F5  1  0.062791  0.774292  0.331244  1
  F  F6  1  0.575113  0.761398  0.326148  1
  F  F7  1  0.112226  0.665912  0.870876  1
  F  F8  1  0.622386  0.667363  0.851755  1
  F  F9  1  0.437209  0.225708  0.668756  1
  F  F10  1  0.924887  0.238602  0.673852  1
  F  F11  1  0.336248  0.866256  0.230523  1
  F  F12  1  0.833578  0.855457  0.237314  1
  F  F13  1  0.387774  0.334088  0.129124  1
  F  F14  1  0.877614  0.332637  0.148245  1
