# generated using pymatgen
data_La3Dy(Tm4Bi3)4
_symmetry_space_group_name_H-M   'P 1'
_cell_length_a   8.30241917
_cell_length_b   9.46438700
_cell_length_c   12.08887825
_cell_angle_alpha   90.00000000
_cell_angle_beta   89.97678472
_cell_angle_gamma   90.00000000
_symmetry_Int_Tables_number   1
_chemical_formula_structural   La3Dy(Tm4Bi3)4
_chemical_formula_sum   'La3 Dy1 Tm16 Bi12'
_cell_volume   949.91143228
_cell_formula_units_Z   1
loop_
 _symmetry_equiv_pos_site_id
 _symmetry_equiv_pos_as_xyz
  1  'x, y, z'
loop_
 _atom_site_type_symbol
 _atom_site_label
 _atom_site_symmetry_multiplicity
 _atom_site_fract_x
 _atom_site_fract_y
 _atom_site_fract_z
 _atom_site_occupancy
  La  La0  1  0.315819  0.250000  0.219847  1
  La  La1  1  0.815373  0.250000  0.279917  1
  La  La2  1  0.684957  0.750000  0.780545  1
  Dy  Dy3  1  0.186295  0.750000  0.717439  1
  Tm  Tm4  1  0.350704  0.750000  0.218194  1
  Tm  Tm5  1  0.852166  0.750000  0.282639  1
  Tm  Tm6  1  0.647218  0.250000  0.780334  1
  Tm  Tm7  1  0.148201  0.250000  0.718611  1
  Tm  Tm8  1  0.690809  0.567288  0.061232  1
  Tm  Tm9  1  0.192433  0.933205  0.439647  1
  Tm  Tm10  1  0.309036  0.066460  0.937551  1
  Tm  Tm11  1  0.807293  0.433353  0.561552  1
  Tm  Tm12  1  0.309036  0.433540  0.937551  1
  Tm  Tm13  1  0.807293  0.066647  0.561552  1
  Tm  Tm14  1  0.690809  0.932712  0.061232  1
  Tm  Tm15  1  0.192433  0.566795  0.439647  1
  Tm  Tm16  1  0.476432  0.250000  0.490046  1
  Tm  Tm17  1  0.978249  0.250000  0.010537  1
  Tm  Tm18  1  0.522420  0.750000  0.512989  1
  Tm  Tm19  1  0.022932  0.750000  0.987963  1
  Bi  Bi20  1  0.400277  0.750000  0.962929  1
  Bi  Bi21  1  0.907312  0.750000  0.538791  1
  Bi  Bi22  1  0.597975  0.250000  0.034383  1
  Bi  Bi23  1  0.096844  0.250000  0.464902  1
  Bi  Bi24  1  0.564107  0.988446  0.329118  1
  Bi  Bi25  1  0.063834  0.511122  0.171581  1
  Bi  Bi26  1  0.430754  0.492028  0.672654  1
  Bi  Bi27  1  0.940147  0.007969  0.826631  1
  Bi  Bi28  1  0.430754  0.007972  0.672654  1
  Bi  Bi29  1  0.940147  0.492031  0.826631  1
  Bi  Bi30  1  0.564107  0.511554  0.329118  1
  Bi  Bi31  1  0.063834  0.988878  0.171581  1
