# generated using pymatgen
data_SrAc2Ag2Sn5Au4
_symmetry_space_group_name_H-M   'P 1'
_cell_length_a   4.81734900
_cell_length_b   10.24638100
_cell_length_c   14.38435300
_cell_angle_alpha   90.00000000
_cell_angle_beta   90.00000000
_cell_angle_gamma   90.00000000
_symmetry_Int_Tables_number   1
_chemical_formula_structural   SrAc2Ag2Sn5Au4
_chemical_formula_sum   'Sr2 Ac4 Ag4 Sn10 Au8'
_cell_volume   710.01732093
_cell_formula_units_Z   2
loop_
 _symmetry_equiv_pos_site_id
 _symmetry_equiv_pos_as_xyz
  1  'x, y, z'
loop_
 _atom_site_type_symbol
 _atom_site_label
 _atom_site_symmetry_multiplicity
 _atom_site_fract_x
 _atom_site_fract_y
 _atom_site_fract_z
 _atom_site_occupancy
  Sr  Sr0  1  0.000000  0.742294  0.500000  1
  Sr  Sr1  1  0.500000  0.257706  0.000000  1
  Ac  Ac2  1  0.000000  0.744743  0.804972  1
  Ac  Ac3  1  0.000000  0.744743  0.195028  1
  Ac  Ac4  1  0.500000  0.255257  0.695028  1
  Ac  Ac5  1  0.500000  0.255257  0.304972  1
  Ag  Ag6  1  0.000000  0.548260  0.000000  1
  Ag  Ag7  1  0.500000  0.451740  0.500000  1
  Ag  Ag8  1  0.000000  0.942870  0.000000  1
  Ag  Ag9  1  0.500000  0.057130  0.500000  1
  Sn  Sn10  1  0.000000  0.385760  0.838187  1
  Sn  Sn11  1  0.000000  0.385760  0.161813  1
  Sn  Sn12  1  0.500000  0.614240  0.661813  1
  Sn  Sn13  1  0.500000  0.614240  0.338187  1
  Sn  Sn14  1  0.000000  0.021803  0.359280  1
  Sn  Sn15  1  0.000000  0.021803  0.640720  1
  Sn  Sn16  1  0.500000  0.978197  0.140720  1
  Sn  Sn17  1  0.500000  0.978197  0.859280  1
  Sn  Sn18  1  0.000000  0.270780  0.500000  1
  Sn  Sn19  1  0.500000  0.729220  0.000000  1
  Au  Au20  1  0.000000  0.113795  0.837334  1
  Au  Au21  1  0.000000  0.113795  0.162666  1
  Au  Au22  1  0.500000  0.886205  0.662666  1
  Au  Au23  1  0.500000  0.886205  0.337334  1
  Au  Au24  1  0.000000  0.478227  0.356367  1
  Au  Au25  1  0.000000  0.478227  0.643633  1
  Au  Au26  1  0.500000  0.521773  0.143633  1
  Au  Au27  1  0.500000  0.521773  0.856367  1
