# generated using pymatgen
data_Zr4Sc2P3
_symmetry_space_group_name_H-M   'P 1'
_cell_length_a   3.73475300
_cell_length_b   7.16215324
_cell_length_c   7.19215100
_cell_angle_alpha   59.85979403
_cell_angle_beta   90.00000000
_cell_angle_gamma   90.00000000
_symmetry_Int_Tables_number   1
_chemical_formula_structural   Zr4Sc2P3
_chemical_formula_sum   'Zr4 Sc2 P3'
_cell_volume   166.37176051
_cell_formula_units_Z   1
loop_
 _symmetry_equiv_pos_site_id
 _symmetry_equiv_pos_as_xyz
  1  'x, y, z'
loop_
 _atom_site_type_symbol
 _atom_site_label
 _atom_site_symmetry_multiplicity
 _atom_site_fract_x
 _atom_site_fract_y
 _atom_site_fract_z
 _atom_site_occupancy
  Zr  Zr0  1  0.500001  0.593525  0.996360  1
  Zr  Zr1  1  0.500001  0.999991  0.409082  1
  Zr  Zr2  1  0.500001  0.406461  0.589888  1
  Zr  Zr3  1  0.000000  0.000003  0.747870  1
  Sc  Sc4  1  0.000000  0.253575  0.001436  1
  Sc  Sc5  1  0.000000  0.746410  0.255038  1
  P  P6  1  0.500001  0.999988  0.002550  1
  P  P7  1  0.000000  0.336350  0.330709  1
  P  P8  1  0.000000  0.663647  0.667070  1
