# generated using pymatgen
data_Pr7Nd3Sn4(BiBr)2
_symmetry_space_group_name_H-M   'P 1'
_cell_length_a   9.65280934
_cell_length_b   9.65280821
_cell_length_c   6.80650301
_cell_angle_alpha   90.00267531
_cell_angle_beta   90.00267928
_cell_angle_gamma   120.41529952
_symmetry_Int_Tables_number   1
_chemical_formula_structural   Pr7Nd3Sn4(BiBr)2
_chemical_formula_sum   'Pr7 Nd3 Sn4 Bi2 Br2'
_cell_volume   546.92701012
_cell_formula_units_Z   1
loop_
 _symmetry_equiv_pos_site_id
 _symmetry_equiv_pos_as_xyz
  1  'x, y, z'
loop_
 _atom_site_type_symbol
 _atom_site_label
 _atom_site_symmetry_multiplicity
 _atom_site_fract_x
 _atom_site_fract_y
 _atom_site_fract_z
 _atom_site_occupancy
  Pr  Pr0  1  0.269253  0.995459  0.749899  1
  Pr  Pr1  1  0.730771  0.004650  0.250086  1
  Pr  Pr2  1  0.995350  0.269229  0.749914  1
  Pr  Pr3  1  0.004541  0.730747  0.250101  1
  Pr  Pr4  1  0.734111  0.734088  0.749934  1
  Pr  Pr5  1  0.265912  0.265889  0.250066  1
  Pr  Pr6  1  0.330375  0.669625  0.000000  1
  Nd  Nd7  1  0.330322  0.669678  0.500000  1
  Nd  Nd8  1  0.669681  0.330319  0.500000  1
  Nd  Nd9  1  0.669705  0.330295  0.000000  1
  Sn  Sn10  1  0.613851  0.999450  0.749792  1
  Sn  Sn11  1  0.386463  0.001170  0.250210  1
  Sn  Sn12  1  0.998830  0.613537  0.749790  1
  Sn  Sn13  1  0.000550  0.386149  0.250208  1
  Bi  Bi14  1  0.384898  0.384606  0.749830  1
  Bi  Bi15  1  0.615394  0.615102  0.250170  1
  Br  Br16  1  0.999997  0.000003  0.500000  1
  Br  Br17  1  0.999995  0.000005  0.000000  1
