# generated using pymatgen
data_HoTm18MgIr12
_symmetry_space_group_name_H-M   'P 1'
_cell_length_a   10.73513645
_cell_length_b   10.73472237
_cell_length_c   6.25754226
_cell_angle_alpha   89.97873810
_cell_angle_beta   90.02545008
_cell_angle_gamma   90.02111680
_symmetry_Int_Tables_number   1
_chemical_formula_structural   HoTm18MgIr12
_chemical_formula_sum   'Ho1 Tm18 Mg1 Ir12'
_cell_volume   721.11092413
_cell_formula_units_Z   1
loop_
 _symmetry_equiv_pos_site_id
 _symmetry_equiv_pos_as_xyz
  1  'x, y, z'
loop_
 _atom_site_type_symbol
 _atom_site_label
 _atom_site_symmetry_multiplicity
 _atom_site_fract_x
 _atom_site_fract_y
 _atom_site_fract_z
 _atom_site_occupancy
  Ho  Ho0  1  0.282984  0.084641  0.377513  1
  Tm  Tm1  1  0.291303  0.912114  0.879637  1
  Tm  Tm2  1  0.708812  0.087640  0.879602  1
  Tm  Tm3  1  0.716065  0.915655  0.378100  1
  Tm  Tm4  1  0.588306  0.792008  0.877573  1
  Tm  Tm5  1  0.587187  0.208033  0.376152  1
  Tm  Tm6  1  0.413387  0.791770  0.376217  1
  Tm  Tm7  1  0.411970  0.207995  0.877634  1
  Tm  Tm8  1  0.207887  0.413238  0.623921  1
  Tm  Tm9  1  0.207871  0.588182  0.122362  1
  Tm  Tm10  1  0.792095  0.411708  0.122334  1
  Tm  Tm11  1  0.792089  0.586861  0.623808  1
  Tm  Tm12  1  0.912364  0.708807  0.120451  1
  Tm  Tm13  1  0.915737  0.284076  0.621742  1
  Tm  Tm14  1  0.084295  0.715962  0.621908  1
  Tm  Tm15  1  0.087319  0.291475  0.120127  1
  Tm  Tm16  1  0.999912  0.999979  0.999816  1
  Tm  Tm17  1  0.500002  0.500019  0.999874  1
  Tm  Tm18  1  0.500094  0.500039  0.500194  1
  Mg  Mg19  1  0.999715  0.999908  0.500165  1
  Ir  Ir20  1  0.846109  0.155073  0.246376  1
  Ir  Ir21  1  0.844851  0.846071  0.753723  1
  Ir  Ir22  1  0.154678  0.154157  0.755199  1
  Ir  Ir23  1  0.153575  0.844174  0.245914  1
  Ir  Ir24  1  0.653995  0.346316  0.748988  1
  Ir  Ir25  1  0.653688  0.654047  0.251036  1
  Ir  Ir26  1  0.346499  0.346792  0.250650  1
  Ir  Ir27  1  0.345996  0.653701  0.748933  1
  Ir  Ir28  1  0.500569  0.999716  0.123642  1
  Ir  Ir29  1  0.500632  0.999741  0.621356  1
  Ir  Ir30  1  0.999974  0.500033  0.875681  1
  Ir  Ir31  1  0.000040  0.500068  0.379370  1
