# generated using pymatgen
data_Tb3YBI5
_symmetry_space_group_name_H-M   'P 1'
_cell_length_a   9.77963355
_cell_length_b   9.77963311
_cell_length_c   8.67728402
_cell_angle_alpha   77.87938174
_cell_angle_beta   77.87938146
_cell_angle_gamma   24.34927941
_symmetry_Int_Tables_number   1
_chemical_formula_structural   Tb3YBI5
_chemical_formula_sum   'Tb3 Y1 B1 I5'
_cell_volume   334.18171155
_cell_formula_units_Z   1
loop_
 _symmetry_equiv_pos_site_id
 _symmetry_equiv_pos_as_xyz
  1  'x, y, z'
loop_
 _atom_site_type_symbol
 _atom_site_label
 _atom_site_symmetry_multiplicity
 _atom_site_fract_x
 _atom_site_fract_y
 _atom_site_fract_z
 _atom_site_occupancy
  Tb  Tb0  1  0.365235  0.365235  0.067801  1
  Tb  Tb1  1  0.000854  0.000854  0.192985  1
  Tb  Tb2  1  0.634757  0.634757  0.932080  1
  Y  Y3  1  0.999191  0.999191  0.807106  1
  B  B4  1  0.499998  0.499998  0.000032  1
  I  I5  1  0.835360  0.835360  0.339206  1
  I  I6  1  0.828804  0.828804  0.826518  1
  I  I7  1  0.171232  0.171232  0.173360  1
  I  I8  1  0.499993  0.499993  0.500189  1
  I  I9  1  0.164576  0.164576  0.660724  1
