# generated using pymatgen
data_LaPr5(Ir5Rh4)2
_symmetry_space_group_name_H-M   'P 1'
_cell_length_a   5.38378809
_cell_length_b   5.38750960
_cell_length_c   17.75363403
_cell_angle_alpha   89.99999806
_cell_angle_beta   90.05291967
_cell_angle_gamma   120.02287267
_symmetry_Int_Tables_number   1
_chemical_formula_structural   LaPr5(Ir5Rh4)2
_chemical_formula_sum   'La1 Pr5 Ir10 Rh8'
_cell_volume   445.85487487
_cell_formula_units_Z   1
loop_
 _symmetry_equiv_pos_site_id
 _symmetry_equiv_pos_as_xyz
  1  'x, y, z'
loop_
 _atom_site_type_symbol
 _atom_site_label
 _atom_site_symmetry_multiplicity
 _atom_site_fract_x
 _atom_site_fract_y
 _atom_site_fract_z
 _atom_site_occupancy
  La  La0  1  0.666691  0.333344  0.249662  1
  Pr  Pr1  1  0.333191  0.666596  0.541691  1
  Pr  Pr2  1  0.666699  0.333348  0.041429  1
  Pr  Pr3  1  0.665740  0.332869  0.457777  1
  Pr  Pr4  1  0.333493  0.666747  0.958366  1
  Pr  Pr5  1  0.333427  0.666715  0.750041  1
  Ir  Ir6  1  0.166910  0.333357  0.128258  1
  Ir  Ir7  1  0.833197  0.666256  0.627985  1
  Ir  Ir8  1  0.666021  0.833010  0.127821  1
  Ir  Ir9  1  0.166910  0.833554  0.128258  1
  Ir  Ir10  1  0.833197  0.166941  0.627985  1
  Ir  Ir11  1  0.333685  0.166842  0.628059  1
  Ir  Ir12  1  0.832988  0.666277  0.871742  1
  Ir  Ir13  1  0.832988  0.166712  0.871742  1
  Ir  Ir14  1  0.333951  0.166975  0.871790  1
  Ir  Ir15  1  0.668614  0.834307  0.372190  1
  Rh  Rh16  1  0.168195  0.834020  0.372722  1
  Rh  Rh17  1  0.168195  0.334175  0.372722  1
  Rh  Rh18  1  0.997893  0.998946  0.250020  1
  Rh  Rh19  1  0.000060  0.000029  0.749853  1
  Rh  Rh20  1  0.334324  0.667162  0.250212  1
  Rh  Rh21  1  0.666667  0.333334  0.749838  1
  Rh  Rh22  1  0.000245  0.000123  0.999788  1
  Rh  Rh23  1  0.996719  0.998360  0.500051  1
