# generated using pymatgen
data_Hf3Ta2ZnSn3
_symmetry_space_group_name_H-M   'P 1'
_cell_length_a   8.50984000
_cell_length_b   8.50983983
_cell_length_c   5.71258500
_cell_angle_alpha   90.00000000
_cell_angle_beta   90.00000000
_cell_angle_gamma   119.99999290
_symmetry_Int_Tables_number   1
_chemical_formula_structural   Hf3Ta2ZnSn3
_chemical_formula_sum   'Hf6 Ta4 Zn2 Sn6'
_cell_volume   358.26643190
_cell_formula_units_Z   2
loop_
 _symmetry_equiv_pos_site_id
 _symmetry_equiv_pos_as_xyz
  1  'x, y, z'
loop_
 _atom_site_type_symbol
 _atom_site_label
 _atom_site_symmetry_multiplicity
 _atom_site_fract_x
 _atom_site_fract_y
 _atom_site_fract_z
 _atom_site_occupancy
  Hf  Hf0  1  0.269881  0.000000  0.250000  1
  Hf  Hf1  1  0.269881  0.269881  0.750000  1
  Hf  Hf2  1  0.000000  0.730119  0.750000  1
  Hf  Hf3  1  0.000000  0.269881  0.250000  1
  Hf  Hf4  1  0.730119  0.730119  0.250000  1
  Hf  Hf5  1  0.730119  0.000000  0.750000  1
  Ta  Ta6  1  0.333333  0.666667  0.000000  1
  Ta  Ta7  1  0.666667  0.333333  0.500000  1
  Ta  Ta8  1  0.666667  0.333333  0.000000  1
  Ta  Ta9  1  0.333333  0.666667  0.500000  1
  Zn  Zn10  1  0.000000  0.000000  0.000000  1
  Zn  Zn11  1  0.000000  0.000000  0.500000  1
  Sn  Sn12  1  0.612363  0.000000  0.250000  1
  Sn  Sn13  1  0.612363  0.612363  0.750000  1
  Sn  Sn14  1  0.000000  0.387637  0.750000  1
  Sn  Sn15  1  0.000000  0.612363  0.250000  1
  Sn  Sn16  1  0.387637  0.387637  0.250000  1
  Sn  Sn17  1  0.387637  0.000000  0.750000  1
