# generated using pymatgen
data_Ho3Er9In20
_symmetry_space_group_name_H-M   'P 1'
_cell_length_a   6.48746451
_cell_length_b   10.38046370
_cell_length_c   12.20415674
_cell_angle_alpha   90.06633733
_cell_angle_beta   89.98552876
_cell_angle_gamma   89.99658038
_symmetry_Int_Tables_number   1
_chemical_formula_structural   Ho3Er9In20
_chemical_formula_sum   'Ho3 Er9 In20'
_cell_volume   821.86260372
_cell_formula_units_Z   1
loop_
 _symmetry_equiv_pos_site_id
 _symmetry_equiv_pos_as_xyz
  1  'x, y, z'
loop_
 _atom_site_type_symbol
 _atom_site_label
 _atom_site_symmetry_multiplicity
 _atom_site_fract_x
 _atom_site_fract_y
 _atom_site_fract_z
 _atom_site_occupancy
  Ho  Ho0  1  0.390032  0.992450  0.358377  1
  Ho  Ho1  1  0.890246  0.007969  0.141525  1
  Ho  Ho2  1  0.609749  0.492112  0.641425  1
  Er  Er3  1  0.350701  0.750667  0.054248  1
  Er  Er4  1  0.149257  0.749586  0.554314  1
  Er  Er5  1  0.650010  0.250592  0.945668  1
  Er  Er6  1  0.851055  0.249085  0.445632  1
  Er  Er7  1  0.890630  0.492266  0.140156  1
  Er  Er8  1  0.609409  0.007678  0.641100  1
  Er  Er9  1  0.109820  0.992052  0.858892  1
  Er  Er10  1  0.390463  0.507708  0.359222  1
  Er  Er11  1  0.109289  0.507942  0.859353  1
  In  In12  1  0.614827  0.750049  0.505534  1
  In  In13  1  0.885404  0.749835  0.005357  1
  In  In14  1  0.385109  0.250374  0.494795  1
  In  In15  1  0.115799  0.250271  0.993532  1
  In  In16  1  0.650886  0.748794  0.244393  1
  In  In17  1  0.848832  0.750605  0.744611  1
  In  In18  1  0.348791  0.249562  0.755951  1
  In  In19  1  0.151065  0.251223  0.255268  1
  In  In20  1  0.125852  0.748898  0.282681  1
  In  In21  1  0.372583  0.749787  0.782981  1
  In  In22  1  0.874133  0.249125  0.717342  1
  In  In23  1  0.625825  0.251321  0.217310  1
  In  In24  1  0.875174  0.542947  0.399792  1
  In  In25  1  0.625140  0.956622  0.899873  1
  In  In26  1  0.125247  0.043261  0.600103  1
  In  In27  1  0.374998  0.456984  0.099862  1
  In  In28  1  0.124019  0.456428  0.600044  1
  In  In29  1  0.375396  0.044162  0.098804  1
  In  In30  1  0.875403  0.955871  0.401096  1
  In  In31  1  0.624861  0.543775  0.900756  1
