# generated using pymatgen
data_Nd4Sn7GePt4
_symmetry_space_group_name_H-M   'P 1'
_cell_length_a   10.29927386
_cell_length_b   10.37645170
_cell_length_c   10.37645121
_cell_angle_alpha   154.44103263
_cell_angle_beta   125.40854452
_cell_angle_gamma   61.26160873
_symmetry_Int_Tables_number   1
_chemical_formula_structural   Nd4Sn7GePt4
_chemical_formula_sum   'Nd4 Sn7 Ge1 Pt4'
_cell_volume   387.16864613
_cell_formula_units_Z   1
loop_
 _symmetry_equiv_pos_site_id
 _symmetry_equiv_pos_as_xyz
  1  'x, y, z'
loop_
 _atom_site_type_symbol
 _atom_site_label
 _atom_site_symmetry_multiplicity
 _atom_site_fract_x
 _atom_site_fract_y
 _atom_site_fract_z
 _atom_site_occupancy
  Nd  Nd0  1  0.763142  0.998757  0.764385  1
  Nd  Nd1  1  0.232825  0.999795  0.233030  1
  Nd  Nd2  1  0.212939  0.206543  0.006397  1
  Nd  Nd3  1  0.793278  0.797132  0.996146  1
  Sn  Sn4  1  0.421072  0.419597  0.001475  1
  Sn  Sn5  1  0.578970  0.581033  0.997937  1
  Sn  Sn6  1  0.916755  0.421880  0.494875  1
  Sn  Sn7  1  0.076243  0.577459  0.498784  1
  Sn  Sn8  1  0.859279  0.200517  0.658762  1
  Sn  Sn9  1  0.152377  0.802284  0.350092  1
  Sn  Sn10  1  0.545212  0.198512  0.346699  1
  Ge  Ge11  1  0.459254  0.797673  0.661581  1
  Pt  Pt12  1  0.097521  0.352630  0.744893  1
  Pt  Pt13  1  0.903450  0.648915  0.254534  1
  Pt  Pt14  1  0.592024  0.345606  0.246418  1
  Pt  Pt15  1  0.395659  0.651666  0.743993  1
