# generated using pymatgen
data_Dy2Hf4Sn5
_symmetry_space_group_name_H-M   'P 1'
_cell_length_a   11.10309274
_cell_length_b   11.10309296
_cell_length_c   11.10309332
_cell_angle_alpha   148.93656117
_cell_angle_beta   131.89213515
_cell_angle_gamma   58.37705988
_symmetry_Int_Tables_number   1
_chemical_formula_structural   Dy2Hf4Sn5
_chemical_formula_sum   'Dy4 Hf8 Sn10'
_cell_volume   521.68836744
_cell_formula_units_Z   2
loop_
 _symmetry_equiv_pos_site_id
 _symmetry_equiv_pos_as_xyz
  1  'x, y, z'
loop_
 _atom_site_type_symbol
 _atom_site_label
 _atom_site_symmetry_multiplicity
 _atom_site_fract_x
 _atom_site_fract_y
 _atom_site_fract_z
 _atom_site_occupancy
  Dy  Dy0  1  0.256338  0.143339  0.112998  1
  Dy  Dy1  1  0.743662  0.856661  0.887002  1
  Dy  Dy2  1  0.030341  0.643339  0.387002  1
  Dy  Dy3  1  0.969659  0.356661  0.612998  1
  Hf  Hf4  1  0.311212  0.561212  0.250000  1
  Hf  Hf5  1  0.688788  0.438788  0.750000  1
  Hf  Hf6  1  0.688788  0.938788  0.250000  1
  Hf  Hf7  1  0.311212  0.061212  0.750000  1
  Hf  Hf8  1  0.674149  0.435664  0.238486  1
  Hf  Hf9  1  0.325851  0.564336  0.761514  1
  Hf  Hf10  1  0.197179  0.935664  0.261514  1
  Hf  Hf11  1  0.802821  0.064336  0.738486  1
  Sn  Sn12  1  0.587834  0.288975  0.298859  1
  Sn  Sn13  1  0.412166  0.711025  0.701141  1
  Sn  Sn14  1  0.990116  0.788975  0.201141  1
  Sn  Sn15  1  0.009884  0.211025  0.798859  1
  Sn  Sn16  1  0.000000  0.250000  0.250000  1
  Sn  Sn17  1  0.000000  0.750000  0.750000  1
  Sn  Sn18  1  0.467933  0.066772  0.401160  1
  Sn  Sn19  1  0.532067  0.933228  0.598840  1
  Sn  Sn20  1  0.665613  0.566772  0.098840  1
  Sn  Sn21  1  0.334387  0.433228  0.901160  1
