# generated using pymatgen
data_K3Cu(SO4)3
_symmetry_space_group_name_H-M   'P 1'
_cell_length_a   9.08716037
_cell_length_b   9.08715985
_cell_length_c   9.08715932
_cell_angle_alpha   109.23890336
_cell_angle_beta   109.23890386
_cell_angle_gamma   109.23891741
_symmetry_Int_Tables_number   1
_chemical_formula_structural   K3Cu(SO4)3
_chemical_formula_sum   'K6 Cu2 S6 O24'
_cell_volume   582.56256910
_cell_formula_units_Z   2
loop_
 _symmetry_equiv_pos_site_id
 _symmetry_equiv_pos_as_xyz
  1  'x, y, z'
loop_
 _atom_site_type_symbol
 _atom_site_label
 _atom_site_symmetry_multiplicity
 _atom_site_fract_x
 _atom_site_fract_y
 _atom_site_fract_z
 _atom_site_occupancy
  K  K0  1  0.639037  0.150493  0.786335  1
  K  K1  1  0.786335  0.639037  0.150493  1
  K  K2  1  0.150493  0.786335  0.639037  1
  K  K3  1  0.360963  0.849507  0.213665  1
  K  K4  1  0.213665  0.360963  0.849507  1
  K  K5  1  0.849507  0.213665  0.360963  1
  Cu  Cu6  1  0.000000  0.000000  0.000000  1
  Cu  Cu7  1  0.500000  0.500000  0.500000  1
  S  S8  1  0.890278  0.567032  0.764539  1
  S  S9  1  0.764539  0.890278  0.567032  1
  S  S10  1  0.567032  0.764539  0.890278  1
  S  S11  1  0.109722  0.432968  0.235461  1
  S  S12  1  0.235461  0.109722  0.432968  1
  S  S13  1  0.432968  0.235461  0.109722  1
  O  O14  1  0.748129  0.525412  0.589516  1
  O  O15  1  0.589516  0.748129  0.525412  1
  O  O16  1  0.525412  0.589516  0.748129  1
  O  O17  1  0.251871  0.474588  0.410484  1
  O  O18  1  0.410484  0.251871  0.474588  1
  O  O19  1  0.474588  0.410484  0.251871  1
  O  O20  1  0.815799  0.488543  0.857574  1
  O  O21  1  0.857574  0.815799  0.488543  1
  O  O22  1  0.488543  0.857574  0.815799  1
  O  O23  1  0.184201  0.511457  0.142426  1
  O  O24  1  0.142426  0.184201  0.511457  1
  O  O25  1  0.511457  0.142426  0.184201  1
  O  O26  1  0.006987  0.500541  0.718884  1
  O  O27  1  0.718884  0.006987  0.500541  1
  O  O28  1  0.500541  0.718884  0.006987  1
  O  O29  1  0.993013  0.499459  0.281116  1
  O  O30  1  0.281116  0.993013  0.499459  1
  O  O31  1  0.499459  0.281116  0.993013  1
  O  O32  1  0.010439  0.768678  0.881522  1
  O  O33  1  0.881522  0.010439  0.768678  1
  O  O34  1  0.768678  0.881522  0.010439  1
  O  O35  1  0.989561  0.231322  0.118478  1
  O  O36  1  0.118478  0.989561  0.231322  1
  O  O37  1  0.231322  0.118478  0.989561  1
