# generated using pymatgen
data_Pr8Er12Ga15Au
_symmetry_space_group_name_H-M   'P 1'
_cell_length_a   7.62018613
_cell_length_b   7.99795388
_cell_length_c   15.35679200
_cell_angle_alpha   90.07350066
_cell_angle_beta   90.12498756
_cell_angle_gamma   90.03255668
_symmetry_Int_Tables_number   1
_chemical_formula_structural   Pr8Er12Ga15Au
_chemical_formula_sum   'Pr8 Er12 Ga15 Au1'
_cell_volume   935.93031803
_cell_formula_units_Z   1
loop_
 _symmetry_equiv_pos_site_id
 _symmetry_equiv_pos_as_xyz
  1  'x, y, z'
loop_
 _atom_site_type_symbol
 _atom_site_label
 _atom_site_symmetry_multiplicity
 _atom_site_fract_x
 _atom_site_fract_y
 _atom_site_fract_z
 _atom_site_occupancy
  Pr  Pr0  1  0.484191  0.312639  0.905979  1
  Pr  Pr1  1  0.983939  0.180240  0.594586  1
  Pr  Pr2  1  0.514773  0.681027  0.405293  1
  Pr  Pr3  1  0.015698  0.820403  0.094124  1
  Pr  Pr4  1  0.510674  0.674142  0.096041  1
  Pr  Pr5  1  0.015727  0.820973  0.405749  1
  Pr  Pr6  1  0.485245  0.322600  0.593307  1
  Pr  Pr7  1  0.986572  0.184802  0.904268  1
  Er  Er8  1  0.332126  0.827417  0.876539  1
  Er  Er9  1  0.828463  0.676829  0.622331  1
  Er  Er10  1  0.672708  0.174095  0.377170  1
  Er  Er11  1  0.172507  0.326565  0.121036  1
  Er  Er12  1  0.666680  0.176738  0.123280  1
  Er  Er13  1  0.169504  0.324041  0.378241  1
  Er  Er14  1  0.325624  0.825131  0.622202  1
  Er  Er15  1  0.833013  0.672588  0.876440  1
  Er  Er16  1  0.167299  0.490671  0.749707  1
  Er  Er17  1  0.666509  0.010412  0.749762  1
  Er  Er18  1  0.833710  0.511041  0.252546  1
  Er  Er19  1  0.335636  0.990776  0.250543  1
  Ga  Ga20  1  0.342875  0.028508  0.041634  1
  Ga  Ga21  1  0.842514  0.467971  0.460312  1
  Ga  Ga22  1  0.653000  0.968776  0.540586  1
  Ga  Ga23  1  0.168071  0.534297  0.957590  1
  Ga  Ga24  1  0.659836  0.963408  0.962238  1
  Ga  Ga25  1  0.153305  0.533700  0.540474  1
  Ga  Ga26  1  0.343950  0.032525  0.459664  1
  Ga  Ga27  1  0.535173  0.616045  0.749139  1
  Ga  Ga28  1  0.034367  0.886442  0.750255  1
  Ga  Ga29  1  0.463787  0.383596  0.252711  1
  Ga  Ga30  1  0.965468  0.115034  0.247039  1
  Ga  Ga31  1  0.277059  0.122650  0.749722  1
  Ga  Ga32  1  0.775659  0.379048  0.750160  1
  Ga  Ga33  1  0.721420  0.878230  0.249416  1
  Ga  Ga34  1  0.221268  0.621054  0.249789  1
  Au  Au35  1  0.841649  0.465585  0.040128  1
