# generated using pymatgen
data_Dy7Tm13Si15Sn
_symmetry_space_group_name_H-M   'P 1'
_cell_length_a   7.39435910
_cell_length_b   7.58144755
_cell_length_c   14.42310400
_cell_angle_alpha   89.99817867
_cell_angle_beta   90.31690302
_cell_angle_gamma   90.14875206
_symmetry_Int_Tables_number   1
_chemical_formula_structural   Dy7Tm13Si15Sn
_chemical_formula_sum   'Dy7 Tm13 Si15 Sn1'
_cell_volume   808.54333470
_cell_formula_units_Z   1
loop_
 _symmetry_equiv_pos_site_id
 _symmetry_equiv_pos_as_xyz
  1  'x, y, z'
loop_
 _atom_site_type_symbol
 _atom_site_label
 _atom_site_symmetry_multiplicity
 _atom_site_fract_x
 _atom_site_fract_y
 _atom_site_fract_z
 _atom_site_occupancy
  Dy  Dy0  1  0.979648  0.180692  0.600280  1
  Dy  Dy1  1  0.525770  0.681331  0.405825  1
  Dy  Dy2  1  0.012231  0.830085  0.088452  1
  Dy  Dy3  1  0.524157  0.680456  0.093319  1
  Dy  Dy4  1  0.011982  0.830595  0.410802  1
  Dy  Dy5  1  0.480984  0.320891  0.597856  1
  Dy  Dy6  1  0.980361  0.180388  0.900837  1
  Tm  Tm7  1  0.327731  0.820099  0.875875  1
  Tm  Tm8  1  0.827760  0.678413  0.624776  1
  Tm  Tm9  1  0.677859  0.176901  0.379248  1
  Tm  Tm10  1  0.167553  0.312541  0.119539  1
  Tm  Tm11  1  0.676081  0.178356  0.120873  1
  Tm  Tm12  1  0.167949  0.312550  0.380279  1
  Tm  Tm13  1  0.327256  0.821134  0.623991  1
  Tm  Tm14  1  0.828666  0.679075  0.875759  1
  Tm  Tm15  1  0.481365  0.320746  0.901893  1
  Tm  Tm16  1  0.159698  0.489133  0.750633  1
  Tm  Tm17  1  0.657940  0.009515  0.750580  1
  Tm  Tm18  1  0.828420  0.508452  0.249564  1
  Tm  Tm19  1  0.348754  0.003740  0.249737  1
  Si  Si20  1  0.348579  0.028826  0.038537  1
  Si  Si21  1  0.845780  0.469270  0.461760  1
  Si  Si22  1  0.656400  0.969247  0.542042  1
  Si  Si23  1  0.158619  0.530338  0.959754  1
  Si  Si24  1  0.656087  0.970055  0.957929  1
  Si  Si25  1  0.154446  0.530948  0.540430  1
  Si  Si26  1  0.349681  0.027539  0.460518  1
  Si  Si27  1  0.843042  0.468807  0.037762  1
  Si  Si28  1  0.531406  0.604781  0.749879  1
  Si  Si29  1  0.031877  0.893751  0.749827  1
  Si  Si30  1  0.468311  0.377728  0.250589  1
  Si  Si31  1  0.969223  0.104780  0.249885  1
  Si  Si32  1  0.279308  0.128279  0.750465  1
  Si  Si33  1  0.776430  0.371809  0.750714  1
  Si  Si34  1  0.724626  0.873716  0.249794  1
  Sn  Sn35  1  0.214014  0.635032  0.249993  1
