# generated using pymatgen
data_Tb5Dy4Tm11Bi12
_symmetry_space_group_name_H-M   'P 1'
_cell_length_a   8.22253327
_cell_length_b   9.44416551
_cell_length_c   12.00877701
_cell_angle_alpha   89.98094965
_cell_angle_beta   90.07279696
_cell_angle_gamma   90.00319985
_symmetry_Int_Tables_number   1
_chemical_formula_structural   Tb5Dy4Tm11Bi12
_chemical_formula_sum   'Tb5 Dy4 Tm11 Bi12'
_cell_volume   932.54035402
_cell_formula_units_Z   1
loop_
 _symmetry_equiv_pos_site_id
 _symmetry_equiv_pos_as_xyz
  1  'x, y, z'
loop_
 _atom_site_type_symbol
 _atom_site_label
 _atom_site_symmetry_multiplicity
 _atom_site_fract_x
 _atom_site_fract_y
 _atom_site_fract_z
 _atom_site_occupancy
  Tb  Tb0  1  0.192343  0.563399  0.440879  1
  Tb  Tb1  1  0.312701  0.250038  0.218589  1
  Tb  Tb2  1  0.812959  0.249988  0.281379  1
  Tb  Tb3  1  0.687342  0.750150  0.781655  1
  Tb  Tb4  1  0.187296  0.750493  0.718937  1
  Dy  Dy5  1  0.353525  0.750729  0.216641  1
  Dy  Dy6  1  0.852175  0.750521  0.282823  1
  Dy  Dy7  1  0.647451  0.250151  0.783144  1
  Dy  Dy8  1  0.147608  0.250499  0.716943  1
  Tm  Tm9  1  0.692843  0.565701  0.059014  1
  Tm  Tm10  1  0.192788  0.934163  0.440690  1
  Tm  Tm11  1  0.307034  0.065708  0.941026  1
  Tm  Tm12  1  0.807688  0.434232  0.558943  1
  Tm  Tm13  1  0.307269  0.434228  0.940883  1
  Tm  Tm14  1  0.806514  0.065506  0.559389  1
  Tm  Tm15  1  0.692915  0.934376  0.058969  1
  Tm  Tm16  1  0.476459  0.250129  0.488515  1
  Tm  Tm17  1  0.976096  0.250265  0.011216  1
  Tm  Tm18  1  0.524554  0.750321  0.511618  1
  Tm  Tm19  1  0.023878  0.750054  0.988500  1
  Bi  Bi20  1  0.405692  0.749920  0.958282  1
  Bi  Bi21  1  0.905096  0.750863  0.542007  1
  Bi  Bi22  1  0.594334  0.250024  0.041623  1
  Bi  Bi23  1  0.093370  0.246851  0.458864  1
  Bi  Bi24  1  0.565481  0.995338  0.326383  1
  Bi  Bi25  1  0.065151  0.505226  0.172956  1
  Bi  Bi26  1  0.434499  0.495228  0.673822  1
  Bi  Bi27  1  0.934469  0.005350  0.826612  1
  Bi  Bi28  1  0.434658  0.005270  0.673559  1
  Bi  Bi29  1  0.934280  0.495057  0.826710  1
  Bi  Bi30  1  0.566169  0.505162  0.326236  1
  Bi  Bi31  1  0.065361  0.995058  0.173193  1
