# generated using pymatgen
data_Ba17Sr3(Si2Sb)4
_symmetry_space_group_name_H-M   'P 1'
_cell_length_a   8.64470100
_cell_length_b   8.64470100
_cell_length_c   16.97683000
_cell_angle_alpha   90.00000000
_cell_angle_beta   90.00000000
_cell_angle_gamma   90.00000000
_symmetry_Int_Tables_number   1
_chemical_formula_structural   Ba17Sr3(Si2Sb)4
_chemical_formula_sum   'Ba17 Sr3 Si8 Sb4'
_cell_volume   1268.69302753
_cell_formula_units_Z   1
loop_
 _symmetry_equiv_pos_site_id
 _symmetry_equiv_pos_as_xyz
  1  'x, y, z'
loop_
 _atom_site_type_symbol
 _atom_site_label
 _atom_site_symmetry_multiplicity
 _atom_site_fract_x
 _atom_site_fract_y
 _atom_site_fract_z
 _atom_site_occupancy
  Ba  Ba0  1  0.314803  0.668961  0.112770  1
  Ba  Ba1  1  0.168961  0.185197  0.112770  1
  Ba  Ba2  1  0.330557  0.685030  0.387348  1
  Ba  Ba3  1  0.667130  0.686436  0.887816  1
  Ba  Ba4  1  0.185030  0.169443  0.387348  1
  Ba  Ba5  1  0.669443  0.314970  0.387348  1
  Ba  Ba6  1  0.170030  0.815744  0.611861  1
  Ba  Ba7  1  0.332870  0.313564  0.887816  1
  Ba  Ba8  1  0.186436  0.832870  0.887816  1
  Ba  Ba9  1  0.829970  0.184256  0.611861  1
  Ba  Ba10  1  0.315744  0.329970  0.611861  1
  Ba  Ba11  1  0.814970  0.830557  0.387348  1
  Ba  Ba12  1  0.813564  0.167130  0.887816  1
  Ba  Ba13  1  0.831039  0.814803  0.112770  1
  Ba  Ba14  1  0.000000  0.500000  0.769236  1
  Ba  Ba15  1  0.685197  0.331039  0.112770  1
  Ba  Ba16  1  0.684256  0.670030  0.611861  1
  Sr  Sr17  1  0.500000  0.000000  0.732467  1
  Sr  Sr18  1  0.500000  0.000000  0.232866  1
  Sr  Sr19  1  0.000000  0.500000  0.267050  1
  Si  Si20  1  0.105918  0.102614  0.749346  1
  Si  Si21  1  0.397386  0.605918  0.749346  1
  Si  Si22  1  0.604658  0.605103  0.250095  1
  Si  Si23  1  0.105103  0.895342  0.250095  1
  Si  Si24  1  0.602614  0.394082  0.749346  1
  Si  Si25  1  0.894082  0.897386  0.749346  1
  Si  Si26  1  0.395342  0.394897  0.250095  1
  Si  Si27  1  0.894897  0.104658  0.250095  1
  Sb  Sb28  1  0.000000  0.500000  0.989272  1
  Sb  Sb29  1  0.500000  0.000000  0.012476  1
  Sb  Sb30  1  0.500000  0.000000  0.511778  1
  Sb  Sb31  1  0.000000  0.500000  0.487917  1
