# generated using pymatgen
data_YTh5(GaPd)6
_symmetry_space_group_name_H-M   'P 1'
_cell_length_a   7.33448348
_cell_length_b   7.33670067
_cell_length_c   8.21558200
_cell_angle_alpha   90.00000000
_cell_angle_beta   90.00000000
_cell_angle_gamma   120.01267407
_symmetry_Int_Tables_number   1
_chemical_formula_structural   YTh5(GaPd)6
_chemical_formula_sum   'Y1 Th5 Ga6 Pd6'
_cell_volume   382.81048339
_cell_formula_units_Z   1
loop_
 _symmetry_equiv_pos_site_id
 _symmetry_equiv_pos_as_xyz
  1  'x, y, z'
loop_
 _atom_site_type_symbol
 _atom_site_label
 _atom_site_symmetry_multiplicity
 _atom_site_fract_x
 _atom_site_fract_y
 _atom_site_fract_z
 _atom_site_occupancy
  Y  Y0  1  0.999908  0.406856  0.250000  1
  Th  Th1  1  0.584127  0.581886  0.250000  1
  Th  Th2  1  0.000066  0.418605  0.750000  1
  Th  Th3  1  0.415969  0.997982  0.250000  1
  Th  Th4  1  0.414899  0.001761  0.750000  1
  Th  Th5  1  0.584968  0.586949  0.750000  1
  Ga  Ga6  1  0.240302  0.243167  0.498955  1
  Ga  Ga7  1  0.759658  0.002852  0.498904  1
  Ga  Ga8  1  0.000057  0.755567  0.496375  1
  Ga  Ga9  1  0.759658  0.002852  0.001096  1
  Ga  Ga10  1  0.240302  0.243167  0.001045  1
  Ga  Ga11  1  0.000057  0.755567  0.003625  1
  Pd  Pd12  1  0.334470  0.668054  0.498963  1
  Pd  Pd13  1  0.999896  0.001311  0.750000  1
  Pd  Pd14  1  0.000026  0.998031  0.250000  1
  Pd  Pd15  1  0.334470  0.668054  0.001037  1
  Pd  Pd16  1  0.665585  0.333670  0.499288  1
  Pd  Pd17  1  0.665585  0.333670  0.000712  1
