# generated using pymatgen
data_CsPuCl6
_symmetry_space_group_name_H-M   'P 1'
_cell_length_a   7.45182653
_cell_length_b   7.63128315
_cell_length_c   13.16108137
_cell_angle_alpha   78.42783478
_cell_angle_beta   79.00741100
_cell_angle_gamma   55.64345005
_symmetry_Int_Tables_number   1
_chemical_formula_structural   CsPuCl6
_chemical_formula_sum   'Cs2 Pu2 Cl12'
_cell_volume   602.51813706
_cell_formula_units_Z   2
loop_
 _symmetry_equiv_pos_site_id
 _symmetry_equiv_pos_as_xyz
  1  'x, y, z'
loop_
 _atom_site_type_symbol
 _atom_site_label
 _atom_site_symmetry_multiplicity
 _atom_site_fract_x
 _atom_site_fract_y
 _atom_site_fract_z
 _atom_site_occupancy
  Cs  Cs0  1  0.882663  0.116771  0.751585  1
  Cs  Cs1  1  0.117337  0.883229  0.248415  1
  Pu  Pu2  1  0.500000  0.000000  0.500000  1
  Pu  Pu3  1  0.000000  0.500000  0.000000  1
  Cl  Cl4  1  0.457088  0.709399  0.606886  1
  Cl  Cl5  1  0.542912  0.290601  0.393114  1
  Cl  Cl6  1  0.297754  0.540075  0.892838  1
  Cl  Cl7  1  0.702246  0.459925  0.107162  1
  Cl  Cl8  1  0.374877  0.190161  0.660495  1
  Cl  Cl9  1  0.625123  0.809839  0.339505  1
  Cl  Cl10  1  0.802844  0.628922  0.838543  1
  Cl  Cl11  1  0.197156  0.371078  0.161457  1
  Cl  Cl12  1  0.807220  0.882670  0.037810  1
  Cl  Cl13  1  0.192780  0.117330  0.962190  1
  Cl  Cl14  1  0.108836  0.195774  0.461296  1
  Cl  Cl15  1  0.891164  0.804226  0.538704  1
