# generated using pymatgen
data_Tb7(DyPb2)3
_symmetry_space_group_name_H-M   'P 1'
_cell_length_a   9.10389400
_cell_length_b   9.10389532
_cell_length_c   6.67093000
_cell_angle_alpha   90.00000000
_cell_angle_beta   90.00000000
_cell_angle_gamma   119.99999521
_symmetry_Int_Tables_number   1
_chemical_formula_structural   Tb7(DyPb2)3
_chemical_formula_sum   'Tb7 Dy3 Pb6'
_cell_volume   478.81911976
_cell_formula_units_Z   1
loop_
 _symmetry_equiv_pos_site_id
 _symmetry_equiv_pos_as_xyz
  1  'x, y, z'
loop_
 _atom_site_type_symbol
 _atom_site_label
 _atom_site_symmetry_multiplicity
 _atom_site_fract_x
 _atom_site_fract_y
 _atom_site_fract_z
 _atom_site_occupancy
  Tb  Tb0  1  0.237669  0.237644  0.749975  1
  Tb  Tb1  1  0.237669  0.000024  0.250025  1
  Tb  Tb2  1  0.333333  0.666667  0.000000  1
  Tb  Tb3  1  0.999976  0.762331  0.749975  1
  Tb  Tb4  1  0.762356  0.762331  0.250025  1
  Tb  Tb5  1  0.999976  0.237644  0.250025  1
  Tb  Tb6  1  0.762356  0.000024  0.749975  1
  Dy  Dy7  1  0.666667  0.333333  0.000000  1
  Dy  Dy8  1  0.333333  0.666667  0.500000  1
  Dy  Dy9  1  0.666667  0.333333  0.500000  1
  Pb  Pb10  1  0.999902  0.394714  0.749925  1
  Pb  Pb11  1  0.394811  0.394714  0.250075  1
  Pb  Pb12  1  0.605286  0.000098  0.250075  1
  Pb  Pb13  1  0.605286  0.605189  0.749925  1
  Pb  Pb14  1  0.394811  0.000098  0.749925  1
  Pb  Pb15  1  0.999902  0.605189  0.250075  1
