# generated using pymatgen
data_Nd3Y(Zn3Cd)3
_symmetry_space_group_name_H-M   'P 1'
_cell_length_a   4.51326400
_cell_length_b   7.26444533
_cell_length_c   10.11931315
_cell_angle_alpha   90.40129476
_cell_angle_beta   90.00000000
_cell_angle_gamma   90.00000000
_symmetry_Int_Tables_number   1
_chemical_formula_structural   Nd3Y(Zn3Cd)3
_chemical_formula_sum   'Nd3 Y1 Zn9 Cd3'
_cell_volume   331.76730243
_cell_formula_units_Z   1
loop_
 _symmetry_equiv_pos_site_id
 _symmetry_equiv_pos_as_xyz
  1  'x, y, z'
loop_
 _atom_site_type_symbol
 _atom_site_label
 _atom_site_symmetry_multiplicity
 _atom_site_fract_x
 _atom_site_fract_y
 _atom_site_fract_z
 _atom_site_occupancy
  Nd  Nd0  1  0.250000  0.306646  0.672221  1
  Nd  Nd1  1  0.750000  0.695109  0.331123  1
  Nd  Nd2  1  0.750000  0.194873  0.171944  1
  Y  Y3  1  0.250000  0.809684  0.823786  1
  Zn  Zn4  1  0.750000  0.971246  0.600501  1
  Zn  Zn5  1  0.750000  0.299792  0.467487  1
  Zn  Zn6  1  0.250000  0.693303  0.540262  1
  Zn  Zn7  1  0.750000  0.812075  0.032496  1
  Zn  Zn8  1  0.250000  0.178685  0.962099  1
  Zn  Zn9  1  0.750000  0.607861  0.647316  1
  Zn  Zn10  1  0.250000  0.408349  0.358954  1
  Zn  Zn11  1  0.750000  0.087284  0.845543  1
  Zn  Zn12  1  0.250000  0.906249  0.142972  1
  Cd  Cd13  1  0.250000  0.529553  0.095060  1
  Cd  Cd14  1  0.750000  0.470861  0.900138  1
  Cd  Cd15  1  0.250000  0.028430  0.408098  1
