# generated using pymatgen
data_YHo3MgTlPd4
_symmetry_space_group_name_H-M   'P 1'
_cell_length_a   7.76646289
_cell_length_b   7.77548422
_cell_length_c   3.70773900
_cell_angle_alpha   90.00000000
_cell_angle_beta   90.00000000
_cell_angle_gamma   89.78625531
_symmetry_Int_Tables_number   1
_chemical_formula_structural   YHo3MgTlPd4
_chemical_formula_sum   'Y1 Ho3 Mg1 Tl1 Pd4'
_cell_volume   223.90142040
_cell_formula_units_Z   1
loop_
 _symmetry_equiv_pos_site_id
 _symmetry_equiv_pos_as_xyz
  1  'x, y, z'
loop_
 _atom_site_type_symbol
 _atom_site_label
 _atom_site_symmetry_multiplicity
 _atom_site_fract_x
 _atom_site_fract_y
 _atom_site_fract_z
 _atom_site_occupancy
  Y  Y0  1  0.321842  0.844663  0.500000  1
  Ho  Ho1  1  0.844861  0.677428  0.500000  1
  Ho  Ho2  1  0.154444  0.321619  0.500000  1
  Ho  Ho3  1  0.678376  0.155233  0.500000  1
  Mg  Mg4  1  0.499347  0.500084  0.000000  1
  Tl  Tl5  1  0.999759  0.999742  0.000000  1
  Pd  Pd6  1  0.384280  0.148211  0.000000  1
  Pd  Pd7  1  0.853176  0.382389  0.000000  1
  Pd  Pd8  1  0.143633  0.614473  0.000000  1
  Pd  Pd9  1  0.620281  0.856157  0.000000  1
