# generated using pymatgen
data_TbTm5Lu2Ga3Co
_symmetry_space_group_name_H-M   'P 1'
_cell_length_a   9.85547500
_cell_length_b   9.85576174
_cell_length_c   6.88830708
_cell_angle_alpha   89.98467032
_cell_angle_beta   90.00000000
_cell_angle_gamma   119.99903424
_symmetry_Int_Tables_number   1
_chemical_formula_structural   TbTm5Lu2Ga3Co
_chemical_formula_sum   'Tb2 Tm10 Lu4 Ga6 Co2'
_cell_volume   579.44883457
_cell_formula_units_Z   2
loop_
 _symmetry_equiv_pos_site_id
 _symmetry_equiv_pos_as_xyz
  1  'x, y, z'
loop_
 _atom_site_type_symbol
 _atom_site_label
 _atom_site_symmetry_multiplicity
 _atom_site_fract_x
 _atom_site_fract_y
 _atom_site_fract_z
 _atom_site_occupancy
  Tb  Tb0  1  0.000059  0.000118  0.768335  1
  Tb  Tb1  1  0.000133  0.000267  0.269775  1
  Tm  Tm2  1  0.651697  0.825842  0.988658  1
  Tm  Tm3  1  0.174146  0.825842  0.988658  1
  Tm  Tm4  1  0.666676  0.333352  0.172659  1
  Tm  Tm5  1  0.333193  0.666388  0.671916  1
  Tm  Tm6  1  0.536785  0.073570  0.792160  1
  Tm  Tm7  1  0.926678  0.463125  0.792310  1
  Tm  Tm8  1  0.536446  0.463125  0.792310  1
  Tm  Tm9  1  0.463510  0.927020  0.293199  1
  Tm  Tm10  1  0.073058  0.536288  0.292917  1
  Tm  Tm11  1  0.463230  0.536288  0.292917  1
  Lu  Lu12  1  0.825602  0.651205  0.488735  1
  Lu  Lu13  1  0.348721  0.174370  0.488680  1
  Lu  Lu14  1  0.825648  0.174370  0.488680  1
  Lu  Lu15  1  0.174383  0.348766  0.988751  1
  Ga  Ga16  1  0.835920  0.671842  0.040873  1
  Ga  Ga17  1  0.327861  0.164370  0.040806  1
  Ga  Ga18  1  0.836509  0.164370  0.040806  1
  Ga  Ga19  1  0.163706  0.327411  0.540620  1
  Ga  Ga20  1  0.672513  0.836257  0.540130  1
  Ga  Ga21  1  0.163745  0.836257  0.540130  1
  Co  Co22  1  0.666678  0.333355  0.555930  1
  Co  Co23  1  0.333102  0.666204  0.056114  1
