# generated using pymatgen
data_HoTm7(LuSb)12
_symmetry_space_group_name_H-M   'P 1'
_cell_length_a   8.03963317
_cell_length_b   9.11271800
_cell_length_c   11.67378125
_cell_angle_alpha   90.00000000
_cell_angle_beta   90.02353347
_cell_angle_gamma   90.00000000
_symmetry_Int_Tables_number   1
_chemical_formula_structural   HoTm7(LuSb)12
_chemical_formula_sum   'Ho1 Tm7 Lu12 Sb12'
_cell_volume   855.25511146
_cell_formula_units_Z   1
loop_
 _symmetry_equiv_pos_site_id
 _symmetry_equiv_pos_as_xyz
  1  'x, y, z'
loop_
 _atom_site_type_symbol
 _atom_site_label
 _atom_site_symmetry_multiplicity
 _atom_site_fract_x
 _atom_site_fract_y
 _atom_site_fract_z
 _atom_site_occupancy
  Ho  Ho0  1  0.175599  0.750000  0.228924  1
  Tm  Tm1  1  0.675598  0.250000  0.271142  1
  Tm  Tm2  1  0.824432  0.250000  0.771102  1
  Tm  Tm3  1  0.324424  0.750000  0.728939  1
  Tm  Tm4  1  0.658217  0.750000  0.290974  1
  Tm  Tm5  1  0.158016  0.250000  0.209091  1
  Tm  Tm6  1  0.342066  0.250000  0.709096  1
  Tm  Tm7  1  0.841957  0.750000  0.790876  1
  Lu  Lu8  1  0.808879  0.939177  0.066159  1
  Lu  Lu9  1  0.308823  0.060883  0.433917  1
  Lu  Lu10  1  0.191219  0.439253  0.933868  1
  Lu  Lu11  1  0.691203  0.560774  0.566184  1
  Lu  Lu12  1  0.191219  0.060747  0.933868  1
  Lu  Lu13  1  0.691203  0.939226  0.566184  1
  Lu  Lu14  1  0.808879  0.560823  0.066159  1
  Lu  Lu15  1  0.308823  0.439117  0.433917  1
  Lu  Lu16  1  0.524911  0.250000  0.995073  1
  Lu  Lu17  1  0.024756  0.750000  0.505027  1
  Lu  Lu18  1  0.475190  0.750000  0.004828  1
  Lu  Lu19  1  0.975042  0.250000  0.495106  1
  Sb  Sb20  1  0.935852  0.991242  0.326164  1
  Sb  Sb21  1  0.436817  0.009446  0.173997  1
  Sb  Sb22  1  0.063613  0.490791  0.674033  1
  Sb  Sb23  1  0.563610  0.509170  0.825920  1
  Sb  Sb24  1  0.063613  0.009209  0.674033  1
  Sb  Sb25  1  0.563610  0.990830  0.825920  1
  Sb  Sb26  1  0.935852  0.508758  0.326164  1
  Sb  Sb27  1  0.436817  0.490554  0.173997  1
  Sb  Sb28  1  0.902899  0.250000  0.024286  1
  Sb  Sb29  1  0.403012  0.750000  0.475754  1
  Sb  Sb30  1  0.096811  0.750000  0.974986  1
  Sb  Sb31  1  0.597038  0.250000  0.524315  1
