# generated using pymatgen
data_Ta4Al3BMo
_symmetry_space_group_name_H-M   'P 1'
_cell_length_a   7.80889000
_cell_length_b   7.80888903
_cell_length_c   5.27415000
_cell_angle_alpha   90.00000000
_cell_angle_beta   90.00000000
_cell_angle_gamma   120.00000409
_symmetry_Int_Tables_number   1
_chemical_formula_structural   Ta4Al3BMo
_chemical_formula_sum   'Ta8 Al6 B2 Mo2'
_cell_volume   278.52337408
_cell_formula_units_Z   2
loop_
 _symmetry_equiv_pos_site_id
 _symmetry_equiv_pos_as_xyz
  1  'x, y, z'
loop_
 _atom_site_type_symbol
 _atom_site_label
 _atom_site_symmetry_multiplicity
 _atom_site_fract_x
 _atom_site_fract_y
 _atom_site_fract_z
 _atom_site_occupancy
  Ta  Ta0  1  0.240809  0.000000  0.256105  1
  Ta  Ta1  1  0.759191  0.000000  0.743895  1
  Ta  Ta2  1  0.000000  0.240809  0.256105  1
  Ta  Ta3  1  0.000000  0.759191  0.743895  1
  Ta  Ta4  1  0.759191  0.759191  0.256105  1
  Ta  Ta5  1  0.240809  0.240809  0.743895  1
  Ta  Ta6  1  0.666667  0.333333  0.500000  1
  Ta  Ta7  1  0.333333  0.666667  0.500000  1
  Al  Al8  1  0.594758  0.000000  0.237696  1
  Al  Al9  1  0.405242  0.000000  0.762304  1
  Al  Al10  1  0.000000  0.594758  0.237696  1
  Al  Al11  1  0.000000  0.405242  0.762304  1
  Al  Al12  1  0.405242  0.405242  0.237696  1
  Al  Al13  1  0.594758  0.594758  0.762304  1
  B  B14  1  0.000000  0.000000  0.000000  1
  B  B15  1  0.000000  0.000000  0.500000  1
  Mo  Mo16  1  0.333333  0.666667  0.000000  1
  Mo  Mo17  1  0.666667  0.333333  0.000000  1
