# generated using pymatgen
data_Dy9Th3Co2(Si4Ni)2
_symmetry_space_group_name_H-M   'P 1'
_cell_length_a   4.15375500
_cell_length_b   11.35882902
_cell_length_c   11.29659307
_cell_angle_alpha   89.60111856
_cell_angle_beta   90.00000000
_cell_angle_gamma   90.00000000
_symmetry_Int_Tables_number   1
_chemical_formula_structural   Dy9Th3Co2(Si4Ni)2
_chemical_formula_sum   'Dy9 Th3 Co2 Si8 Ni2'
_cell_volume   532.98059759
_cell_formula_units_Z   1
loop_
 _symmetry_equiv_pos_site_id
 _symmetry_equiv_pos_as_xyz
  1  'x, y, z'
loop_
 _atom_site_type_symbol
 _atom_site_label
 _atom_site_symmetry_multiplicity
 _atom_site_fract_x
 _atom_site_fract_y
 _atom_site_fract_z
 _atom_site_occupancy
  Dy  Dy0  1  0.750000  0.561428  0.615162  1
  Dy  Dy1  1  0.250000  0.120162  0.561057  1
  Dy  Dy2  1  0.250000  0.380730  0.059536  1
  Dy  Dy3  1  0.750000  0.873011  0.439174  1
  Dy  Dy4  1  0.750000  0.622956  0.936612  1
  Dy  Dy5  1  0.250000  0.800613  0.712208  1
  Dy  Dy6  1  0.250000  0.694168  0.212391  1
  Dy  Dy7  1  0.750000  0.197430  0.291276  1
  Dy  Dy8  1  0.750000  0.310068  0.790503  1
  Th  Th9  1  0.250000  0.058895  0.881137  1
  Th  Th10  1  0.250000  0.442520  0.384363  1
  Th  Th11  1  0.750000  0.937406  0.114962  1
  Co  Co12  1  0.750000  0.632155  0.367631  1
  Co  Co13  1  0.750000  0.867940  0.872804  1
  Si  Si14  1  0.250000  0.805828  0.970021  1
  Si  Si15  1  0.250000  0.689547  0.472823  1
  Si  Si16  1  0.750000  0.195033  0.029536  1
  Si  Si17  1  0.750000  0.308243  0.532482  1
  Si  Si18  1  0.250000  0.495276  0.800869  1
  Si  Si19  1  0.250000  0.013256  0.308276  1
  Si  Si20  1  0.750000  0.509569  0.193608  1
  Si  Si21  1  0.750000  0.984986  0.692651  1
  Ni  Ni22  1  0.250000  0.362538  0.630863  1
  Ni  Ni23  1  0.250000  0.136243  0.130055  1
