# generated using pymatgen
data_DyHo3Lu4(ReC2)4
_symmetry_space_group_name_H-M   'P 1'
_cell_length_a   5.03529000
_cell_length_b   6.54628567
_cell_length_c   9.73031601
_cell_angle_alpha   90.05206235
_cell_angle_beta   90.00000000
_cell_angle_gamma   90.00000000
_symmetry_Int_Tables_number   1
_chemical_formula_structural   DyHo3Lu4(ReC2)4
_chemical_formula_sum   'Dy1 Ho3 Lu4 Re4 C8'
_cell_volume   320.73489122
_cell_formula_units_Z   1
loop_
 _symmetry_equiv_pos_site_id
 _symmetry_equiv_pos_as_xyz
  1  'x, y, z'
loop_
 _atom_site_type_symbol
 _atom_site_label
 _atom_site_symmetry_multiplicity
 _atom_site_fract_x
 _atom_site_fract_y
 _atom_site_fract_z
 _atom_site_occupancy
  Dy  Dy0  1  0.750000  0.034640  0.714867  1
  Ho  Ho1  1  0.250000  0.465180  0.215101  1
  Ho  Ho2  1  0.250000  0.965164  0.284938  1
  Ho  Ho3  1  0.750000  0.534778  0.784972  1
  Lu  Lu4  1  0.250000  0.825549  0.941794  1
  Lu  Lu5  1  0.250000  0.325727  0.558184  1
  Lu  Lu6  1  0.750000  0.174370  0.058343  1
  Lu  Lu7  1  0.750000  0.674401  0.441638  1
  Re  Re8  1  0.250000  0.280119  0.868167  1
  Re  Re9  1  0.250000  0.779785  0.631883  1
  Re  Re10  1  0.750000  0.719882  0.132001  1
  Re  Re11  1  0.750000  0.220119  0.368019  1
  C  C12  1  0.250000  0.048681  0.739869  1
  C  C13  1  0.250000  0.548645  0.760309  1
  C  C14  1  0.750000  0.951269  0.260320  1
  C  C15  1  0.750000  0.451254  0.239675  1
  C  C16  1  0.250000  0.670513  0.447983  1
  C  C17  1  0.250000  0.170574  0.051984  1
  C  C18  1  0.750000  0.330217  0.551662  1
  C  C19  1  0.750000  0.829134  0.948292  1
