# generated using pymatgen
data_Pa2Be25Ni
_symmetry_space_group_name_H-M   'P 1'
_cell_length_a   7.23348917
_cell_length_b   7.26730924
_cell_length_c   7.22281518
_cell_angle_alpha   59.89340658
_cell_angle_beta   59.85011374
_cell_angle_gamma   59.74791889
_symmetry_Int_Tables_number   1
_chemical_formula_structural   Pa2Be25Ni
_chemical_formula_sum   'Pa2 Be25 Ni1'
_cell_volume   267.44674381
_cell_formula_units_Z   1
loop_
 _symmetry_equiv_pos_site_id
 _symmetry_equiv_pos_as_xyz
  1  'x, y, z'
loop_
 _atom_site_type_symbol
 _atom_site_label
 _atom_site_symmetry_multiplicity
 _atom_site_fract_x
 _atom_site_fract_y
 _atom_site_fract_z
 _atom_site_occupancy
  Pa  Pa0  1  0.245514  0.254199  0.249566  1
  Pa  Pa1  1  0.750434  0.749279  0.754486  1
  Be  Be2  1  0.501825  0.499646  0.498175  1
  Be  Be3  1  0.000137  0.001724  0.999863  1
  Be  Be4  1  0.204296  0.442505  0.795704  1
  Be  Be5  1  0.563100  0.789449  0.436900  1
  Be  Be6  1  0.439278  0.207276  0.560722  1
  Be  Be7  1  0.291110  0.939123  0.708890  1
  Be  Be8  1  0.708212  0.061038  0.291788  1
  Be  Be9  1  0.939879  0.286747  0.060121  1
  Be  Be10  1  0.066065  0.715419  0.933935  1
  Be  Be11  1  0.208458  0.793236  0.558352  1
  Be  Be12  1  0.789963  0.205898  0.442405  1
  Be  Be13  1  0.441648  0.560046  0.791542  1
  Be  Be14  1  0.557595  0.438267  0.210037  1
  Be  Be15  1  0.709409  0.289344  0.939425  1
  Be  Be16  1  0.290372  0.710305  0.059930  1
  Be  Be17  1  0.060575  0.938179  0.290591  1
  Be  Be18  1  0.940070  0.060607  0.709628  1
  Be  Be19  1  0.558231  0.207616  0.793300  1
  Be  Be20  1  0.436352  0.792809  0.208814  1
  Be  Be21  1  0.791186  0.437975  0.563648  1
  Be  Be22  1  0.206700  0.559147  0.441769  1
  Be  Be23  1  0.938663  0.710445  0.291487  1
  Be  Be24  1  0.060949  0.290316  0.709871  1
  Be  Be25  1  0.290129  0.061135  0.939051  1
  Be  Be26  1  0.708513  0.940595  0.061337  1
  Ni  Ni27  1  0.801341  0.557677  0.198659  1
