# generated using pymatgen
data_Yb4Si10OsPt5
_symmetry_space_group_name_H-M   'P 1'
_cell_length_a   8.25384089
_cell_length_b   8.25384149
_cell_length_c   8.25384136
_cell_angle_alpha   138.96989111
_cell_angle_beta   104.28259034
_cell_angle_gamma   89.93873726
_symmetry_Int_Tables_number   1
_chemical_formula_structural   Yb4Si10OsPt5
_chemical_formula_sum   'Yb4 Si10 Os1 Pt5'
_cell_volume   342.24998120
_cell_formula_units_Z   1
loop_
 _symmetry_equiv_pos_site_id
 _symmetry_equiv_pos_as_xyz
  1  'x, y, z'
loop_
 _atom_site_type_symbol
 _atom_site_label
 _atom_site_symmetry_multiplicity
 _atom_site_fract_x
 _atom_site_fract_y
 _atom_site_fract_z
 _atom_site_occupancy
  Yb  Yb0  1  0.862699  0.629868  0.233308  1
  Yb  Yb1  1  0.137301  0.370610  0.767169  1
  Yb  Yb2  1  0.396559  0.129390  0.266692  1
  Yb  Yb3  1  0.603441  0.870132  0.732831  1
  Si  Si4  1  0.500000  0.750000  0.250000  1
  Si  Si5  1  0.500000  0.250000  0.750000  1
  Si  Si6  1  0.224752  0.974752  0.750000  1
  Si  Si7  1  0.775248  0.525248  0.750000  1
  Si  Si8  1  0.772177  0.022177  0.250000  1
  Si  Si9  1  0.227823  0.477823  0.250000  1
  Si  Si10  1  0.042779  0.884580  0.143891  1
  Si  Si11  1  0.957221  0.101112  0.841801  1
  Si  Si12  1  0.740688  0.398888  0.356109  1
  Si  Si13  1  0.259312  0.615420  0.658199  1
  Os  Os14  1  0.000000  0.750000  0.750000  1
  Pt  Pt15  1  0.000000  0.250000  0.250000  1
  Pt  Pt16  1  0.245633  0.863614  0.385764  1
  Pt  Pt17  1  0.754367  0.140129  0.617979  1
  Pt  Pt18  1  0.477850  0.359871  0.114236  1
  Pt  Pt19  1  0.522150  0.636386  0.882021  1
