# generated using pymatgen
data_Tb3Pa(ReB6)2
_symmetry_space_group_name_H-M   'P 1'
_cell_length_a   3.71880100
_cell_length_b   9.21051967
_cell_length_c   11.56781457
_cell_angle_alpha   90.40254016
_cell_angle_beta   90.00000000
_cell_angle_gamma   90.00000000
_symmetry_Int_Tables_number   1
_chemical_formula_structural   Tb3Pa(ReB6)2
_chemical_formula_sum   'Tb6 Pa2 Re4 B24'
_cell_volume   396.21204439
_cell_formula_units_Z   2
loop_
 _symmetry_equiv_pos_site_id
 _symmetry_equiv_pos_as_xyz
  1  'x, y, z'
loop_
 _atom_site_type_symbol
 _atom_site_label
 _atom_site_symmetry_multiplicity
 _atom_site_fract_x
 _atom_site_fract_y
 _atom_site_fract_z
 _atom_site_occupancy
  Tb  Tb0  1  0.000000  0.824623  0.085935  1
  Tb  Tb1  1  0.000000  0.175377  0.914065  1
  Tb  Tb2  1  0.000000  0.944885  0.373295  1
  Tb  Tb3  1  0.000000  0.055115  0.626705  1
  Tb  Tb4  1  0.000000  0.443882  0.126687  1
  Tb  Tb5  1  0.000000  0.556118  0.873313  1
  Pa  Pa6  1  0.000000  0.322469  0.412919  1
  Pa  Pa7  1  0.000000  0.677531  0.587081  1
  Re  Re8  1  0.000000  0.635006  0.325692  1
  Re  Re9  1  0.000000  0.364994  0.674308  1
  Re  Re10  1  0.000000  0.140489  0.182058  1
  Re  Re11  1  0.000000  0.859511  0.817942  1
  B  B12  1  0.500000  0.552895  0.433209  1
  B  B13  1  0.500000  0.447105  0.566791  1
  B  B14  1  0.500000  0.053273  0.067947  1
  B  B15  1  0.500000  0.946727  0.932053  1
  B  B16  1  0.500000  0.746612  0.420107  1
  B  B17  1  0.500000  0.253388  0.579893  1
  B  B18  1  0.500000  0.246932  0.080861  1
  B  B19  1  0.500000  0.753068  0.919139  1
  B  B20  1  0.500000  0.790741  0.266874  1
  B  B21  1  0.500000  0.209259  0.733126  1
  B  B22  1  0.500000  0.292162  0.233942  1
  B  B23  1  0.500000  0.707838  0.766058  1
  B  B24  1  0.500000  0.631789  0.186447  1
  B  B25  1  0.500000  0.368211  0.813553  1
  B  B26  1  0.500000  0.133401  0.313842  1
  B  B27  1  0.500000  0.866599  0.686158  1
  B  B28  1  0.500000  0.983155  0.212745  1
  B  B29  1  0.500000  0.016845  0.787255  1
  B  B30  1  0.500000  0.483329  0.287311  1
  B  B31  1  0.500000  0.516671  0.712689  1
  B  B32  1  0.500000  0.606967  0.030054  1
  B  B33  1  0.500000  0.393033  0.969946  1
  B  B34  1  0.500000  0.116240  0.467876  1
  B  B35  1  0.500000  0.883760  0.532124  1
