# generated using pymatgen
data_Dy5Ho2Co6Sn22Hg
_symmetry_space_group_name_H-M   'P 1'
_cell_length_a   9.67919500
_cell_length_b   9.67927385
_cell_length_c   10.01379100
_cell_angle_alpha   90.00000044
_cell_angle_beta   90.00176314
_cell_angle_gamma   120.00027281
_symmetry_Int_Tables_number   1
_chemical_formula_structural   Dy5Ho2Co6Sn22Hg
_chemical_formula_sum   'Dy5 Ho2 Co6 Sn22 Hg1'
_cell_volume   812.47494508
_cell_formula_units_Z   1
loop_
 _symmetry_equiv_pos_site_id
 _symmetry_equiv_pos_as_xyz
  1  'x, y, z'
loop_
 _atom_site_type_symbol
 _atom_site_label
 _atom_site_symmetry_multiplicity
 _atom_site_fract_x
 _atom_site_fract_y
 _atom_site_fract_z
 _atom_site_occupancy
  Dy  Dy0  1  0.999999  0.000000  0.000004  1
  Dy  Dy1  1  0.520700  0.479297  0.693582  1
  Dy  Dy2  1  0.520700  0.041401  0.693582  1
  Dy  Dy3  1  0.958597  0.479298  0.693593  1
  Dy  Dy4  1  0.041403  0.520702  0.306406  1
  Ho  Ho5  1  0.479316  0.958632  0.306409  1
  Ho  Ho6  1  0.479316  0.520686  0.306409  1
  Co  Co7  1  0.168087  0.831911  0.802990  1
  Co  Co8  1  0.168087  0.336177  0.802990  1
  Co  Co9  1  0.663826  0.831913  0.802988  1
  Co  Co10  1  0.336194  0.168096  0.197030  1
  Co  Co11  1  0.831886  0.663816  0.197021  1
  Co  Co12  1  0.831886  0.168070  0.197021  1
  Sn  Sn13  1  0.666645  0.333322  0.181490  1
  Sn  Sn14  1  0.666664  0.333332  0.879848  1
  Sn  Sn15  1  0.333383  0.666692  0.120212  1
  Sn  Sn16  1  0.346377  0.346367  0.000014  1
  Sn  Sn17  1  0.999996  0.653630  0.000001  1
  Sn  Sn18  1  0.653626  0.999997  0.000009  1
  Sn  Sn19  1  0.653626  0.653628  0.000009  1
  Sn  Sn20  1  0.333339  0.666670  0.818514  1
  Sn  Sn21  1  0.435156  0.217578  0.453388  1
  Sn  Sn22  1  0.217592  0.782438  0.546546  1
  Sn  Sn23  1  0.217592  0.435155  0.546546  1
  Sn  Sn24  1  0.564844  0.782422  0.546533  1
  Sn  Sn25  1  0.116883  0.883168  0.269927  1
  Sn  Sn26  1  0.782385  0.564844  0.453414  1
  Sn  Sn27  1  0.782385  0.217541  0.453414  1
  Sn  Sn28  1  0.346377  0.000010  0.000014  1
  Sn  Sn29  1  0.116883  0.233714  0.269927  1
  Sn  Sn30  1  0.766259  0.883129  0.269932  1
  Sn  Sn31  1  0.233694  0.116847  0.730079  1
  Sn  Sn32  1  0.883149  0.766307  0.730078  1
  Sn  Sn33  1  0.883149  0.116844  0.730078  1
  Sn  Sn34  1  0.999996  0.346365  0.000001  1
  Hg  Hg35  1  0.000000  0.000000  0.500001  1
