# generated using pymatgen
data_Ho20InBi7Pt4
_symmetry_space_group_name_H-M   'P 1'
_cell_length_a   8.02834338
_cell_length_b   9.03923750
_cell_length_c   12.35856800
_cell_angle_alpha   89.98023002
_cell_angle_beta   89.98240093
_cell_angle_gamma   89.96225412
_symmetry_Int_Tables_number   1
_chemical_formula_structural   Ho20InBi7Pt4
_chemical_formula_sum   'Ho20 In1 Bi7 Pt4'
_cell_volume   896.86225655
_cell_formula_units_Z   1
loop_
 _symmetry_equiv_pos_site_id
 _symmetry_equiv_pos_as_xyz
  1  'x, y, z'
loop_
 _atom_site_type_symbol
 _atom_site_label
 _atom_site_symmetry_multiplicity
 _atom_site_fract_x
 _atom_site_fract_y
 _atom_site_fract_z
 _atom_site_occupancy
  Ho  Ho0  1  0.340810  0.745800  0.712903  1
  Ho  Ho1  1  0.660961  0.249360  0.288952  1
  Ho  Ho2  1  0.835133  0.253951  0.789038  1
  Ho  Ho3  1  0.161375  0.750365  0.209046  1
  Ho  Ho4  1  0.868393  0.745878  0.801359  1
  Ho  Ho5  1  0.126181  0.250021  0.198652  1
  Ho  Ho6  1  0.378856  0.254308  0.701086  1
  Ho  Ho7  1  0.625241  0.749777  0.301848  1
  Ho  Ho8  1  0.676123  0.544528  0.571751  1
  Ho  Ho9  1  0.321617  0.454676  0.433565  1
  Ho  Ho10  1  0.183084  0.456536  0.932568  1
  Ho  Ho11  1  0.321547  0.045794  0.433786  1
  Ho  Ho12  1  0.819528  0.544650  0.063488  1
  Ho  Ho13  1  0.679482  0.954751  0.566986  1
  Ho  Ho14  1  0.820225  0.955775  0.066010  1
  Ho  Ho15  1  0.178578  0.044622  0.933471  1
  Ho  Ho16  1  0.051649  0.750273  0.501082  1
  Ho  Ho17  1  0.949829  0.249534  0.498987  1
  Ho  Ho18  1  0.550494  0.254714  0.997020  1
  Ho  Ho19  1  0.453045  0.745419  0.997936  1
  In  In20  1  0.569802  0.508646  0.828941  1
  Bi  Bi21  1  0.428844  0.489895  0.173364  1
  Bi  Bi22  1  0.070779  0.489399  0.671298  1
  Bi  Bi23  1  0.429448  0.009693  0.170658  1
  Bi  Bi24  1  0.929417  0.510513  0.327824  1
  Bi  Bi25  1  0.570453  0.990460  0.828228  1
  Bi  Bi26  1  0.929343  0.989382  0.327630  1
  Bi  Bi27  1  0.071045  0.010181  0.673158  1
  Pt  Pt28  1  0.072402  0.750187  0.988095  1
  Pt  Pt29  1  0.926219  0.250026  0.011403  1
  Pt  Pt30  1  0.575056  0.249654  0.511048  1
  Pt  Pt31  1  0.425043  0.751232  0.488819  1
