# generated using pymatgen
data_Nd3Er5(AgIr)2
_symmetry_space_group_name_H-M   'P 1'
_cell_length_a   9.62071920
_cell_length_b   9.62071983
_cell_length_c   9.62071900
_cell_angle_alpha   59.99999940
_cell_angle_beta   59.99999725
_cell_angle_gamma   60.00000230
_symmetry_Int_Tables_number   1
_chemical_formula_structural   Nd3Er5(AgIr)2
_chemical_formula_sum   'Nd6 Er10 Ag4 Ir4'
_cell_volume   629.66221861
_cell_formula_units_Z   2
loop_
 _symmetry_equiv_pos_site_id
 _symmetry_equiv_pos_as_xyz
  1  'x, y, z'
loop_
 _atom_site_type_symbol
 _atom_site_label
 _atom_site_symmetry_multiplicity
 _atom_site_fract_x
 _atom_site_fract_y
 _atom_site_fract_z
 _atom_site_occupancy
  Nd  Nd0  1  0.939750  0.560250  0.560250  1
  Nd  Nd1  1  0.560250  0.939750  0.939750  1
  Nd  Nd2  1  0.560250  0.939750  0.560250  1
  Nd  Nd3  1  0.939750  0.560250  0.939750  1
  Nd  Nd4  1  0.560250  0.560250  0.939750  1
  Nd  Nd5  1  0.939750  0.939750  0.560250  1
  Er  Er6  1  0.349965  0.349965  0.349965  1
  Er  Er7  1  0.349965  0.349965  0.950106  1
  Er  Er8  1  0.349965  0.950106  0.349965  1
  Er  Er9  1  0.950106  0.349965  0.349965  1
  Er  Er10  1  0.813673  0.186327  0.186327  1
  Er  Er11  1  0.186327  0.813673  0.813673  1
  Er  Er12  1  0.186327  0.813673  0.186327  1
  Er  Er13  1  0.813673  0.186327  0.813673  1
  Er  Er14  1  0.186327  0.186327  0.813673  1
  Er  Er15  1  0.813673  0.813673  0.186327  1
  Ag  Ag16  1  0.579637  0.579637  0.579637  1
  Ag  Ag17  1  0.579637  0.579637  0.261089  1
  Ag  Ag18  1  0.579637  0.261089  0.579637  1
  Ag  Ag19  1  0.261089  0.579637  0.579637  1
  Ir  Ir20  1  0.142122  0.142122  0.142122  1
  Ir  Ir21  1  0.142122  0.142122  0.573634  1
  Ir  Ir22  1  0.142122  0.573634  0.142122  1
  Ir  Ir23  1  0.573634  0.142122  0.142122  1
