# generated using pymatgen
data_Dy3Tm17(Bi3Sb)3
_symmetry_space_group_name_H-M   'P 1'
_cell_length_a   8.12785070
_cell_length_b   9.39367100
_cell_length_c   11.86933085
_cell_angle_alpha   90.00000000
_cell_angle_beta   90.05876546
_cell_angle_gamma   90.00000000
_symmetry_Int_Tables_number   1
_chemical_formula_structural   Dy3Tm17(Bi3Sb)3
_chemical_formula_sum   'Dy3 Tm17 Bi9 Sb3'
_cell_volume   906.22715252
_cell_formula_units_Z   1
loop_
 _symmetry_equiv_pos_site_id
 _symmetry_equiv_pos_as_xyz
  1  'x, y, z'
loop_
 _atom_site_type_symbol
 _atom_site_label
 _atom_site_symmetry_multiplicity
 _atom_site_fract_x
 _atom_site_fract_y
 _atom_site_fract_z
 _atom_site_occupancy
  Dy  Dy0  1  0.810892  0.250000  0.279147  1
  Dy  Dy1  1  0.683619  0.750000  0.782227  1
  Dy  Dy2  1  0.184067  0.750000  0.717862  1
  Tm  Tm3  1  0.352718  0.750000  0.214092  1
  Tm  Tm4  1  0.853244  0.750000  0.285229  1
  Tm  Tm5  1  0.647034  0.250000  0.785731  1
  Tm  Tm6  1  0.148209  0.250000  0.717680  1
  Tm  Tm7  1  0.689395  0.564526  0.058028  1
  Tm  Tm8  1  0.190559  0.932132  0.441705  1
  Tm  Tm9  1  0.310904  0.064036  0.942397  1
  Tm  Tm10  1  0.808259  0.438235  0.559631  1
  Tm  Tm11  1  0.310904  0.435964  0.942397  1
  Tm  Tm12  1  0.808259  0.061765  0.559631  1
  Tm  Tm13  1  0.689395  0.935474  0.058028  1
  Tm  Tm14  1  0.190559  0.567868  0.441705  1
  Tm  Tm15  1  0.476412  0.250000  0.488492  1
  Tm  Tm16  1  0.974024  0.250000  0.011212  1
  Tm  Tm17  1  0.527716  0.750000  0.511781  1
  Tm  Tm18  1  0.026794  0.750000  0.988989  1
  Tm  Tm19  1  0.317585  0.250000  0.215147  1
  Bi  Bi20  1  0.094542  0.250000  0.457549  1
  Bi  Bi21  1  0.564611  0.994672  0.325590  1
  Bi  Bi22  1  0.066699  0.504209  0.174255  1
  Bi  Bi23  1  0.434029  0.494565  0.674360  1
  Bi  Bi24  1  0.934132  0.004972  0.826214  1
  Bi  Bi25  1  0.434029  0.005435  0.674360  1
  Bi  Bi26  1  0.934132  0.495028  0.826214  1
  Bi  Bi27  1  0.564611  0.505328  0.325590  1
  Bi  Bi28  1  0.066699  0.995791  0.174255  1
  Sb  Sb29  1  0.405326  0.750000  0.959360  1
  Sb  Sb30  1  0.906047  0.750000  0.540355  1
  Sb  Sb31  1  0.594597  0.250000  0.040782  1
