# generated using pymatgen
data_Hf4Fe7As6
_symmetry_space_group_name_H-M   'P 1'
_cell_length_a   6.77785219
_cell_length_b   6.77785360
_cell_length_c   6.77785300
_cell_angle_alpha   109.47122482
_cell_angle_beta   109.47122902
_cell_angle_gamma   109.47121650
_symmetry_Int_Tables_number   1
_chemical_formula_structural   Hf4Fe7As6
_chemical_formula_sum   'Hf4 Fe7 As6'
_cell_volume   239.69252325
_cell_formula_units_Z   1
loop_
 _symmetry_equiv_pos_site_id
 _symmetry_equiv_pos_as_xyz
  1  'x, y, z'
loop_
 _atom_site_type_symbol
 _atom_site_label
 _atom_site_symmetry_multiplicity
 _atom_site_fract_x
 _atom_site_fract_y
 _atom_site_fract_z
 _atom_site_occupancy
  Hf  Hf0  1  0.000000  0.000000  0.500000  1
  Hf  Hf1  1  0.500000  0.000000  0.000000  1
  Hf  Hf2  1  0.000000  0.500000  0.000000  1
  Hf  Hf3  1  0.500000  0.500000  0.500000  1
  Fe  Fe4  1  0.750000  0.500000  0.250000  1
  Fe  Fe5  1  0.500000  0.750000  0.250000  1
  Fe  Fe6  1  0.500000  0.250000  0.750000  1
  Fe  Fe7  1  0.750000  0.250000  0.500000  1
  Fe  Fe8  1  0.250000  0.750000  0.500000  1
  Fe  Fe9  1  0.250000  0.500000  0.750000  1
  Fe  Fe10  1  0.000000  0.000000  0.000000  1
  As  As11  1  0.317636  0.000000  0.317636  1
  As  As12  1  0.000000  0.317636  0.317636  1
  As  As13  1  0.000000  0.682364  0.682364  1
  As  As14  1  0.317636  0.317636  0.000000  1
  As  As15  1  0.682364  0.682364  0.000000  1
  As  As16  1  0.682364  0.000000  0.682364  1
