# generated using pymatgen
data_La3Y5(Si3Ni)4
_symmetry_space_group_name_H-M   'P 1'
_cell_length_a   8.02299600
_cell_length_b   8.01946394
_cell_length_c   8.39699400
_cell_angle_alpha   90.00000000
_cell_angle_beta   90.00000000
_cell_angle_gamma   120.01457883
_symmetry_Int_Tables_number   1
_chemical_formula_structural   La3Y5(Si3Ni)4
_chemical_formula_sum   'La3 Y5 Si12 Ni4'
_cell_volume   467.81330555
_cell_formula_units_Z   1
loop_
 _symmetry_equiv_pos_site_id
 _symmetry_equiv_pos_as_xyz
  1  'x, y, z'
loop_
 _atom_site_type_symbol
 _atom_site_label
 _atom_site_symmetry_multiplicity
 _atom_site_fract_x
 _atom_site_fract_y
 _atom_site_fract_z
 _atom_site_occupancy
  La  La0  1  0.500358  0.000716  0.250000  1
  La  La1  1  0.999995  0.999990  0.750000  1
  La  La2  1  0.999992  0.999984  0.250000  1
  Y  Y3  1  0.499713  0.500289  0.750000  1
  Y  Y4  1  0.500208  0.499872  0.250000  1
  Y  Y5  1  0.000576  0.500289  0.750000  1
  Y  Y6  1  0.999665  0.499873  0.250000  1
  Y  Y7  1  0.499706  0.999411  0.750000  1
  Si  Si8  1  0.829724  0.173800  0.996372  1
  Si  Si9  1  0.170262  0.826168  0.996979  1
  Si  Si10  1  0.344076  0.173800  0.996372  1
  Si  Si11  1  0.170262  0.826168  0.503021  1
  Si  Si12  1  0.655906  0.826168  0.996979  1
  Si  Si13  1  0.829724  0.173800  0.503628  1
  Si  Si14  1  0.827313  0.654626  0.998974  1
  Si  Si15  1  0.655906  0.826168  0.503021  1
  Si  Si16  1  0.172642  0.345284  0.999432  1
  Si  Si17  1  0.344076  0.173800  0.503628  1
  Si  Si18  1  0.172642  0.345284  0.500568  1
  Si  Si19  1  0.827313  0.654626  0.501026  1
  Ni  Ni20  1  0.667147  0.334293  0.995279  1
  Ni  Ni21  1  0.332822  0.665645  0.996970  1
  Ni  Ni22  1  0.332822  0.665645  0.503030  1
  Ni  Ni23  1  0.667147  0.334293  0.504721  1
