# generated using pymatgen
data_Hf6Ti2Ga15Ir6Rh
_symmetry_space_group_name_H-M   'P 1'
_cell_length_a   8.83009584
_cell_length_b   8.83015789
_cell_length_c   8.83005274
_cell_angle_alpha   120.58506671
_cell_angle_beta   119.63353589
_cell_angle_gamma   89.81267211
_symmetry_Int_Tables_number   1
_chemical_formula_structural   Hf6Ti2Ga15Ir6Rh
_chemical_formula_sum   'Hf6 Ti2 Ga15 Ir6 Rh1'
_cell_volume   485.98668856
_cell_formula_units_Z   1
loop_
 _symmetry_equiv_pos_site_id
 _symmetry_equiv_pos_as_xyz
  1  'x, y, z'
loop_
 _atom_site_type_symbol
 _atom_site_label
 _atom_site_symmetry_multiplicity
 _atom_site_fract_x
 _atom_site_fract_y
 _atom_site_fract_z
 _atom_site_occupancy
  Hf  Hf0  1  0.797812  0.289213  0.075732  1
  Hf  Hf1  1  0.213479  0.289230  0.491401  1
  Hf  Hf2  1  0.202757  0.702785  0.500033  1
  Hf  Hf3  1  0.213397  0.722025  0.924140  1
  Hf  Hf4  1  0.797892  0.722040  0.508619  1
  Hf  Hf5  1  0.781785  0.281780  0.500028  1
  Ti  Ti6  1  0.378083  0.124893  0.746804  1
  Ti  Ti7  1  0.378073  0.631255  0.253192  1
  Ga  Ga8  1  0.991922  0.491873  0.499938  1
  Ga  Ga9  1  0.159235  0.345165  0.185913  1
  Ga  Ga10  1  0.159304  0.973483  0.814196  1
  Ga  Ga11  1  0.155171  0.349152  0.806013  1
  Ga  Ga12  1  0.543160  0.349164  0.194014  1
  Ga  Ga13  1  0.843723  0.654559  0.810818  1
  Ga  Ga14  1  0.843754  0.032936  0.189187  1
  Ga  Ga15  1  0.843837  0.654952  0.188857  1
  Ga  Ga16  1  0.466097  0.654969  0.811139  1
  Ga  Ga17  1  0.379600  0.123349  0.256187  1
  Ga  Ga18  1  0.867162  0.123354  0.743764  1
  Ga  Ga19  1  0.617252  0.870644  0.253384  1
  Ga  Ga20  1  0.617250  0.363900  0.746633  1
  Ga  Ga21  1  0.610299  0.875492  0.734710  1
  Ga  Ga22  1  0.140780  0.875514  0.265216  1
  Ir  Ir23  1  0.003052  0.002594  0.503839  1
  Ir  Ir24  1  0.498761  0.002604  0.999524  1
  Ir  Ir25  1  0.496956  0.497039  0.000090  1
  Ir  Ir26  1  0.498745  0.499229  0.496162  1
  Ir  Ir27  1  0.003086  0.499250  0.000486  1
  Ir  Ir28  1  0.000475  0.000470  0.999996  1
  Rh  Rh29  1  0.497092  0.997080  0.499982  1
