# generated using pymatgen
data_LiTm2(ThSi2)2
_symmetry_space_group_name_H-M   'P 1'
_cell_length_a   7.70261000
_cell_length_b   7.70261000
_cell_length_c   13.73313200
_cell_angle_alpha   90.00000000
_cell_angle_beta   90.00000000
_cell_angle_gamma   90.00000000
_symmetry_Int_Tables_number   1
_chemical_formula_structural   LiTm2(ThSi2)2
_chemical_formula_sum   'Li4 Tm8 Th8 Si16'
_cell_volume   814.78947934
_cell_formula_units_Z   4
loop_
 _symmetry_equiv_pos_site_id
 _symmetry_equiv_pos_as_xyz
  1  'x, y, z'
loop_
 _atom_site_type_symbol
 _atom_site_label
 _atom_site_symmetry_multiplicity
 _atom_site_fract_x
 _atom_site_fract_y
 _atom_site_fract_z
 _atom_site_occupancy
  Li  Li0  1  0.311556  0.311556  0.500000  1
  Li  Li1  1  0.188444  0.811556  0.750000  1
  Li  Li2  1  0.811556  0.188444  0.250000  1
  Li  Li3  1  0.688444  0.688444  0.000000  1
  Tm  Tm4  1  0.505255  0.368887  0.123070  1
  Tm  Tm5  1  0.005255  0.131113  0.626930  1
  Tm  Tm6  1  0.868887  0.994745  0.873070  1
  Tm  Tm7  1  0.131113  0.005255  0.373070  1
  Tm  Tm8  1  0.494745  0.631113  0.623070  1
  Tm  Tm9  1  0.368887  0.505255  0.876930  1
  Tm  Tm10  1  0.631113  0.494745  0.376930  1
  Tm  Tm11  1  0.994745  0.868887  0.126930  1
  Th  Th12  1  0.640727  0.998954  0.461316  1
  Th  Th13  1  0.359273  0.001046  0.961316  1
  Th  Th14  1  0.998954  0.640727  0.538684  1
  Th  Th15  1  0.498954  0.859273  0.211316  1
  Th  Th16  1  0.501046  0.140727  0.711316  1
  Th  Th17  1  0.859273  0.498954  0.788684  1
  Th  Th18  1  0.140727  0.501046  0.288684  1
  Th  Th19  1  0.001046  0.359273  0.038684  1
  Si  Si20  1  0.290324  0.927037  0.561762  1
  Si  Si21  1  0.709676  0.072963  0.061762  1
  Si  Si22  1  0.927037  0.290324  0.438238  1
  Si  Si23  1  0.427037  0.209676  0.311762  1
  Si  Si24  1  0.572963  0.790324  0.811762  1
  Si  Si25  1  0.209676  0.427037  0.688238  1
  Si  Si26  1  0.790324  0.572963  0.188238  1
  Si  Si27  1  0.072963  0.709676  0.938238  1
  Si  Si28  1  0.779349  0.853220  0.677895  1
  Si  Si29  1  0.220651  0.146780  0.177895  1
  Si  Si30  1  0.853220  0.779349  0.322105  1
  Si  Si31  1  0.353220  0.720651  0.427895  1
  Si  Si32  1  0.646780  0.279349  0.927895  1
  Si  Si33  1  0.720651  0.353220  0.572105  1
  Si  Si34  1  0.279349  0.646780  0.072105  1
  Si  Si35  1  0.146780  0.220651  0.822105  1
