# generated using pymatgen
data_Pr8Y3Er9Ga16
_symmetry_space_group_name_H-M   'P 1'
_cell_length_a   7.69719191
_cell_length_b   7.98908717
_cell_length_c   15.17987600
_cell_angle_alpha   90.01671736
_cell_angle_beta   89.91783614
_cell_angle_gamma   90.04821095
_symmetry_Int_Tables_number   1
_chemical_formula_structural   Pr8Y3Er9Ga16
_chemical_formula_sum   'Pr8 Y3 Er9 Ga16'
_cell_volume   933.46293882
_cell_formula_units_Z   1
loop_
 _symmetry_equiv_pos_site_id
 _symmetry_equiv_pos_as_xyz
  1  'x, y, z'
loop_
 _atom_site_type_symbol
 _atom_site_label
 _atom_site_symmetry_multiplicity
 _atom_site_fract_x
 _atom_site_fract_y
 _atom_site_fract_z
 _atom_site_occupancy
  Pr  Pr0  1  0.022925  0.178103  0.404486  1
  Pr  Pr1  1  0.522857  0.321852  0.404547  1
  Pr  Pr2  1  0.476758  0.678314  0.903391  1
  Pr  Pr3  1  0.477251  0.677982  0.595776  1
  Pr  Pr4  1  0.977108  0.821829  0.595730  1
  Pr  Pr5  1  0.976494  0.821585  0.903134  1
  Pr  Pr6  1  0.523753  0.321272  0.096606  1
  Pr  Pr7  1  0.023151  0.178600  0.096371  1
  Y  Y8  1  0.321124  0.178068  0.877382  1
  Y  Y9  1  0.179100  0.677586  0.122330  1
  Y  Y10  1  0.679144  0.822040  0.122385  1
  Er  Er11  1  0.321134  0.177335  0.622035  1
  Er  Er12  1  0.678886  0.822643  0.378211  1
  Er  Er13  1  0.654103  0.989791  0.749483  1
  Er  Er14  1  0.178918  0.677221  0.378190  1
  Er  Er15  1  0.820620  0.322786  0.877110  1
  Er  Er16  1  0.821079  0.322729  0.621932  1
  Er  Er17  1  0.845995  0.489045  0.250838  1
  Er  Er18  1  0.346097  0.010922  0.250794  1
  Er  Er19  1  0.153608  0.510460  0.749411  1
  Ga  Ga20  1  0.270144  0.879369  0.749219  1
  Ga  Ga21  1  0.474496  0.611220  0.251412  1
  Ga  Ga22  1  0.024983  0.112453  0.749046  1
  Ga  Ga23  1  0.526172  0.388164  0.749059  1
  Ga  Ga24  1  0.149465  0.468983  0.541083  1
  Ga  Ga25  1  0.974442  0.888507  0.251343  1
  Ga  Ga26  1  0.729929  0.120656  0.250836  1
  Ga  Ga27  1  0.850191  0.529142  0.040394  1
  Ga  Ga28  1  0.351501  0.970142  0.041118  1
  Ga  Ga29  1  0.147456  0.469671  0.958049  1
  Ga  Ga30  1  0.649263  0.030809  0.541121  1
  Ga  Ga31  1  0.350677  0.969086  0.459179  1
  Ga  Ga32  1  0.850762  0.530928  0.459143  1
  Ga  Ga33  1  0.770559  0.620292  0.749647  1
  Ga  Ga34  1  0.229734  0.379152  0.250787  1
  Ga  Ga35  1  0.650120  0.031261  0.958426  1
