# generated using pymatgen
data_Sr5CeNi18
_symmetry_space_group_name_H-M   'P 1'
_cell_length_a   5.13715400
_cell_length_b   5.13715362
_cell_length_c   16.28126100
_cell_angle_alpha   90.00000000
_cell_angle_beta   90.00000000
_cell_angle_gamma   119.99998960
_symmetry_Int_Tables_number   1
_chemical_formula_structural   Sr5CeNi18
_chemical_formula_sum   'Sr5 Ce1 Ni18'
_cell_volume   372.10358412
_cell_formula_units_Z   1
loop_
 _symmetry_equiv_pos_site_id
 _symmetry_equiv_pos_as_xyz
  1  'x, y, z'
loop_
 _atom_site_type_symbol
 _atom_site_label
 _atom_site_symmetry_multiplicity
 _atom_site_fract_x
 _atom_site_fract_y
 _atom_site_fract_z
 _atom_site_occupancy
  Sr  Sr0  1  0.333333  0.666667  0.460987  1
  Sr  Sr1  1  0.666667  0.333333  0.957154  1
  Sr  Sr2  1  0.666667  0.333333  0.539988  1
  Sr  Sr3  1  0.333333  0.666667  0.252505  1
  Sr  Sr4  1  0.666667  0.333333  0.750021  1
  Ce  Ce5  1  0.333333  0.666667  0.041799  1
  Ni  Ni6  1  0.835243  0.164757  0.366721  1
  Ni  Ni7  1  0.167541  0.832459  0.872731  1
  Ni  Ni8  1  0.833618  0.667238  0.127067  1
  Ni  Ni9  1  0.164579  0.329158  0.632406  1
  Ni  Ni10  1  0.000000  0.000000  0.499592  1
  Ni  Ni11  1  0.664920  0.832459  0.872731  1
  Ni  Ni12  1  0.835243  0.670487  0.366721  1
  Ni  Ni13  1  0.167541  0.335080  0.872731  1
  Ni  Ni14  1  0.332762  0.166382  0.127067  1
  Ni  Ni15  1  0.666667  0.333333  0.248330  1
  Ni  Ni16  1  0.833618  0.166382  0.127067  1
  Ni  Ni17  1  0.000000  0.000000  0.752990  1
  Ni  Ni18  1  0.670842  0.835421  0.632406  1
  Ni  Ni19  1  0.329513  0.164757  0.366721  1
  Ni  Ni20  1  0.000000  0.000000  0.000792  1
  Ni  Ni21  1  0.164579  0.835421  0.632406  1
  Ni  Ni22  1  0.333333  0.666667  0.751446  1
  Ni  Ni23  1  0.000000  0.000000  0.247620  1
