# generated using pymatgen
data_LaNdPa2(Al3Rh)6
_symmetry_space_group_name_H-M   'P 1'
_cell_length_a   7.65010815
_cell_length_b   7.64000561
_cell_length_c   9.46826400
_cell_angle_alpha   90.00000000
_cell_angle_beta   90.00000000
_cell_angle_gamma   119.52146472
_symmetry_Int_Tables_number   1
_chemical_formula_structural   LaNdPa2(Al3Rh)6
_chemical_formula_sum   'La1 Nd1 Pa2 Al18 Rh6'
_cell_volume   481.54435468
_cell_formula_units_Z   1
loop_
 _symmetry_equiv_pos_site_id
 _symmetry_equiv_pos_as_xyz
  1  'x, y, z'
loop_
 _atom_site_type_symbol
 _atom_site_label
 _atom_site_symmetry_multiplicity
 _atom_site_fract_x
 _atom_site_fract_y
 _atom_site_fract_z
 _atom_site_occupancy
  La  La0  1  0.670247  0.994251  0.750000  1
  Nd  Nd1  1  0.329873  0.006151  0.250000  1
  Pa  Pa2  1  0.997972  0.672088  0.750000  1
  Pa  Pa3  1  0.001271  0.327377  0.250000  1
  Al  Al4  1  0.134166  0.128560  0.750000  1
  Al  Al5  1  0.869569  0.872579  0.250000  1
  Al  Al6  1  0.003615  0.336112  0.574086  1
  Al  Al7  1  0.998595  0.665717  0.423839  1
  Al  Al8  1  0.998595  0.665717  0.076161  1
  Al  Al9  1  0.334839  0.003294  0.926060  1
  Al  Al10  1  0.003615  0.336112  0.925914  1
  Al  Al11  1  0.663093  0.996169  0.077742  1
  Al  Al12  1  0.663093  0.996169  0.422258  1
  Al  Al13  1  0.334839  0.003294  0.573940  1
  Al  Al14  1  0.333914  0.334260  0.051725  1
  Al  Al15  1  0.665675  0.664124  0.952439  1
  Al  Al16  1  0.665675  0.664124  0.547561  1
  Al  Al17  1  0.333914  0.334260  0.448275  1
  Al  Al18  1  0.335935  0.544567  0.750000  1
  Al  Al19  1  0.662436  0.453053  0.250000  1
  Al  Al20  1  0.551560  0.348382  0.750000  1
  Al  Al21  1  0.447014  0.653079  0.250000  1
  Rh  Rh22  1  0.675305  0.330342  0.499097  1
  Rh  Rh23  1  0.324700  0.669732  0.500119  1
  Rh  Rh24  1  0.324700  0.669732  0.999881  1
  Rh  Rh25  1  0.675305  0.330342  0.000903  1
  Rh  Rh26  1  0.000242  0.000205  0.499522  1
  Rh  Rh27  1  0.000242  0.000205  0.000478  1
