# generated using pymatgen
data_Gd20N19
_symmetry_space_group_name_H-M   'P 1'
_cell_length_a   9.26198799
_cell_length_b   9.26198631
_cell_length_c   9.26198700
_cell_angle_alpha   106.55405285
_cell_angle_beta   106.55403685
_cell_angle_gamma   115.47776114
_symmetry_Int_Tables_number   1
_chemical_formula_structural   Gd20N19
_chemical_formula_sum   'Gd20 N19'
_cell_volume   606.53875111
_cell_formula_units_Z   1
loop_
 _symmetry_equiv_pos_site_id
 _symmetry_equiv_pos_as_xyz
  1  'x, y, z'
loop_
 _atom_site_type_symbol
 _atom_site_label
 _atom_site_symmetry_multiplicity
 _atom_site_fract_x
 _atom_site_fract_y
 _atom_site_fract_z
 _atom_site_occupancy
  Gd  Gd0  1  0.047439  0.650112  0.200952  1
  Gd  Gd1  1  0.394896  0.709278  0.104175  1
  Gd  Gd2  1  0.099809  0.798151  0.897960  1
  Gd  Gd3  1  0.761063  0.761063  0.000000  1
  Gd  Gd4  1  0.798151  0.900191  0.698342  1
  Gd  Gd5  1  0.449161  0.846485  0.799048  1
  Gd  Gd6  1  0.500000  0.000000  0.500000  1
  Gd  Gd7  1  0.153515  0.952561  0.602673  1
  Gd  Gd8  1  0.201849  0.099809  0.301658  1
  Gd  Gd9  1  0.846485  0.047439  0.397327  1
  Gd  Gd10  1  0.900191  0.201849  0.102040  1
  Gd  Gd11  1  0.550839  0.153515  0.200952  1
  Gd  Gd12  1  0.605104  0.290722  0.895825  1
  Gd  Gd13  1  0.238937  0.238937  0.000000  1
  Gd  Gd14  1  0.290722  0.394896  0.685619  1
  Gd  Gd15  1  0.952561  0.349888  0.799048  1
  Gd  Gd16  1  0.000000  0.500000  0.500000  1
  Gd  Gd17  1  0.650112  0.449161  0.602673  1
  Gd  Gd18  1  0.709278  0.605104  0.314381  1
  Gd  Gd19  1  0.349888  0.550839  0.397327  1
  N  N20  1  0.896993  0.698774  0.595766  1
  N  N21  1  0.550591  0.650306  0.703071  1
  N  N22  1  0.600135  0.798591  0.398727  1
  N  N23  1  0.250000  0.750000  0.500000  1
  N  N24  1  0.301226  0.896993  0.198219  1
  N  N25  1  0.947234  0.847519  0.296929  1
  N  N26  1  0.000000  0.000000  0.000000  1
  N  N27  1  0.650306  0.947234  0.099715  1
  N  N28  1  0.698774  0.103007  0.801781  1
  N  N29  1  0.349694  0.052766  0.900285  1
  N  N30  1  0.052766  0.152481  0.703071  1
  N  N31  1  0.750000  0.250000  0.500000  1
  N  N32  1  0.399865  0.201409  0.601273  1
  N  N33  1  0.449409  0.349694  0.296929  1
  N  N34  1  0.103007  0.301226  0.404234  1
  N  N35  1  0.152481  0.449409  0.099715  1
  N  N36  1  0.201409  0.600135  0.801545  1
  N  N37  1  0.798591  0.399865  0.198455  1
  N  N38  1  0.847519  0.550591  0.900285  1
