# generated using pymatgen
data_Sm2GaTc3
_symmetry_space_group_name_H-M   'P 1'
_cell_length_a   5.36407200
_cell_length_b   5.36406960
_cell_length_c   9.19975500
_cell_angle_alpha   90.00000000
_cell_angle_beta   90.00000000
_cell_angle_gamma   119.99999015
_symmetry_Int_Tables_number   1
_chemical_formula_structural   Sm2GaTc3
_chemical_formula_sum   'Sm4 Ga2 Tc6'
_cell_volume   229.24292397
_cell_formula_units_Z   2
loop_
 _symmetry_equiv_pos_site_id
 _symmetry_equiv_pos_as_xyz
  1  'x, y, z'
loop_
 _atom_site_type_symbol
 _atom_site_label
 _atom_site_symmetry_multiplicity
 _atom_site_fract_x
 _atom_site_fract_y
 _atom_site_fract_z
 _atom_site_occupancy
  Sm  Sm0  1  0.333333  0.666667  0.430909  1
  Sm  Sm1  1  0.666667  0.333333  0.569091  1
  Sm  Sm2  1  0.666667  0.333333  0.930909  1
  Sm  Sm3  1  0.333333  0.666667  0.069091  1
  Ga  Ga4  1  0.000000  0.000000  0.500000  1
  Ga  Ga5  1  0.000000  0.000000  0.000000  1
  Tc  Tc6  1  0.830307  0.169693  0.250000  1
  Tc  Tc7  1  0.830307  0.660614  0.250000  1
  Tc  Tc8  1  0.339386  0.169693  0.250000  1
  Tc  Tc9  1  0.169693  0.830307  0.750000  1
  Tc  Tc10  1  0.169693  0.339386  0.750000  1
  Tc  Tc11  1  0.660614  0.830307  0.750000  1
