# generated using pymatgen
data_Na2MgMoF7
_symmetry_space_group_name_H-M   'P 1'
_cell_length_a   7.54062237
_cell_length_b   7.54062221
_cell_length_c   7.54062319
_cell_angle_alpha   120.56200988
_cell_angle_beta   119.26502908
_cell_angle_gamma   90.15351238
_symmetry_Int_Tables_number   1
_chemical_formula_structural   Na2MgMoF7
_chemical_formula_sum   'Na4 Mg2 Mo2 F14'
_cell_volume   303.53091560
_cell_formula_units_Z   2
loop_
 _symmetry_equiv_pos_site_id
 _symmetry_equiv_pos_as_xyz
  1  'x, y, z'
loop_
 _atom_site_type_symbol
 _atom_site_label
 _atom_site_symmetry_multiplicity
 _atom_site_fract_x
 _atom_site_fract_y
 _atom_site_fract_z
 _atom_site_occupancy
  Na  Na0  1  0.500000  0.500000  0.000000  1
  Na  Na1  1  0.000000  0.000000  0.000000  1
  Na  Na2  1  0.000000  0.500000  0.000000  1
  Na  Na3  1  0.000000  0.000000  0.500000  1
  Mg  Mg4  1  0.500000  0.500000  0.500000  1
  Mg  Mg5  1  0.500000  0.000000  0.000000  1
  Mo  Mo6  1  0.000000  0.500000  0.500000  1
  Mo  Mo7  1  0.500000  0.000000  0.500000  1
  F  F8  1  0.862872  0.601198  0.261674  1
  F  F9  1  0.160477  0.898802  0.261674  1
  F  F10  1  0.180175  0.835019  0.777205  1
  F  F11  1  0.442187  0.664981  0.345156  1
  F  F12  1  0.442187  0.097031  0.777205  1
  F  F13  1  0.180175  0.402969  0.345156  1
  F  F14  1  0.819825  0.597031  0.654844  1
  F  F15  1  0.557813  0.902969  0.222795  1
  F  F16  1  0.557813  0.335019  0.654844  1
  F  F17  1  0.819825  0.164981  0.222795  1
  F  F18  1  0.437963  0.250000  0.187963  1
  F  F19  1  0.137128  0.398802  0.738326  1
  F  F20  1  0.839523  0.101198  0.738326  1
  F  F21  1  0.562037  0.750000  0.812037  1
