# generated using pymatgen
data_NaRh(CO3)2
_symmetry_space_group_name_H-M   'P 1'
_cell_length_a   6.11840777
_cell_length_b   6.11840744
_cell_length_c   6.11840898
_cell_angle_alpha   46.11113634
_cell_angle_beta   46.11113938
_cell_angle_gamma   46.11112528
_symmetry_Int_Tables_number   1
_chemical_formula_structural   NaRh(CO3)2
_chemical_formula_sum   'Na1 Rh1 C2 O6'
_cell_volume   108.53406005
_cell_formula_units_Z   1
loop_
 _symmetry_equiv_pos_site_id
 _symmetry_equiv_pos_as_xyz
  1  'x, y, z'
loop_
 _atom_site_type_symbol
 _atom_site_label
 _atom_site_symmetry_multiplicity
 _atom_site_fract_x
 _atom_site_fract_y
 _atom_site_fract_z
 _atom_site_occupancy
  Na  Na0  1  0.500000  0.500000  0.500000  1
  Rh  Rh1  1  0.000000  0.000000  0.000000  1
  C  C2  1  0.736386  0.736386  0.736386  1
  C  C3  1  0.263614  0.263614  0.263614  1
  O  O4  1  0.458581  0.758090  0.998974  1
  O  O5  1  0.758090  0.998974  0.458581  1
  O  O6  1  0.001026  0.541419  0.241910  1
  O  O7  1  0.541419  0.241910  0.001026  1
  O  O8  1  0.241910  0.001026  0.541419  1
  O  O9  1  0.998974  0.458581  0.758090  1
