# generated using pymatgen
data_Tb8Ta2Ti10Si15Sn
_symmetry_space_group_name_H-M   'P 1'
_cell_length_a   7.11934046
_cell_length_b   7.08565697
_cell_length_c   13.07566351
_cell_angle_alpha   89.97744236
_cell_angle_beta   89.80871001
_cell_angle_gamma   89.94517662
_symmetry_Int_Tables_number   1
_chemical_formula_structural   Tb8Ta2Ti10Si15Sn
_chemical_formula_sum   'Tb8 Ta2 Ti10 Si15 Sn1'
_cell_volume   659.60048958
_cell_formula_units_Z   1
loop_
 _symmetry_equiv_pos_site_id
 _symmetry_equiv_pos_as_xyz
  1  'x, y, z'
loop_
 _atom_site_type_symbol
 _atom_site_label
 _atom_site_symmetry_multiplicity
 _atom_site_fract_x
 _atom_site_fract_y
 _atom_site_fract_z
 _atom_site_occupancy
  Tb  Tb0  1  0.342722  0.999671  0.461741  1
  Tb  Tb1  1  0.505032  0.834206  0.718504  1
  Tb  Tb2  1  0.501984  0.159862  0.216761  1
  Tb  Tb3  1  0.840321  0.497201  0.281833  1
  Tb  Tb4  1  0.159789  0.509558  0.786073  1
  Tb  Tb5  1  0.661750  0.996607  0.968968  1
  Tb  Tb6  1  0.993712  0.346915  0.527294  1
  Tb  Tb7  1  0.999240  0.659486  0.034147  1
  Ta  Ta8  1  0.326438  0.326728  0.001196  1
  Ta  Ta9  1  0.173944  0.826376  0.249665  1
  Ti  Ti10  1  0.817075  0.175396  0.752076  1
  Ti  Ti11  1  0.672343  0.672977  0.499472  1
  Ti  Ti12  1  0.154637  0.009045  0.883656  1
  Ti  Ti13  1  0.490689  0.652104  0.126459  1
  Ti  Ti14  1  0.514760  0.352599  0.626334  1
  Ti  Ti15  1  0.654338  0.492567  0.876225  1
  Ti  Ti16  1  0.345182  0.509922  0.372260  1
  Ti  Ti17  1  0.846669  0.991440  0.374982  1
  Ti  Ti18  1  0.010871  0.153219  0.123755  1
  Ti  Ti19  1  0.979730  0.834660  0.618864  1
  Si  Si20  1  0.372365  0.701693  0.936409  1
  Si  Si21  1  0.626766  0.297952  0.433583  1
  Si  Si22  1  0.702150  0.370983  0.065547  1
  Si  Si23  1  0.297593  0.629106  0.564834  1
  Si  Si24  1  0.799114  0.871458  0.185180  1
  Si  Si25  1  0.128424  0.201461  0.314399  1
  Si  Si26  1  0.872035  0.801017  0.815361  1
  Si  Si27  1  0.293409  0.953212  0.066144  1
  Si  Si28  1  0.548614  0.789414  0.313700  1
  Si  Si29  1  0.460361  0.209828  0.819309  1
  Si  Si30  1  0.793581  0.544246  0.686605  1
  Si  Si31  1  0.208500  0.453475  0.185854  1
  Si  Si32  1  0.706997  0.048196  0.564635  1
  Si  Si33  1  0.953344  0.291660  0.935169  1
  Si  Si34  1  0.047198  0.710154  0.433403  1
  Sn  Sn35  1  0.198322  0.125606  0.679599  1
