# generated using pymatgen
data_Bi4Ir3RhS4
_symmetry_space_group_name_H-M   'P 1'
_cell_length_a   6.21684641
_cell_length_b   6.21684641
_cell_length_c   6.21684641
_cell_angle_alpha   89.94542538
_cell_angle_beta   89.94542538
_cell_angle_gamma   90.05457462
_symmetry_Int_Tables_number   1
_chemical_formula_structural   Bi4Ir3RhS4
_chemical_formula_sum   'Bi4 Ir3 Rh1 S4'
_cell_volume   240.27568438
_cell_formula_units_Z   1
loop_
 _symmetry_equiv_pos_site_id
 _symmetry_equiv_pos_as_xyz
  1  'x, y, z'
loop_
 _atom_site_type_symbol
 _atom_site_label
 _atom_site_symmetry_multiplicity
 _atom_site_fract_x
 _atom_site_fract_y
 _atom_site_fract_z
 _atom_site_occupancy
  Bi  Bi0  1  0.129942  0.629942  0.870058  1
  Bi  Bi1  1  0.628955  0.871156  0.130757  1
  Bi  Bi2  1  0.869243  0.128955  0.628844  1
  Bi  Bi3  1  0.371156  0.369243  0.371045  1
  Ir  Ir4  1  0.976834  0.523006  0.475908  1
  Ir  Ir5  1  0.524092  0.476834  0.976994  1
  Ir  Ir6  1  0.023006  0.024092  0.023166  1
  Rh  Rh7  1  0.476607  0.976607  0.523393  1
  S  S8  1  0.882338  0.382338  0.117662  1
  S  S9  1  0.382045  0.120431  0.884648  1
  S  S10  1  0.115352  0.882045  0.379569  1
  S  S11  1  0.620431  0.615352  0.617955  1
