# generated using pymatgen
data_Zr7Fe2Co6Si14W
_symmetry_space_group_name_H-M   'P 1'
_cell_length_a   9.43431851
_cell_length_b   9.43269195
_cell_length_c   9.44180175
_cell_angle_alpha   94.13999654
_cell_angle_beta   94.15556855
_cell_angle_gamma   148.78227085
_symmetry_Int_Tables_number   1
_chemical_formula_structural   Zr7Fe2Co6Si14W
_chemical_formula_sum   'Zr7 Fe2 Co6 Si14 W1'
_cell_volume   419.45782361
_cell_formula_units_Z   1
loop_
 _symmetry_equiv_pos_site_id
 _symmetry_equiv_pos_as_xyz
  1  'x, y, z'
loop_
 _atom_site_type_symbol
 _atom_site_label
 _atom_site_symmetry_multiplicity
 _atom_site_fract_x
 _atom_site_fract_y
 _atom_site_fract_z
 _atom_site_occupancy
  Zr  Zr0  1  0.864434  0.864436  0.728860  1
  Zr  Zr1  1  0.862534  0.137924  0.999981  1
  Zr  Zr2  1  0.137442  0.862052  0.999983  1
  Zr  Zr3  1  0.500992  0.305182  0.803628  1
  Zr  Zr4  1  0.503941  0.696589  0.199273  1
  Zr  Zr5  1  0.695343  0.502691  0.199273  1
  Zr  Zr6  1  0.302632  0.498439  0.803629  1
  Fe  Fe7  1  0.398448  0.898450  0.796894  1
  Fe  Fe8  1  0.102242  0.602234  0.204485  1
  Co  Co9  1  0.101286  0.897930  0.497760  1
  Co  Co10  1  0.396471  0.599829  0.497761  1
  Co  Co11  1  0.601120  0.394894  0.497834  1
  Co  Co12  1  0.896709  0.102937  0.497836  1
  Co  Co13  1  0.897388  0.397381  0.794774  1
  Co  Co14  1  0.603343  0.103342  0.206681  1
  Si  Si15  1  0.497458  0.087883  0.593331  1
  Si  Si16  1  0.493565  0.903642  0.407036  1
  Si  Si17  1  0.913474  0.503403  0.407035  1
  Si  Si18  1  0.095874  0.505454  0.593331  1
  Si  Si19  1  0.756911  0.756817  0.006490  1
  Si  Si20  1  0.249574  0.249668  0.006482  1
  Si  Si21  1  0.284336  0.284336  0.568646  1
  Si  Si22  1  0.711911  0.711913  0.423848  1
  Si  Si23  1  0.711352  0.290391  0.000981  1
  Si  Si24  1  0.289630  0.710595  0.000982  1
  Si  Si25  1  0.004702  0.301830  0.301740  1
  Si  Si26  1  0.001978  0.697967  0.695467  1
  Si  Si27  1  0.693472  0.997482  0.695466  1
  Si  Si28  1  0.297054  0.999922  0.301743  1
  W  W29  1  0.134385  0.134388  0.268769  1
