# generated using pymatgen
data_TaBe9NbMo
_symmetry_space_group_name_H-M   'P 1'
_cell_length_a   7.45314054
_cell_length_b   7.45313995
_cell_length_c   7.45314078
_cell_angle_alpha   35.15645479
_cell_angle_beta   35.15644276
_cell_angle_gamma   35.15644853
_symmetry_Int_Tables_number   1
_chemical_formula_structural   TaBe9NbMo
_chemical_formula_sum   'Ta1 Be9 Nb1 Mo1'
_cell_volume   122.59919456
_cell_formula_units_Z   1
loop_
 _symmetry_equiv_pos_site_id
 _symmetry_equiv_pos_as_xyz
  1  'x, y, z'
loop_
 _atom_site_type_symbol
 _atom_site_label
 _atom_site_symmetry_multiplicity
 _atom_site_fract_x
 _atom_site_fract_y
 _atom_site_fract_z
 _atom_site_occupancy
  Ta  Ta0  1  0.142386  0.142386  0.142386  1
  Be  Be1  1  0.500149  0.500149  0.500149  1
  Be  Be2  1  0.334573  0.334573  0.334574  1
  Be  Be3  1  0.666080  0.666080  0.666079  1
  Be  Be4  1  0.076233  0.584611  0.584611  1
  Be  Be5  1  0.584611  0.584611  0.076233  1
  Be  Be6  1  0.584611  0.076233  0.584611  1
  Be  Be7  1  0.416468  0.921174  0.416468  1
  Be  Be8  1  0.921174  0.416468  0.416468  1
  Be  Be9  1  0.416468  0.416468  0.921174  1
  Nb  Nb10  1  0.999103  0.999103  0.999103  1
  Mo  Mo11  1  0.858144  0.858144  0.858144  1
