# generated using pymatgen
data_Ho3Lu7(RuRh)2
_symmetry_space_group_name_H-M   'P 1'
_cell_length_a   6.28814334
_cell_length_b   7.20274622
_cell_length_c   8.35627193
_cell_angle_alpha   96.84553618
_cell_angle_beta   112.47373902
_cell_angle_gamma   89.99000654
_symmetry_Int_Tables_number   1
_chemical_formula_structural   Ho3Lu7(RuRh)2
_chemical_formula_sum   'Ho3 Lu7 Ru2 Rh2'
_cell_volume   346.81000705
_cell_formula_units_Z   1
loop_
 _symmetry_equiv_pos_site_id
 _symmetry_equiv_pos_as_xyz
  1  'x, y, z'
loop_
 _atom_site_type_symbol
 _atom_site_label
 _atom_site_symmetry_multiplicity
 _atom_site_fract_x
 _atom_site_fract_y
 _atom_site_fract_z
 _atom_site_occupancy
  Ho  Ho0  1  0.523773  0.081407  0.814359  1
  Ho  Ho1  1  0.475553  0.918387  0.184961  1
  Ho  Ho2  1  0.711533  0.416271  0.188432  1
  Lu  Lu3  1  0.288574  0.584267  0.811232  1
  Lu  Lu4  1  0.290959  0.313339  0.435671  1
  Lu  Lu5  1  0.710125  0.687074  0.565389  1
  Lu  Lu6  1  0.859068  0.182406  0.563157  1
  Lu  Lu7  1  0.141318  0.817206  0.437377  1
  Lu  Lu8  1  0.079127  0.248085  0.999156  1
  Lu  Lu9  1  0.921421  0.751865  0.000432  1
  Ru  Ru10  1  0.103689  0.922384  0.782006  1
  Ru  Ru11  1  0.897585  0.076264  0.218309  1
  Rh  Rh12  1  0.320903  0.574178  0.223572  1
  Rh  Rh13  1  0.676371  0.426868  0.775947  1
