# generated using pymatgen
data_La3Lu(SeO3)6
_symmetry_space_group_name_H-M   'P 1'
_cell_length_a   7.35608797
_cell_length_b   8.43992628
_cell_length_c   9.38744212
_cell_angle_alpha   70.34747447
_cell_angle_beta   69.83416950
_cell_angle_gamma   65.61178424
_symmetry_Int_Tables_number   1
_chemical_formula_structural   La3Lu(SeO3)6
_chemical_formula_sum   'La3 Lu1 Se6 O18'
_cell_volume   485.27937258
_cell_formula_units_Z   1
loop_
 _symmetry_equiv_pos_site_id
 _symmetry_equiv_pos_as_xyz
  1  'x, y, z'
loop_
 _atom_site_type_symbol
 _atom_site_label
 _atom_site_symmetry_multiplicity
 _atom_site_fract_x
 _atom_site_fract_y
 _atom_site_fract_z
 _atom_site_occupancy
  La  La0  1  0.262257  0.270288  0.190611  1
  La  La1  1  0.336739  0.725157  0.595114  1
  La  La2  1  0.670894  0.263346  0.407361  1
  Lu  Lu3  1  0.738860  0.740304  0.806680  1
  Se  Se4  1  0.109785  0.242076  0.580166  1
  Se  Se5  1  0.423025  0.774473  0.195501  1
  Se  Se6  1  0.142929  0.762495  0.963405  1
  Se  Se7  1  0.851615  0.264082  0.020919  1
  Se  Se8  1  0.584403  0.208767  0.801606  1
  Se  Se9  1  0.887407  0.750136  0.436455  1
  O  O10  1  0.152098  0.021931  0.653422  1
  O  O11  1  0.158003  0.585024  0.119381  1
  O  O12  1  0.019367  0.710047  0.575320  1
  O  O13  1  0.339274  0.249245  0.441426  1
  O  O14  1  0.050524  0.708624  0.842966  1
  O  O15  1  0.603424  0.286963  0.136608  1
  O  O16  1  0.360898  0.205250  0.936694  1
  O  O17  1  0.372794  0.935967  0.293624  1
  O  O18  1  0.511949  0.593356  0.343210  1
  O  O19  1  0.504284  0.390049  0.651591  1
  O  O20  1  0.645926  0.041319  0.706261  1
  O  O21  1  0.635833  0.784581  0.046465  1
  O  O22  1  0.397639  0.717270  0.853625  1
  O  O23  1  0.935861  0.304711  0.152738  1
  O  O24  1  0.658520  0.753541  0.579815  1
  O  O25  1  0.970849  0.290227  0.443404  1
  O  O26  1  0.821944  0.453171  0.877147  1
  O  O27  1  0.852900  0.967604  0.348486  1
