# generated using pymatgen
data_Nd2Y6Be3Si12B
_symmetry_space_group_name_H-M   'P 1'
_cell_length_a   7.81483900
_cell_length_b   7.81484040
_cell_length_c   8.22976600
_cell_angle_alpha   90.00000000
_cell_angle_beta   90.00000000
_cell_angle_gamma   119.99998986
_symmetry_Int_Tables_number   1
_chemical_formula_structural   Nd2Y6Be3Si12B
_chemical_formula_sum   'Nd2 Y6 Be3 Si12 B1'
_cell_volume   435.26957451
_cell_formula_units_Z   1
loop_
 _symmetry_equiv_pos_site_id
 _symmetry_equiv_pos_as_xyz
  1  'x, y, z'
loop_
 _atom_site_type_symbol
 _atom_site_label
 _atom_site_symmetry_multiplicity
 _atom_site_fract_x
 _atom_site_fract_y
 _atom_site_fract_z
 _atom_site_occupancy
  Nd  Nd0  1  0.000000  0.000000  0.748928  1
  Nd  Nd1  1  0.000000  0.000000  0.251077  1
  Y  Y2  1  0.501542  0.498458  0.748582  1
  Y  Y3  1  0.501644  0.498356  0.251436  1
  Y  Y4  1  0.996916  0.498458  0.748582  1
  Y  Y5  1  0.996712  0.498356  0.251436  1
  Y  Y6  1  0.501542  0.003084  0.748582  1
  Y  Y7  1  0.501644  0.003288  0.251436  1
  Be  Be8  1  0.666667  0.333333  0.999310  1
  Be  Be9  1  0.333333  0.666667  0.000682  1
  Be  Be10  1  0.333333  0.666667  0.499657  1
  Si  Si11  1  0.825869  0.174131  0.000085  1
  Si  Si12  1  0.173306  0.826694  0.999957  1
  Si  Si13  1  0.348264  0.174131  0.000085  1
  Si  Si14  1  0.172827  0.827173  0.499879  1
  Si  Si15  1  0.653389  0.826694  0.999957  1
  Si  Si16  1  0.820600  0.179400  0.500165  1
  Si  Si17  1  0.825869  0.651736  0.000085  1
  Si  Si18  1  0.654347  0.827173  0.499879  1
  Si  Si19  1  0.173306  0.346611  0.999957  1
  Si  Si20  1  0.358800  0.179400  0.500165  1
  Si  Si21  1  0.172827  0.345653  0.499879  1
  Si  Si22  1  0.820600  0.641200  0.500165  1
  B  B23  1  0.666667  0.333333  0.500040  1
