# generated using pymatgen
data_Ho5Tm5In8RuPt3
_symmetry_space_group_name_H-M   'P 1'
_cell_length_a   3.59904300
_cell_length_b   8.10702300
_cell_length_c   18.14645634
_cell_angle_alpha   89.94985946
_cell_angle_beta   90.00000000
_cell_angle_gamma   90.00000000
_symmetry_Int_Tables_number   1
_chemical_formula_structural   Ho5Tm5In8RuPt3
_chemical_formula_sum   'Ho5 Tm5 In8 Ru1 Pt3'
_cell_volume   529.46846960
_cell_formula_units_Z   1
loop_
 _symmetry_equiv_pos_site_id
 _symmetry_equiv_pos_as_xyz
  1  'x, y, z'
loop_
 _atom_site_type_symbol
 _atom_site_label
 _atom_site_symmetry_multiplicity
 _atom_site_fract_x
 _atom_site_fract_y
 _atom_site_fract_z
 _atom_site_occupancy
  Ho  Ho0  1  0.000000  0.757494  0.778875  1
  Ho  Ho1  1  0.000000  0.257512  0.721365  1
  Ho  Ho2  1  0.000000  0.750323  0.278487  1
  Ho  Ho3  1  0.000000  0.999449  0.000481  1
  Ho  Ho4  1  0.000000  0.500798  0.499163  1
  Tm  Tm5  1  0.000000  0.116126  0.411899  1
  Tm  Tm6  1  0.000000  0.883818  0.585366  1
  Tm  Tm7  1  0.000000  0.383859  0.914689  1
  Tm  Tm8  1  0.000000  0.617978  0.087151  1
  Tm  Tm9  1  0.000000  0.234078  0.222946  1
  In  In10  1  0.500000  0.422685  0.350907  1
  In  In11  1  0.500000  0.575146  0.647816  1
  In  In12  1  0.500000  0.075267  0.852177  1
  In  In13  1  0.500000  0.930996  0.149803  1
  In  In14  1  0.500000  0.293265  0.066362  1
  In  In15  1  0.500000  0.707307  0.934020  1
  In  In16  1  0.500000  0.208256  0.566562  1
  In  In17  1  0.500000  0.795219  0.431199  1
  Ru  Ru18  1  0.500000  0.020057  0.304326  1
  Pt  Pt19  1  0.500000  0.976264  0.695656  1
  Pt  Pt20  1  0.500000  0.476696  0.804616  1
  Pt  Pt21  1  0.500000  0.517408  0.196133  1
