# generated using pymatgen
data_Ti2Zn(SnIr)2
_symmetry_space_group_name_H-M   'P 1'
_cell_length_a   7.66092175
_cell_length_b   7.66092086
_cell_length_c   7.66092192
_cell_angle_alpha   33.86302296
_cell_angle_beta   33.86303455
_cell_angle_gamma   33.86302508
_symmetry_Int_Tables_number   1
_chemical_formula_structural   Ti2Zn(SnIr)2
_chemical_formula_sum   'Ti2 Zn1 Sn2 Ir2'
_cell_volume   124.40621494
_cell_formula_units_Z   1
loop_
 _symmetry_equiv_pos_site_id
 _symmetry_equiv_pos_as_xyz
  1  'x, y, z'
loop_
 _atom_site_type_symbol
 _atom_site_label
 _atom_site_symmetry_multiplicity
 _atom_site_fract_x
 _atom_site_fract_y
 _atom_site_fract_z
 _atom_site_occupancy
  Ti  Ti0  1  0.754960  0.754960  0.754960  1
  Ti  Ti1  1  0.246425  0.246425  0.246425  1
  Zn  Zn2  1  0.376222  0.376222  0.376222  1
  Sn  Sn3  1  0.992893  0.992893  0.992893  1
  Sn  Sn4  1  0.504368  0.504368  0.504368  1
  Ir  Ir5  1  0.122391  0.122391  0.122391  1
  Ir  Ir6  1  0.627742  0.627742  0.627742  1
