# generated using pymatgen
data_Ti24P7Se
_symmetry_space_group_name_H-M   'P 1'
_cell_length_a   9.98172459
_cell_length_b   9.97343281
_cell_length_c   4.99436009
_cell_angle_alpha   89.91573705
_cell_angle_beta   89.93760383
_cell_angle_gamma   89.98283579
_symmetry_Int_Tables_number   1
_chemical_formula_structural   Ti24P7Se
_chemical_formula_sum   'Ti24 P7 Se1'
_cell_volume   497.19797836
_cell_formula_units_Z   1
loop_
 _symmetry_equiv_pos_site_id
 _symmetry_equiv_pos_as_xyz
  1  'x, y, z'
loop_
 _atom_site_type_symbol
 _atom_site_label
 _atom_site_symmetry_multiplicity
 _atom_site_fract_x
 _atom_site_fract_y
 _atom_site_fract_z
 _atom_site_occupancy
  Ti  Ti0  1  0.971853  0.860170  0.281327  1
  Ti  Ti1  1  0.359177  0.532769  0.781870  1
  Ti  Ti2  1  0.642889  0.475837  0.783331  1
  Ti  Ti3  1  0.027848  0.139350  0.281187  1
  Ti  Ti4  1  0.528325  0.639675  0.219575  1
  Ti  Ti5  1  0.139221  0.971850  0.718650  1
  Ti  Ti6  1  0.860646  0.028244  0.719003  1
  Ti  Ti7  1  0.472485  0.363772  0.217168  1
  Ti  Ti8  1  0.819073  0.283556  0.010882  1
  Ti  Ti9  1  0.783734  0.681412  0.510502  1
  Ti  Ti10  1  0.212885  0.319396  0.507866  1
  Ti  Ti11  1  0.180612  0.716773  0.010797  1
  Ti  Ti12  1  0.684605  0.215477  0.485144  1
  Ti  Ti13  1  0.716683  0.818788  0.989311  1
  Ti  Ti14  1  0.280102  0.179619  0.993808  1
  Ti  Ti15  1  0.318743  0.783636  0.489413  1
  Ti  Ti16  1  0.916669  0.392687  0.535895  1
  Ti  Ti17  1  0.893011  0.583323  0.035680  1
  Ti  Ti18  1  0.106767  0.416612  0.035716  1
  Ti  Ti19  1  0.083210  0.607095  0.536229  1
  Ti  Ti20  1  0.585704  0.103131  0.970486  1
  Ti  Ti21  1  0.607146  0.916806  0.463520  1
  Ti  Ti22  1  0.391454  0.078946  0.457915  1
  Ti  Ti23  1  0.416576  0.893052  0.964533  1
  P  P24  1  0.794436  0.040030  0.213739  1
  P  P25  1  0.205756  0.957598  0.212741  1
  P  P26  1  0.541432  0.707562  0.714083  1
  P  P27  1  0.040635  0.206680  0.786662  1
  P  P28  1  0.707396  0.459218  0.286749  1
  P  P29  1  0.292644  0.541519  0.286443  1
  P  P30  1  0.958667  0.793169  0.786370  1
  Se  Se31  1  0.459617  0.292249  0.713404  1
