# generated using pymatgen
data_Ho8Ta3Si16Mo9
_symmetry_space_group_name_H-M   'P 1'
_cell_length_a   6.91607854
_cell_length_b   6.91607916
_cell_length_c   12.85037714
_cell_angle_alpha   90.05332940
_cell_angle_beta   89.94667353
_cell_angle_gamma   89.63106497
_symmetry_Int_Tables_number   1
_chemical_formula_structural   Ho8Ta3Si16Mo9
_chemical_formula_sum   'Ho8 Ta3 Si16 Mo9'
_cell_volume   614.64784544
_cell_formula_units_Z   1
loop_
 _symmetry_equiv_pos_site_id
 _symmetry_equiv_pos_as_xyz
  1  'x, y, z'
loop_
 _atom_site_type_symbol
 _atom_site_label
 _atom_site_symmetry_multiplicity
 _atom_site_fract_x
 _atom_site_fract_y
 _atom_site_fract_z
 _atom_site_occupancy
  Ho  Ho0  1  0.338484  0.999919  0.468572  1
  Ho  Ho1  1  0.498876  0.838551  0.719291  1
  Ho  Ho2  1  0.498960  0.162879  0.218087  1
  Ho  Ho3  1  0.838551  0.498876  0.280709  1
  Ho  Ho4  1  0.162879  0.498960  0.781913  1
  Ho  Ho5  1  0.660245  0.001241  0.968321  1
  Ho  Ho6  1  0.999919  0.338484  0.531428  1
  Ho  Ho7  1  0.001241  0.660245  0.031679  1
  Ta  Ta8  1  0.169142  0.831893  0.248291  1
  Ta  Ta9  1  0.831893  0.169142  0.751709  1
  Ta  Ta10  1  0.667344  0.667344  0.500000  1
  Si  Si11  1  0.204033  0.128298  0.683590  1
  Si  Si12  1  0.374749  0.696543  0.935251  1
  Si  Si13  1  0.628011  0.297299  0.433179  1
  Si  Si14  1  0.696543  0.374749  0.064749  1
  Si  Si15  1  0.297299  0.628011  0.566821  1
  Si  Si16  1  0.794782  0.871686  0.183434  1
  Si  Si17  1  0.128298  0.204033  0.316410  1
  Si  Si18  1  0.871686  0.794782  0.816566  1
  Si  Si19  1  0.287469  0.967588  0.059519  1
  Si  Si20  1  0.539437  0.790349  0.313486  1
  Si  Si21  1  0.457868  0.212319  0.816431  1
  Si  Si22  1  0.790349  0.539437  0.686514  1
  Si  Si23  1  0.212319  0.457868  0.183569  1
  Si  Si24  1  0.709248  0.039471  0.562870  1
  Si  Si25  1  0.967588  0.287469  0.940481  1
  Si  Si26  1  0.039471  0.709248  0.437130  1
  Mo  Mo27  1  0.333239  0.333239  0.000000  1
  Mo  Mo28  1  0.157018  0.999210  0.871495  1
  Mo  Mo29  1  0.497346  0.669603  0.125412  1
  Mo  Mo30  1  0.502767  0.337914  0.624335  1
  Mo  Mo31  1  0.669603  0.497346  0.874588  1
  Mo  Mo32  1  0.337914  0.502767  0.375665  1
  Mo  Mo33  1  0.840459  0.995761  0.373857  1
  Mo  Mo34  1  0.999210  0.157018  0.128505  1
  Mo  Mo35  1  0.995761  0.840459  0.626143  1
