# generated using pymatgen
data_Tb2Er2Al17Ga7Pt9
_symmetry_space_group_name_H-M   'P 1'
_cell_length_a   7.52495575
_cell_length_b   7.52783595
_cell_length_c   13.23357607
_cell_angle_alpha   84.66017355
_cell_angle_beta   100.77888387
_cell_angle_gamma   119.91317796
_symmetry_Int_Tables_number   1
_chemical_formula_structural   Tb2Er2Al17Ga7Pt9
_chemical_formula_sum   'Tb2 Er2 Al17 Ga7 Pt9'
_cell_volume   638.30791957
_cell_formula_units_Z   1
loop_
 _symmetry_equiv_pos_site_id
 _symmetry_equiv_pos_as_xyz
  1  'x, y, z'
loop_
 _atom_site_type_symbol
 _atom_site_label
 _atom_site_symmetry_multiplicity
 _atom_site_fract_x
 _atom_site_fract_y
 _atom_site_fract_z
 _atom_site_occupancy
  Tb  Tb0  1  0.736420  0.002948  0.191182  1
  Tb  Tb1  1  0.261889  0.995525  0.808143  1
  Er  Er2  1  0.058648  0.664890  0.190362  1
  Er  Er3  1  0.941120  0.336098  0.809241  1
  Al  Al4  1  0.119164  0.335143  0.332795  1
  Al  Al5  1  0.601995  0.457206  0.815165  1
  Al  Al6  1  0.397125  0.542416  0.184799  1
  Al  Al7  1  0.230171  0.339537  0.668686  1
  Al  Al8  1  0.770103  0.660496  0.331397  1
  Al  Al9  1  0.854158  0.332679  0.558362  1
  Al  Al10  1  0.186336  0.999905  0.558298  1
  Al  Al11  1  0.813709  0.000532  0.440896  1
  Al  Al12  1  0.351454  0.000227  0.055221  1
  Al  Al13  1  0.648097  0.000228  0.944784  1
  Al  Al14  1  0.556421  0.995131  0.668492  1
  Al  Al15  1  0.443760  0.004630  0.331556  1
  Al  Al16  1  0.520727  0.667936  0.560133  1
  Al  Al17  1  0.480676  0.331933  0.439620  1
  Al  Al18  1  0.684418  0.666563  0.048410  1
  Al  Al19  1  0.314619  0.333146  0.951637  1
  Al  Al20  1  0.145959  0.667041  0.440488  1
  Ga  Ga21  1  0.801769  0.872576  0.814767  1
  Ga  Ga22  1  0.198087  0.129371  0.185572  1
  Ga  Ga23  1  0.981144  0.665285  0.939922  1
  Ga  Ga24  1  0.018240  0.334721  0.060942  1
  Ga  Ga25  1  0.400526  0.662320  0.816166  1
  Ga  Ga26  1  0.599634  0.337556  0.183742  1
  Ga  Ga27  1  0.883566  0.664276  0.670934  1
  Pt  Pt28  1  0.336669  0.674551  0.003499  1
  Pt  Pt29  1  0.543953  0.322713  0.637346  1
  Pt  Pt30  1  0.453234  0.673876  0.362480  1
  Pt  Pt31  1  0.887664  0.011481  0.636267  1
  Pt  Pt32  1  0.112379  0.991515  0.363470  1
  Pt  Pt33  1  0.662439  0.325412  0.996254  1
  Pt  Pt34  1  0.207504  0.666683  0.635748  1
  Pt  Pt35  1  0.796376  0.333358  0.362972  1
  Pt  Pt36  1  0.999849  0.000092  0.000254  1
