# generated using pymatgen
data_SmTiF7
_symmetry_space_group_name_H-M   'P 1'
_cell_length_a   5.62032800
_cell_length_b   8.99327463
_cell_length_c   12.06042942
_cell_angle_alpha   62.25706221
_cell_angle_beta   90.00000000
_cell_angle_gamma   90.00000000
_symmetry_Int_Tables_number   1
_chemical_formula_structural   SmTiF7
_chemical_formula_sum   'Sm4 Ti4 F28'
_cell_volume   539.52012901
_cell_formula_units_Z   4
loop_
 _symmetry_equiv_pos_site_id
 _symmetry_equiv_pos_as_xyz
  1  'x, y, z'
loop_
 _atom_site_type_symbol
 _atom_site_label
 _atom_site_symmetry_multiplicity
 _atom_site_fract_x
 _atom_site_fract_y
 _atom_site_fract_z
 _atom_site_occupancy
  Sm  Sm0  1  0.758407  0.810002  0.265278  1
  Sm  Sm1  1  0.258407  0.189998  0.234722  1
  Sm  Sm2  1  0.241593  0.189998  0.734722  1
  Sm  Sm3  1  0.741593  0.810002  0.765278  1
  Ti  Ti4  1  0.244168  0.725587  0.543424  1
  Ti  Ti5  1  0.744168  0.274413  0.956576  1
  Ti  Ti6  1  0.755832  0.274413  0.456576  1
  Ti  Ti7  1  0.255832  0.725587  0.043424  1
  F  F8  1  0.965520  0.715542  0.457081  1
  F  F9  1  0.465520  0.284458  0.042919  1
  F  F10  1  0.034480  0.284458  0.542919  1
  F  F11  1  0.534480  0.715542  0.957081  1
  F  F12  1  0.055806  0.709758  0.924189  1
  F  F13  1  0.555806  0.290242  0.575811  1
  F  F14  1  0.944194  0.290242  0.075811  1
  F  F15  1  0.444194  0.709758  0.424189  1
  F  F16  1  0.734068  0.511184  0.862277  1
  F  F17  1  0.234068  0.488816  0.637723  1
  F  F18  1  0.265932  0.488816  0.137723  1
  F  F19  1  0.765932  0.511184  0.362277  1
  F  F20  1  0.739513  0.038916  0.050433  1
  F  F21  1  0.239513  0.961084  0.449567  1
  F  F22  1  0.260487  0.961084  0.949567  1
  F  F23  1  0.760487  0.038916  0.550433  1
  F  F24  1  0.048424  0.743210  0.666153  1
  F  F25  1  0.548424  0.256790  0.833847  1
  F  F26  1  0.951576  0.256790  0.333847  1
  F  F27  1  0.451576  0.743210  0.166153  1
  F  F28  1  0.012580  0.268392  0.864173  1
  F  F29  1  0.512580  0.731608  0.635827  1
  F  F30  1  0.987420  0.731608  0.135827  1
  F  F31  1  0.487420  0.268392  0.364173  1
  F  F32  1  0.087526  0.969078  0.230250  1
  F  F33  1  0.587526  0.030922  0.269750  1
  F  F34  1  0.912474  0.030922  0.769750  1
  F  F35  1  0.412474  0.969078  0.730250  1
