# generated using pymatgen
data_CaU2F12
_symmetry_space_group_name_H-M   'P 1'
_cell_length_a   7.77845248
_cell_length_b   7.77845932
_cell_length_c   10.92391060
_cell_angle_alpha   68.35439533
_cell_angle_beta   68.35437756
_cell_angle_gamma   75.56807906
_symmetry_Int_Tables_number   1
_chemical_formula_structural   CaU2F12
_chemical_formula_sum   'Ca2 U4 F24'
_cell_volume   566.09542600
_cell_formula_units_Z   2
loop_
 _symmetry_equiv_pos_site_id
 _symmetry_equiv_pos_as_xyz
  1  'x, y, z'
loop_
 _atom_site_type_symbol
 _atom_site_label
 _atom_site_symmetry_multiplicity
 _atom_site_fract_x
 _atom_site_fract_y
 _atom_site_fract_z
 _atom_site_occupancy
  Ca  Ca0  1  0.169975  0.830024  0.750000  1
  Ca  Ca1  1  0.830025  0.169976  0.250000  1
  U  U2  1  0.246515  0.258451  0.370006  1
  U  U3  1  0.258450  0.246517  0.870007  1
  U  U4  1  0.753485  0.741549  0.629994  1
  U  U5  1  0.741550  0.753483  0.129993  1
  F  F6  1  0.851231  0.885022  0.222907  1
  F  F7  1  0.148769  0.114978  0.777093  1
  F  F8  1  0.280818  0.987807  0.518215  1
  F  F9  1  0.987167  0.289448  0.507157  1
  F  F10  1  0.289447  0.987169  0.007155  1
  F  F11  1  0.361410  0.357504  0.467183  1
  F  F12  1  0.357502  0.361410  0.967182  1
  F  F13  1  0.885021  0.851232  0.722906  1
  F  F14  1  0.790617  0.469730  0.257250  1
  F  F15  1  0.012192  0.719182  0.981785  1
  F  F16  1  0.719182  0.012193  0.481785  1
  F  F17  1  0.987808  0.280818  0.018215  1
  F  F18  1  0.516754  0.199996  0.737640  1
  F  F19  1  0.638590  0.642496  0.532817  1
  F  F20  1  0.209383  0.530270  0.742750  1
  F  F21  1  0.642498  0.638590  0.032818  1
  F  F22  1  0.469729  0.790618  0.757250  1
  F  F23  1  0.800003  0.483248  0.762359  1
  F  F24  1  0.530271  0.209382  0.242750  1
  F  F25  1  0.483246  0.800004  0.262360  1
  F  F26  1  0.199997  0.516752  0.237641  1
  F  F27  1  0.710553  0.012831  0.992845  1
  F  F28  1  0.114979  0.148768  0.277094  1
  F  F29  1  0.012833  0.710552  0.492843  1
