# generated using pymatgen
data_SmHo2Tm2(In2Pt)2
_symmetry_space_group_name_H-M   'P 1'
_cell_length_a   3.61046200
_cell_length_b   8.16646700
_cell_length_c   18.25692400
_cell_angle_alpha   90.00000000
_cell_angle_beta   90.00000000
_cell_angle_gamma   90.00000000
_symmetry_Int_Tables_number   1
_chemical_formula_structural   SmHo2Tm2(In2Pt)2
_chemical_formula_sum   'Sm2 Ho4 Tm4 In8 Pt4'
_cell_volume   538.30026989
_cell_formula_units_Z   2
loop_
 _symmetry_equiv_pos_site_id
 _symmetry_equiv_pos_as_xyz
  1  'x, y, z'
loop_
 _atom_site_type_symbol
 _atom_site_label
 _atom_site_symmetry_multiplicity
 _atom_site_fract_x
 _atom_site_fract_y
 _atom_site_fract_z
 _atom_site_occupancy
  Sm  Sm0  1  0.000000  0.000000  0.000000  1
  Sm  Sm1  1  0.000000  0.500000  0.500000  1
  Ho  Ho2  1  0.000000  0.242723  0.220110  1
  Ho  Ho3  1  0.000000  0.757277  0.779890  1
  Ho  Ho4  1  0.000000  0.257277  0.720110  1
  Ho  Ho5  1  0.000000  0.742723  0.279890  1
  Tm  Tm6  1  0.000000  0.117584  0.413878  1
  Tm  Tm7  1  0.000000  0.882416  0.586122  1
  Tm  Tm8  1  0.000000  0.382416  0.913878  1
  Tm  Tm9  1  0.000000  0.617584  0.086122  1
  In  In10  1  0.500000  0.421885  0.349557  1
  In  In11  1  0.500000  0.578115  0.650443  1
  In  In12  1  0.500000  0.078115  0.849557  1
  In  In13  1  0.500000  0.921885  0.150443  1
  In  In14  1  0.500000  0.297008  0.066918  1
  In  In15  1  0.500000  0.702992  0.933082  1
  In  In16  1  0.500000  0.202992  0.566918  1
  In  In17  1  0.500000  0.797008  0.433082  1
  Pt  Pt18  1  0.500000  0.024997  0.304147  1
  Pt  Pt19  1  0.500000  0.975003  0.695853  1
  Pt  Pt20  1  0.500000  0.475003  0.804147  1
  Pt  Pt21  1  0.500000  0.524997  0.195853  1
