# generated using pymatgen
data_Ta20Ir9Pt
_symmetry_space_group_name_H-M   'P 1'
_cell_length_a   9.92548400
_cell_length_b   9.92548339
_cell_length_c   5.14978500
_cell_angle_alpha   90.00000000
_cell_angle_beta   90.00000000
_cell_angle_gamma   90.77943382
_symmetry_Int_Tables_number   1
_chemical_formula_structural   Ta20Ir9Pt
_chemical_formula_sum   'Ta20 Ir9 Pt1'
_cell_volume   507.28529343
_cell_formula_units_Z   1
loop_
 _symmetry_equiv_pos_site_id
 _symmetry_equiv_pos_as_xyz
  1  'x, y, z'
loop_
 _atom_site_type_symbol
 _atom_site_label
 _atom_site_symmetry_multiplicity
 _atom_site_fract_x
 _atom_site_fract_y
 _atom_site_fract_z
 _atom_site_occupancy
  Ta  Ta0  1  0.462319  0.129013  0.000000  1
  Ta  Ta1  1  0.394518  0.394518  0.000000  1
  Ta  Ta2  1  0.129013  0.462319  0.000000  1
  Ta  Ta3  1  0.870988  0.537681  0.000000  1
  Ta  Ta4  1  0.605482  0.605482  0.000000  1
  Ta  Ta5  1  0.537681  0.870988  0.000000  1
  Ta  Ta6  1  0.680806  0.319194  0.248480  1
  Ta  Ta7  1  0.319194  0.680806  0.248480  1
  Ta  Ta8  1  0.179061  0.179061  0.251379  1
  Ta  Ta9  1  0.820939  0.820939  0.251379  1
  Ta  Ta10  1  0.629440  0.037223  0.500001  1
  Ta  Ta11  1  0.896103  0.103897  0.500001  1
  Ta  Ta12  1  0.962777  0.370560  0.500001  1
  Ta  Ta13  1  0.037223  0.629440  0.500001  1
  Ta  Ta14  1  0.103897  0.896103  0.500001  1
  Ta  Ta15  1  0.370560  0.962777  0.500001  1
  Ta  Ta16  1  0.179061  0.179061  0.748621  1
  Ta  Ta17  1  0.820939  0.820939  0.748621  1
  Ta  Ta18  1  0.680806  0.319194  0.751521  1
  Ta  Ta19  1  0.319194  0.680806  0.751521  1
  Ir  Ir20  1  0.000000  0.000000  0.000000  1
  Ir  Ir21  1  0.737944  0.068076  0.000000  1
  Ir  Ir22  1  0.931925  0.262056  0.000000  1
  Ir  Ir23  1  0.068076  0.737944  0.000000  1
  Ir  Ir24  1  0.262056  0.931925  0.000000  1
  Ir  Ir25  1  0.430446  0.237926  0.500001  1
  Ir  Ir26  1  0.237926  0.430446  0.500001  1
  Ir  Ir27  1  0.762075  0.569553  0.500001  1
  Ir  Ir28  1  0.569553  0.762075  0.500001  1
  Pt  Pt29  1  0.500000  0.500000  0.500001  1
