# generated using pymatgen
data_Ce3Pr(HgRh2)2
_symmetry_space_group_name_H-M   'P 1'
_cell_length_a   7.71392603
_cell_length_b   7.71392729
_cell_length_c   3.73160100
_cell_angle_alpha   90.00000000
_cell_angle_beta   90.00000000
_cell_angle_gamma   91.82231125
_symmetry_Int_Tables_number   1
_chemical_formula_structural   Ce3Pr(HgRh2)2
_chemical_formula_sum   'Ce3 Pr1 Hg2 Rh4'
_cell_volume   221.93536568
_cell_formula_units_Z   1
loop_
 _symmetry_equiv_pos_site_id
 _symmetry_equiv_pos_as_xyz
  1  'x, y, z'
loop_
 _atom_site_type_symbol
 _atom_site_label
 _atom_site_symmetry_multiplicity
 _atom_site_fract_x
 _atom_site_fract_y
 _atom_site_fract_z
 _atom_site_occupancy
  Ce  Ce0  1  0.670609  0.168150  0.500000  1
  Ce  Ce1  1  0.331850  0.829391  0.500000  1
  Ce  Ce2  1  0.171132  0.328868  0.500000  1
  Pr  Pr3  1  0.831529  0.668471  0.500000  1
  Hg  Hg4  1  0.999671  0.994298  0.000000  1
  Hg  Hg5  1  0.505702  0.500329  0.000000  1
  Rh  Rh6  1  0.149849  0.632279  0.000000  1
  Rh  Rh7  1  0.867721  0.350151  0.000000  1
  Rh  Rh8  1  0.616344  0.883656  0.000000  1
  Rh  Rh9  1  0.355593  0.144407  0.000000  1
