# generated using pymatgen
data_Tm6Fe2Si5Ge
_symmetry_space_group_name_H-M   'P 1'
_cell_length_a   4.12054540
_cell_length_b   5.59421911
_cell_length_c   12.70843568
_cell_angle_alpha   94.91158289
_cell_angle_beta   99.32987727
_cell_angle_gamma   68.39005802
_symmetry_Int_Tables_number   1
_chemical_formula_structural   Tm6Fe2Si5Ge
_chemical_formula_sum   'Tm6 Fe2 Si5 Ge1'
_cell_volume   268.64464994
_cell_formula_units_Z   1
loop_
 _symmetry_equiv_pos_site_id
 _symmetry_equiv_pos_as_xyz
  1  'x, y, z'
loop_
 _atom_site_type_symbol
 _atom_site_label
 _atom_site_symmetry_multiplicity
 _atom_site_fract_x
 _atom_site_fract_y
 _atom_site_fract_z
 _atom_site_occupancy
  Tm  Tm0  1  0.400551  0.279506  0.080607  1
  Tm  Tm1  1  0.748903  0.734426  0.232233  1
  Tm  Tm2  1  0.523715  0.333208  0.380635  1
  Tm  Tm3  1  0.476312  0.667672  0.620293  1
  Tm  Tm4  1  0.251033  0.267255  0.769322  1
  Tm  Tm5  1  0.599779  0.717216  0.916771  1
  Fe  Fe6  1  0.247137  0.921509  0.415782  1
  Fe  Fe7  1  0.753372  0.077795  0.584539  1
  Si  Si8  1  0.052843  0.138817  0.244503  1
  Si  Si9  1  0.857241  0.742855  0.457338  1
  Si  Si10  1  0.143479  0.256587  0.543544  1
  Si  Si11  1  0.945022  0.867185  0.757230  1
  Si  Si12  1  0.881346  0.159394  0.922084  1
  Ge  Ge13  1  0.119272  0.836576  0.075119  1
