# generated using pymatgen
data_Pr3MgCd2AgSn2
_symmetry_space_group_name_H-M   'P 1'
_cell_length_a   7.64757864
_cell_length_b   7.60227724
_cell_length_c   4.74275700
_cell_angle_alpha   90.00000000
_cell_angle_beta   90.00000000
_cell_angle_gamma   119.80424404
_symmetry_Int_Tables_number   1
_chemical_formula_structural   Pr3MgCd2AgSn2
_chemical_formula_sum   'Pr3 Mg1 Cd2 Ag1 Sn2'
_cell_volume   239.26681028
_cell_formula_units_Z   1
loop_
 _symmetry_equiv_pos_site_id
 _symmetry_equiv_pos_as_xyz
  1  'x, y, z'
loop_
 _atom_site_type_symbol
 _atom_site_label
 _atom_site_symmetry_multiplicity
 _atom_site_fract_x
 _atom_site_fract_y
 _atom_site_fract_z
 _atom_site_occupancy
  Pr  Pr0  1  0.415024  0.413202  0.500000  1
  Pr  Pr1  1  0.584976  0.998178  0.500000  1
  Pr  Pr2  1  0.000000  0.590577  0.500000  1
  Mg  Mg3  1  0.000000  0.229703  0.000000  1
  Cd  Cd4  1  0.763063  0.763775  0.000000  1
  Cd  Cd5  1  0.236937  0.000712  0.000000  1
  Ag  Ag6  1  0.000000  0.006802  0.500000  1
  Sn  Sn7  1  0.669617  0.333334  0.000000  1
  Sn  Sn8  1  0.330383  0.663718  0.000000  1
