# generated using pymatgen
data_SmPa2(GaRh)3
_symmetry_space_group_name_H-M   'P 1'
_cell_length_a   7.17909448
_cell_length_b   7.09544992
_cell_length_c   3.96550700
_cell_angle_alpha   90.00000000
_cell_angle_beta   90.00000000
_cell_angle_gamma   119.61531989
_symmetry_Int_Tables_number   1
_chemical_formula_structural   SmPa2(GaRh)3
_chemical_formula_sum   'Sm1 Pa2 Ga3 Rh3'
_cell_volume   175.61006156
_cell_formula_units_Z   1
loop_
 _symmetry_equiv_pos_site_id
 _symmetry_equiv_pos_as_xyz
  1  'x, y, z'
loop_
 _atom_site_type_symbol
 _atom_site_label
 _atom_site_symmetry_multiplicity
 _atom_site_fract_x
 _atom_site_fract_y
 _atom_site_fract_z
 _atom_site_occupancy
  Sm  Sm0  1  0.000000  0.411835  0.500000  1
  Pa  Pa1  1  0.583892  0.586708  0.500000  1
  Pa  Pa2  1  0.416108  0.002816  0.500000  1
  Ga  Ga3  1  0.000000  0.743781  0.000000  1
  Ga  Ga4  1  0.230740  0.242613  0.000000  1
  Ga  Ga5  1  0.769260  0.011873  0.000000  1
  Rh  Rh6  1  0.364903  0.694965  0.000000  1
  Rh  Rh7  1  0.635097  0.330062  0.000000  1
  Rh  Rh8  1  0.000000  0.975345  0.500000  1
