# generated using pymatgen
data_LiSc4B4AsRh10
_symmetry_space_group_name_H-M   'P 1'
_cell_length_a   3.11736400
_cell_length_b   9.25842800
_cell_length_c   9.25842800
_cell_angle_alpha   90.00000000
_cell_angle_beta   90.00000000
_cell_angle_gamma   90.00000000
_symmetry_Int_Tables_number   1
_chemical_formula_structural   LiSc4B4AsRh10
_chemical_formula_sum   'Li1 Sc4 B4 As1 Rh10'
_cell_volume   267.21573184
_cell_formula_units_Z   1
loop_
 _symmetry_equiv_pos_site_id
 _symmetry_equiv_pos_as_xyz
  1  'x, y, z'
loop_
 _atom_site_type_symbol
 _atom_site_label
 _atom_site_symmetry_multiplicity
 _atom_site_fract_x
 _atom_site_fract_y
 _atom_site_fract_z
 _atom_site_occupancy
  Li  Li0  1  0.000000  0.000000  0.000000  1
  Sc  Sc1  1  0.000000  0.322951  0.172235  1
  Sc  Sc2  1  0.000000  0.827764  0.322951  1
  Sc  Sc3  1  0.000000  0.172235  0.677048  1
  Sc  Sc4  1  0.000000  0.677048  0.827764  1
  B  B5  1  0.000000  0.630556  0.120434  1
  B  B6  1  0.000000  0.120434  0.369443  1
  B  B7  1  0.000000  0.879565  0.630556  1
  B  B8  1  0.000000  0.369443  0.879565  1
  As  As9  1  0.000000  0.500000  0.500000  1
  Rh  Rh10  1  0.499999  0.500000  0.000000  1
  Rh  Rh11  1  0.499999  0.784914  0.072382  1
  Rh  Rh12  1  0.499999  0.072382  0.215085  1
  Rh  Rh13  1  0.499999  0.570101  0.284541  1
  Rh  Rh14  1  0.499999  0.284541  0.429898  1
  Rh  Rh15  1  0.499999  0.000000  0.500000  1
  Rh  Rh16  1  0.499999  0.715458  0.570101  1
  Rh  Rh17  1  0.499999  0.429898  0.715458  1
  Rh  Rh18  1  0.499999  0.927616  0.784914  1
  Rh  Rh19  1  0.499999  0.215085  0.927616  1
