# generated using pymatgen
data_LiLu4As5Rh7
_symmetry_space_group_name_H-M   'P 1'
_cell_length_a   7.19501508
_cell_length_b   7.19501517
_cell_length_c   7.19501576
_cell_angle_alpha   109.92598341
_cell_angle_beta   108.56547091
_cell_angle_gamma   109.92598526
_symmetry_Int_Tables_number   1
_chemical_formula_structural   LiLu4As5Rh7
_chemical_formula_sum   'Li1 Lu4 As5 Rh7'
_cell_volume   286.67646314
_cell_formula_units_Z   1
loop_
 _symmetry_equiv_pos_site_id
 _symmetry_equiv_pos_as_xyz
  1  'x, y, z'
loop_
 _atom_site_type_symbol
 _atom_site_label
 _atom_site_symmetry_multiplicity
 _atom_site_fract_x
 _atom_site_fract_y
 _atom_site_fract_z
 _atom_site_occupancy
  Li  Li0  1  0.695012  0.000000  0.695012  1
  Lu  Lu1  1  0.483104  0.485823  0.483104  1
  Lu  Lu2  1  0.997281  0.514177  0.997281  1
  Lu  Lu3  1  0.483104  0.000000  0.997281  1
  Lu  Lu4  1  0.997281  0.000000  0.483104  1
  As  As5  1  0.678554  0.688262  0.990292  1
  As  As6  1  0.302031  0.311738  0.990292  1
  As  As7  1  0.990292  0.688262  0.678554  1
  As  As8  1  0.990292  0.311738  0.302031  1
  As  As9  1  0.348376  0.000000  0.348376  1
  Rh  Rh10  1  0.745265  0.500000  0.245265  1
  Rh  Rh11  1  0.501938  0.254408  0.756346  1
  Rh  Rh12  1  0.756346  0.254408  0.501938  1
  Rh  Rh13  1  0.247531  0.745592  0.501938  1
  Rh  Rh14  1  0.245265  0.500000  0.745265  1
  Rh  Rh15  1  0.501938  0.745592  0.247531  1
  Rh  Rh16  1  0.036390  0.000000  0.036390  1
