# generated using pymatgen
data_LaYbCuSe3
_symmetry_space_group_name_H-M   'P 1'
_cell_length_a   6.91030863
_cell_length_b   6.91030931
_cell_length_c   10.65420000
_cell_angle_alpha   90.00000000
_cell_angle_beta   90.00000000
_cell_angle_gamma   145.52885909
_symmetry_Int_Tables_number   1
_chemical_formula_structural   LaYbCuSe3
_chemical_formula_sum   'La2 Yb2 Cu2 Se6'
_cell_volume   287.95548247
_cell_formula_units_Z   2
loop_
 _symmetry_equiv_pos_site_id
 _symmetry_equiv_pos_as_xyz
  1  'x, y, z'
loop_
 _atom_site_type_symbol
 _atom_site_label
 _atom_site_symmetry_multiplicity
 _atom_site_fract_x
 _atom_site_fract_y
 _atom_site_fract_z
 _atom_site_occupancy
  La  La0  1  0.754150  0.245853  0.250000  1
  La  La1  1  0.245853  0.754150  0.750000  1
  Yb  Yb2  1  0.000000  0.000000  0.000000  1
  Yb  Yb3  1  0.000000  0.000000  0.500000  1
  Cu  Cu4  1  0.475630  0.524372  0.250000  1
  Cu  Cu5  1  0.524372  0.475630  0.750000  1
  Se  Se6  1  0.353816  0.646187  0.074183  1
  Se  Se7  1  0.084832  0.915170  0.250000  1
  Se  Se8  1  0.353816  0.646187  0.425817  1
  Se  Se9  1  0.646187  0.353816  0.574183  1
  Se  Se10  1  0.915170  0.084832  0.750000  1
  Se  Se11  1  0.646187  0.353816  0.925817  1
