# generated using pymatgen
data_Nd3Dy4Th(ReB6)4
_symmetry_space_group_name_H-M   'P 1'
_cell_length_a   3.74738200
_cell_length_b   9.25764276
_cell_length_c   11.70813940
_cell_angle_alpha   90.05921350
_cell_angle_beta   90.00000000
_cell_angle_gamma   90.00000000
_symmetry_Int_Tables_number   1
_chemical_formula_structural   Nd3Dy4Th(ReB6)4
_chemical_formula_sum   'Nd3 Dy4 Th1 Re4 B24'
_cell_volume   406.17766336
_cell_formula_units_Z   1
loop_
 _symmetry_equiv_pos_site_id
 _symmetry_equiv_pos_as_xyz
  1  'x, y, z'
loop_
 _atom_site_type_symbol
 _atom_site_label
 _atom_site_symmetry_multiplicity
 _atom_site_fract_x
 _atom_site_fract_y
 _atom_site_fract_z
 _atom_site_occupancy
  Nd  Nd0  1  0.000000  0.677982  0.586380  1
  Nd  Nd1  1  0.000000  0.822731  0.085356  1
  Nd  Nd2  1  0.000000  0.176845  0.914111  1
  Dy  Dy3  1  0.000000  0.941712  0.369047  1
  Dy  Dy4  1  0.000000  0.057038  0.631311  1
  Dy  Dy5  1  0.000000  0.442691  0.129523  1
  Dy  Dy6  1  0.000000  0.557770  0.869274  1
  Th  Th7  1  0.000000  0.322572  0.414447  1
  Re  Re8  1  0.000000  0.637366  0.320259  1
  Re  Re9  1  0.000000  0.361625  0.679523  1
  Re  Re10  1  0.000000  0.139601  0.180902  1
  Re  Re11  1  0.000000  0.861369  0.819836  1
  B  B12  1  0.500000  0.554803  0.430426  1
  B  B13  1  0.500000  0.444952  0.569652  1
  B  B14  1  0.500000  0.054716  0.069057  1
  B  B15  1  0.500000  0.945523  0.930996  1
  B  B16  1  0.500000  0.749319  0.415689  1
  B  B17  1  0.500000  0.250991  0.584694  1
  B  B18  1  0.500000  0.248995  0.083623  1
  B  B19  1  0.500000  0.750871  0.916061  1
  B  B20  1  0.500000  0.790237  0.265992  1
  B  B21  1  0.500000  0.209683  0.734315  1
  B  B22  1  0.500000  0.290329  0.233640  1
  B  B23  1  0.500000  0.709433  0.766183  1
  B  B24  1  0.500000  0.629789  0.186061  1
  B  B25  1  0.500000  0.370696  0.813715  1
  B  B26  1  0.500000  0.129702  0.313210  1
  B  B27  1  0.500000  0.870391  0.686723  1
  B  B28  1  0.500000  0.984328  0.212587  1
  B  B29  1  0.500000  0.015805  0.787425  1
  B  B30  1  0.500000  0.484599  0.286649  1
  B  B31  1  0.500000  0.516022  0.713554  1
  B  B32  1  0.500000  0.597196  0.026831  1
  B  B33  1  0.500000  0.403057  0.972595  1
  B  B34  1  0.500000  0.097043  0.472983  1
  B  B35  1  0.500000  0.902219  0.527364  1
