# generated using pymatgen
data_Rb13Ti2(In3As5)2
_symmetry_space_group_name_H-M   'P 1'
_cell_length_a   9.58518295
_cell_length_b   9.59640863
_cell_length_c   13.73039114
_cell_angle_alpha   81.94787549
_cell_angle_beta   79.14808069
_cell_angle_gamma   63.93262037
_symmetry_Int_Tables_number   1
_chemical_formula_structural   Rb13Ti2(In3As5)2
_chemical_formula_sum   'Rb13 Ti2 In6 As10'
_cell_volume   1111.85122101
_cell_formula_units_Z   1
loop_
 _symmetry_equiv_pos_site_id
 _symmetry_equiv_pos_as_xyz
  1  'x, y, z'
loop_
 _atom_site_type_symbol
 _atom_site_label
 _atom_site_symmetry_multiplicity
 _atom_site_fract_x
 _atom_site_fract_y
 _atom_site_fract_z
 _atom_site_occupancy
  Rb  Rb0  1  0.493639  0.868919  0.354205  1
  Rb  Rb1  1  0.506361  0.131081  0.645795  1
  Rb  Rb2  1  0.851919  0.586002  0.882692  1
  Rb  Rb3  1  0.148081  0.413998  0.117308  1
  Rb  Rb4  1  0.089414  0.782029  0.429458  1
  Rb  Rb5  1  0.910586  0.217971  0.570542  1
  Rb  Rb6  1  0.741037  0.685675  0.595520  1
  Rb  Rb7  1  0.258963  0.314325  0.404480  1
  Rb  Rb8  1  0.500000  0.500000  0.000000  1
  Rb  Rb9  1  0.317258  0.929645  0.085000  1
  Rb  Rb10  1  0.682742  0.070355  0.915000  1
  Rb  Rb11  1  0.887415  0.861192  0.168013  1
  Rb  Rb12  1  0.112585  0.138808  0.831987  1
  Ti  Ti13  1  0.380270  0.738933  0.775332  1
  Ti  Ti14  1  0.619730  0.261067  0.224668  1
  In  In15  1  0.028490  0.811012  0.707747  1
  In  In16  1  0.971510  0.188988  0.292253  1
  In  In17  1  0.601467  0.444067  0.408800  1
  In  In18  1  0.398533  0.555933  0.591200  1
  In  In19  1  0.723976  0.560443  0.169651  1
  In  In20  1  0.276024  0.439557  0.830349  1
  As  As21  1  0.432369  0.548459  0.251443  1
  As  As22  1  0.567631  0.451541  0.748557  1
  As  As23  1  0.137020  0.746554  0.894897  1
  As  As24  1  0.862980  0.253446  0.105103  1
  As  As25  1  0.707816  0.128363  0.391278  1
  As  As26  1  0.292184  0.871637  0.608722  1
  As  As27  1  0.860240  0.512389  0.352203  1
  As  As28  1  0.139760  0.487611  0.647797  1
  As  As29  1  0.501951  0.866675  0.841292  1
  As  As30  1  0.498049  0.133325  0.158708  1
