# generated using pymatgen
data_Y10Tl6PAu
_symmetry_space_group_name_H-M   'P 1'
_cell_length_a   9.19382600
_cell_length_b   9.19382378
_cell_length_c   6.82467600
_cell_angle_alpha   89.99998130
_cell_angle_beta   89.99999377
_cell_angle_gamma   120.00003678
_symmetry_Int_Tables_number   1
_chemical_formula_structural   Y10Tl6PAu
_chemical_formula_sum   'Y10 Tl6 P1 Au1'
_cell_volume   499.57990870
_cell_formula_units_Z   1
loop_
 _symmetry_equiv_pos_site_id
 _symmetry_equiv_pos_as_xyz
  1  'x, y, z'
loop_
 _atom_site_type_symbol
 _atom_site_label
 _atom_site_symmetry_multiplicity
 _atom_site_fract_x
 _atom_site_fract_y
 _atom_site_fract_z
 _atom_site_occupancy
  Y  Y0  1  0.000010  0.751762  0.772657  1
  Y  Y1  1  0.333352  0.666646  0.499998  1
  Y  Y2  1  0.333401  0.666733  0.000000  1
  Y  Y3  1  0.751705  0.751743  0.227320  1
  Y  Y4  1  0.248282  0.248273  0.772680  1
  Y  Y5  1  0.000031  0.248258  0.227343  1
  Y  Y6  1  0.666646  0.333346  0.500003  1
  Y  Y7  1  0.248274  0.000010  0.227342  1
  Y  Y8  1  0.751710  0.999955  0.772657  1
  Y  Y9  1  0.666578  0.333272  0.999999  1
  Tl  Tl10  1  0.403746  0.999965  0.755244  1
  Tl  Tl11  1  0.403764  0.403814  0.244717  1
  Tl  Tl12  1  0.596227  0.596198  0.755284  1
  Tl  Tl13  1  0.999997  0.596204  0.244717  1
  Tl  Tl14  1  0.000021  0.403805  0.755284  1
  Tl  Tl15  1  0.596249  0.000016  0.244756  1
  P  P16  1  0.000004  0.000000  0.999999  1
  Au  Au17  1  0.000003  0.999998  0.500001  1
