# generated using pymatgen
data_Y3PuB16
_symmetry_space_group_name_H-M   'P 1'
_cell_length_a   7.11615317
_cell_length_b   7.11615317
_cell_length_c   4.02653800
_cell_angle_alpha   90.00000000
_cell_angle_beta   90.00000000
_cell_angle_gamma   90.16272107
_symmetry_Int_Tables_number   1
_chemical_formula_structural   Y3PuB16
_chemical_formula_sum   'Y3 Pu1 B16'
_cell_volume   203.90159637
_cell_formula_units_Z   1
loop_
 _symmetry_equiv_pos_site_id
 _symmetry_equiv_pos_as_xyz
  1  'x, y, z'
loop_
 _atom_site_type_symbol
 _atom_site_label
 _atom_site_symmetry_multiplicity
 _atom_site_fract_x
 _atom_site_fract_y
 _atom_site_fract_z
 _atom_site_occupancy
  Y  Y0  1  0.183540  0.683540  0.000000  1
  Y  Y1  1  0.683831  0.816775  0.000000  1
  Y  Y2  1  0.316775  0.183831  0.000000  1
  Pu  Pu3  1  0.814092  0.314092  0.000000  1
  B  B4  1  0.323612  0.462192  0.500000  1
  B  B5  1  0.676955  0.537256  0.500000  1
  B  B6  1  0.538656  0.323858  0.500000  1
  B  B7  1  0.461452  0.676232  0.500000  1
  B  B8  1  0.000733  0.999676  0.202323  1
  B  B9  1  0.499676  0.500733  0.797677  1
  B  B10  1  0.000733  0.999676  0.797677  1
  B  B11  1  0.499676  0.500733  0.202323  1
  B  B12  1  0.587662  0.087662  0.500000  1
  B  B13  1  0.086369  0.413668  0.500000  1
  B  B14  1  0.913668  0.586369  0.500000  1
  B  B15  1  0.413032  0.913032  0.500000  1
  B  B16  1  0.037256  0.176955  0.500000  1
  B  B17  1  0.176232  0.961452  0.500000  1
  B  B18  1  0.823858  0.038656  0.500000  1
  B  B19  1  0.962192  0.823612  0.500000  1
