# generated using pymatgen
data_Y14Ho2Cd4Co3Ru
_symmetry_space_group_name_H-M   'P 1'
_cell_length_a   9.59766526
_cell_length_b   9.55409500
_cell_length_c   9.55465877
_cell_angle_alpha   60.00194646
_cell_angle_beta   60.05337448
_cell_angle_gamma   60.15005478
_symmetry_Int_Tables_number   1
_chemical_formula_structural   Y14Ho2Cd4Co3Ru
_chemical_formula_sum   'Y14 Ho2 Cd4 Co3 Ru1'
_cell_volume   620.47903303
_cell_formula_units_Z   1
loop_
 _symmetry_equiv_pos_site_id
 _symmetry_equiv_pos_as_xyz
  1  'x, y, z'
loop_
 _atom_site_type_symbol
 _atom_site_label
 _atom_site_symmetry_multiplicity
 _atom_site_fract_x
 _atom_site_fract_y
 _atom_site_fract_z
 _atom_site_occupancy
  Y  Y0  1  0.938886  0.937599  0.561231  1
  Y  Y1  1  0.814475  0.189686  0.187856  1
  Y  Y2  1  0.938886  0.562284  0.561231  1
  Y  Y3  1  0.937413  0.562209  0.938168  1
  Y  Y4  1  0.814475  0.807982  0.187856  1
  Y  Y5  1  0.341773  0.349324  0.349597  1
  Y  Y6  1  0.562880  0.938830  0.940166  1
  Y  Y7  1  0.563931  0.939148  0.557774  1
  Y  Y8  1  0.188872  0.811746  0.810347  1
  Y  Y9  1  0.188872  0.189036  0.810347  1
  Y  Y10  1  0.341643  0.349551  0.959257  1
  Y  Y11  1  0.341773  0.959308  0.349597  1
  Y  Y12  1  0.814889  0.189065  0.806982  1
  Y  Y13  1  0.562880  0.558125  0.940166  1
  Ho  Ho14  1  0.188805  0.811623  0.187950  1
  Ho  Ho15  1  0.964741  0.344571  0.346116  1
  Cd  Cd16  1  0.581203  0.580290  0.258218  1
  Cd  Cd17  1  0.257703  0.580792  0.580714  1
  Cd  Cd18  1  0.580825  0.579996  0.579963  1
  Cd  Cd19  1  0.580825  0.259217  0.579963  1
  Co  Co20  1  0.138806  0.138609  0.143692  1
  Co  Co21  1  0.138806  0.578894  0.143692  1
  Co  Co22  1  0.138744  0.141971  0.577315  1
  Ru  Ru23  1  0.577895  0.140149  0.141808  1
