# generated using pymatgen
data_LiMgAl2(B4Ru5)2
_symmetry_space_group_name_H-M   'P 1'
_cell_length_a   2.93860000
_cell_length_b   8.29412828
_cell_length_c   10.07261565
_cell_angle_alpha   89.26249408
_cell_angle_beta   90.00000000
_cell_angle_gamma   90.00000000
_symmetry_Int_Tables_number   1
_chemical_formula_structural   LiMgAl2(B4Ru5)2
_chemical_formula_sum   'Li1 Mg1 Al2 B8 Ru10'
_cell_volume   245.48078609
_cell_formula_units_Z   1
loop_
 _symmetry_equiv_pos_site_id
 _symmetry_equiv_pos_as_xyz
  1  'x, y, z'
loop_
 _atom_site_type_symbol
 _atom_site_label
 _atom_site_symmetry_multiplicity
 _atom_site_fract_x
 _atom_site_fract_y
 _atom_site_fract_z
 _atom_site_occupancy
  Li  Li0  1  0.500000  0.138426  0.693133  1
  Mg  Mg1  1  0.500000  0.854536  0.319148  1
  Al  Al2  1  0.500000  0.631649  0.804389  1
  Al  Al3  1  0.500000  0.362309  0.176496  1
  B  B4  1  0.500000  0.857223  0.605910  1
  B  B5  1  0.500000  0.150326  0.400382  1
  B  B6  1  0.500000  0.346971  0.892509  1
  B  B7  1  0.500000  0.652323  0.102931  1
  B  B8  1  0.500000  0.960036  0.911320  1
  B  B9  1  0.500000  0.043117  0.091051  1
  B  B10  1  0.500000  0.455351  0.586736  1
  B  B11  1  0.500000  0.542227  0.412848  1
  Ru  Ru12  1  0.000000  0.393037  0.735869  1
  Ru  Ru13  1  0.000000  0.596119  0.259804  1
  Ru  Ru14  1  0.000000  0.874943  0.768423  1
  Ru  Ru15  1  0.000000  0.125712  0.235480  1
  Ru  Ru16  1  0.000000  0.005264  0.504576  1
  Ru  Ru17  1  0.000000  0.504262  0.995053  1
  Ru  Ru18  1  0.000000  0.658159  0.546554  1
  Ru  Ru19  1  0.000000  0.345484  0.453296  1
  Ru  Ru20  1  0.000000  0.155778  0.950235  1
  Ru  Ru21  1  0.000000  0.846749  0.053859  1
