# generated using pymatgen
data_Ba8Tb3Y(GaO5)4
_symmetry_space_group_name_H-M   'P 1'
_cell_length_a   6.14630602
_cell_length_b   7.89626329
_cell_length_c   12.76617005
_cell_angle_alpha   91.70520496
_cell_angle_beta   89.99402645
_cell_angle_gamma   89.99376274
_symmetry_Int_Tables_number   1
_chemical_formula_structural   Ba8Tb3Y(GaO5)4
_chemical_formula_sum   'Ba8 Tb3 Y1 Ga4 O20'
_cell_volume   619.30424237
_cell_formula_units_Z   1
loop_
 _symmetry_equiv_pos_site_id
 _symmetry_equiv_pos_as_xyz
  1  'x, y, z'
loop_
 _atom_site_type_symbol
 _atom_site_label
 _atom_site_symmetry_multiplicity
 _atom_site_fract_x
 _atom_site_fract_y
 _atom_site_fract_z
 _atom_site_occupancy
  Ba  Ba0  1  0.762464  0.482038  0.346521  1
  Ba  Ba1  1  0.737482  0.982489  0.846613  1
  Ba  Ba2  1  0.237588  0.517549  0.653749  1
  Ba  Ba3  1  0.262183  0.017851  0.153230  1
  Ba  Ba4  1  0.756975  0.993382  0.380012  1
  Ba  Ba5  1  0.743055  0.493285  0.879937  1
  Ba  Ba6  1  0.243017  0.006822  0.620430  1
  Ba  Ba7  1  0.256789  0.506612  0.119776  1
  Tb  Tb8  1  0.749856  0.266940  0.628186  1
  Tb  Tb9  1  0.750298  0.766990  0.127911  1
  Tb  Tb10  1  0.250292  0.732977  0.372063  1
  Y  Y11  1  0.249598  0.233054  0.872054  1
  Ga  Ga12  1  0.734862  0.742614  0.582576  1
  Ga  Ga13  1  0.764714  0.242824  0.082105  1
  Ga  Ga14  1  0.264995  0.257272  0.417660  1
  Ga  Ga15  1  0.234874  0.757403  0.917625  1
  O  O16  1  0.762845  0.970077  0.630793  1
  O  O17  1  0.737488  0.470172  0.130269  1
  O  O18  1  0.237253  0.029828  0.369199  1
  O  O19  1  0.263006  0.530013  0.869284  1
  O  O20  1  0.730352  0.067499  0.175318  1
  O  O21  1  0.770060  0.567576  0.675929  1
  O  O22  1  0.270034  0.932883  0.824529  1
  O  O23  1  0.230026  0.432282  0.324139  1
  O  O24  1  0.545134  0.745494  0.272728  1
  O  O25  1  0.956220  0.245457  0.772676  1
  O  O26  1  0.455943  0.254254  0.728089  1
  O  O27  1  0.045071  0.754496  0.227159  1
  O  O28  1  0.550852  0.222160  0.976261  1
  O  O29  1  0.947975  0.722038  0.476484  1
  O  O30  1  0.448045  0.777973  0.023633  1
  O  O31  1  0.051916  0.277946  0.523575  1
  O  O32  1  0.043348  0.230111  0.020981  1
  O  O33  1  0.455886  0.730331  0.522147  1
  O  O34  1  0.955883  0.769629  0.978025  1
  O  O35  1  0.543622  0.269678  0.478333  1
