# generated using pymatgen
data_LaThTlPd2
_symmetry_space_group_name_H-M   'P 1'
_cell_length_a   8.09822900
_cell_length_b   8.10047000
_cell_length_c   3.84218200
_cell_angle_alpha   90.00000000
_cell_angle_beta   90.00000000
_cell_angle_gamma   90.00000000
_symmetry_Int_Tables_number   1
_chemical_formula_structural   LaThTlPd2
_chemical_formula_sum   'La2 Th2 Tl2 Pd4'
_cell_volume   252.04506852
_cell_formula_units_Z   2
loop_
 _symmetry_equiv_pos_site_id
 _symmetry_equiv_pos_as_xyz
  1  'x, y, z'
loop_
 _atom_site_type_symbol
 _atom_site_label
 _atom_site_symmetry_multiplicity
 _atom_site_fract_x
 _atom_site_fract_y
 _atom_site_fract_z
 _atom_site_occupancy
  La  La0  1  0.823458  0.676515  0.500000  1
  La  La1  1  0.323458  0.823485  0.500000  1
  Th  Th2  1  0.673902  0.173735  0.500000  1
  Th  Th3  1  0.173902  0.326265  0.500000  1
  Tl  Tl4  1  0.002231  0.999721  0.000000  1
  Tl  Tl5  1  0.502231  0.500279  0.000000  1
  Pd  Pd6  1  0.374017  0.137609  0.000000  1
  Pd  Pd7  1  0.126393  0.611230  0.000000  1
  Pd  Pd8  1  0.626393  0.888770  0.000000  1
  Pd  Pd9  1  0.874017  0.362391  0.000000  1
