# generated using pymatgen
data_Nb2AsPRh2
_symmetry_space_group_name_H-M   'P 1'
_cell_length_a   3.86057000
_cell_length_b   6.41239300
_cell_length_c   7.34453400
_cell_angle_alpha   90.00000000
_cell_angle_beta   90.00000000
_cell_angle_gamma   90.00000000
_symmetry_Int_Tables_number   1
_chemical_formula_structural   Nb2AsPRh2
_chemical_formula_sum   'Nb4 As2 P2 Rh4'
_cell_volume   181.81755300
_cell_formula_units_Z   2
loop_
 _symmetry_equiv_pos_site_id
 _symmetry_equiv_pos_as_xyz
  1  'x, y, z'
loop_
 _atom_site_type_symbol
 _atom_site_label
 _atom_site_symmetry_multiplicity
 _atom_site_fract_x
 _atom_site_fract_y
 _atom_site_fract_z
 _atom_site_occupancy
  Nb  Nb0  1  0.250000  0.028627  0.829934  1
  Nb  Nb1  1  0.250000  0.528627  0.670066  1
  Nb  Nb2  1  0.750000  0.965915  0.165077  1
  Nb  Nb3  1  0.750000  0.465915  0.334923  1
  As  As4  1  0.250000  0.763352  0.371383  1
  As  As5  1  0.250000  0.263352  0.128617  1
  P  P6  1  0.750000  0.237721  0.621879  1
  P  P7  1  0.750000  0.737721  0.878121  1
  Rh  Rh8  1  0.250000  0.149248  0.451700  1
  Rh  Rh9  1  0.250000  0.649248  0.048300  1
  Rh  Rh10  1  0.750000  0.855137  0.576363  1
  Rh  Rh11  1  0.750000  0.355137  0.923637  1
