# generated using pymatgen
data_Y2VCoB8
_symmetry_space_group_name_H-M   'P 1'
_cell_length_a   3.42688500
_cell_length_b   5.96463803
_cell_length_c   11.52996399
_cell_angle_alpha   90.06725884
_cell_angle_beta   90.00000000
_cell_angle_gamma   90.00000000
_symmetry_Int_Tables_number   1
_chemical_formula_structural   Y2VCoB8
_chemical_formula_sum   'Y4 V2 Co2 B16'
_cell_volume   235.67378409
_cell_formula_units_Z   2
loop_
 _symmetry_equiv_pos_site_id
 _symmetry_equiv_pos_as_xyz
  1  'x, y, z'
loop_
 _atom_site_type_symbol
 _atom_site_label
 _atom_site_symmetry_multiplicity
 _atom_site_fract_x
 _atom_site_fract_y
 _atom_site_fract_z
 _atom_site_occupancy
  Y  Y0  1  0.500000  0.372127  0.148296  1
  Y  Y1  1  0.500000  0.627873  0.851704  1
  Y  Y2  1  0.500000  0.124161  0.652619  1
  Y  Y3  1  0.500000  0.875839  0.347381  1
  V  V4  1  0.500000  0.373382  0.414620  1
  V  V5  1  0.500000  0.626618  0.585380  1
  Co  Co6  1  0.500000  0.134767  0.912548  1
  Co  Co7  1  0.500000  0.865233  0.087452  1
  B  B8  1  0.000000  0.111069  0.045790  1
  B  B9  1  0.000000  0.888931  0.954210  1
  B  B10  1  0.000000  0.385340  0.547035  1
  B  B11  1  0.000000  0.614660  0.452965  1
  B  B12  1  0.000000  0.134596  0.466851  1
  B  B13  1  0.000000  0.865404  0.533149  1
  B  B14  1  0.000000  0.360450  0.968559  1
  B  B15  1  0.000000  0.639550  0.031441  1
  B  B16  1  0.000000  0.021302  0.189272  1
  B  B17  1  0.000000  0.978698  0.810728  1
  B  B18  1  0.000000  0.473947  0.694255  1
  B  B19  1  0.000000  0.526053  0.305745  1
  B  B20  1  0.000000  0.213235  0.311909  1
  B  B21  1  0.000000  0.786765  0.688091  1
  B  B22  1  0.000000  0.280612  0.817378  1
  B  B23  1  0.000000  0.719388  0.182622  1
