# generated using pymatgen
data_Pr3(NiP)4
_symmetry_space_group_name_H-M   'P 1'
_cell_length_a   3.97403636
_cell_length_b   4.05201097
_cell_length_c   11.92551733
_cell_angle_alpha   80.21867298
_cell_angle_beta   80.40870599
_cell_angle_gamma   89.99999690
_symmetry_Int_Tables_number   1
_chemical_formula_structural   Pr3(NiP)4
_chemical_formula_sum   'Pr3 Ni4 P4'
_cell_volume   186.51858328
_cell_formula_units_Z   1
loop_
 _symmetry_equiv_pos_site_id
 _symmetry_equiv_pos_as_xyz
  1  'x, y, z'
loop_
 _atom_site_type_symbol
 _atom_site_label
 _atom_site_symmetry_multiplicity
 _atom_site_fract_x
 _atom_site_fract_y
 _atom_site_fract_z
 _atom_site_occupancy
  Pr  Pr0  1  0.349757  0.849757  0.300486  1
  Pr  Pr1  1  0.650243  0.150243  0.699514  1
  Pr  Pr2  1  0.000000  0.000000  0.000000  1
  Ni  Ni3  1  0.249513  0.249513  0.500974  1
  Ni  Ni4  1  0.750487  0.750487  0.499026  1
  Ni  Ni5  1  0.096283  0.596283  0.807433  1
  Ni  Ni6  1  0.903717  0.403717  0.192567  1
  P  P7  1  0.196749  0.696749  0.606502  1
  P  P8  1  0.803251  0.303251  0.393498  1
  P  P9  1  0.447756  0.447756  0.104488  1
  P  P10  1  0.552244  0.552244  0.895512  1
