# generated using pymatgen
data_Tb2Dy2HoSn4
_symmetry_space_group_name_H-M   'P 1'
_cell_length_a   8.04124400
_cell_length_b   8.18707400
_cell_length_c   15.48475500
_cell_angle_alpha   90.00000000
_cell_angle_beta   90.00000000
_cell_angle_gamma   90.00000000
_symmetry_Int_Tables_number   1
_chemical_formula_structural   Tb2Dy2HoSn4
_chemical_formula_sum   'Tb8 Dy8 Ho4 Sn16'
_cell_volume   1019.42738175
_cell_formula_units_Z   4
loop_
 _symmetry_equiv_pos_site_id
 _symmetry_equiv_pos_as_xyz
  1  'x, y, z'
loop_
 _atom_site_type_symbol
 _atom_site_label
 _atom_site_symmetry_multiplicity
 _atom_site_fract_x
 _atom_site_fract_y
 _atom_site_fract_z
 _atom_site_occupancy
  Tb  Tb0  1  0.520296  0.319615  0.902233  1
  Tb  Tb1  1  0.020296  0.180385  0.597767  1
  Tb  Tb2  1  0.479704  0.680385  0.402233  1
  Tb  Tb3  1  0.979704  0.819615  0.097767  1
  Tb  Tb4  1  0.479704  0.680385  0.097767  1
  Tb  Tb5  1  0.979704  0.819615  0.402233  1
  Tb  Tb6  1  0.520296  0.319615  0.597767  1
  Tb  Tb7  1  0.020296  0.180385  0.902233  1
  Dy  Dy8  1  0.367705  0.835613  0.878405  1
  Dy  Dy9  1  0.867705  0.664387  0.621595  1
  Dy  Dy10  1  0.632295  0.164387  0.378405  1
  Dy  Dy11  1  0.132295  0.335613  0.121595  1
  Dy  Dy12  1  0.632295  0.164387  0.121595  1
  Dy  Dy13  1  0.132295  0.335613  0.378405  1
  Dy  Dy14  1  0.367705  0.835613  0.621595  1
  Dy  Dy15  1  0.867705  0.664387  0.878405  1
  Ho  Ho16  1  0.198282  0.502445  0.750000  1
  Ho  Ho17  1  0.698282  0.997555  0.750000  1
  Ho  Ho18  1  0.801718  0.497555  0.250000  1
  Ho  Ho19  1  0.301718  0.002445  0.250000  1
  Sn  Sn20  1  0.292115  0.034021  0.042253  1
  Sn  Sn21  1  0.792115  0.465979  0.457747  1
  Sn  Sn22  1  0.707885  0.965979  0.542253  1
  Sn  Sn23  1  0.207885  0.534021  0.957747  1
  Sn  Sn24  1  0.707885  0.965979  0.957747  1
  Sn  Sn25  1  0.207885  0.534021  0.542253  1
  Sn  Sn26  1  0.292115  0.034021  0.457747  1
  Sn  Sn27  1  0.792115  0.465979  0.042253  1
  Sn  Sn28  1  0.565149  0.619218  0.750000  1
  Sn  Sn29  1  0.065149  0.880782  0.750000  1
  Sn  Sn30  1  0.434851  0.380782  0.250000  1
  Sn  Sn31  1  0.934851  0.119218  0.250000  1
  Sn  Sn32  1  0.328006  0.145699  0.750000  1
  Sn  Sn33  1  0.828006  0.354301  0.750000  1
  Sn  Sn34  1  0.671994  0.854301  0.250000  1
  Sn  Sn35  1  0.171994  0.645699  0.250000  1
