# generated using pymatgen
data_Ti4Fe3Pt8Rh
_symmetry_space_group_name_H-M   'P 1'
_cell_length_a   5.49507700
_cell_length_b   5.49510769
_cell_length_c   8.98998700
_cell_angle_alpha   90.00000000
_cell_angle_beta   90.00000000
_cell_angle_gamma   119.99980925
_symmetry_Int_Tables_number   1
_chemical_formula_structural   Ti4Fe3Pt8Rh
_chemical_formula_sum   'Ti4 Fe3 Pt8 Rh1'
_cell_volume   235.09344505
_cell_formula_units_Z   1
loop_
 _symmetry_equiv_pos_site_id
 _symmetry_equiv_pos_as_xyz
  1  'x, y, z'
loop_
 _atom_site_type_symbol
 _atom_site_label
 _atom_site_symmetry_multiplicity
 _atom_site_fract_x
 _atom_site_fract_y
 _atom_site_fract_z
 _atom_site_occupancy
  Ti  Ti0  1  0.004911  0.009823  0.506296  1
  Ti  Ti1  1  0.004911  0.009823  0.993704  1
  Ti  Ti2  1  0.331811  0.663623  0.250000  1
  Ti  Ti3  1  0.666581  0.333161  0.750000  1
  Fe  Fe4  1  0.500664  0.001327  0.498682  1
  Fe  Fe5  1  0.500664  0.001327  0.001318  1
  Fe  Fe6  1  0.824537  0.649076  0.250000  1
  Pt  Pt7  1  0.503787  0.504669  0.495474  1
  Pt  Pt8  1  0.000881  0.504669  0.495474  1
  Pt  Pt9  1  0.503787  0.504669  0.004526  1
  Pt  Pt10  1  0.000881  0.504669  0.004526  1
  Pt  Pt11  1  0.325224  0.145932  0.250000  1
  Pt  Pt12  1  0.820707  0.145932  0.250000  1
  Pt  Pt13  1  0.665869  0.841382  0.750000  1
  Pt  Pt14  1  0.175514  0.841382  0.750000  1
  Rh  Rh15  1  0.169268  0.338535  0.750000  1
