# generated using pymatgen
data_MnNi(BW)6
_symmetry_space_group_name_H-M   'P 1'
_cell_length_a   4.55401671
_cell_length_b   4.55401705
_cell_length_c   10.88199929
_cell_angle_alpha   89.76441822
_cell_angle_beta   90.23558319
_cell_angle_gamma   139.19806565
_symmetry_Int_Tables_number   1
_chemical_formula_structural   MnNi(BW)6
_chemical_formula_sum   'Mn1 Ni1 B6 W6'
_cell_volume   147.46997154
_cell_formula_units_Z   1
loop_
 _symmetry_equiv_pos_site_id
 _symmetry_equiv_pos_as_xyz
  1  'x, y, z'
loop_
 _atom_site_type_symbol
 _atom_site_label
 _atom_site_symmetry_multiplicity
 _atom_site_fract_x
 _atom_site_fract_y
 _atom_site_fract_z
 _atom_site_occupancy
  Mn  Mn0  1  0.500000  0.500000  0.500000  1
  Ni  Ni1  1  0.500000  0.500000  0.000000  1
  B  B2  1  0.090505  0.909495  0.393885  1
  B  B3  1  0.909495  0.090505  0.606115  1
  B  B4  1  0.088814  0.911186  0.104059  1
  B  B5  1  0.911186  0.088814  0.895941  1
  B  B6  1  0.209486  0.790514  0.248982  1
  B  B7  1  0.790514  0.209486  0.751018  1
  W  W8  1  0.791186  0.208814  0.392591  1
  W  W9  1  0.208814  0.791186  0.607409  1
  W  W10  1  0.788404  0.211596  0.107659  1
  W  W11  1  0.211596  0.788404  0.892341  1
  W  W12  1  0.502920  0.497080  0.249317  1
  W  W13  1  0.497080  0.502920  0.750683  1
