# generated using pymatgen
data_DyHo19Ir7Ru5
_symmetry_space_group_name_H-M   'P 1'
_cell_length_a   10.79313600
_cell_length_b   10.79281670
_cell_length_c   6.38305305
_cell_angle_alpha   89.95444538
_cell_angle_beta   89.96590211
_cell_angle_gamma   90.03950613
_symmetry_Int_Tables_number   1
_chemical_formula_structural   DyHo19Ir7Ru5
_chemical_formula_sum   'Dy1 Ho19 Ir7 Ru5'
_cell_volume   743.55070038
_cell_formula_units_Z   1
loop_
 _symmetry_equiv_pos_site_id
 _symmetry_equiv_pos_as_xyz
  1  'x, y, z'
loop_
 _atom_site_type_symbol
 _atom_site_label
 _atom_site_symmetry_multiplicity
 _atom_site_fract_x
 _atom_site_fract_y
 _atom_site_fract_z
 _atom_site_occupancy
  Dy  Dy0  1  0.293443  0.086352  0.377991  1
  Ho  Ho1  1  0.293000  0.913435  0.878301  1
  Ho  Ho2  1  0.707179  0.086685  0.878531  1
  Ho  Ho3  1  0.706918  0.913862  0.377342  1
  Ho  Ho4  1  0.586415  0.793654  0.878226  1
  Ho  Ho5  1  0.587333  0.206693  0.378357  1
  Ho  Ho6  1  0.413582  0.793402  0.378094  1
  Ho  Ho7  1  0.413486  0.206341  0.877556  1
  Ho  Ho8  1  0.206345  0.413632  0.621801  1
  Ho  Ho9  1  0.206444  0.586471  0.121905  1
  Ho  Ho10  1  0.793400  0.412803  0.121690  1
  Ho  Ho11  1  0.793727  0.586589  0.622436  1
  Ho  Ho12  1  0.913698  0.706377  0.121820  1
  Ho  Ho13  1  0.913291  0.292827  0.621438  1
  Ho  Ho14  1  0.086455  0.706981  0.621733  1
  Ho  Ho15  1  0.086056  0.293177  0.122598  1
  Ho  Ho16  1  0.999438  0.000912  0.499524  1
  Ho  Ho17  1  0.999002  0.000427  0.000497  1
  Ho  Ho18  1  0.500154  0.500083  0.000113  1
  Ho  Ho19  1  0.499936  0.499866  0.499896  1
  Ir  Ir20  1  0.846850  0.846525  0.749781  1
  Ir  Ir21  1  0.153318  0.153217  0.750629  1
  Ir  Ir22  1  0.153038  0.846734  0.249902  1
  Ir  Ir23  1  0.652105  0.347892  0.750002  1
  Ir  Ir24  1  0.653018  0.652723  0.249761  1
  Ir  Ir25  1  0.347343  0.347220  0.250103  1
  Ir  Ir26  1  0.347362  0.652651  0.749998  1
  Ru  Ru27  1  0.847602  0.152392  0.249985  1
  Ru  Ru28  1  0.500278  0.000162  0.121778  1
  Ru  Ru29  1  0.500017  0.999931  0.622222  1
  Ru  Ru30  1  0.999979  0.500137  0.877969  1
  Ru  Ru31  1  0.999788  0.499846  0.378022  1
