# generated using pymatgen
data_Tm3Se4
_symmetry_space_group_name_H-M   'P 1'
_cell_length_a   4.01695600
_cell_length_b   6.91440278
_cell_length_c   6.91683635
_cell_angle_alpha   71.61378917
_cell_angle_beta   90.00000000
_cell_angle_gamma   90.00000000
_symmetry_Int_Tables_number   1
_chemical_formula_structural   Tm3Se4
_chemical_formula_sum   'Tm3 Se4'
_cell_volume   182.30705380
_cell_formula_units_Z   1
loop_
 _symmetry_equiv_pos_site_id
 _symmetry_equiv_pos_as_xyz
  1  'x, y, z'
loop_
 _atom_site_type_symbol
 _atom_site_label
 _atom_site_symmetry_multiplicity
 _atom_site_fract_x
 _atom_site_fract_y
 _atom_site_fract_z
 _atom_site_occupancy
  Tm  Tm0  1  0.000000  0.500000  0.500000  1
  Tm  Tm1  1  0.000000  0.000000  0.000000  1
  Tm  Tm2  1  0.500000  0.500000  0.000000  1
  Se  Se3  1  0.500000  0.755205  0.255244  1
  Se  Se4  1  0.000000  0.253668  0.246360  1
  Se  Se5  1  0.500000  0.244795  0.744756  1
  Se  Se6  1  0.000000  0.746332  0.753640  1
