# generated using pymatgen
data_Y20Cd6CoNi
_symmetry_space_group_name_H-M   'P 1'
_cell_length_a   9.67097500
_cell_length_b   9.67097559
_cell_length_c   9.79120200
_cell_angle_alpha   90.00000000
_cell_angle_beta   90.00000000
_cell_angle_gamma   119.99999456
_symmetry_Int_Tables_number   1
_chemical_formula_structural   Y20Cd6CoNi
_chemical_formula_sum   'Y20 Cd6 Co1 Ni1'
_cell_volume   793.06213299
_cell_formula_units_Z   1
loop_
 _symmetry_equiv_pos_site_id
 _symmetry_equiv_pos_as_xyz
  1  'x, y, z'
loop_
 _atom_site_type_symbol
 _atom_site_label
 _atom_site_symmetry_multiplicity
 _atom_site_fract_x
 _atom_site_fract_y
 _atom_site_fract_z
 _atom_site_occupancy
  Y  Y0  1  0.000000  0.000000  0.499778  1
  Y  Y1  1  0.000000  0.000000  0.000222  1
  Y  Y2  1  0.542795  0.457205  0.250000  1
  Y  Y3  1  0.542795  0.085589  0.250000  1
  Y  Y4  1  0.914411  0.457205  0.250000  1
  Y  Y5  1  0.456433  0.543567  0.750000  1
  Y  Y6  1  0.456433  0.912866  0.750000  1
  Y  Y7  1  0.087134  0.543567  0.750000  1
  Y  Y8  1  0.211596  0.788404  0.435777  1
  Y  Y9  1  0.211596  0.423193  0.435777  1
  Y  Y10  1  0.576807  0.788404  0.435777  1
  Y  Y11  1  0.789455  0.210545  0.563054  1
  Y  Y12  1  0.789455  0.578909  0.563054  1
  Y  Y13  1  0.421091  0.210545  0.563054  1
  Y  Y14  1  0.789455  0.210545  0.936946  1
  Y  Y15  1  0.789455  0.578909  0.936946  1
  Y  Y16  1  0.421091  0.210545  0.936946  1
  Y  Y17  1  0.211596  0.788404  0.064223  1
  Y  Y18  1  0.211596  0.423193  0.064223  1
  Y  Y19  1  0.576807  0.788404  0.064223  1
  Cd  Cd20  1  0.884495  0.115505  0.250000  1
  Cd  Cd21  1  0.884495  0.768991  0.250000  1
  Cd  Cd22  1  0.231009  0.115505  0.250000  1
  Cd  Cd23  1  0.115684  0.884316  0.750000  1
  Cd  Cd24  1  0.115684  0.231368  0.750000  1
  Cd  Cd25  1  0.768632  0.884316  0.750000  1
  Co  Co26  1  0.333333  0.666667  0.250000  1
  Ni  Ni27  1  0.666667  0.333333  0.750000  1
