# generated using pymatgen
data_Dy4Si12Tc3Ni17
_symmetry_space_group_name_H-M   'P 1'
_cell_length_a   3.74841100
_cell_length_b   10.67675699
_cell_length_c   12.07712244
_cell_angle_alpha   89.42098845
_cell_angle_beta   90.00000000
_cell_angle_gamma   90.00000000
_symmetry_Int_Tables_number   1
_chemical_formula_structural   Dy4Si12Tc3Ni17
_chemical_formula_sum   'Dy4 Si12 Tc3 Ni17'
_cell_volume   483.31230777
_cell_formula_units_Z   1
loop_
 _symmetry_equiv_pos_site_id
 _symmetry_equiv_pos_as_xyz
  1  'x, y, z'
loop_
 _atom_site_type_symbol
 _atom_site_label
 _atom_site_symmetry_multiplicity
 _atom_site_fract_x
 _atom_site_fract_y
 _atom_site_fract_z
 _atom_site_occupancy
  Dy  Dy0  1  0.250000  0.582154  0.701828  1
  Dy  Dy1  1  0.250000  0.911873  0.204645  1
  Dy  Dy2  1  0.750000  0.413896  0.296938  1
  Dy  Dy3  1  0.750000  0.085734  0.794127  1
  Si  Si4  1  0.250000  0.413071  0.111182  1
  Si  Si5  1  0.250000  0.092536  0.605606  1
  Si  Si6  1  0.750000  0.586398  0.889062  1
  Si  Si7  1  0.750000  0.912199  0.388532  1
  Si  Si8  1  0.250000  0.270899  0.869655  1
  Si  Si9  1  0.250000  0.228980  0.376344  1
  Si  Si10  1  0.750000  0.728332  0.130132  1
  Si  Si11  1  0.750000  0.773427  0.629365  1
  Si  Si12  1  0.250000  0.597597  0.391997  1
  Si  Si13  1  0.250000  0.902139  0.890490  1
  Si  Si14  1  0.750000  0.396504  0.606990  1
  Si  Si15  1  0.750000  0.097756  0.110779  1
  Tc  Tc16  1  0.250000  0.706696  0.989517  1
  Tc  Tc17  1  0.250000  0.791422  0.489800  1
  Tc  Tc18  1  0.750000  0.291779  0.010623  1
  Ni  Ni19  1  0.750000  0.211630  0.510348  1
  Ni  Ni20  1  0.250000  0.407374  0.489394  1
  Ni  Ni21  1  0.250000  0.091276  0.990599  1
  Ni  Ni22  1  0.750000  0.591565  0.510564  1
  Ni  Ni23  1  0.750000  0.909024  0.010039  1
  Ni  Ni24  1  0.250000  0.211687  0.180306  1
  Ni  Ni25  1  0.250000  0.285426  0.678887  1
  Ni  Ni26  1  0.750000  0.787439  0.821121  1
  Ni  Ni27  1  0.750000  0.712526  0.322696  1
  Ni  Ni28  1  0.250000  0.890193  0.697420  1
  Ni  Ni29  1  0.250000  0.612441  0.200306  1
  Ni  Ni30  1  0.750000  0.115885  0.303939  1
  Ni  Ni31  1  0.750000  0.387379  0.800286  1
  Ni  Ni32  1  0.250000  0.468953  0.928728  1
  Ni  Ni33  1  0.250000  0.029472  0.427550  1
  Ni  Ni34  1  0.750000  0.530418  0.071758  1
  Ni  Ni35  1  0.750000  0.973916  0.568442  1
