# generated using pymatgen
data_MgSc6BBr12
_symmetry_space_group_name_H-M   'P 1'
_cell_length_a   8.65573386
_cell_length_b   8.65573430
_cell_length_c   8.65573264
_cell_angle_alpha   107.25472951
_cell_angle_beta   107.25473951
_cell_angle_gamma   107.25473519
_symmetry_Int_Tables_number   1
_chemical_formula_structural   MgSc6BBr12
_chemical_formula_sum   'Mg1 Sc6 B1 Br12'
_cell_volume   536.28187491
_cell_formula_units_Z   1
loop_
 _symmetry_equiv_pos_site_id
 _symmetry_equiv_pos_as_xyz
  1  'x, y, z'
loop_
 _atom_site_type_symbol
 _atom_site_label
 _atom_site_symmetry_multiplicity
 _atom_site_fract_x
 _atom_site_fract_y
 _atom_site_fract_z
 _atom_site_occupancy
  Mg  Mg0  1  0.500000  0.500000  0.500000  1
  Sc  Sc1  1  0.096986  0.027293  0.296327  1
  Sc  Sc2  1  0.027293  0.296327  0.096986  1
  Sc  Sc3  1  0.296327  0.096986  0.027293  1
  Sc  Sc4  1  0.903013  0.972707  0.703673  1
  Sc  Sc5  1  0.972707  0.703673  0.903013  1
  Sc  Sc6  1  0.703673  0.903013  0.972707  1
  B  B7  1  0.000000  0.000000  0.000000  1
  Br  Br8  1  0.074125  0.687828  0.221891  1
  Br  Br9  1  0.687828  0.221891  0.074125  1
  Br  Br10  1  0.221891  0.074125  0.687828  1
  Br  Br11  1  0.925875  0.312172  0.778109  1
  Br  Br12  1  0.312172  0.778109  0.925875  1
  Br  Br13  1  0.778109  0.925875  0.312172  1
  Br  Br14  1  0.455539  0.157792  0.381204  1
  Br  Br15  1  0.157792  0.381204  0.455539  1
  Br  Br16  1  0.381204  0.455539  0.157792  1
  Br  Br17  1  0.544461  0.842208  0.618796  1
  Br  Br18  1  0.842208  0.618796  0.544461  1
  Br  Br19  1  0.618796  0.544461  0.842208  1
