# generated using pymatgen
data_Co6Ni2RhSe8
_symmetry_space_group_name_H-M   'P 1'
_cell_length_a   7.41647499
_cell_length_b   7.41647530
_cell_length_c   7.41124500
_cell_angle_alpha   60.02332152
_cell_angle_beta   60.02332015
_cell_angle_gamma   60.03705119
_symmetry_Int_Tables_number   1
_chemical_formula_structural   Co6Ni2RhSe8
_chemical_formula_sum   'Co6 Ni2 Rh1 Se8'
_cell_volume   288.43357115
_cell_formula_units_Z   1
loop_
 _symmetry_equiv_pos_site_id
 _symmetry_equiv_pos_as_xyz
  1  'x, y, z'
loop_
 _atom_site_type_symbol
 _atom_site_label
 _atom_site_symmetry_multiplicity
 _atom_site_fract_x
 _atom_site_fract_y
 _atom_site_fract_z
 _atom_site_occupancy
  Co  Co0  1  0.123612  0.123612  0.630871  1
  Co  Co1  1  0.123612  0.123612  0.121905  1
  Co  Co2  1  0.368278  0.876883  0.877420  1
  Co  Co3  1  0.876883  0.368278  0.877420  1
  Co  Co4  1  0.875933  0.875933  0.371393  1
  Co  Co5  1  0.875933  0.875933  0.876741  1
  Ni  Ni6  1  0.625839  0.125728  0.124217  1
  Ni  Ni7  1  0.125728  0.625839  0.124217  1
  Rh  Rh8  1  0.501842  0.501842  0.498158  1
  Se  Se9  1  0.244641  0.244641  0.255359  1
  Se  Se10  1  0.747982  0.747982  0.752018  1
  Se  Se11  1  0.746336  0.258052  0.258428  1
  Se  Se12  1  0.746336  0.258052  0.737185  1
  Se  Se13  1  0.742077  0.742077  0.257923  1
  Se  Se14  1  0.258052  0.746336  0.737185  1
  Se  Se15  1  0.258052  0.746336  0.258428  1
  Se  Se16  1  0.258866  0.258866  0.741134  1
