# generated using pymatgen
data_Tb3HoAl18(FePd2)2
_symmetry_space_group_name_H-M   'P 1'
_cell_length_a   7.57276400
_cell_length_b   7.57325710
_cell_length_c   9.44331600
_cell_angle_alpha   90.00000000
_cell_angle_beta   90.00000000
_cell_angle_gamma   119.78648232
_symmetry_Int_Tables_number   1
_chemical_formula_structural   Tb3HoAl18(FePd2)2
_chemical_formula_sum   'Tb3 Ho1 Al18 Fe2 Pd4'
_cell_volume   470.02684938
_cell_formula_units_Z   1
loop_
 _symmetry_equiv_pos_site_id
 _symmetry_equiv_pos_as_xyz
  1  'x, y, z'
loop_
 _atom_site_type_symbol
 _atom_site_label
 _atom_site_symmetry_multiplicity
 _atom_site_fract_x
 _atom_site_fract_y
 _atom_site_fract_z
 _atom_site_occupancy
  Tb  Tb0  1  0.993293  0.663897  0.250000  1
  Tb  Tb1  1  0.006792  0.336067  0.750000  1
  Tb  Tb2  1  0.663881  0.993259  0.250000  1
  Ho  Ho3  1  0.335971  0.006757  0.750000  1
  Al  Al4  1  0.111914  0.111915  0.250000  1
  Al  Al5  1  0.888345  0.888182  0.750000  1
  Al  Al6  1  0.999287  0.322238  0.075074  1
  Al  Al7  1  0.000940  0.677971  0.924895  1
  Al  Al8  1  0.000940  0.677971  0.575105  1
  Al  Al9  1  0.322246  0.999278  0.425094  1
  Al  Al10  1  0.999287  0.322238  0.424926  1
  Al  Al11  1  0.677592  0.000729  0.575089  1
  Al  Al12  1  0.677592  0.000729  0.924911  1
  Al  Al13  1  0.322246  0.999278  0.074906  1
  Al  Al14  1  0.322581  0.322406  0.552597  1
  Al  Al15  1  0.677432  0.677435  0.447514  1
  Al  Al16  1  0.677432  0.677435  0.052486  1
  Al  Al17  1  0.322581  0.322406  0.947403  1
  Al  Al18  1  0.340106  0.542708  0.250000  1
  Al  Al19  1  0.659676  0.456985  0.750000  1
  Al  Al20  1  0.542695  0.340085  0.250000  1
  Al  Al21  1  0.457149  0.659946  0.750000  1
  Fe  Fe22  1  0.000096  0.000048  0.999856  1
  Fe  Fe23  1  0.000096  0.000048  0.500144  1
  Pd  Pd24  1  0.672108  0.327734  0.999924  1
  Pd  Pd25  1  0.327807  0.672261  0.999929  1
  Pd  Pd26  1  0.327807  0.672261  0.500071  1
  Pd  Pd27  1  0.672108  0.327734  0.500076  1
