# generated using pymatgen
data_Dy2ErLu3FeSb2
_symmetry_space_group_name_H-M   'P 1'
_cell_length_a   8.08209000
_cell_length_b   8.08208971
_cell_length_c   4.11035700
_cell_angle_alpha   90.00000000
_cell_angle_beta   90.00000000
_cell_angle_gamma   119.99977317
_symmetry_Int_Tables_number   1
_chemical_formula_structural   Dy2ErLu3FeSb2
_chemical_formula_sum   'Dy2 Er1 Lu3 Fe1 Sb2'
_cell_volume   232.51903767
_cell_formula_units_Z   1
loop_
 _symmetry_equiv_pos_site_id
 _symmetry_equiv_pos_as_xyz
  1  'x, y, z'
loop_
 _atom_site_type_symbol
 _atom_site_label
 _atom_site_symmetry_multiplicity
 _atom_site_fract_x
 _atom_site_fract_y
 _atom_site_fract_z
 _atom_site_occupancy
  Dy  Dy0  1  0.607464  0.999829  0.000000  1
  Dy  Dy1  1  0.999829  0.607464  0.000000  1
  Er  Er2  1  0.391886  0.391886  0.000000  1
  Lu  Lu3  1  0.231748  0.000425  0.500000  1
  Lu  Lu4  1  0.000425  0.231748  0.500000  1
  Lu  Lu5  1  0.768647  0.768647  0.500000  1
  Fe  Fe6  1  0.000853  0.000853  0.000000  1
  Sb  Sb7  1  0.333357  0.665791  0.500000  1
  Sb  Sb8  1  0.665791  0.333357  0.500000  1
