# generated using pymatgen
data_Tb3CeIn2Ir2Ru
_symmetry_space_group_name_H-M   'P 1'
_cell_length_a   7.68335403
_cell_length_b   7.49774192
_cell_length_c   4.00254300
_cell_angle_alpha   90.00000000
_cell_angle_beta   90.00000000
_cell_angle_gamma   119.20403804
_symmetry_Int_Tables_number   1
_chemical_formula_structural   Tb3CeIn2Ir2Ru
_chemical_formula_sum   'Tb3 Ce1 In2 Ir2 Ru1'
_cell_volume   201.26845286
_cell_formula_units_Z   1
loop_
 _symmetry_equiv_pos_site_id
 _symmetry_equiv_pos_as_xyz
  1  'x, y, z'
loop_
 _atom_site_type_symbol
 _atom_site_label
 _atom_site_symmetry_multiplicity
 _atom_site_fract_x
 _atom_site_fract_y
 _atom_site_fract_z
 _atom_site_occupancy
  Tb  Tb0  1  0.440137  0.410506  0.000000  1
  Tb  Tb1  1  0.559863  0.970368  0.000000  1
  Tb  Tb2  1  0.000000  0.620672  0.000000  1
  Ce  Ce3  1  0.000000  0.248732  0.500000  1
  In  In4  1  0.738901  0.746673  0.500000  1
  In  In5  1  0.261099  0.007772  0.500000  1
  Ir  Ir6  1  0.320082  0.652389  0.500000  1
  Ir  Ir7  1  0.679918  0.332306  0.500000  1
  Ru  Ru8  1  0.000000  0.010583  0.000000  1
