# generated using pymatgen
data_Hf4BeNb6Si7
_symmetry_space_group_name_H-M   'P 1'
_cell_length_a   6.63731003
_cell_length_b   6.80475115
_cell_length_c   13.06109200
_cell_angle_alpha   90.00000000
_cell_angle_beta   90.00000000
_cell_angle_gamma   89.78721497
_symmetry_Int_Tables_number   1
_chemical_formula_structural   Hf4BeNb6Si7
_chemical_formula_sum   'Hf8 Be2 Nb12 Si14'
_cell_volume   589.90332655
_cell_formula_units_Z   2
loop_
 _symmetry_equiv_pos_site_id
 _symmetry_equiv_pos_as_xyz
  1  'x, y, z'
loop_
 _atom_site_type_symbol
 _atom_site_label
 _atom_site_symmetry_multiplicity
 _atom_site_fract_x
 _atom_site_fract_y
 _atom_site_fract_z
 _atom_site_occupancy
  Hf  Hf0  1  0.997364  0.171468  0.093866  1
  Hf  Hf1  1  0.002636  0.828532  0.906134  1
  Hf  Hf2  1  0.501205  0.674440  0.905083  1
  Hf  Hf3  1  0.002636  0.828532  0.593866  1
  Hf  Hf4  1  0.498795  0.325560  0.094917  1
  Hf  Hf5  1  0.997364  0.171468  0.406134  1
  Hf  Hf6  1  0.498795  0.325560  0.405083  1
  Hf  Hf7  1  0.501205  0.674440  0.594917  1
  Be  Be8  1  0.043871  0.113206  0.750000  1
  Be  Be9  1  0.956129  0.886794  0.250000  1
  Nb  Nb10  1  0.161972  0.495025  0.750000  1
  Nb  Nb11  1  0.838028  0.504975  0.250000  1
  Nb  Nb12  1  0.335817  0.995379  0.250000  1
  Nb  Nb13  1  0.664183  0.004621  0.750000  1
  Nb  Nb14  1  0.333123  0.170555  0.624436  1
  Nb  Nb15  1  0.666877  0.829445  0.375564  1
  Nb  Nb16  1  0.159311  0.675544  0.374321  1
  Nb  Nb17  1  0.666877  0.829445  0.124436  1
  Nb  Nb18  1  0.840689  0.324456  0.625679  1
  Nb  Nb19  1  0.333123  0.170555  0.875564  1
  Nb  Nb20  1  0.840689  0.324456  0.874321  1
  Nb  Nb21  1  0.159311  0.675544  0.125679  1
  Si  Si22  1  0.461021  0.613111  0.250000  1
  Si  Si23  1  0.538979  0.386889  0.750000  1
  Si  Si24  1  0.284051  0.870109  0.750000  1
  Si  Si25  1  0.715949  0.129891  0.250000  1
  Si  Si26  1  0.204528  0.359932  0.250000  1
  Si  Si27  1  0.795472  0.640068  0.750000  1
  Si  Si28  1  0.171465  0.464876  0.536942  1
  Si  Si29  1  0.828535  0.535124  0.463058  1
  Si  Si30  1  0.328823  0.965062  0.461236  1
  Si  Si31  1  0.828535  0.535124  0.036942  1
  Si  Si32  1  0.671177  0.034938  0.538764  1
  Si  Si33  1  0.171465  0.464876  0.963058  1
  Si  Si34  1  0.671177  0.034938  0.961236  1
  Si  Si35  1  0.328823  0.965062  0.038764  1
