# generated using pymatgen
data_Dy3Mg3HgRuRh
_symmetry_space_group_name_H-M   'P 1'
_cell_length_a   7.54975500
_cell_length_b   7.54975508
_cell_length_c   4.06385700
_cell_angle_alpha   90.00000000
_cell_angle_beta   90.00000000
_cell_angle_gamma   119.99999528
_symmetry_Int_Tables_number   1
_chemical_formula_structural   Dy3Mg3HgRuRh
_chemical_formula_sum   'Dy3 Mg3 Hg1 Ru1 Rh1'
_cell_volume   200.60178404
_cell_formula_units_Z   1
loop_
 _symmetry_equiv_pos_site_id
 _symmetry_equiv_pos_as_xyz
  1  'x, y, z'
loop_
 _atom_site_type_symbol
 _atom_site_label
 _atom_site_symmetry_multiplicity
 _atom_site_fract_x
 _atom_site_fract_y
 _atom_site_fract_z
 _atom_site_occupancy
  Dy  Dy0  1  0.037048  0.618549  0.500000  1
  Dy  Dy1  1  0.581500  0.962952  0.500000  1
  Dy  Dy2  1  0.381451  0.418500  0.500000  1
  Mg  Mg3  1  0.998218  0.239687  0.000000  1
  Mg  Mg4  1  0.241469  0.001782  0.000000  1
  Mg  Mg5  1  0.760313  0.758531  0.000000  1
  Hg  Hg6  1  0.666667  0.333333  0.000000  1
  Ru  Ru7  1  0.333333  0.666667  0.000000  1
  Rh  Rh8  1  0.000000  0.000000  0.500000  1
