# generated using pymatgen
data_Ti2P2RuPt
_symmetry_space_group_name_H-M   'P 1'
_cell_length_a   3.73176500
_cell_length_b   6.30855900
_cell_length_c   7.23565900
_cell_angle_alpha   90.00000000
_cell_angle_beta   90.00000000
_cell_angle_gamma   90.00000000
_symmetry_Int_Tables_number   1
_chemical_formula_structural   Ti2P2RuPt
_chemical_formula_sum   'Ti4 P4 Ru2 Pt2'
_cell_volume   170.34231598
_cell_formula_units_Z   2
loop_
 _symmetry_equiv_pos_site_id
 _symmetry_equiv_pos_as_xyz
  1  'x, y, z'
loop_
 _atom_site_type_symbol
 _atom_site_label
 _atom_site_symmetry_multiplicity
 _atom_site_fract_x
 _atom_site_fract_y
 _atom_site_fract_z
 _atom_site_occupancy
  Ti  Ti0  1  0.750000  0.529318  0.328803  1
  Ti  Ti1  1  0.250000  0.974822  0.823235  1
  Ti  Ti2  1  0.750000  0.029318  0.171197  1
  Ti  Ti3  1  0.250000  0.474822  0.676765  1
  P  P4  1  0.250000  0.750893  0.111194  1
  P  P5  1  0.250000  0.250893  0.388806  1
  P  P6  1  0.750000  0.260090  0.862717  1
  P  P7  1  0.750000  0.760090  0.637283  1
  Ru  Ru8  1  0.750000  0.139182  0.556033  1
  Ru  Ru9  1  0.750000  0.639182  0.943967  1
  Pt  Pt10  1  0.250000  0.345694  0.072787  1
  Pt  Pt11  1  0.250000  0.845694  0.427213  1
