# generated using pymatgen
data_SmP12IrOs3
_symmetry_space_group_name_H-M   'P 1'
_cell_length_a   7.04228332
_cell_length_b   7.05271947
_cell_length_c   7.04228300
_cell_angle_alpha   109.50124849
_cell_angle_beta   109.44118610
_cell_angle_gamma   109.50123950
_symmetry_Int_Tables_number   1
_chemical_formula_structural   SmP12IrOs3
_chemical_formula_sum   'Sm1 P12 Ir1 Os3'
_cell_volume   269.15385437
_cell_formula_units_Z   1
loop_
 _symmetry_equiv_pos_site_id
 _symmetry_equiv_pos_as_xyz
  1  'x, y, z'
loop_
 _atom_site_type_symbol
 _atom_site_label
 _atom_site_symmetry_multiplicity
 _atom_site_fract_x
 _atom_site_fract_y
 _atom_site_fract_z
 _atom_site_occupancy
  Sm  Sm0  1  0.000000  0.000000  0.000000  1
  P  P1  1  0.354903  0.211926  0.857384  1
  P  P2  1  0.645097  0.788074  0.142616  1
  P  P3  1  0.642475  0.502681  0.856379  1
  P  P4  1  0.357525  0.497319  0.143621  1
  P  P5  1  0.213904  0.860206  0.357525  1
  P  P6  1  0.786096  0.139794  0.642475  1
  P  P7  1  0.502481  0.857023  0.645097  1
  P  P8  1  0.497519  0.142977  0.354903  1
  P  P9  1  0.856379  0.353698  0.213904  1
  P  P10  1  0.143621  0.646302  0.786096  1
  P  P11  1  0.857384  0.645458  0.502481  1
  P  P12  1  0.142616  0.354542  0.497519  1
  Ir  Ir13  1  0.000000  0.500000  0.000000  1
  Os  Os14  1  0.000000  0.000000  0.500000  1
  Os  Os15  1  0.500000  0.000000  0.000000  1
  Os  Os16  1  0.500000  0.500000  0.500000  1
