# generated using pymatgen
data_RbDy3S5
_symmetry_space_group_name_H-M   'P 1'
_cell_length_a   4.00213300
_cell_length_b   11.88604700
_cell_length_c   21.31336400
_cell_angle_alpha   90.00000000
_cell_angle_beta   90.00000000
_cell_angle_gamma   90.00000000
_symmetry_Int_Tables_number   1
_chemical_formula_structural   RbDy3S5
_chemical_formula_sum   'Rb4 Dy12 S20'
_cell_volume   1013.86694133
_cell_formula_units_Z   4
loop_
 _symmetry_equiv_pos_site_id
 _symmetry_equiv_pos_as_xyz
  1  'x, y, z'
loop_
 _atom_site_type_symbol
 _atom_site_label
 _atom_site_symmetry_multiplicity
 _atom_site_fract_x
 _atom_site_fract_y
 _atom_site_fract_z
 _atom_site_occupancy
  Rb  Rb0  1  0.250000  0.848988  0.098302  1
  Rb  Rb1  1  0.750000  0.151012  0.901698  1
  Rb  Rb2  1  0.750000  0.348988  0.401698  1
  Rb  Rb3  1  0.250000  0.651012  0.598302  1
  Dy  Dy4  1  0.750000  0.801278  0.827222  1
  Dy  Dy5  1  0.250000  0.198722  0.172778  1
  Dy  Dy6  1  0.250000  0.301278  0.672778  1
  Dy  Dy7  1  0.750000  0.698722  0.327222  1
  Dy  Dy8  1  0.250000  0.959677  0.697519  1
  Dy  Dy9  1  0.750000  0.040323  0.302481  1
  Dy  Dy10  1  0.750000  0.459677  0.802481  1
  Dy  Dy11  1  0.250000  0.540323  0.197519  1
  Dy  Dy12  1  0.750000  0.388365  0.051775  1
  Dy  Dy13  1  0.250000  0.611635  0.948225  1
  Dy  Dy14  1  0.250000  0.888365  0.448225  1
  Dy  Dy15  1  0.750000  0.111635  0.551775  1
  S  S16  1  0.250000  0.951533  0.569174  1
  S  S17  1  0.750000  0.048467  0.430826  1
  S  S18  1  0.750000  0.451533  0.930826  1
  S  S19  1  0.250000  0.548467  0.069174  1
  S  S20  1  0.750000  0.765874  0.953837  1
  S  S21  1  0.250000  0.234126  0.046163  1
  S  S22  1  0.250000  0.265874  0.546163  1
  S  S23  1  0.750000  0.734126  0.453837  1
  S  S24  1  0.250000  0.952554  0.825436  1
  S  S25  1  0.750000  0.047446  0.174564  1
  S  S26  1  0.750000  0.452554  0.674564  1
  S  S27  1  0.250000  0.547446  0.325436  1
  S  S28  1  0.750000  0.128964  0.681844  1
  S  S29  1  0.250000  0.871036  0.318156  1
  S  S30  1  0.250000  0.628964  0.818156  1
  S  S31  1  0.750000  0.371036  0.181844  1
  S  S32  1  0.750000  0.690236  0.199407  1
  S  S33  1  0.250000  0.309764  0.800593  1
  S  S34  1  0.250000  0.190236  0.300593  1
  S  S35  1  0.750000  0.809764  0.699407  1
