# generated using pymatgen
data_Er3Tm7Si5Sn
_symmetry_space_group_name_H-M   'P 1'
_cell_length_a   8.42700314
_cell_length_b   8.42831607
_cell_length_c   6.28231900
_cell_angle_alpha   90.00000000
_cell_angle_beta   90.00000000
_cell_angle_gamma   120.19688059
_symmetry_Int_Tables_number   1
_chemical_formula_structural   Er3Tm7Si5Sn
_chemical_formula_sum   'Er3 Tm7 Si5 Sn1'
_cell_volume   385.65553261
_cell_formula_units_Z   1
loop_
 _symmetry_equiv_pos_site_id
 _symmetry_equiv_pos_as_xyz
  1  'x, y, z'
loop_
 _atom_site_type_symbol
 _atom_site_label
 _atom_site_symmetry_multiplicity
 _atom_site_fract_x
 _atom_site_fract_y
 _atom_site_fract_z
 _atom_site_occupancy
  Er  Er0  1  0.765751  0.765724  0.250000  1
  Er  Er1  1  0.240500  0.240464  0.750000  1
  Er  Er2  1  0.756691  0.998838  0.750000  1
  Tm  Tm3  1  0.673667  0.331629  0.502996  1
  Tm  Tm4  1  0.331562  0.673649  0.502995  1
  Tm  Tm5  1  0.331562  0.673649  0.997005  1
  Tm  Tm6  1  0.673667  0.331629  0.997004  1
  Tm  Tm7  1  0.240017  0.989358  0.250000  1
  Tm  Tm8  1  0.989382  0.240101  0.250000  1
  Tm  Tm9  1  0.998866  0.756588  0.750000  1
  Si  Si10  1  0.604180  0.998711  0.250000  1
  Si  Si11  1  0.998711  0.604165  0.250000  1
  Si  Si12  1  0.605703  0.605646  0.750000  1
  Si  Si13  1  0.393763  0.001274  0.750000  1
  Si  Si14  1  0.001338  0.393934  0.750000  1
  Sn  Sn15  1  0.394641  0.394642  0.250000  1
