# generated using pymatgen
data_HoTm2(Al3Ru)4
_symmetry_space_group_name_H-M   'P 1'
_cell_length_a   8.77421808
_cell_length_b   8.77421780
_cell_length_c   9.58428900
_cell_angle_alpha   90.00000000
_cell_angle_beta   90.00000000
_cell_angle_gamma   119.98417701
_symmetry_Int_Tables_number   1
_chemical_formula_structural   HoTm2(Al3Ru)4
_chemical_formula_sum   'Ho2 Tm4 Al24 Ru8'
_cell_volume   639.11143908
_cell_formula_units_Z   2
loop_
 _symmetry_equiv_pos_site_id
 _symmetry_equiv_pos_as_xyz
  1  'x, y, z'
loop_
 _atom_site_type_symbol
 _atom_site_label
 _atom_site_symmetry_multiplicity
 _atom_site_fract_x
 _atom_site_fract_y
 _atom_site_fract_z
 _atom_site_occupancy
  Ho  Ho0  1  0.806304  0.193696  0.750000  1
  Ho  Ho1  1  0.193696  0.806304  0.250000  1
  Tm  Tm2  1  0.388895  0.194587  0.750000  1
  Tm  Tm3  1  0.611105  0.805413  0.250000  1
  Tm  Tm4  1  0.805413  0.611105  0.750000  1
  Tm  Tm5  1  0.194587  0.388895  0.250000  1
  Al  Al6  1  0.666540  0.333460  0.982188  1
  Al  Al7  1  0.333460  0.666540  0.017812  1
  Al  Al8  1  0.333460  0.666540  0.482188  1
  Al  Al9  1  0.666540  0.333460  0.517812  1
  Al  Al10  1  0.837333  0.162667  0.421998  1
  Al  Al11  1  0.162667  0.837333  0.578002  1
  Al  Al12  1  0.325532  0.163003  0.422411  1
  Al  Al13  1  0.162667  0.837333  0.921998  1
  Al  Al14  1  0.674468  0.836997  0.577589  1
  Al  Al15  1  0.837333  0.162667  0.078002  1
  Al  Al16  1  0.836997  0.674468  0.422411  1
  Al  Al17  1  0.674468  0.836997  0.922411  1
  Al  Al18  1  0.163003  0.325532  0.577589  1
  Al  Al19  1  0.325532  0.163003  0.077589  1
  Al  Al20  1  0.163003  0.325532  0.922411  1
  Al  Al21  1  0.836997  0.674468  0.077589  1
  Al  Al22  1  0.438927  0.561073  0.750000  1
  Al  Al23  1  0.561073  0.438927  0.250000  1
  Al  Al24  1  0.122816  0.561694  0.750000  1
  Al  Al25  1  0.877184  0.438306  0.250000  1
  Al  Al26  1  0.438306  0.877184  0.750000  1
  Al  Al27  1  0.561694  0.122816  0.250000  1
  Al  Al28  1  0.000530  0.999470  0.750000  1
  Al  Al29  1  0.999470  0.000530  0.250000  1
  Ru  Ru30  1  0.500000  0.500000  0.000000  1
  Ru  Ru31  1  0.000000  0.500000  0.000000  1
  Ru  Ru32  1  0.500000  0.500000  0.500000  1
  Ru  Ru33  1  0.500000  0.000000  0.000000  1
  Ru  Ru34  1  0.000000  0.500000  0.500000  1
  Ru  Ru35  1  0.500000  0.000000  0.500000  1
  Ru  Ru36  1  0.000000  0.000000  0.000000  1
  Ru  Ru37  1  0.000000  0.000000  0.500000  1
