# generated using pymatgen
data_Na5Ir2PtN3
_symmetry_space_group_name_H-M   'P 1'
_cell_length_a   8.06485700
_cell_length_b   8.05344570
_cell_length_c   3.71865100
_cell_angle_alpha   90.00000000
_cell_angle_beta   90.00000000
_cell_angle_gamma   120.04688741
_symmetry_Int_Tables_number   1
_chemical_formula_structural   Na5Ir2PtN3
_chemical_formula_sum   'Na5 Ir2 Pt1 N3'
_cell_volume   209.06872673
_cell_formula_units_Z   1
loop_
 _symmetry_equiv_pos_site_id
 _symmetry_equiv_pos_as_xyz
  1  'x, y, z'
loop_
 _atom_site_type_symbol
 _atom_site_label
 _atom_site_symmetry_multiplicity
 _atom_site_fract_x
 _atom_site_fract_y
 _atom_site_fract_z
 _atom_site_occupancy
  Na  Na0  1  0.742482  0.000000  0.500001  1
  Na  Na1  1  0.258583  0.259811  0.500001  1
  Na  Na2  1  0.667570  0.334260  0.500001  1
  Na  Na3  1  0.333313  0.665741  0.500001  1
  Na  Na4  1  0.998772  0.740190  0.500001  1
  Ir  Ir5  1  0.999884  0.363137  0.000000  1
  Ir  Ir6  1  0.636748  0.636863  0.000000  1
  Pt  Pt7  1  0.362824  0.000000  0.000000  1
  N  N8  1  0.363751  0.000000  0.500001  1
  N  N9  1  0.999969  0.363866  0.500001  1
  N  N10  1  0.636105  0.636136  0.500001  1
