# generated using pymatgen
data_DyEr6Lu3(In2Pt)4
_symmetry_space_group_name_H-M   'P 1'
_cell_length_a   3.61700800
_cell_length_b   8.07474396
_cell_length_c   18.05280133
_cell_angle_alpha   89.97297684
_cell_angle_beta   90.00000000
_cell_angle_gamma   90.00000000
_symmetry_Int_Tables_number   1
_chemical_formula_structural   DyEr6Lu3(In2Pt)4
_chemical_formula_sum   'Dy1 Er6 Lu3 In8 Pt4'
_cell_volume   527.25752193
_cell_formula_units_Z   1
loop_
 _symmetry_equiv_pos_site_id
 _symmetry_equiv_pos_as_xyz
  1  'x, y, z'
loop_
 _atom_site_type_symbol
 _atom_site_label
 _atom_site_symmetry_multiplicity
 _atom_site_fract_x
 _atom_site_fract_y
 _atom_site_fract_z
 _atom_site_occupancy
  Dy  Dy0  1  0.000000  0.500227  0.500208  1
  Er  Er1  1  0.000000  0.617302  0.085299  1
  Er  Er2  1  0.000000  0.243491  0.220381  1
  Er  Er3  1  0.000000  0.757150  0.779874  1
  Er  Er4  1  0.000000  0.257157  0.719601  1
  Er  Er5  1  0.000000  0.742696  0.280546  1
  Er  Er6  1  0.000000  0.999601  0.999802  1
  Lu  Lu7  1  0.000000  0.117096  0.413955  1
  Lu  Lu8  1  0.000000  0.882956  0.586222  1
  Lu  Lu9  1  0.000000  0.383062  0.913456  1
  In  In10  1  0.500000  0.420872  0.351690  1
  In  In11  1  0.500000  0.579012  0.648805  1
  In  In12  1  0.500000  0.078305  0.851159  1
  In  In13  1  0.500000  0.923522  0.149130  1
  In  In14  1  0.500000  0.292831  0.065219  1
  In  In15  1  0.500000  0.705688  0.933495  1
  In  In16  1  0.500000  0.203114  0.565105  1
  In  In17  1  0.500000  0.797014  0.435115  1
  Pt  Pt18  1  0.500000  0.025939  0.305251  1
  Pt  Pt19  1  0.500000  0.974081  0.694895  1
  Pt  Pt20  1  0.500000  0.473395  0.804656  1
  Pt  Pt21  1  0.500000  0.525490  0.196134  1
