# generated using pymatgen
data_Ce2BeP7Ru11
_symmetry_space_group_name_H-M   'P 1'
_cell_length_a   9.50925636
_cell_length_b   9.39359524
_cell_length_c   3.91896100
_cell_angle_alpha   90.00000000
_cell_angle_beta   90.00000000
_cell_angle_gamma   120.56117580
_symmetry_Int_Tables_number   1
_chemical_formula_structural   Ce2BeP7Ru11
_chemical_formula_sum   'Ce2 Be1 P7 Ru11'
_cell_volume   301.43678730
_cell_formula_units_Z   1
loop_
 _symmetry_equiv_pos_site_id
 _symmetry_equiv_pos_as_xyz
  1  'x, y, z'
loop_
 _atom_site_type_symbol
 _atom_site_label
 _atom_site_symmetry_multiplicity
 _atom_site_fract_x
 _atom_site_fract_y
 _atom_site_fract_z
 _atom_site_occupancy
  Ce  Ce0  1  0.328706  0.663793  0.000000  1
  Ce  Ce1  1  0.004581  0.998464  0.500000  1
  Be  Be2  1  0.545890  0.501208  0.000000  1
  P  P3  1  0.982049  0.224367  0.000000  1
  P  P4  1  0.253674  0.028952  0.000000  1
  P  P5  1  0.774769  0.746571  0.000000  1
  P  P6  1  0.061488  0.616492  0.500000  1
  P  P7  1  0.553141  0.931017  0.500000  1
  P  P8  1  0.376013  0.443960  0.500000  1
  P  P9  1  0.658811  0.342220  0.000000  1
  Ru  Ru10  1  0.738389  0.973437  0.000000  1
  Ru  Ru11  1  0.259830  0.283840  0.000000  1
  Ru  Ru12  1  0.024565  0.760899  0.000000  1
  Ru  Ru13  1  0.931425  0.440128  0.000000  1
  Ru  Ru14  1  0.509892  0.060600  0.000000  1
  Ru  Ru15  1  0.101382  0.379616  0.500000  1
  Ru  Ru16  1  0.277498  0.891602  0.500000  1
  Ru  Ru17  1  0.613586  0.713894  0.500000  1
  Ru  Ru18  1  0.752035  0.208985  0.500000  1
  Ru  Ru19  1  0.465375  0.245415  0.500000  1
  Ru  Ru20  1  0.786899  0.544540  0.500000  1
