# generated using pymatgen
data_AlRe7Si13Rh
_symmetry_space_group_name_H-M   'P 1'
_cell_length_a   3.23060250
_cell_length_b   8.34466894
_cell_length_c   11.57665503
_cell_angle_alpha   92.62723962
_cell_angle_beta   98.02070929
_cell_angle_gamma   89.99999985
_symmetry_Int_Tables_number   1
_chemical_formula_structural   AlRe7Si13Rh
_chemical_formula_sum   'Al1 Re7 Si13 Rh1'
_cell_volume   308.70282564
_cell_formula_units_Z   1
loop_
 _symmetry_equiv_pos_site_id
 _symmetry_equiv_pos_as_xyz
  1  'x, y, z'
loop_
 _atom_site_type_symbol
 _atom_site_label
 _atom_site_symmetry_multiplicity
 _atom_site_fract_x
 _atom_site_fract_y
 _atom_site_fract_z
 _atom_site_occupancy
  Al  Al0  1  0.175648  0.882279  0.351295  1
  Re  Re1  1  0.273942  0.481564  0.547884  1
  Re  Re2  1  0.398716  0.367707  0.797431  1
  Re  Re3  1  0.523273  0.222528  0.046544  1
  Re  Re4  1  0.652019  0.116522  0.304037  1
  Re  Re5  1  0.770053  0.971215  0.540107  1
  Re  Re6  1  0.898568  0.850467  0.797138  1
  Re  Re7  1  0.025564  0.717662  0.051130  1
  Si  Si8  1  0.314783  0.786736  0.629567  1
  Si  Si9  1  0.443044  0.657002  0.886088  1
  Si  Si10  1  0.570307  0.525422  0.140613  1
  Si  Si11  1  0.693129  0.392120  0.386256  1
  Si  Si12  1  0.828423  0.230347  0.656845  1
  Si  Si13  1  0.994549  0.004150  0.989097  1
  Si  Si14  1  0.105524  0.292655  0.211048  1
  Si  Si15  1  0.235280  0.179212  0.470560  1
  Si  Si16  1  0.729261  0.685232  0.458524  1
  Si  Si17  1  0.856001  0.559874  0.712002  1
  Si  Si18  1  0.982086  0.422877  0.964171  1
  Si  Si19  1  0.575035  0.910381  0.150070  1
  Si  Si20  1  0.412361  0.079223  0.824721  1
  Rh  Rh21  1  0.150304  0.578221  0.300609  1
