# generated using pymatgen
data_YbPa5F24
_symmetry_space_group_name_H-M   'P 1'
_cell_length_a   8.35695017
_cell_length_b   8.46830864
_cell_length_c   8.36685055
_cell_angle_alpha   63.33284926
_cell_angle_beta   63.60200287
_cell_angle_gamma   80.28048472
_symmetry_Int_Tables_number   1
_chemical_formula_structural   YbPa5F24
_chemical_formula_sum   'Yb1 Pa5 F24'
_cell_volume   473.60851488
_cell_formula_units_Z   1
loop_
 _symmetry_equiv_pos_site_id
 _symmetry_equiv_pos_as_xyz
  1  'x, y, z'
loop_
 _atom_site_type_symbol
 _atom_site_label
 _atom_site_symmetry_multiplicity
 _atom_site_fract_x
 _atom_site_fract_y
 _atom_site_fract_z
 _atom_site_occupancy
  Yb  Yb0  1  0.775227  0.637406  0.167274  1
  Pa  Pa1  1  0.642115  0.765046  0.664900  1
  Pa  Pa2  1  0.379167  0.225381  0.329442  1
  Pa  Pa3  1  0.212812  0.371856  0.838139  1
  Pa  Pa4  1  0.788829  0.206989  0.738389  1
  Pa  Pa5  1  0.219460  0.786903  0.240462  1
  F  F6  1  0.317476  0.259544  0.611205  1
  F  F7  1  0.680364  0.743768  0.401826  1
  F  F8  1  0.731817  0.683214  0.892422  1
  F  F9  1  0.268351  0.327097  0.102861  1
  F  F10  1  0.817774  0.947290  0.943059  1
  F  F11  1  0.169923  0.071518  0.047654  1
  F  F12  1  0.071552  0.168577  0.543033  1
  F  F13  1  0.941581  0.823521  0.460312  1
  F  F14  1  0.401692  0.596695  0.754010  1
  F  F15  1  0.592039  0.397047  0.248948  1
  F  F16  1  0.496866  0.997284  0.507171  1
  F  F17  1  0.999672  0.493673  0.002302  1
  F  F18  1  0.498166  0.248463  0.797588  1
  F  F19  1  0.490375  0.747761  0.209741  1
  F  F20  1  0.746533  0.491152  0.716302  1
  F  F21  1  0.249239  0.499294  0.297919  1
  F  F22  1  0.398333  0.812006  0.922070  1
  F  F23  1  0.602521  0.188897  0.072979  1
  F  F24  1  0.190589  0.603242  0.571371  1
  F  F25  1  0.809377  0.390508  0.444187  1
  F  F26  1  0.725129  0.027091  0.637765  1
  F  F27  1  0.278693  0.979935  0.339647  1
  F  F28  1  0.973910  0.276779  0.838833  1
  F  F29  1  0.030415  0.732063  0.158190  1
