# generated using pymatgen
data_Er(S8Cl)3
_symmetry_space_group_name_H-M   'P 1'
_cell_length_a   15.29167935
_cell_length_b   15.29167994
_cell_length_c   15.29167961
_cell_angle_alpha   119.26698467
_cell_angle_beta   119.26698941
_cell_angle_gamma   119.26699103
_symmetry_Int_Tables_number   1
_chemical_formula_structural   Er(S8Cl)3
_chemical_formula_sum   'Er1 S24 Cl3'
_cell_volume   793.95199326
_cell_formula_units_Z   1
loop_
 _symmetry_equiv_pos_site_id
 _symmetry_equiv_pos_as_xyz
  1  'x, y, z'
loop_
 _atom_site_type_symbol
 _atom_site_label
 _atom_site_symmetry_multiplicity
 _atom_site_fract_x
 _atom_site_fract_y
 _atom_site_fract_z
 _atom_site_occupancy
  Er  Er0  1  0.566934  0.566934  0.566934  1
  S  S1  1  0.818030  0.539874  0.539874  1
  S  S2  1  0.539874  0.539874  0.818030  1
  S  S3  1  0.539874  0.818030  0.539874  1
  S  S4  1  0.213680  0.342050  0.600635  1
  S  S5  1  0.388403  0.985092  0.388403  1
  S  S6  1  0.388403  0.388403  0.985092  1
  S  S7  1  0.985092  0.388403  0.388403  1
  S  S8  1  0.108587  0.717779  0.235588  1
  S  S9  1  0.235588  0.108587  0.717779  1
  S  S10  1  0.717779  0.235588  0.108587  1
  S  S11  1  0.717779  0.108587  0.235588  1
  S  S12  1  0.235588  0.717779  0.108587  1
  S  S13  1  0.108587  0.235588  0.717779  1
  S  S14  1  0.379123  0.905128  0.557996  1
  S  S15  1  0.557996  0.379123  0.905128  1
  S  S16  1  0.905128  0.557996  0.379123  1
  S  S17  1  0.905128  0.379123  0.557996  1
  S  S18  1  0.557996  0.905128  0.379123  1
  S  S19  1  0.379123  0.557996  0.905128  1
  S  S20  1  0.213680  0.600635  0.342050  1
  S  S21  1  0.342050  0.213680  0.600635  1
  S  S22  1  0.600635  0.342050  0.213680  1
  S  S23  1  0.600635  0.213680  0.342050  1
  S  S24  1  0.342050  0.600635  0.213680  1
  Cl  Cl25  1  0.976080  0.100739  0.100739  1
  Cl  Cl26  1  0.100739  0.100739  0.976080  1
  Cl  Cl27  1  0.100739  0.976080  0.100739  1
