# generated using pymatgen
data_TbTa4(NbCl9)2
_symmetry_space_group_name_H-M   'P 1'
_cell_length_a   10.15629472
_cell_length_b   10.15632299
_cell_length_c   10.15414937
_cell_angle_alpha   55.96738513
_cell_angle_beta   55.98934004
_cell_angle_gamma   55.97430204
_symmetry_Int_Tables_number   1
_chemical_formula_structural   TbTa4(NbCl9)2
_chemical_formula_sum   'Tb1 Ta4 Nb2 Cl18'
_cell_volume   671.59393476
_cell_formula_units_Z   1
loop_
 _symmetry_equiv_pos_site_id
 _symmetry_equiv_pos_as_xyz
  1  'x, y, z'
loop_
 _atom_site_type_symbol
 _atom_site_label
 _atom_site_symmetry_multiplicity
 _atom_site_fract_x
 _atom_site_fract_y
 _atom_site_fract_z
 _atom_site_occupancy
  Tb  Tb0  1  0.999457  0.000001  0.000554  1
  Ta  Ta1  1  0.409404  0.301428  0.648527  1
  Ta  Ta2  1  0.351452  0.590951  0.698291  1
  Ta  Ta3  1  0.699403  0.350805  0.590829  1
  Ta  Ta4  1  0.301235  0.649343  0.408368  1
  Nb  Nb5  1  0.649870  0.408884  0.299967  1
  Nb  Nb6  1  0.591639  0.699609  0.349981  1
  Cl  Cl7  1  0.566727  0.160415  0.444416  1
  Cl  Cl8  1  0.223969  0.371122  0.907265  1
  Cl  Cl9  1  0.908801  0.222664  0.373210  1
  Cl  Cl10  1  0.368170  0.908180  0.223903  1
  Cl  Cl11  1  0.777456  0.629994  0.089848  1
  Cl  Cl12  1  0.092760  0.775816  0.628867  1
  Cl  Cl13  1  0.702881  0.958589  0.160656  1
  Cl  Cl14  1  0.954566  0.161677  0.702571  1
  Cl  Cl15  1  0.162693  0.701302  0.954542  1
  Cl  Cl16  1  0.297710  0.046043  0.837800  1
  Cl  Cl17  1  0.044444  0.836926  0.299210  1
  Cl  Cl18  1  0.840265  0.296516  0.041653  1
  Cl  Cl19  1  0.558313  0.431306  0.837923  1
  Cl  Cl20  1  0.162188  0.441876  0.568512  1
  Cl  Cl21  1  0.438751  0.570464  0.162134  1
  Cl  Cl22  1  0.429531  0.837782  0.561097  1
  Cl  Cl23  1  0.839536  0.555541  0.433503  1
  Cl  Cl24  1  0.628779  0.092767  0.776373  1
