# generated using pymatgen
data_Zr10Co2(SnBi)3
_symmetry_space_group_name_H-M   'P 1'
_cell_length_a   8.78394200
_cell_length_b   8.78394157
_cell_length_c   5.86287400
_cell_angle_alpha   90.00000000
_cell_angle_beta   90.00000000
_cell_angle_gamma   119.99999408
_symmetry_Int_Tables_number   1
_chemical_formula_structural   Zr10Co2(SnBi)3
_chemical_formula_sum   'Zr10 Co2 Sn3 Bi3'
_cell_volume   391.76002270
_cell_formula_units_Z   1
loop_
 _symmetry_equiv_pos_site_id
 _symmetry_equiv_pos_as_xyz
  1  'x, y, z'
loop_
 _atom_site_type_symbol
 _atom_site_label
 _atom_site_symmetry_multiplicity
 _atom_site_fract_x
 _atom_site_fract_y
 _atom_site_fract_z
 _atom_site_occupancy
  Zr  Zr0  1  0.666667  0.333333  0.005308  1
  Zr  Zr1  1  0.333333  0.666667  0.005308  1
  Zr  Zr2  1  0.333333  0.666667  0.494692  1
  Zr  Zr3  1  0.666667  0.333333  0.494692  1
  Zr  Zr4  1  0.756435  0.756435  0.750000  1
  Zr  Zr5  1  0.243565  0.000000  0.750000  1
  Zr  Zr6  1  0.000000  0.243565  0.750000  1
  Zr  Zr7  1  0.247954  0.247954  0.250000  1
  Zr  Zr8  1  0.752046  0.000000  0.250000  1
  Zr  Zr9  1  0.000000  0.752046  0.250000  1
  Co  Co10  1  0.000000  0.000000  0.003737  1
  Co  Co11  1  0.000000  0.000000  0.496263  1
  Sn  Sn12  1  0.608746  0.608746  0.250000  1
  Sn  Sn13  1  0.391254  0.000000  0.250000  1
  Sn  Sn14  1  0.000000  0.391254  0.250000  1
  Bi  Bi15  1  0.397009  0.397009  0.750000  1
  Bi  Bi16  1  0.602991  0.000000  0.750000  1
  Bi  Bi17  1  0.000000  0.602991  0.750000  1
