# generated using pymatgen
data_Tb12Er4MgCo4Ag3
_symmetry_space_group_name_H-M   'P 1'
_cell_length_a   9.41636703
_cell_length_b   9.45254158
_cell_length_c   9.40204200
_cell_angle_alpha   60.17656949
_cell_angle_beta   60.05031113
_cell_angle_gamma   60.07996186
_symmetry_Int_Tables_number   1
_chemical_formula_structural   Tb12Er4MgCo4Ag3
_chemical_formula_sum   'Tb12 Er4 Mg1 Co4 Ag3'
_cell_volume   593.12101181
_cell_formula_units_Z   1
loop_
 _symmetry_equiv_pos_site_id
 _symmetry_equiv_pos_as_xyz
  1  'x, y, z'
loop_
 _atom_site_type_symbol
 _atom_site_label
 _atom_site_symmetry_multiplicity
 _atom_site_fract_x
 _atom_site_fract_y
 _atom_site_fract_z
 _atom_site_occupancy
  Tb  Tb0  1  0.183587  0.184822  0.815796  1
  Tb  Tb1  1  0.810481  0.812877  0.188321  1
  Tb  Tb2  1  0.935820  0.562194  0.562251  1
  Tb  Tb3  1  0.561888  0.937995  0.938517  1
  Tb  Tb4  1  0.561889  0.937995  0.561600  1
  Tb  Tb5  1  0.935820  0.562194  0.939734  1
  Tb  Tb6  1  0.561035  0.562134  0.938416  1
  Tb  Tb7  1  0.937160  0.938567  0.562136  1
  Tb  Tb8  1  0.347314  0.346053  0.344602  1
  Tb  Tb9  1  0.347314  0.346053  0.962031  1
  Tb  Tb10  1  0.346149  0.962203  0.345824  1
  Tb  Tb11  1  0.949969  0.349752  0.350139  1
  Er  Er12  1  0.809627  0.188077  0.189265  1
  Er  Er13  1  0.184352  0.813967  0.815120  1
  Er  Er14  1  0.184352  0.813967  0.186562  1
  Er  Er15  1  0.809627  0.188077  0.813031  1
  Mg  Mg16  1  0.288853  0.571026  0.570060  1
  Co  Co17  1  0.139358  0.141928  0.140497  1
  Co  Co18  1  0.139358  0.141928  0.578218  1
  Co  Co19  1  0.140648  0.577803  0.140775  1
  Co  Co20  1  0.577542  0.142304  0.140077  1
  Ag  Ag21  1  0.582455  0.582904  0.582905  1
  Ag  Ag22  1  0.582455  0.582904  0.251737  1
  Ag  Ag23  1  0.582949  0.252273  0.582389  1
