# generated using pymatgen
data_CePa(CoSi2)2
_symmetry_space_group_name_H-M   'P 1'
_cell_length_a   8.42924387
_cell_length_b   8.42924450
_cell_length_c   3.99269600
_cell_angle_alpha   90.00000000
_cell_angle_beta   90.00000000
_cell_angle_gamma   152.39022008
_symmetry_Int_Tables_number   1
_chemical_formula_structural   CePa(CoSi2)2
_chemical_formula_sum   'Ce1 Pa1 Co2 Si4'
_cell_volume   131.47520836
_cell_formula_units_Z   1
loop_
 _symmetry_equiv_pos_site_id
 _symmetry_equiv_pos_as_xyz
  1  'x, y, z'
loop_
 _atom_site_type_symbol
 _atom_site_label
 _atom_site_symmetry_multiplicity
 _atom_site_fract_x
 _atom_site_fract_y
 _atom_site_fract_z
 _atom_site_occupancy
  Ce  Ce0  1  0.892536  0.107464  0.750000  1
  Pa  Pa1  1  0.109447  0.890553  0.250000  1
  Co  Co2  1  0.676170  0.323830  0.750000  1
  Co  Co3  1  0.321249  0.678751  0.250000  1
  Si  Si4  1  0.750742  0.249258  0.250000  1
  Si  Si5  1  0.249246  0.750754  0.750000  1
  Si  Si6  1  0.540082  0.459918  0.750000  1
  Si  Si7  1  0.460528  0.539472  0.250000  1
