# generated using pymatgen
data_Pr4Al18IrPt4Rh
_symmetry_space_group_name_H-M   'P 1'
_cell_length_a   7.68127471
_cell_length_b   7.68127791
_cell_length_c   9.60979520
_cell_angle_alpha   90.00722551
_cell_angle_beta   90.00711093
_cell_angle_gamma   119.63033197
_symmetry_Int_Tables_number   1
_chemical_formula_structural   Pr4Al18IrPt4Rh
_chemical_formula_sum   'Pr4 Al18 Ir1 Pt4 Rh1'
_cell_volume   492.85283504
_cell_formula_units_Z   1
loop_
 _symmetry_equiv_pos_site_id
 _symmetry_equiv_pos_as_xyz
  1  'x, y, z'
loop_
 _atom_site_type_symbol
 _atom_site_label
 _atom_site_symmetry_multiplicity
 _atom_site_fract_x
 _atom_site_fract_y
 _atom_site_fract_z
 _atom_site_occupancy
  Pr  Pr0  1  0.994826  0.668794  0.250109  1
  Pr  Pr1  1  0.007176  0.332682  0.750013  1
  Pr  Pr2  1  0.667319  0.992823  0.249987  1
  Pr  Pr3  1  0.331205  0.005175  0.749891  1
  Al  Al4  1  0.130409  0.131440  0.247291  1
  Al  Al5  1  0.868559  0.869592  0.752709  1
  Al  Al6  1  0.001191  0.330473  0.072691  1
  Al  Al7  1  0.997968  0.669549  0.926958  1
  Al  Al8  1  0.994896  0.662016  0.573160  1
  Al  Al9  1  0.337984  0.005104  0.426840  1
  Al  Al10  1  0.997863  0.333957  0.426807  1
  Al  Al11  1  0.666043  0.002137  0.573193  1
  Al  Al12  1  0.669528  0.998809  0.927309  1
  Al  Al13  1  0.330450  0.002032  0.073042  1
  Al  Al14  1  0.336801  0.333826  0.550065  1
  Al  Al15  1  0.666174  0.663199  0.449935  1
  Al  Al16  1  0.668797  0.668685  0.051200  1
  Al  Al17  1  0.331315  0.331203  0.948800  1
  Al  Al18  1  0.339845  0.543448  0.249940  1
  Al  Al19  1  0.659317  0.454044  0.747368  1
  Al  Al20  1  0.545956  0.340683  0.252632  1
  Al  Al21  1  0.456552  0.660155  0.750060  1
  Ir  Ir22  1  0.670514  0.329488  0.500001  1
  Pt  Pt23  1  0.670850  0.329147  0.000000  1
  Pt  Pt24  1  0.329030  0.670973  0.000000  1
  Pt  Pt25  1  0.329295  0.670703  0.499999  1
  Pt  Pt26  1  0.999875  0.000125  0.500000  1
  Rh  Rh27  1  0.000264  0.999736  0.000000  1
