# generated using pymatgen
data_Ho3Sc(Co4P3)2
_symmetry_space_group_name_H-M   'P 1'
_cell_length_a   3.71635800
_cell_length_b   10.64354800
_cell_length_c   12.33555000
_cell_angle_alpha   90.00000000
_cell_angle_beta   90.00000000
_cell_angle_gamma   90.00000000
_symmetry_Int_Tables_number   1
_chemical_formula_structural   Ho3Sc(Co4P3)2
_chemical_formula_sum   'Ho6 Sc2 Co16 P12'
_cell_volume   487.93557612
_cell_formula_units_Z   2
loop_
 _symmetry_equiv_pos_site_id
 _symmetry_equiv_pos_as_xyz
  1  'x, y, z'
loop_
 _atom_site_type_symbol
 _atom_site_label
 _atom_site_symmetry_multiplicity
 _atom_site_fract_x
 _atom_site_fract_y
 _atom_site_fract_z
 _atom_site_occupancy
  Ho  Ho0  1  0.000000  0.500000  0.527963  1
  Ho  Ho1  1  0.500000  0.000000  0.472037  1
  Ho  Ho2  1  0.500000  0.822678  0.205743  1
  Ho  Ho3  1  0.500000  0.177322  0.205743  1
  Ho  Ho4  1  0.000000  0.677322  0.794257  1
  Ho  Ho5  1  0.000000  0.322678  0.794257  1
  Sc  Sc6  1  0.500000  0.500000  0.157642  1
  Sc  Sc7  1  0.000000  0.000000  0.842358  1
  Co  Co8  1  0.000000  0.500000  0.987822  1
  Co  Co9  1  0.500000  0.000000  0.012178  1
  Co  Co10  1  0.500000  0.295510  0.433048  1
  Co  Co11  1  0.500000  0.704490  0.433048  1
  Co  Co12  1  0.000000  0.204490  0.566952  1
  Co  Co13  1  0.000000  0.795510  0.566952  1
  Co  Co14  1  0.500000  0.877677  0.702533  1
  Co  Co15  1  0.500000  0.122323  0.702533  1
  Co  Co16  1  0.000000  0.622323  0.297467  1
  Co  Co17  1  0.000000  0.377677  0.297467  1
  Co  Co18  1  0.500000  0.331179  0.994771  1
  Co  Co19  1  0.500000  0.668821  0.994771  1
  Co  Co20  1  0.000000  0.168821  0.005229  1
  Co  Co21  1  0.000000  0.831179  0.005229  1
  Co  Co22  1  0.500000  0.500000  0.705320  1
  Co  Co23  1  0.000000  0.000000  0.294680  1
  P  P24  1  0.500000  0.310047  0.615690  1
  P  P25  1  0.500000  0.689953  0.615690  1
  P  P26  1  0.000000  0.189953  0.384310  1
  P  P27  1  0.000000  0.810047  0.384310  1
  P  P28  1  0.500000  0.500000  0.885673  1
  P  P29  1  0.000000  0.000000  0.114327  1
  P  P30  1  0.500000  0.839155  0.892265  1
  P  P31  1  0.500000  0.160845  0.892265  1
  P  P32  1  0.000000  0.660845  0.107735  1
  P  P33  1  0.000000  0.339155  0.107735  1
  P  P34  1  0.500000  0.500000  0.360640  1
  P  P35  1  0.000000  0.000000  0.639360  1
