# generated using pymatgen
data_Pm2Re2SeO12
_symmetry_space_group_name_H-M   'P 1'
_cell_length_a   7.02354241
_cell_length_b   7.02354261
_cell_length_c   12.99143387
_cell_angle_alpha   76.59511235
_cell_angle_beta   76.59511218
_cell_angle_gamma   110.20631555
_symmetry_Int_Tables_number   1
_chemical_formula_structural   Pm2Re2SeO12
_chemical_formula_sum   'Pm4 Re4 Se2 O24'
_cell_volume   549.83416743
_cell_formula_units_Z   2
loop_
 _symmetry_equiv_pos_site_id
 _symmetry_equiv_pos_as_xyz
  1  'x, y, z'
loop_
 _atom_site_type_symbol
 _atom_site_label
 _atom_site_symmetry_multiplicity
 _atom_site_fract_x
 _atom_site_fract_y
 _atom_site_fract_z
 _atom_site_occupancy
  Pm  Pm0  1  0.240558  0.456910  0.582685  1
  Pm  Pm1  1  0.759442  0.543090  0.417315  1
  Pm  Pm2  1  0.543090  0.759442  0.917315  1
  Pm  Pm3  1  0.456910  0.240558  0.082685  1
  Re  Re4  1  0.053674  0.288772  0.921308  1
  Re  Re5  1  0.946326  0.711228  0.078692  1
  Re  Re6  1  0.711228  0.946326  0.578692  1
  Re  Re7  1  0.288772  0.053674  0.421308  1
  Se  Se8  1  0.635643  0.364357  0.750000  1
  Se  Se9  1  0.364357  0.635643  0.250000  1
  O  O10  1  0.544554  0.431072  0.595357  1
  O  O11  1  0.455446  0.568928  0.404643  1
  O  O12  1  0.568928  0.455446  0.904643  1
  O  O13  1  0.431072  0.544554  0.095357  1
  O  O14  1  0.549442  0.091013  0.800630  1
  O  O15  1  0.450558  0.908987  0.199370  1
  O  O16  1  0.908987  0.450558  0.699370  1
  O  O17  1  0.091013  0.549442  0.300630  1
  O  O18  1  0.770807  0.184110  0.962733  1
  O  O19  1  0.229193  0.815890  0.037267  1
  O  O20  1  0.815890  0.229193  0.537267  1
  O  O21  1  0.184110  0.770807  0.462733  1
  O  O22  1  0.431694  0.826421  0.606219  1
  O  O23  1  0.568306  0.173579  0.393781  1
  O  O24  1  0.173579  0.568306  0.893781  1
  O  O25  1  0.826421  0.431694  0.106219  1
  O  O26  1  0.157033  0.246601  0.796570  1
  O  O27  1  0.842967  0.753399  0.203430  1
  O  O28  1  0.753399  0.842967  0.703430  1
  O  O29  1  0.246601  0.157033  0.296570  1
  O  O30  1  0.878621  0.835668  0.966791  1
  O  O31  1  0.121379  0.164332  0.033209  1
  O  O32  1  0.164332  0.121379  0.533209  1
  O  O33  1  0.835668  0.878621  0.466791  1
