# generated using pymatgen
data_Sc10Co8Si19As
_symmetry_space_group_name_H-M   'P 1'
_cell_length_a   12.06086302
_cell_length_b   12.06086302
_cell_length_c   3.94388600
_cell_angle_alpha   90.00000000
_cell_angle_beta   90.00000000
_cell_angle_gamma   89.99417582
_symmetry_Int_Tables_number   1
_chemical_formula_structural   Sc10Co8Si19As
_chemical_formula_sum   'Sc10 Co8 Si19 As1'
_cell_volume   573.69507348
_cell_formula_units_Z   1
loop_
 _symmetry_equiv_pos_site_id
 _symmetry_equiv_pos_as_xyz
  1  'x, y, z'
loop_
 _atom_site_type_symbol
 _atom_site_label
 _atom_site_symmetry_multiplicity
 _atom_site_fract_x
 _atom_site_fract_y
 _atom_site_fract_z
 _atom_site_occupancy
  Sc  Sc0  1  0.000082  0.000082  0.000000  1
  Sc  Sc1  1  0.500082  0.500082  0.000000  1
  Sc  Sc2  1  0.677409  0.177409  0.500000  1
  Sc  Sc3  1  0.176149  0.323676  0.500000  1
  Sc  Sc4  1  0.823676  0.676149  0.500000  1
  Sc  Sc5  1  0.323690  0.823690  0.500000  1
  Sc  Sc6  1  0.888576  0.388576  0.500000  1
  Sc  Sc7  1  0.386212  0.111370  0.500000  1
  Sc  Sc8  1  0.611370  0.886212  0.500000  1
  Sc  Sc9  1  0.111588  0.611588  0.500000  1
  Co  Co10  1  0.524048  0.256563  0.000000  1
  Co  Co11  1  0.254491  0.475823  0.000000  1
  Co  Co12  1  0.745672  0.524334  0.000000  1
  Co  Co13  1  0.476203  0.745816  0.000000  1
  Co  Co14  1  0.975823  0.754491  0.000000  1
  Co  Co15  1  0.024334  0.245672  0.000000  1
  Co  Co16  1  0.756563  0.024048  0.000000  1
  Co  Co17  1  0.245816  0.976203  0.000000  1
  Si  Si18  1  0.068476  0.431577  0.000000  1
  Si  Si19  1  0.931577  0.568476  0.000000  1
  Si  Si20  1  0.428282  0.928282  0.000000  1
  Si  Si21  1  0.198010  0.156700  0.000000  1
  Si  Si22  1  0.156657  0.801950  0.000000  1
  Si  Si23  1  0.843984  0.198538  0.000000  1
  Si  Si24  1  0.802057  0.842917  0.000000  1
  Si  Si25  1  0.301950  0.656657  0.000000  1
  Si  Si26  1  0.698538  0.343984  0.000000  1
  Si  Si27  1  0.656700  0.698010  0.000000  1
  Si  Si28  1  0.342917  0.302057  0.000000  1
  Si  Si29  1  0.002048  0.163975  0.500000  1
  Si  Si30  1  0.164038  0.998173  0.500000  1
  Si  Si31  1  0.837061  0.001667  0.500000  1
  Si  Si32  1  0.997819  0.836154  0.500000  1
  Si  Si33  1  0.498173  0.664038  0.500000  1
  Si  Si34  1  0.501667  0.337061  0.500000  1
  Si  Si35  1  0.663975  0.502048  0.500000  1
  Si  Si36  1  0.336154  0.497819  0.500000  1
  As  As37  1  0.568131  0.068131  0.000000  1
