# generated using pymatgen
data_TbNd4IrPt2
_symmetry_space_group_name_H-M   'P 1'
_cell_length_a   11.38900500
_cell_length_b   11.38900500
_cell_length_c   6.49408300
_cell_angle_alpha   90.00000000
_cell_angle_beta   90.00000000
_cell_angle_gamma   90.00000000
_symmetry_Int_Tables_number   1
_chemical_formula_structural   TbNd4IrPt2
_chemical_formula_sum   'Tb4 Nd16 Ir4 Pt8'
_cell_volume   842.34383606
_cell_formula_units_Z   4
loop_
 _symmetry_equiv_pos_site_id
 _symmetry_equiv_pos_as_xyz
  1  'x, y, z'
loop_
 _atom_site_type_symbol
 _atom_site_label
 _atom_site_symmetry_multiplicity
 _atom_site_fract_x
 _atom_site_fract_y
 _atom_site_fract_z
 _atom_site_occupancy
  Tb  Tb0  1  0.000000  0.000000  0.500000  1
  Tb  Tb1  1  0.000000  0.000000  0.000000  1
  Tb  Tb2  1  0.500000  0.500000  0.000000  1
  Tb  Tb3  1  0.500000  0.500000  0.500000  1
  Nd  Nd4  1  0.292780  0.087856  0.374699  1
  Nd  Nd5  1  0.292780  0.912144  0.874699  1
  Nd  Nd6  1  0.707220  0.087856  0.874699  1
  Nd  Nd7  1  0.707220  0.912144  0.374699  1
  Nd  Nd8  1  0.587856  0.792780  0.874699  1
  Nd  Nd9  1  0.587856  0.207220  0.374699  1
  Nd  Nd10  1  0.412144  0.792780  0.374699  1
  Nd  Nd11  1  0.412144  0.207220  0.874699  1
  Nd  Nd12  1  0.207220  0.412144  0.625301  1
  Nd  Nd13  1  0.207220  0.587856  0.125301  1
  Nd  Nd14  1  0.792780  0.412144  0.125301  1
  Nd  Nd15  1  0.792780  0.587856  0.625301  1
  Nd  Nd16  1  0.912144  0.707220  0.125301  1
  Nd  Nd17  1  0.912144  0.292780  0.625301  1
  Nd  Nd18  1  0.087856  0.707220  0.625301  1
  Nd  Nd19  1  0.087856  0.292780  0.125301  1
  Ir  Ir20  1  0.500000  0.000000  0.116043  1
  Ir  Ir21  1  0.500000  0.000000  0.616043  1
  Ir  Ir22  1  0.000000  0.500000  0.883957  1
  Ir  Ir23  1  0.000000  0.500000  0.383957  1
  Pt  Pt24  1  0.851171  0.148829  0.250000  1
  Pt  Pt25  1  0.851171  0.851171  0.750000  1
  Pt  Pt26  1  0.148829  0.148829  0.750000  1
  Pt  Pt27  1  0.148829  0.851171  0.250000  1
  Pt  Pt28  1  0.648829  0.351171  0.750000  1
  Pt  Pt29  1  0.648829  0.648829  0.250000  1
  Pt  Pt30  1  0.351171  0.351171  0.250000  1
  Pt  Pt31  1  0.351171  0.648829  0.750000  1
