# generated using pymatgen
data_Th7Tc2Pd
_symmetry_space_group_name_H-M   'P 1'
_cell_length_a   10.02751500
_cell_length_b   10.04537652
_cell_length_c   6.32676125
_cell_angle_alpha   89.68689811
_cell_angle_beta   90.00000000
_cell_angle_gamma   119.94119558
_symmetry_Int_Tables_number   1
_chemical_formula_structural   Th7Tc2Pd
_chemical_formula_sum   'Th14 Tc4 Pd2'
_cell_volume   552.23002886
_cell_formula_units_Z   2
loop_
 _symmetry_equiv_pos_site_id
 _symmetry_equiv_pos_as_xyz
  1  'x, y, z'
loop_
 _atom_site_type_symbol
 _atom_site_label
 _atom_site_symmetry_multiplicity
 _atom_site_fract_x
 _atom_site_fract_y
 _atom_site_fract_z
 _atom_site_occupancy
  Th  Th0  1  0.669499  0.338995  0.565954  1
  Th  Th1  1  0.333223  0.666447  0.035252  1
  Th  Th2  1  0.876686  0.753372  0.749318  1
  Th  Th3  1  0.244620  0.123123  0.758403  1
  Th  Th4  1  0.878503  0.123123  0.758403  1
  Th  Th5  1  0.132144  0.264287  0.251152  1
  Th  Th6  1  0.747211  0.866609  0.251233  1
  Th  Th7  1  0.119399  0.866609  0.251233  1
  Th  Th8  1  0.457448  0.914896  0.543729  1
  Th  Th9  1  0.082653  0.543900  0.547231  1
  Th  Th10  1  0.461246  0.543900  0.547231  1
  Th  Th11  1  0.535608  0.071214  0.032371  1
  Th  Th12  1  0.920217  0.465507  0.041031  1
  Th  Th13  1  0.545291  0.465507  0.041031  1
  Tc  Tc14  1  0.183922  0.367844  0.800738  1
  Tc  Tc15  1  0.631385  0.818698  0.799388  1
  Tc  Tc16  1  0.187313  0.818698  0.799388  1
  Tc  Tc17  1  0.809234  0.618470  0.302762  1
  Pd  Pd18  1  0.377049  0.184402  0.306124  1
  Pd  Pd19  1  0.807353  0.184402  0.306124  1
