# generated using pymatgen
data_Ho3ErGa18(NiRu)3
_symmetry_space_group_name_H-M   'P 1'
_cell_length_a   7.51099153
_cell_length_b   7.51108175
_cell_length_c   9.47759800
_cell_angle_alpha   89.85854690
_cell_angle_beta   89.85959316
_cell_angle_gamma   120.64210797
_symmetry_Int_Tables_number   1
_chemical_formula_structural   Ho3ErGa18(NiRu)3
_chemical_formula_sum   'Ho3 Er1 Ga18 Ni3 Ru3'
_cell_volume   460.02006790
_cell_formula_units_Z   1
loop_
 _symmetry_equiv_pos_site_id
 _symmetry_equiv_pos_as_xyz
  1  'x, y, z'
loop_
 _atom_site_type_symbol
 _atom_site_label
 _atom_site_symmetry_multiplicity
 _atom_site_fract_x
 _atom_site_fract_y
 _atom_site_fract_z
 _atom_site_occupancy
  Ho  Ho0  1  0.997665  0.661231  0.250308  1
  Ho  Ho1  1  0.007322  0.343597  0.748533  1
  Ho  Ho2  1  0.656411  0.992683  0.251464  1
  Er  Er3  1  0.338820  0.002333  0.749672  1
  Ga  Ga4  1  0.111110  0.110600  0.248629  1
  Ga  Ga5  1  0.889454  0.888910  0.751371  1
  Ga  Ga6  1  0.992123  0.326923  0.075551  1
  Ga  Ga7  1  0.995765  0.668765  0.924455  1
  Ga  Ga8  1  0.999542  0.672555  0.576464  1
  Ga  Ga9  1  0.327492  0.000496  0.423583  1
  Ga  Ga10  1  0.000335  0.326404  0.421885  1
  Ga  Ga11  1  0.673551  0.999662  0.578132  1
  Ga  Ga12  1  0.673025  0.007875  0.924434  1
  Ga  Ga13  1  0.331283  0.004271  0.075499  1
  Ga  Ga14  1  0.333540  0.331940  0.562187  1
  Ga  Ga15  1  0.668026  0.666460  0.437830  1
  Ga  Ga16  1  0.668084  0.668364  0.062577  1
  Ga  Ga17  1  0.331639  0.331888  0.937408  1
  Ga  Ga18  1  0.334799  0.540720  0.249334  1
  Ga  Ga19  1  0.665832  0.453277  0.752812  1
  Ga  Ga20  1  0.546666  0.334129  0.247188  1
  Ga  Ga21  1  0.459261  0.665220  0.750666  1
  Ni  Ni22  1  0.669966  0.330014  0.999991  1
  Ni  Ni23  1  0.000610  0.999390  0.999996  1
  Ni  Ni24  1  0.000013  0.999992  0.500005  1
  Ru  Ru25  1  0.326666  0.673341  0.999969  1
  Ru  Ru26  1  0.327425  0.672585  0.500029  1
  Ru  Ru27  1  0.673571  0.326377  0.500029  1
