# generated using pymatgen
data_Sr2PrEr(Ir2O7)2
_symmetry_space_group_name_H-M   'P 1'
_cell_length_a   7.39037024
_cell_length_b   7.39944979
_cell_length_c   7.39036987
_cell_angle_alpha   60.05192600
_cell_angle_beta   59.74469939
_cell_angle_gamma   60.05191824
_symmetry_Int_Tables_number   1
_chemical_formula_structural   Sr2PrEr(Ir2O7)2
_chemical_formula_sum   'Sr2 Pr1 Er1 Ir4 O14'
_cell_volume   285.43743528
_cell_formula_units_Z   1
loop_
 _symmetry_equiv_pos_site_id
 _symmetry_equiv_pos_as_xyz
  1  'x, y, z'
loop_
 _atom_site_type_symbol
 _atom_site_label
 _atom_site_symmetry_multiplicity
 _atom_site_fract_x
 _atom_site_fract_y
 _atom_site_fract_z
 _atom_site_occupancy
  Sr  Sr0  1  0.125000  0.125000  0.625000  1
  Sr  Sr1  1  0.625000  0.125000  0.125000  1
  Pr  Pr2  1  0.125000  0.625000  0.125000  1
  Er  Er3  1  0.125000  0.125000  0.125000  1
  Ir  Ir4  1  0.625000  0.625000  0.625000  1
  Ir  Ir5  1  0.125000  0.625000  0.625000  1
  Ir  Ir6  1  0.625000  0.125000  0.625000  1
  Ir  Ir7  1  0.625000  0.625000  0.125000  1
  O  O8  1  0.952055  0.554132  0.544648  1
  O  O9  1  0.297640  0.299147  0.714753  1
  O  O10  1  0.953611  0.539263  0.953611  1
  O  O11  1  0.714753  0.299147  0.297640  1
  O  O12  1  0.544648  0.554132  0.952055  1
  O  O13  1  0.553288  0.947619  0.553288  1
  O  O14  1  0.535247  0.950853  0.952360  1
  O  O15  1  0.237304  0.251329  0.237304  1
  O  O16  1  0.297945  0.695868  0.705352  1
  O  O17  1  0.696712  0.302381  0.696712  1
  O  O18  1  0.012696  0.998671  0.012696  1
  O  O19  1  0.952360  0.950853  0.535247  1
  O  O20  1  0.296389  0.710737  0.296389  1
  O  O21  1  0.705352  0.695868  0.297945  1
