# generated using pymatgen
data_Y5OsWC7
_symmetry_space_group_name_H-M   'P 1'
_cell_length_a   8.32535416
_cell_length_b   8.32535488
_cell_length_c   3.47974400
_cell_angle_alpha   90.00000000
_cell_angle_beta   90.00000000
_cell_angle_gamma   122.38449007
_symmetry_Int_Tables_number   1
_chemical_formula_structural   Y5OsWC7
_chemical_formula_sum   'Y5 Os1 W1 C7'
_cell_volume   203.67536627
_cell_formula_units_Z   1
loop_
 _symmetry_equiv_pos_site_id
 _symmetry_equiv_pos_as_xyz
  1  'x, y, z'
loop_
 _atom_site_type_symbol
 _atom_site_label
 _atom_site_symmetry_multiplicity
 _atom_site_fract_x
 _atom_site_fract_y
 _atom_site_fract_z
 _atom_site_occupancy
  Y  Y0  1  0.501776  0.498224  0.000000  1
  Y  Y1  1  0.072414  0.333969  0.500000  1
  Y  Y2  1  0.923283  0.663877  0.500000  1
  Y  Y3  1  0.666031  0.927586  0.500000  1
  Y  Y4  1  0.336123  0.076717  0.500000  1
  Os  Os5  1  0.710940  0.289060  0.000000  1
  W  W6  1  0.286580  0.713420  0.000000  1
  C  C7  1  0.632945  0.367055  0.500000  1
  C  C8  1  0.375374  0.624626  0.500000  1
  C  C9  1  0.999321  0.000679  0.000000  1
  C  C10  1  0.167968  0.169498  0.000000  1
  C  C11  1  0.830502  0.832032  0.000000  1
  C  C12  1  0.998755  0.502011  0.000000  1
  C  C13  1  0.497989  0.001245  0.000000  1
