# generated using pymatgen
data_Dy2Ga10Ru3
_symmetry_space_group_name_H-M   'P 1'
_cell_length_a   8.91100700
_cell_length_b   8.91100700
_cell_length_c   6.43973300
_cell_angle_alpha   90.00000000
_cell_angle_beta   90.00000000
_cell_angle_gamma   90.00000000
_symmetry_Int_Tables_number   1
_chemical_formula_structural   Dy2Ga10Ru3
_chemical_formula_sum   'Dy4 Ga20 Ru6'
_cell_volume   511.35373324
_cell_formula_units_Z   2
loop_
 _symmetry_equiv_pos_site_id
 _symmetry_equiv_pos_as_xyz
  1  'x, y, z'
loop_
 _atom_site_type_symbol
 _atom_site_label
 _atom_site_symmetry_multiplicity
 _atom_site_fract_x
 _atom_site_fract_y
 _atom_site_fract_z
 _atom_site_occupancy
  Dy  Dy0  1  0.183244  0.683242  0.000000  1
  Dy  Dy1  1  0.816756  0.316758  0.000000  1
  Dy  Dy2  1  0.683242  0.816756  0.000000  1
  Dy  Dy3  1  0.316758  0.183244  0.000000  1
  Ga  Ga4  1  0.060722  0.206444  0.705745  1
  Ga  Ga5  1  0.939278  0.793556  0.705745  1
  Ga  Ga6  1  0.560722  0.293553  0.705746  1
  Ga  Ga7  1  0.439278  0.706447  0.705746  1
  Ga  Ga8  1  0.793551  0.060724  0.705747  1
  Ga  Ga9  1  0.206449  0.939276  0.705747  1
  Ga  Ga10  1  0.706445  0.560722  0.705746  1
  Ga  Ga11  1  0.293555  0.439278  0.705746  1
  Ga  Ga12  1  0.939276  0.793551  0.294253  1
  Ga  Ga13  1  0.060724  0.206449  0.294253  1
  Ga  Ga14  1  0.439278  0.706445  0.294254  1
  Ga  Ga15  1  0.560722  0.293555  0.294254  1
  Ga  Ga16  1  0.206444  0.939278  0.294255  1
  Ga  Ga17  1  0.793556  0.060722  0.294255  1
  Ga  Ga18  1  0.293553  0.439278  0.294254  1
  Ga  Ga19  1  0.706447  0.560722  0.294254  1
  Ga  Ga20  1  0.000000  0.500000  0.711322  1
  Ga  Ga21  1  0.500000  0.000000  0.711320  1
  Ga  Ga22  1  0.000000  0.500000  0.288680  1
  Ga  Ga23  1  0.500000  0.000000  0.288678  1
  Ru  Ru24  1  0.178468  0.678468  0.500000  1
  Ru  Ru25  1  0.821532  0.321532  0.500000  1
  Ru  Ru26  1  0.678468  0.821532  0.500000  1
  Ru  Ru27  1  0.321532  0.178468  0.500000  1
  Ru  Ru28  1  0.000000  0.000000  0.000000  1
  Ru  Ru29  1  0.500000  0.500000  0.000000  1
