# generated using pymatgen
data_Sc4MnAl6Rh
_symmetry_space_group_name_H-M   'P 1'
_cell_length_a   5.33800100
_cell_length_b   5.33800221
_cell_length_c   8.46199500
_cell_angle_alpha   90.00000000
_cell_angle_beta   90.00000000
_cell_angle_gamma   120.00001111
_symmetry_Int_Tables_number   1
_chemical_formula_structural   Sc4MnAl6Rh
_chemical_formula_sum   'Sc4 Mn1 Al6 Rh1'
_cell_volume   208.81454555
_cell_formula_units_Z   1
loop_
 _symmetry_equiv_pos_site_id
 _symmetry_equiv_pos_as_xyz
  1  'x, y, z'
loop_
 _atom_site_type_symbol
 _atom_site_label
 _atom_site_symmetry_multiplicity
 _atom_site_fract_x
 _atom_site_fract_y
 _atom_site_fract_z
 _atom_site_occupancy
  Sc  Sc0  1  0.333333  0.666667  0.056386  1
  Sc  Sc1  1  0.666667  0.333333  0.556148  1
  Sc  Sc2  1  0.333333  0.666667  0.443852  1
  Sc  Sc3  1  0.666667  0.333333  0.943614  1
  Mn  Mn4  1  0.000000  0.000000  0.500000  1
  Al  Al5  1  0.833999  0.667999  0.250307  1
  Al  Al6  1  0.166001  0.833999  0.749693  1
  Al  Al7  1  0.667999  0.833999  0.749693  1
  Al  Al8  1  0.332001  0.166001  0.250307  1
  Al  Al9  1  0.833999  0.166001  0.250307  1
  Al  Al10  1  0.166001  0.332001  0.749693  1
  Rh  Rh11  1  0.000000  0.000000  0.000000  1
