# generated using pymatgen
data_Y12Cd2Tc3
_symmetry_space_group_name_H-M   'P 1'
_cell_length_a   8.47512962
_cell_length_b   8.47540193
_cell_length_c   8.47513068
_cell_angle_alpha   109.70440438
_cell_angle_beta   109.74893966
_cell_angle_gamma   108.96021970
_symmetry_Int_Tables_number   1
_chemical_formula_structural   Y12Cd2Tc3
_chemical_formula_sum   'Y12 Cd2 Tc3'
_cell_volume   468.61075607
_cell_formula_units_Z   1
loop_
 _symmetry_equiv_pos_site_id
 _symmetry_equiv_pos_as_xyz
  1  'x, y, z'
loop_
 _atom_site_type_symbol
 _atom_site_label
 _atom_site_symmetry_multiplicity
 _atom_site_fract_x
 _atom_site_fract_y
 _atom_site_fract_z
 _atom_site_occupancy
  Y  Y0  1  0.186948  0.431699  0.244752  1
  Y  Y1  1  0.813052  0.568301  0.755248  1
  Y  Y2  1  0.186952  0.942207  0.755254  1
  Y  Y3  1  0.942108  0.186907  0.755200  1
  Y  Y4  1  0.813048  0.057793  0.244746  1
  Y  Y5  1  0.057892  0.813093  0.244800  1
  Y  Y6  1  0.431707  0.186907  0.244800  1
  Y  Y7  1  0.568293  0.813093  0.755200  1
  Y  Y8  1  0.318765  0.318788  0.637561  1
  Y  Y9  1  0.681235  0.681212  0.362439  1
  Y  Y10  1  0.681227  0.318788  0.000022  1
  Y  Y11  1  0.318773  0.681212  0.999978  1
  Cd  Cd12  1  0.000000  0.500000  0.500000  1
  Cd  Cd13  1  0.500000  0.000000  0.500000  1
  Tc  Tc14  1  0.338620  0.338618  0.999998  1
  Tc  Tc15  1  0.661380  0.661382  0.000002  1
  Tc  Tc16  1  0.000000  0.000000  0.000000  1
