# generated using pymatgen
data_TbEr3(Ga8Pd3)3
_symmetry_space_group_name_H-M   'P 1'
_cell_length_a   7.49252962
_cell_length_b   7.56121135
_cell_length_c   13.41409470
_cell_angle_alpha   84.86875001
_cell_angle_beta   79.89048815
_cell_angle_gamma   60.35527866
_symmetry_Int_Tables_number   1
_chemical_formula_structural   TbEr3(Ga8Pd3)3
_chemical_formula_sum   'Tb1 Er3 Ga24 Pd9'
_cell_volume   650.21617304
_cell_formula_units_Z   1
loop_
 _symmetry_equiv_pos_site_id
 _symmetry_equiv_pos_as_xyz
  1  'x, y, z'
loop_
 _atom_site_type_symbol
 _atom_site_label
 _atom_site_symmetry_multiplicity
 _atom_site_fract_x
 _atom_site_fract_y
 _atom_site_fract_z
 _atom_site_occupancy
  Tb  Tb0  1  0.393873  0.168569  0.811854  1
  Er  Er1  1  0.605161  0.831383  0.188759  1
  Er  Er2  1  0.731598  0.496007  0.811322  1
  Er  Er3  1  0.268558  0.503872  0.189115  1
  Ga  Ga4  1  0.142875  0.961599  0.183262  1
  Ga  Ga5  1  0.686611  0.831990  0.939736  1
  Ga  Ga6  1  0.314153  0.167199  0.061794  1
  Ga  Ga7  1  0.142560  0.835994  0.557992  1
  Ga  Ga8  1  0.858052  0.163721  0.441387  1
  Ga  Ga9  1  0.476447  0.167597  0.556079  1
  Ga  Ga10  1  0.523772  0.832540  0.443498  1
  Ga  Ga11  1  0.223847  0.165077  0.323347  1
  Ga  Ga12  1  0.777090  0.834479  0.675625  1
  Ga  Ga13  1  0.435157  0.504080  0.674011  1
  Ga  Ga14  1  0.565237  0.496159  0.325315  1
  Ga  Ga15  1  0.105187  0.163103  0.674039  1
  Ga  Ga16  1  0.894720  0.836828  0.324596  1
  Ga  Ga17  1  0.356145  0.499679  0.941150  1
  Ga  Ga18  1  0.643565  0.501558  0.059583  1
  Ga  Ga19  1  0.018614  0.167964  0.944871  1
  Ga  Ga20  1  0.979866  0.831479  0.056492  1
  Ga  Ga21  1  0.189049  0.499980  0.442892  1
  Ga  Ga22  1  0.810906  0.500091  0.556778  1
  Ga  Ga23  1  0.732500  0.165827  0.181834  1
  Ga  Ga24  1  0.267361  0.833563  0.818216  1
  Ga  Ga25  1  0.059859  0.629619  0.816985  1
  Ga  Ga26  1  0.938607  0.371911  0.182996  1
  Ga  Ga27  1  0.857572  0.039365  0.816793  1
  Pd  Pd28  1  0.113760  0.497397  0.638789  1
  Pd  Pd29  1  0.886457  0.502488  0.360858  1
  Pd  Pd30  1  0.660212  0.168680  0.998649  1
  Pd  Pd31  1  0.339298  0.831499  0.002122  1
  Pd  Pd32  1  0.545242  0.166193  0.360105  1
  Pd  Pd33  1  0.455173  0.833266  0.639561  1
  Pd  Pd34  1  0.776484  0.172169  0.638311  1
  Pd  Pd35  1  0.223730  0.827568  0.361153  1
  Pd  Pd36  1  0.000701  0.499502  0.000132  1
