# generated using pymatgen
data_Dy8Tm12Si13As3
_symmetry_space_group_name_H-M   'P 1'
_cell_length_a   7.52318916
_cell_length_b   7.55808711
_cell_length_c   14.46030828
_cell_angle_alpha   90.18505000
_cell_angle_beta   90.64392611
_cell_angle_gamma   90.12107172
_symmetry_Int_Tables_number   1
_chemical_formula_structural   Dy8Tm12Si13As3
_chemical_formula_sum   'Dy8 Tm12 Si13 As3'
_cell_volume   822.16830498
_cell_formula_units_Z   1
loop_
 _symmetry_equiv_pos_site_id
 _symmetry_equiv_pos_as_xyz
  1  'x, y, z'
loop_
 _atom_site_type_symbol
 _atom_site_label
 _atom_site_symmetry_multiplicity
 _atom_site_fract_x
 _atom_site_fract_y
 _atom_site_fract_z
 _atom_site_occupancy
  Dy  Dy0  1  0.542626  0.823528  0.892395  1
  Dy  Dy1  1  0.036863  0.671523  0.604229  1
  Dy  Dy2  1  0.958323  0.326283  0.106888  1
  Dy  Dy3  1  0.464672  0.183043  0.395616  1
  Dy  Dy4  1  0.447791  0.176746  0.108494  1
  Dy  Dy5  1  0.959082  0.329616  0.394130  1
  Dy  Dy6  1  0.052181  0.672954  0.891141  1
  Dy  Dy7  1  0.541412  0.818105  0.604936  1
  Tm  Tm8  1  0.775106  0.000623  0.253667  1
  Tm  Tm9  1  0.275279  0.505449  0.250934  1
  Tm  Tm10  1  0.724627  0.495858  0.746254  1
  Tm  Tm11  1  0.224738  0.999355  0.752080  1
  Tm  Tm12  1  0.107768  0.836956  0.116221  1
  Tm  Tm13  1  0.612763  0.665532  0.381940  1
  Tm  Tm14  1  0.392210  0.334275  0.882946  1
  Tm  Tm15  1  0.886953  0.161242  0.617254  1
  Tm  Tm16  1  0.894817  0.161987  0.882353  1
  Tm  Tm17  1  0.387839  0.334534  0.618322  1
  Tm  Tm18  1  0.604332  0.664953  0.116689  1
  Tm  Tm19  1  0.111654  0.837971  0.383658  1
  Si  Si20  1  0.899495  0.618990  0.247746  1
  Si  Si21  1  0.398993  0.886310  0.249985  1
  Si  Si22  1  0.600116  0.113928  0.750873  1
  Si  Si23  1  0.098827  0.379887  0.750054  1
  Si  Si24  1  0.159571  0.129690  0.250686  1
  Si  Si25  1  0.661251  0.374461  0.249106  1
  Si  Si26  1  0.341014  0.626011  0.749470  1
  Si  Si27  1  0.840852  0.868908  0.749836  1
  Si  Si28  1  0.277109  0.529192  0.455907  1
  Si  Si29  1  0.271459  0.523557  0.046027  1
  Si  Si30  1  0.775004  0.974152  0.454228  1
  Si  Si31  1  0.228606  0.021632  0.953377  1
  Si  Si32  1  0.720098  0.467496  0.544674  1
  As  As33  1  0.732626  0.480063  0.952582  1
  As  As34  1  0.226849  0.022779  0.547890  1
  As  As35  1  0.767096  0.982413  0.047412  1
