# generated using pymatgen
data_Li3Zr(Ta2N3)4
_symmetry_space_group_name_H-M   'P 1'
_cell_length_a   5.26350500
_cell_length_b   5.26350471
_cell_length_c   10.40419500
_cell_angle_alpha   90.00000000
_cell_angle_beta   90.00000000
_cell_angle_gamma   119.99999552
_symmetry_Int_Tables_number   1
_chemical_formula_structural   Li3Zr(Ta2N3)4
_chemical_formula_sum   'Li3 Zr1 Ta8 N12'
_cell_volume   249.62563957
_cell_formula_units_Z   1
loop_
 _symmetry_equiv_pos_site_id
 _symmetry_equiv_pos_as_xyz
  1  'x, y, z'
loop_
 _atom_site_type_symbol
 _atom_site_label
 _atom_site_symmetry_multiplicity
 _atom_site_fract_x
 _atom_site_fract_y
 _atom_site_fract_z
 _atom_site_occupancy
  Li  Li0  1  0.333333  0.666667  0.500000  1
  Li  Li1  1  0.666667  0.333333  0.500000  1
  Li  Li2  1  0.666667  0.333333  0.000000  1
  Zr  Zr3  1  0.333333  0.666667  0.000000  1
  Ta  Ta4  1  0.998222  0.341790  0.252785  1
  Ta  Ta5  1  0.658210  0.001778  0.747215  1
  Ta  Ta6  1  0.343568  0.341790  0.747215  1
  Ta  Ta7  1  0.000000  0.000000  0.500000  1
  Ta  Ta8  1  0.000000  0.000000  0.000000  1
  Ta  Ta9  1  0.658210  0.656432  0.252785  1
  Ta  Ta10  1  0.343568  0.001778  0.252785  1
  Ta  Ta11  1  0.998222  0.656432  0.747215  1
  N  N12  1  0.676506  0.677429  0.623192  1
  N  N13  1  0.677793  0.670395  0.876826  1
  N  N14  1  0.329605  0.322207  0.123174  1
  N  N15  1  0.322571  0.323494  0.376808  1
  N  N16  1  0.329605  0.007398  0.876826  1
  N  N17  1  0.322571  0.999077  0.623192  1
  N  N18  1  0.000923  0.677429  0.376808  1
  N  N19  1  0.992602  0.670395  0.123174  1
  N  N20  1  0.677793  0.007398  0.123174  1
  N  N21  1  0.676506  0.999077  0.376808  1
  N  N22  1  0.992602  0.322207  0.876826  1
  N  N23  1  0.000923  0.323494  0.623192  1
