# generated using pymatgen
data_Eu4YLu(Ni7B2)2
_symmetry_space_group_name_H-M   'P 1'
_cell_length_a   5.09210600
_cell_length_b   5.09210587
_cell_length_c   14.57748300
_cell_angle_alpha   90.00000000
_cell_angle_beta   90.00000000
_cell_angle_gamma   120.00000087
_symmetry_Int_Tables_number   1
_chemical_formula_structural   Eu4YLu(Ni7B2)2
_chemical_formula_sum   'Eu4 Y1 Lu1 Ni14 B4'
_cell_volume   327.34674832
_cell_formula_units_Z   1
loop_
 _symmetry_equiv_pos_site_id
 _symmetry_equiv_pos_as_xyz
  1  'x, y, z'
loop_
 _atom_site_type_symbol
 _atom_site_label
 _atom_site_symmetry_multiplicity
 _atom_site_fract_x
 _atom_site_fract_y
 _atom_site_fract_z
 _atom_site_occupancy
  Eu  Eu0  1  0.333333  0.666667  0.968339  1
  Eu  Eu1  1  0.666667  0.333333  0.031085  1
  Eu  Eu2  1  0.666667  0.333333  0.468915  1
  Eu  Eu3  1  0.333333  0.666667  0.531661  1
  Y  Y4  1  0.666667  0.333333  0.250000  1
  Lu  Lu5  1  0.333333  0.666667  0.750000  1
  Ni  Ni6  1  0.164452  0.835548  0.346957  1
  Ni  Ni7  1  0.164452  0.328904  0.346957  1
  Ni  Ni8  1  0.671096  0.835548  0.346957  1
  Ni  Ni9  1  0.835503  0.164497  0.653755  1
  Ni  Ni10  1  0.835503  0.671005  0.653755  1
  Ni  Ni11  1  0.328995  0.164497  0.653755  1
  Ni  Ni12  1  0.835503  0.164497  0.846245  1
  Ni  Ni13  1  0.835503  0.671005  0.846245  1
  Ni  Ni14  1  0.328995  0.164497  0.846245  1
  Ni  Ni15  1  0.164452  0.835548  0.153043  1
  Ni  Ni16  1  0.164452  0.328904  0.153043  1
  Ni  Ni17  1  0.671096  0.835548  0.153043  1
  Ni  Ni18  1  0.000000  0.000000  0.499961  1
  Ni  Ni19  1  0.000000  0.000000  0.000039  1
  B  B20  1  0.333333  0.666667  0.250000  1
  B  B21  1  0.666667  0.333333  0.750000  1
  B  B22  1  0.000000  0.000000  0.250000  1
  B  B23  1  0.000000  0.000000  0.750000  1
