# generated using pymatgen
data_Ca2La4Pr4GaSi3Ge2
_symmetry_space_group_name_H-M   'P 1'
_cell_length_a   7.86427488
_cell_length_b   9.03490361
_cell_length_c   7.86427500
_cell_angle_alpha   115.62259500
_cell_angle_beta   90.36534502
_cell_angle_gamma   115.62259450
_symmetry_Int_Tables_number   1
_chemical_formula_structural   Ca2La4Pr4GaSi3Ge2
_chemical_formula_sum   'Ca2 La4 Pr4 Ga1 Si3 Ge2'
_cell_volume   441.24644600
_cell_formula_units_Z   1
loop_
 _symmetry_equiv_pos_site_id
 _symmetry_equiv_pos_as_xyz
  1  'x, y, z'
loop_
 _atom_site_type_symbol
 _atom_site_label
 _atom_site_symmetry_multiplicity
 _atom_site_fract_x
 _atom_site_fract_y
 _atom_site_fract_z
 _atom_site_occupancy
  Ca  Ca0  1  0.000922  0.000000  0.002124  1
  Ca  Ca1  1  0.497876  0.000000  0.499078  1
  La  La2  1  0.674240  0.703573  0.172113  1
  La  La3  1  0.031460  0.703573  0.529334  1
  La  La4  1  0.327887  0.296427  0.825760  1
  La  La5  1  0.970666  0.296427  0.468540  1
  Pr  Pr6  1  0.528849  0.709537  0.680688  1
  Pr  Pr7  1  0.179950  0.710747  0.030797  1
  Pr  Pr8  1  0.469203  0.289253  0.320050  1
  Pr  Pr9  1  0.819312  0.290463  0.971151  1
  Ga  Ga10  1  0.883250  0.000000  0.616750  1
  Si  Si11  1  0.116468  0.000000  0.383532  1
  Si  Si12  1  0.612398  0.000000  0.113574  1
  Si  Si13  1  0.386426  0.000000  0.887602  1
  Ge  Ge14  1  0.750548  0.500000  0.749452  1
  Ge  Ge15  1  0.250548  0.500000  0.249452  1
