# generated using pymatgen
data_Ba5Lu2Al2TcO13
_symmetry_space_group_name_H-M   'P 1'
_cell_length_a   5.91952400
_cell_length_b   5.91952386
_cell_length_c   24.77214400
_cell_angle_alpha   90.00000000
_cell_angle_beta   90.00000000
_cell_angle_gamma   120.00000079
_symmetry_Int_Tables_number   1
_chemical_formula_structural   Ba5Lu2Al2TcO13
_chemical_formula_sum   'Ba10 Lu4 Al4 Tc2 O26'
_cell_volume   751.74021742
_cell_formula_units_Z   2
loop_
 _symmetry_equiv_pos_site_id
 _symmetry_equiv_pos_as_xyz
  1  'x, y, z'
loop_
 _atom_site_type_symbol
 _atom_site_label
 _atom_site_symmetry_multiplicity
 _atom_site_fract_x
 _atom_site_fract_y
 _atom_site_fract_z
 _atom_site_occupancy
  Ba  Ba0  1  0.333333  0.666667  0.541139  1
  Ba  Ba1  1  0.666667  0.333333  0.458861  1
  Ba  Ba2  1  0.666667  0.333333  0.041139  1
  Ba  Ba3  1  0.333333  0.666667  0.958861  1
  Ba  Ba4  1  0.000000  0.000000  0.136665  1
  Ba  Ba5  1  0.000000  0.000000  0.863335  1
  Ba  Ba6  1  0.000000  0.000000  0.636665  1
  Ba  Ba7  1  0.000000  0.000000  0.363335  1
  Ba  Ba8  1  0.333333  0.666667  0.250000  1
  Ba  Ba9  1  0.666667  0.333333  0.750000  1
  Lu  Lu10  1  0.333333  0.666667  0.101912  1
  Lu  Lu11  1  0.666667  0.333333  0.898088  1
  Lu  Lu12  1  0.666667  0.333333  0.601912  1
  Lu  Lu13  1  0.333333  0.666667  0.398088  1
  Al  Al14  1  0.333333  0.666667  0.679810  1
  Al  Al15  1  0.666667  0.333333  0.320190  1
  Al  Al16  1  0.666667  0.333333  0.179810  1
  Al  Al17  1  0.333333  0.666667  0.820190  1
  Tc  Tc18  1  0.000000  0.000000  0.000000  1
  Tc  Tc19  1  0.000000  0.000000  0.500000  1
  O  O20  1  0.503107  0.006214  0.156655  1
  O  O21  1  0.496893  0.993786  0.843345  1
  O  O22  1  0.993786  0.496893  0.156655  1
  O  O23  1  0.496893  0.993786  0.656655  1
  O  O24  1  0.006214  0.503107  0.843345  1
  O  O25  1  0.503107  0.006214  0.343345  1
  O  O26  1  0.503107  0.496893  0.156655  1
  O  O27  1  0.006214  0.503107  0.656655  1
  O  O28  1  0.496893  0.503107  0.843345  1
  O  O29  1  0.993786  0.496893  0.343345  1
  O  O30  1  0.496893  0.503107  0.656655  1
  O  O31  1  0.503107  0.496893  0.343345  1
  O  O32  1  0.161121  0.322244  0.049282  1
  O  O33  1  0.838879  0.677756  0.950718  1
  O  O34  1  0.677756  0.838879  0.049282  1
  O  O35  1  0.838879  0.677756  0.549282  1
  O  O36  1  0.322244  0.161121  0.950718  1
  O  O37  1  0.161121  0.322244  0.450718  1
  O  O38  1  0.161121  0.838879  0.049282  1
  O  O39  1  0.322244  0.161121  0.549282  1
  O  O40  1  0.838879  0.161121  0.950718  1
  O  O41  1  0.677756  0.838879  0.450718  1
  O  O42  1  0.838879  0.161121  0.549282  1
  O  O43  1  0.161121  0.838879  0.450718  1
  O  O44  1  0.333333  0.666667  0.750000  1
  O  O45  1  0.666667  0.333333  0.250000  1
