# generated using pymatgen
data_Dy10Cd7InRh4
_symmetry_space_group_name_H-M   'P 1'
_cell_length_a   3.59033300
_cell_length_b   7.90696343
_cell_length_c   18.22428100
_cell_angle_alpha   89.70978672
_cell_angle_beta   90.00000000
_cell_angle_gamma   90.00000000
_symmetry_Int_Tables_number   1
_chemical_formula_structural   Dy10Cd7InRh4
_chemical_formula_sum   'Dy10 Cd7 In1 Rh4'
_cell_volume   517.35576521
_cell_formula_units_Z   1
loop_
 _symmetry_equiv_pos_site_id
 _symmetry_equiv_pos_as_xyz
  1  'x, y, z'
loop_
 _atom_site_type_symbol
 _atom_site_label
 _atom_site_symmetry_multiplicity
 _atom_site_fract_x
 _atom_site_fract_y
 _atom_site_fract_z
 _atom_site_occupancy
  Dy  Dy0  1  0.500000  0.384846  0.586008  1
  Dy  Dy1  1  0.500000  0.883693  0.913619  1
  Dy  Dy2  1  0.500000  0.116033  0.086022  1
  Dy  Dy3  1  0.500000  0.753010  0.720078  1
  Dy  Dy4  1  0.500000  0.251533  0.779536  1
  Dy  Dy5  1  0.500000  0.497526  0.000932  1
  Dy  Dy6  1  0.500000  0.748098  0.220640  1
  Dy  Dy7  1  0.500000  0.247011  0.280075  1
  Dy  Dy8  1  0.500000  0.000975  0.499956  1
  Dy  Dy9  1  0.500000  0.616223  0.414021  1
  Cd  Cd10  1  0.000000  0.788343  0.067904  1
  Cd  Cd11  1  0.000000  0.928760  0.351577  1
  Cd  Cd12  1  0.000000  0.070728  0.648288  1
  Cd  Cd13  1  0.000000  0.569271  0.851469  1
  Cd  Cd14  1  0.000000  0.712525  0.568039  1
  Cd  Cd15  1  0.000000  0.210433  0.931117  1
  Cd  Cd16  1  0.000000  0.289917  0.431903  1
  In  In17  1  0.000000  0.430017  0.149699  1
  Rh  Rh18  1  0.000000  0.968129  0.803427  1
  Rh  Rh19  1  0.000000  0.530848  0.303185  1
  Rh  Rh20  1  0.000000  0.468417  0.696258  1
  Rh  Rh21  1  0.000000  0.033665  0.196245  1
