# generated using pymatgen
data_BaS2(O3F)2
_symmetry_space_group_name_H-M   'P 1'
_cell_length_a   7.62468548
_cell_length_b   7.62468535
_cell_length_c   8.98601782
_cell_angle_alpha   107.46755917
_cell_angle_beta   102.69606921
_cell_angle_gamma   112.78178025
_symmetry_Int_Tables_number   1
_chemical_formula_structural   BaS2(O3F)2
_chemical_formula_sum   'Ba2 S4 O12 F4'
_cell_volume   424.58952384
_cell_formula_units_Z   2
loop_
 _symmetry_equiv_pos_site_id
 _symmetry_equiv_pos_as_xyz
  1  'x, y, z'
loop_
 _atom_site_type_symbol
 _atom_site_label
 _atom_site_symmetry_multiplicity
 _atom_site_fract_x
 _atom_site_fract_y
 _atom_site_fract_z
 _atom_site_occupancy
  Ba  Ba0  1  0.736314  0.486314  0.750000  1
  Ba  Ba1  1  0.263686  0.513686  0.250000  1
  S  S2  1  0.163710  0.342757  0.744322  1
  S  S3  1  0.598435  0.919389  0.755678  1
  S  S4  1  0.836290  0.657243  0.255678  1
  S  S5  1  0.401565  0.080611  0.244322  1
  O  O6  1  0.338660  0.377944  0.694914  1
  O  O7  1  0.683030  0.143747  0.805086  1
  O  O8  1  0.661340  0.622056  0.305086  1
  O  O9  1  0.316970  0.856253  0.194914  1
  O  O10  1  0.015903  0.388028  0.653840  1
  O  O11  1  0.734187  0.862063  0.846160  1
  O  O12  1  0.984097  0.611972  0.346160  1
  O  O13  1  0.265813  0.137937  0.153840  1
  O  O14  1  0.211978  0.420811  0.925049  1
  O  O15  1  0.495763  0.786930  0.574951  1
  O  O16  1  0.788022  0.579189  0.074951  1
  O  O17  1  0.504237  0.213070  0.425049  1
  F  F18  1  0.041810  0.091385  0.678722  1
  F  F19  1  0.412663  0.863087  0.821278  1
  F  F20  1  0.958190  0.908615  0.321278  1
  F  F21  1  0.587337  0.136913  0.178722  1
