# generated using pymatgen
data_Nd11In9NiIr3
_symmetry_space_group_name_H-M   'P 1'
_cell_length_a   13.46519399
_cell_length_b   13.44374889
_cell_length_c   3.84931600
_cell_angle_alpha   90.00000000
_cell_angle_beta   90.00000000
_cell_angle_gamma   111.67599312
_symmetry_Int_Tables_number   1
_chemical_formula_structural   Nd11In9NiIr3
_chemical_formula_sum   'Nd11 In9 Ni1 Ir3'
_cell_volume   647.54003801
_cell_formula_units_Z   1
loop_
 _symmetry_equiv_pos_site_id
 _symmetry_equiv_pos_as_xyz
  1  'x, y, z'
loop_
 _atom_site_type_symbol
 _atom_site_label
 _atom_site_symmetry_multiplicity
 _atom_site_fract_x
 _atom_site_fract_y
 _atom_site_fract_z
 _atom_site_occupancy
  Nd  Nd0  1  0.079635  0.419451  0.000000  1
  Nd  Nd1  1  0.920437  0.581162  0.000000  1
  Nd  Nd2  1  0.419957  0.078958  0.000000  1
  Nd  Nd3  1  0.581071  0.919059  0.000000  1
  Nd  Nd4  1  0.624747  0.373804  0.000000  1
  Nd  Nd5  1  0.371222  0.624647  0.000000  1
  Nd  Nd6  1  0.839483  0.158627  0.000000  1
  Nd  Nd7  1  0.159780  0.839932  0.000000  1
  Nd  Nd8  1  0.998794  0.999667  0.000000  1
  Nd  Nd9  1  0.313167  0.312620  0.000000  1
  Nd  Nd10  1  0.688558  0.685937  0.000000  1
  In  In11  1  0.837765  0.365330  0.500000  1
  In  In12  1  0.163018  0.634838  0.500000  1
  In  In13  1  0.367997  0.837973  0.500000  1
  In  In14  1  0.634168  0.161010  0.500000  1
  In  In15  1  0.078149  0.219301  0.500000  1
  In  In16  1  0.921572  0.780483  0.500000  1
  In  In17  1  0.218989  0.077120  0.500000  1
  In  In18  1  0.779133  0.922121  0.500000  1
  In  In19  1  0.499472  0.502610  0.500000  1
  Ni  Ni20  1  0.549650  0.755501  0.500000  1
  Ir  Ir21  1  0.247083  0.454054  0.500000  1
  Ir  Ir22  1  0.753712  0.550527  0.500000  1
  Ir  Ir23  1  0.452443  0.245268  0.500000  1
