# generated using pymatgen
data_Dy3YCo9Si5
_symmetry_space_group_name_H-M   'P 1'
_cell_length_a   11.33962479
_cell_length_b   11.33962462
_cell_length_c   11.33962503
_cell_angle_alpha   26.52965263
_cell_angle_beta   26.52965661
_cell_angle_gamma   26.52964902
_symmetry_Int_Tables_number   1
_chemical_formula_structural   Dy3YCo9Si5
_chemical_formula_sum   'Dy3 Y1 Co9 Si5'
_cell_volume   256.42871783
_cell_formula_units_Z   1
loop_
 _symmetry_equiv_pos_site_id
 _symmetry_equiv_pos_as_xyz
  1  'x, y, z'
loop_
 _atom_site_type_symbol
 _atom_site_label
 _atom_site_symmetry_multiplicity
 _atom_site_fract_x
 _atom_site_fract_y
 _atom_site_fract_z
 _atom_site_occupancy
  Dy  Dy0  1  0.949424  0.949424  0.949424  1
  Dy  Dy1  1  0.851825  0.851825  0.851825  1
  Dy  Dy2  1  0.148184  0.148184  0.148184  1
  Y  Y3  1  0.050576  0.050576  0.050576  1
  Co  Co4  1  0.607763  0.607763  0.108208  1
  Co  Co5  1  0.891788  0.392249  0.392249  1
  Co  Co6  1  0.499987  0.999993  0.499987  1
  Co  Co7  1  0.392249  0.891788  0.392249  1
  Co  Co8  1  0.499987  0.499987  0.999993  1
  Co  Co9  1  0.108208  0.607763  0.607763  1
  Co  Co10  1  0.999993  0.499987  0.499987  1
  Co  Co11  1  0.392249  0.392249  0.891788  1
  Co  Co12  1  0.607763  0.108208  0.607763  1
  Si  Si13  1  0.278808  0.278808  0.278808  1
  Si  Si14  1  0.499995  0.499995  0.499995  1
  Si  Si15  1  0.387576  0.387576  0.387576  1
  Si  Si16  1  0.721197  0.721197  0.721197  1
  Si  Si17  1  0.612428  0.612428  0.612428  1
