# generated using pymatgen
data_La4PrNd(PtI3)2
_symmetry_space_group_name_H-M   'P 1'
_cell_length_a   11.01751112
_cell_length_b   11.00519940
_cell_length_c   11.02581048
_cell_angle_alpha   109.73004290
_cell_angle_beta   109.49150792
_cell_angle_gamma   109.11921560
_symmetry_Int_Tables_number   1
_chemical_formula_structural   La4PrNd(PtI3)2
_chemical_formula_sum   'La8 Pr2 Nd2 Pt4 I12'
_cell_volume   1030.03203980
_cell_formula_units_Z   2
loop_
 _symmetry_equiv_pos_site_id
 _symmetry_equiv_pos_as_xyz
  1  'x, y, z'
loop_
 _atom_site_type_symbol
 _atom_site_label
 _atom_site_symmetry_multiplicity
 _atom_site_fract_x
 _atom_site_fract_y
 _atom_site_fract_z
 _atom_site_occupancy
  La  La0  1  0.267880  0.743758  0.227076  1
  La  La1  1  0.042663  0.269710  0.023655  1
  La  La2  1  0.017107  0.042357  0.274685  1
  La  La3  1  0.481590  0.750270  0.017646  1
  La  La4  1  0.478906  0.231751  0.460727  1
  La  La5  1  0.014502  0.476439  0.741196  1
  La  La6  1  0.270909  0.018105  0.039136  1
  La  La7  1  0.234292  0.272329  0.756551  1
  Pr  Pr8  1  0.746151  0.019195  0.476423  1
  Pr  Pr9  1  0.232711  0.463767  0.482154  1
  Nd  Nd10  1  0.461806  0.479547  0.231504  1
  Nd  Nd11  1  0.748980  0.230304  0.270038  1
  Pt  Pt12  1  0.251786  0.250572  0.251443  1
  Pt  Pt13  1  0.498066  0.999517  0.247882  1
  Pt  Pt14  1  0.001944  0.252421  0.501619  1
  Pt  Pt15  1  0.251089  0.500459  0.999038  1
  I  I16  1  0.249169  0.759035  0.738831  1
  I  I17  1  0.519908  0.510072  0.760270  1
  I  I18  1  0.982276  0.741104  0.991057  1
  I  I19  1  0.741423  0.249801  0.758555  1
  I  I20  1  0.991079  0.982482  0.740617  1
  I  I21  1  0.250057  0.991188  0.508924  1
  I  I22  1  0.755881  0.516641  0.502895  1
  I  I23  1  0.513778  0.252966  0.997066  1
  I  I24  1  0.755895  0.738232  0.250367  1
  I  I25  1  0.740679  0.994689  0.983721  1
  I  I26  1  0.988633  0.506371  0.250880  1
  I  I27  1  0.510839  0.756919  0.516044  1
