# generated using pymatgen
data_CaYb3(BeSi3)2
_symmetry_space_group_name_H-M   'P 1'
_cell_length_a   8.07910951
_cell_length_b   7.88098387
_cell_length_c   5.83902324
_cell_angle_alpha   70.36102751
_cell_angle_beta   66.74147330
_cell_angle_gamma   42.89750776
_symmetry_Int_Tables_number   1
_chemical_formula_structural   CaYb3(BeSi3)2
_chemical_formula_sum   'Ca1 Yb3 Be2 Si6'
_cell_volume   231.84711591
_cell_formula_units_Z   1
loop_
 _symmetry_equiv_pos_site_id
 _symmetry_equiv_pos_as_xyz
  1  'x, y, z'
loop_
 _atom_site_type_symbol
 _atom_site_label
 _atom_site_symmetry_multiplicity
 _atom_site_fract_x
 _atom_site_fract_y
 _atom_site_fract_z
 _atom_site_occupancy
  Ca  Ca0  1  0.250000  0.250000  0.250001  1
  Yb  Yb1  1  0.242799  0.757201  0.242800  1
  Yb  Yb2  1  0.757201  0.242800  0.757202  1
  Yb  Yb3  1  0.750001  0.749999  0.750000  1
  Be  Be4  1  0.666538  0.666539  0.333462  1
  Be  Be5  1  0.333461  0.333462  0.666539  1
  Si  Si6  1  0.825427  0.346621  0.173992  1
  Si  Si7  1  0.827671  0.827671  0.172330  1
  Si  Si8  1  0.653961  0.173992  0.346621  1
  Si  Si9  1  0.346621  0.825427  0.653962  1
  Si  Si10  1  0.172329  0.172330  0.827672  1
  Si  Si11  1  0.173991  0.653962  0.825427  1
