# generated using pymatgen
data_Nb20Al2Os7Pt
_symmetry_space_group_name_H-M   'P 1'
_cell_length_a   9.93236081
_cell_length_b   9.95097177
_cell_length_c   5.17555300
_cell_angle_alpha   90.00000000
_cell_angle_beta   90.00000000
_cell_angle_gamma   89.75463150
_symmetry_Int_Tables_number   1
_chemical_formula_structural   Nb20Al2Os7Pt
_chemical_formula_sum   'Nb20 Al2 Os7 Pt1'
_cell_volume   511.52958857
_cell_formula_units_Z   1
loop_
 _symmetry_equiv_pos_site_id
 _symmetry_equiv_pos_as_xyz
  1  'x, y, z'
loop_
 _atom_site_type_symbol
 _atom_site_label
 _atom_site_symmetry_multiplicity
 _atom_site_fract_x
 _atom_site_fract_y
 _atom_site_fract_z
 _atom_site_occupancy
  Nb  Nb0  1  0.396124  0.395844  0.000000  1
  Nb  Nb1  1  0.895252  0.103550  0.500000  1
  Nb  Nb2  1  0.104477  0.894549  0.500000  1
  Nb  Nb3  1  0.604683  0.606020  0.000000  1
  Nb  Nb4  1  0.127131  0.465081  0.000000  1
  Nb  Nb5  1  0.964756  0.372453  0.500000  1
  Nb  Nb6  1  0.033391  0.627413  0.500000  1
  Nb  Nb7  1  0.871303  0.533656  0.000000  1
  Nb  Nb8  1  0.373792  0.964717  0.500000  1
  Nb  Nb9  1  0.626101  0.034129  0.500000  1
  Nb  Nb10  1  0.468359  0.130539  0.000000  1
  Nb  Nb11  1  0.536829  0.873512  0.000000  1
  Nb  Nb12  1  0.181789  0.186556  0.252180  1
  Nb  Nb13  1  0.683184  0.316973  0.750413  1
  Nb  Nb14  1  0.316898  0.680240  0.750933  1
  Nb  Nb15  1  0.817624  0.817406  0.250738  1
  Nb  Nb16  1  0.316898  0.680240  0.249067  1
  Nb  Nb17  1  0.683184  0.316973  0.249587  1
  Nb  Nb18  1  0.181789  0.186556  0.747820  1
  Nb  Nb19  1  0.817624  0.817406  0.749262  1
  Al  Al20  1  0.001312  0.997968  0.000000  1
  Al  Al21  1  0.500172  0.499616  0.500000  1
  Os  Os22  1  0.435678  0.243947  0.500000  1
  Os  Os23  1  0.561727  0.755808  0.500000  1
  Os  Os24  1  0.744694  0.064036  0.000000  1
  Os  Os25  1  0.244122  0.436546  0.500000  1
  Os  Os26  1  0.755115  0.564694  0.500000  1
  Os  Os27  1  0.935872  0.254382  0.000000  1
  Os  Os28  1  0.063050  0.741422  0.000000  1
  Pt  Pt29  1  0.257067  0.937767  0.000000  1
