# generated using pymatgen
data_Nd4Y2RhBr10
_symmetry_space_group_name_H-M   'P 1'
_cell_length_a   7.51000249
_cell_length_b   9.43211006
_cell_length_c   9.57016406
_cell_angle_alpha   108.68784733
_cell_angle_beta   96.36227560
_cell_angle_gamma   105.18550577
_symmetry_Int_Tables_number   1
_chemical_formula_structural   Nd4Y2RhBr10
_chemical_formula_sum   'Nd4 Y2 Rh1 Br10'
_cell_volume   605.51668943
_cell_formula_units_Z   1
loop_
 _symmetry_equiv_pos_site_id
 _symmetry_equiv_pos_as_xyz
  1  'x, y, z'
loop_
 _atom_site_type_symbol
 _atom_site_label
 _atom_site_symmetry_multiplicity
 _atom_site_fract_x
 _atom_site_fract_y
 _atom_site_fract_z
 _atom_site_occupancy
  Nd  Nd0  1  0.470368  0.795969  0.593541  1
  Nd  Nd1  1  0.529632  0.204031  0.406459  1
  Nd  Nd2  1  0.371819  0.453392  0.751179  1
  Nd  Nd3  1  0.628181  0.546608  0.248821  1
  Y  Y4  1  0.862609  0.635480  0.677732  1
  Y  Y5  1  0.137391  0.364520  0.322268  1
  Rh  Rh6  1  0.500000  0.500000  0.500000  1
  Br  Br7  1  0.413135  0.131217  0.673789  1
  Br  Br8  1  0.586865  0.868783  0.326211  1
  Br  Br9  1  0.047744  0.672743  0.418543  1
  Br  Br10  1  0.952256  0.327257  0.581457  1
  Br  Br11  1  0.271794  0.755098  0.844966  1
  Br  Br12  1  0.728206  0.244902  0.155034  1
  Br  Br13  1  0.241377  0.413208  0.050299  1
  Br  Br14  1  0.758623  0.586792  0.949701  1
  Br  Br15  1  0.858965  0.947973  0.771332  1
  Br  Br16  1  0.141035  0.052027  0.228668  1
