# generated using pymatgen
data_PrNdY4OsI10
_symmetry_space_group_name_H-M   'P 1'
_cell_length_a   7.84181119
_cell_length_b   9.90427916
_cell_length_c   9.85371408
_cell_angle_alpha   106.59186288
_cell_angle_beta   96.05011914
_cell_angle_gamma   105.03270178
_symmetry_Int_Tables_number   1
_chemical_formula_structural   PrNdY4OsI10
_chemical_formula_sum   'Pr1 Nd1 Y4 Os1 I10'
_cell_volume   694.90512437
_cell_formula_units_Z   1
loop_
 _symmetry_equiv_pos_site_id
 _symmetry_equiv_pos_as_xyz
  1  'x, y, z'
loop_
 _atom_site_type_symbol
 _atom_site_label
 _atom_site_symmetry_multiplicity
 _atom_site_fract_x
 _atom_site_fract_y
 _atom_site_fract_z
 _atom_site_occupancy
  Pr  Pr0  1  0.885093  0.956438  0.232669  1
  Nd  Nd1  1  0.114445  0.043336  0.767900  1
  Y  Y2  1  0.969456  0.288727  0.086439  1
  Y  Y3  1  0.030728  0.711317  0.913214  1
  Y  Y4  1  0.351667  0.126348  0.167148  1
  Y  Y5  1  0.648540  0.873786  0.832631  1
  Os  Os6  1  0.000119  0.000001  0.999644  1
  I  I7  1  0.346359  0.446070  0.269307  1
  I  I8  1  0.653623  0.553942  0.730730  1
  I  I9  1  0.264510  0.088375  0.454931  1
  I  I10  1  0.736663  0.912043  0.545961  1
  I  I11  1  0.084736  0.376420  0.824198  1
  I  I12  1  0.915403  0.622676  0.175513  1
  I  I13  1  0.450716  0.817851  0.089028  1
  I  I14  1  0.548234  0.181754  0.910532  1
  I  I15  1  0.776585  0.260220  0.342187  1
  I  I16  1  0.223122  0.740693  0.657969  1
