# generated using pymatgen
data_Rb14Nb2In(GaAs2)5
_symmetry_space_group_name_H-M   'P 1'
_cell_length_a   8.64100623
_cell_length_b   9.43322067
_cell_length_c   14.47473411
_cell_angle_alpha   85.17472376
_cell_angle_beta   81.91148215
_cell_angle_gamma   86.35889745
_symmetry_Int_Tables_number   1
_chemical_formula_structural   Rb14Nb2In(GaAs2)5
_chemical_formula_sum   'Rb14 Nb2 In1 Ga5 As10'
_cell_volume   1162.39683104
_cell_formula_units_Z   1
loop_
 _symmetry_equiv_pos_site_id
 _symmetry_equiv_pos_as_xyz
  1  'x, y, z'
loop_
 _atom_site_type_symbol
 _atom_site_label
 _atom_site_symmetry_multiplicity
 _atom_site_fract_x
 _atom_site_fract_y
 _atom_site_fract_z
 _atom_site_occupancy
  Rb  Rb0  1  0.844399  0.364505  0.638979  1
  Rb  Rb1  1  0.819547  0.820753  0.130799  1
  Rb  Rb2  1  0.245362  0.005880  0.469102  1
  Rb  Rb3  1  0.273222  0.251732  0.256130  1
  Rb  Rb4  1  0.743810  0.497335  0.973717  1
  Rb  Rb5  1  0.255654  0.502492  0.027212  1
  Rb  Rb6  1  0.686840  0.077218  0.884398  1
  Rb  Rb7  1  0.754560  0.994628  0.529953  1
  Rb  Rb8  1  0.725903  0.747169  0.741778  1
  Rb  Rb9  1  0.334558  0.328012  0.609932  1
  Rb  Rb10  1  0.155163  0.634973  0.360322  1
  Rb  Rb11  1  0.180078  0.181711  0.870250  1
  Rb  Rb12  1  0.310079  0.924153  0.116156  1
  Rb  Rb13  1  0.665272  0.671636  0.389538  1
  Nb  Nb14  1  0.351701  0.604121  0.772938  1
  Nb  Nb15  1  0.648144  0.395439  0.227630  1
  In  In16  1  0.041843  0.817050  0.866976  1
  Ga  Ga17  1  0.949823  0.184898  0.141475  1
  Ga  Ga18  1  0.353500  0.946744  0.699515  1
  Ga  Ga19  1  0.100459  0.726679  0.628179  1
  Ga  Ga20  1  0.900067  0.273099  0.371184  1
  Ga  Ga21  1  0.647474  0.053308  0.300216  1
  As  As22  1  0.931652  0.446223  0.212273  1
  As  As23  1  0.643870  0.184993  0.129347  1
  As  As24  1  0.069740  0.546600  0.784620  1
  As  As25  1  0.587915  0.288586  0.394288  1
  As  As26  1  0.411821  0.711098  0.606157  1
  As  As27  1  0.030761  0.001002  0.695245  1
  As  As28  1  0.518917  0.395772  0.810606  1
  As  As29  1  0.480814  0.604214  0.188992  1
  As  As30  1  0.367413  0.814700  0.870390  1
  As  As31  1  0.969640  0.003277  0.301701  1
