# generated using pymatgen
data_Lu4BS3
_symmetry_space_group_name_H-M   'P 1'
_cell_length_a   6.57881038
_cell_length_b   6.57881071
_cell_length_c   6.57881044
_cell_angle_alpha   131.98192168
_cell_angle_beta   131.98191925
_cell_angle_gamma   70.25758154
_symmetry_Int_Tables_number   1
_chemical_formula_structural   Lu4BS3
_chemical_formula_sum   'Lu4 B1 S3'
_cell_volume   154.21115306
_cell_formula_units_Z   1
loop_
 _symmetry_equiv_pos_site_id
 _symmetry_equiv_pos_as_xyz
  1  'x, y, z'
loop_
 _atom_site_type_symbol
 _atom_site_label
 _atom_site_symmetry_multiplicity
 _atom_site_fract_x
 _atom_site_fract_y
 _atom_site_fract_z
 _atom_site_occupancy
  Lu  Lu0  1  0.267392  0.267392  0.000000  1
  Lu  Lu1  1  0.732608  0.732608  0.000000  1
  Lu  Lu2  1  0.499999  0.000000  0.499999  1
  Lu  Lu3  1  0.000000  0.499999  0.499999  1
  B  B4  1  0.500000  0.500000  0.000000  1
  S  S5  1  0.000000  0.000000  0.000000  1
  S  S6  1  0.749999  0.250000  0.499999  1
  S  S7  1  0.250000  0.749999  0.499999  1
