# generated using pymatgen
data_Ca3Pr5(Ge3Rh4)2
_symmetry_space_group_name_H-M   'P 1'
_cell_length_a   11.02698316
_cell_length_b   11.04556951
_cell_length_c   7.99640864
_cell_angle_alpha   71.42454770
_cell_angle_beta   71.55463781
_cell_angle_gamma   30.12549950
_symmetry_Int_Tables_number   1
_chemical_formula_structural   Ca3Pr5(Ge3Rh4)2
_chemical_formula_sum   'Ca3 Pr5 Ge6 Rh8'
_cell_volume   461.64620360
_cell_formula_units_Z   1
loop_
 _symmetry_equiv_pos_site_id
 _symmetry_equiv_pos_as_xyz
  1  'x, y, z'
loop_
 _atom_site_type_symbol
 _atom_site_label
 _atom_site_symmetry_multiplicity
 _atom_site_fract_x
 _atom_site_fract_y
 _atom_site_fract_z
 _atom_site_occupancy
  Ca  Ca0  1  0.072055  0.792583  0.671162  1
  Ca  Ca1  1  0.213582  0.924608  0.827081  1
  Ca  Ca2  1  0.786879  0.552405  0.600411  1
  Pr  Pr3  1  0.211325  0.442989  0.404857  1
  Pr  Pr4  1  0.558878  0.784032  0.096947  1
  Pr  Pr5  1  0.440585  0.219638  0.899900  1
  Pr  Pr6  1  0.927400  0.204622  0.338622  1
  Pr  Pr7  1  0.797296  0.072754  0.160295  1
  Ge  Ge8  1  0.613194  0.387050  0.750318  1
  Ge  Ge9  1  0.375432  0.624522  0.250123  1
  Ge  Ge10  1  0.302027  0.042945  0.444065  1
  Ge  Ge11  1  0.948300  0.704649  0.059199  1
  Ge  Ge12  1  0.708381  0.950472  0.560332  1
  Ge  Ge13  1  0.048364  0.292185  0.937577  1
  Rh  Rh14  1  0.297566  0.577742  0.027539  1
  Rh  Rh15  1  0.579036  0.299618  0.522543  1
  Rh  Rh16  1  0.698976  0.421667  0.979151  1
  Rh  Rh17  1  0.076468  0.362946  0.185964  1
  Rh  Rh18  1  0.626978  0.933917  0.313258  1
  Rh  Rh19  1  0.419308  0.703970  0.473332  1
  Rh  Rh20  1  0.927612  0.627513  0.812985  1
  Rh  Rh21  1  0.370359  0.077172  0.684340  1
