# generated using pymatgen
data_Zr12Zn2SiNi(Ir2N)4
_symmetry_space_group_name_H-M   'P 1'
_cell_length_a   8.52002109
_cell_length_b   8.52002090
_cell_length_c   8.57327100
_cell_angle_alpha   60.20525050
_cell_angle_beta   60.20525121
_cell_angle_gamma   60.00000511
_symmetry_Int_Tables_number   1
_chemical_formula_structural   Zr12Zn2SiNi(Ir2N)4
_chemical_formula_sum   'Zr12 Zn2 Si1 Ni1 Ir8 N4'
_cell_volume   441.42131227
_cell_formula_units_Z   1
loop_
 _symmetry_equiv_pos_site_id
 _symmetry_equiv_pos_as_xyz
  1  'x, y, z'
loop_
 _atom_site_type_symbol
 _atom_site_label
 _atom_site_symmetry_multiplicity
 _atom_site_fract_x
 _atom_site_fract_y
 _atom_site_fract_z
 _atom_site_occupancy
  Zr  Zr0  1  0.805205  0.196289  0.193541  1
  Zr  Zr1  1  0.195238  0.805915  0.192932  1
  Zr  Zr2  1  0.805205  0.804965  0.193541  1
  Zr  Zr3  1  0.192262  0.807327  0.808346  1
  Zr  Zr4  1  0.807658  0.192363  0.807617  1
  Zr  Zr5  1  0.192262  0.192065  0.808346  1
  Zr  Zr6  1  0.444795  0.053711  0.056459  1
  Zr  Zr7  1  0.054762  0.444085  0.057068  1
  Zr  Zr8  1  0.444795  0.445035  0.056459  1
  Zr  Zr9  1  0.057738  0.442673  0.441654  1
  Zr  Zr10  1  0.442342  0.057637  0.442383  1
  Zr  Zr11  1  0.057738  0.057935  0.441654  1
  Zn  Zn12  1  0.625000  0.625000  0.625000  1
  Zn  Zn13  1  0.625000  0.125000  0.625000  1
  Si  Si14  1  0.125000  0.625000  0.625000  1
  Ni  Ni15  1  0.625000  0.625000  0.125000  1
  Ir  Ir16  1  0.407721  0.419017  0.754243  1
  Ir  Ir17  1  0.410503  0.421312  0.415980  1
  Ir  Ir18  1  0.753828  0.417027  0.412116  1
  Ir  Ir19  1  0.410503  0.752203  0.415980  1
  Ir  Ir20  1  0.842279  0.830983  0.495757  1
  Ir  Ir21  1  0.839497  0.828688  0.834020  1
  Ir  Ir22  1  0.496172  0.832973  0.837884  1
  Ir  Ir23  1  0.839497  0.497797  0.834020  1
  N  N24  1  0.125000  0.125000  0.625000  1
  N  N25  1  0.125000  0.125000  0.125000  1
  N  N26  1  0.625000  0.125000  0.125000  1
  N  N27  1  0.125000  0.625000  0.125000  1
