# generated using pymatgen
data_Nd8CoCu2Si12Rh
_symmetry_space_group_name_H-M   'P 1'
_cell_length_a   8.13844900
_cell_length_b   8.13844961
_cell_length_c   8.52248900
_cell_angle_alpha   90.00000000
_cell_angle_beta   90.00000000
_cell_angle_gamma   120.00000157
_symmetry_Int_Tables_number   1
_chemical_formula_structural   Nd8CoCu2Si12Rh
_chemical_formula_sum   'Nd8 Co1 Cu2 Si12 Rh1'
_cell_volume   488.85538040
_cell_formula_units_Z   1
loop_
 _symmetry_equiv_pos_site_id
 _symmetry_equiv_pos_as_xyz
  1  'x, y, z'
loop_
 _atom_site_type_symbol
 _atom_site_label
 _atom_site_symmetry_multiplicity
 _atom_site_fract_x
 _atom_site_fract_y
 _atom_site_fract_z
 _atom_site_occupancy
  Nd  Nd0  1  0.000000  0.000000  0.749918  1
  Nd  Nd1  1  0.000000  0.000000  0.250126  1
  Nd  Nd2  1  0.500763  0.499237  0.755818  1
  Nd  Nd3  1  0.500763  0.001528  0.755818  1
  Nd  Nd4  1  0.998472  0.499237  0.755818  1
  Nd  Nd5  1  0.501316  0.498684  0.244312  1
  Nd  Nd6  1  0.997370  0.498684  0.244312  1
  Nd  Nd7  1  0.501316  0.002630  0.244312  1
  Co  Co8  1  0.666667  0.333333  0.998135  1
  Cu  Cu9  1  0.666667  0.333333  0.501629  1
  Cu  Cu10  1  0.333333  0.666667  0.498941  1
  Si  Si11  1  0.827876  0.172124  0.999610  1
  Si  Si12  1  0.827876  0.655752  0.999610  1
  Si  Si13  1  0.344248  0.172124  0.999610  1
  Si  Si14  1  0.831937  0.168063  0.500093  1
  Si  Si15  1  0.831937  0.663874  0.500093  1
  Si  Si16  1  0.336126  0.168063  0.500093  1
  Si  Si17  1  0.168510  0.831490  0.499826  1
  Si  Si18  1  0.662980  0.831490  0.499826  1
  Si  Si19  1  0.168510  0.337020  0.499826  1
  Si  Si20  1  0.166121  0.833879  0.000411  1
  Si  Si21  1  0.667760  0.833879  0.000411  1
  Si  Si22  1  0.166121  0.332240  0.000411  1
  Rh  Rh23  1  0.333333  0.666667  0.001037  1
