# generated using pymatgen
data_Tc5B6RuW6
_symmetry_space_group_name_H-M   'P 1'
_cell_length_a   3.05418600
_cell_length_b   9.01635228
_cell_length_c   15.56472329
_cell_angle_alpha   89.73810576
_cell_angle_beta   90.00000000
_cell_angle_gamma   90.00000000
_symmetry_Int_Tables_number   1
_chemical_formula_structural   Tc5B6RuW6
_chemical_formula_sum   'Tc10 B12 Ru2 W12'
_cell_volume   428.61090939
_cell_formula_units_Z   2
loop_
 _symmetry_equiv_pos_site_id
 _symmetry_equiv_pos_as_xyz
  1  'x, y, z'
loop_
 _atom_site_type_symbol
 _atom_site_label
 _atom_site_symmetry_multiplicity
 _atom_site_fract_x
 _atom_site_fract_y
 _atom_site_fract_z
 _atom_site_occupancy
  Tc  Tc0  1  0.500000  0.714811  0.354382  1
  Tc  Tc1  1  0.500000  0.285189  0.645618  1
  Tc  Tc2  1  0.500000  0.213117  0.146702  1
  Tc  Tc3  1  0.500000  0.786883  0.853298  1
  Tc  Tc4  1  0.500000  0.515437  0.090768  1
  Tc  Tc5  1  0.500000  0.484563  0.909232  1
  Tc  Tc6  1  0.500000  0.015440  0.408060  1
  Tc  Tc7  1  0.500000  0.984560  0.591940  1
  Tc  Tc8  1  0.500000  0.559231  0.733574  1
  Tc  Tc9  1  0.500000  0.440769  0.266426  1
  B  B10  1  0.500000  0.606133  0.494665  1
  B  B11  1  0.500000  0.393867  0.505335  1
  B  B12  1  0.500000  0.105158  0.005193  1
  B  B13  1  0.500000  0.894842  0.994807  1
  B  B14  1  0.000000  0.610192  0.833999  1
  B  B15  1  0.000000  0.389808  0.166001  1
  B  B16  1  0.000000  0.112184  0.665384  1
  B  B17  1  0.000000  0.887816  0.334616  1
  B  B18  1  0.500000  0.718155  0.600889  1
  B  B19  1  0.500000  0.281845  0.399111  1
  B  B20  1  0.500000  0.220325  0.900148  1
  B  B21  1  0.500000  0.779675  0.099852  1
  Ru  Ru22  1  0.500000  0.059827  0.765638  1
  Ru  Ru23  1  0.500000  0.940173  0.234362  1
  W  W24  1  0.000000  0.796201  0.496999  1
  W  W25  1  0.000000  0.203799  0.503001  1
  W  W26  1  0.000000  0.294799  0.004234  1
  W  W27  1  0.000000  0.705201  0.995766  1
  W  W28  1  0.000000  0.520072  0.592366  1
  W  W29  1  0.000000  0.479928  0.407634  1
  W  W30  1  0.000000  0.020960  0.908027  1
  W  W31  1  0.000000  0.979040  0.091973  1
  W  W32  1  0.000000  0.686654  0.199704  1
  W  W33  1  0.000000  0.313346  0.800296  1
  W  W34  1  0.000000  0.190455  0.299980  1
  W  W35  1  0.000000  0.809545  0.700020  1
