# generated using pymatgen
data_Hf2Zr8InGa2Sb5
_symmetry_space_group_name_H-M   'P 1'
_cell_length_a   8.68645105
_cell_length_b   8.67344547
_cell_length_c   5.86870203
_cell_angle_alpha   90.01227111
_cell_angle_beta   89.99417336
_cell_angle_gamma   119.95212276
_symmetry_Int_Tables_number   1
_chemical_formula_structural   Hf2Zr8InGa2Sb5
_chemical_formula_sum   'Hf2 Zr8 In1 Ga2 Sb5'
_cell_volume   383.10342164
_cell_formula_units_Z   1
loop_
 _symmetry_equiv_pos_site_id
 _symmetry_equiv_pos_as_xyz
  1  'x, y, z'
loop_
 _atom_site_type_symbol
 _atom_site_label
 _atom_site_symmetry_multiplicity
 _atom_site_fract_x
 _atom_site_fract_y
 _atom_site_fract_z
 _atom_site_occupancy
  Hf  Hf0  1  0.334902  0.667749  0.498872  1
  Hf  Hf1  1  0.665098  0.332852  0.498858  1
  Zr  Zr2  1  0.733487  0.733211  0.749846  1
  Zr  Zr3  1  0.266507  0.999716  0.749844  1
  Zr  Zr4  1  0.999998  0.265724  0.749766  1
  Zr  Zr5  1  0.269938  0.268721  0.250384  1
  Zr  Zr6  1  0.730064  0.998790  0.250379  1
  Zr  Zr7  1  0.999995  0.732698  0.250559  1
  Zr  Zr8  1  0.664518  0.332981  0.000544  1
  Zr  Zr9  1  0.335482  0.668457  0.000530  1
  In  In10  1  0.000049  0.385968  0.251334  1
  Ga  Ga11  1  0.999998  0.001588  0.002951  1
  Ga  Ga12  1  0.999998  0.001553  0.497231  1
  Sb  Sb13  1  0.388642  0.389748  0.748671  1
  Sb  Sb14  1  0.611350  0.001120  0.748653  1
  Sb  Sb15  1  0.999982  0.607234  0.748631  1
  Sb  Sb16  1  0.611311  0.611607  0.251480  1
  Sb  Sb17  1  0.388682  0.000283  0.251470  1
