# generated using pymatgen
data_Ti13Al9GaRh7
_symmetry_space_group_name_H-M   'P 1'
_cell_length_a   8.74027094
_cell_length_b   8.74027080
_cell_length_c   8.74027151
_cell_angle_alpha   59.86965776
_cell_angle_beta   59.86965356
_cell_angle_gamma   59.86967195
_symmetry_Int_Tables_number   1
_chemical_formula_structural   Ti13Al9GaRh7
_chemical_formula_sum   'Ti13 Al9 Ga1 Rh7'
_cell_volume   470.73161942
_cell_formula_units_Z   1
loop_
 _symmetry_equiv_pos_site_id
 _symmetry_equiv_pos_as_xyz
  1  'x, y, z'
loop_
 _atom_site_type_symbol
 _atom_site_label
 _atom_site_symmetry_multiplicity
 _atom_site_fract_x
 _atom_site_fract_y
 _atom_site_fract_z
 _atom_site_occupancy
  Ti  Ti0  1  0.213381  0.213381  0.785313  1
  Ti  Ti1  1  0.785313  0.213381  0.213381  1
  Ti  Ti2  1  0.213381  0.785313  0.213381  1
  Ti  Ti3  1  0.794148  0.794148  0.194618  1
  Ti  Ti4  1  0.194618  0.794148  0.794148  1
  Ti  Ti5  1  0.794148  0.194618  0.794148  1
  Ti  Ti6  1  0.377975  0.377975  0.377975  1
  Ti  Ti7  1  0.378832  0.866828  0.378832  1
  Ti  Ti8  1  0.866828  0.378832  0.378832  1
  Ti  Ti9  1  0.378832  0.378832  0.866828  1
  Ti  Ti10  1  0.842021  0.476189  0.842021  1
  Ti  Ti11  1  0.476189  0.842021  0.842021  1
  Ti  Ti12  1  0.842021  0.842021  0.476189  1
  Al  Al13  1  0.153238  0.153238  0.153238  1
  Al  Al14  1  0.156536  0.533570  0.156536  1
  Al  Al15  1  0.533570  0.156536  0.156536  1
  Al  Al16  1  0.156536  0.156536  0.533570  1
  Al  Al17  1  0.618842  0.618842  0.618842  1
  Al  Al18  1  0.619968  0.143540  0.619968  1
  Al  Al19  1  0.143540  0.619968  0.619968  1
  Al  Al20  1  0.619968  0.619968  0.143540  1
  Al  Al21  1  0.831359  0.831359  0.831359  1
  Ga  Ga22  1  0.003787  0.003787  0.003787  1
  Rh  Rh23  1  0.003438  0.003438  0.497233  1
  Rh  Rh24  1  0.497233  0.003438  0.003438  1
  Rh  Rh25  1  0.003438  0.497233  0.003438  1
  Rh  Rh26  1  0.499589  0.499589  0.001278  1
  Rh  Rh27  1  0.001278  0.499589  0.499589  1
  Rh  Rh28  1  0.499589  0.001278  0.499589  1
  Rh  Rh29  1  0.500402  0.500402  0.500402  1
