# generated using pymatgen
data_V3Ag2SeS6
_symmetry_space_group_name_H-M   'P 1'
_cell_length_a   5.52981000
_cell_length_b   5.52981055
_cell_length_c   7.90471000
_cell_angle_alpha   90.00000000
_cell_angle_beta   90.00000000
_cell_angle_gamma   120.00000865
_symmetry_Int_Tables_number   1
_chemical_formula_structural   V3Ag2SeS6
_chemical_formula_sum   'V3 Ag2 Se1 S6'
_cell_volume   209.33266285
_cell_formula_units_Z   1
loop_
 _symmetry_equiv_pos_site_id
 _symmetry_equiv_pos_as_xyz
  1  'x, y, z'
loop_
 _atom_site_type_symbol
 _atom_site_label
 _atom_site_symmetry_multiplicity
 _atom_site_fract_x
 _atom_site_fract_y
 _atom_site_fract_z
 _atom_site_occupancy
  V  V0  1  0.663931  0.663931  0.500000  1
  V  V1  1  0.336069  0.000000  0.500000  1
  V  V2  1  0.000000  0.336069  0.500000  1
  Ag  Ag3  1  0.666667  0.333333  0.000000  1
  Ag  Ag4  1  0.333333  0.666667  0.000000  1
  Se  Se5  1  0.000000  0.000000  0.000000  1
  S  S6  1  0.333333  0.666667  0.685045  1
  S  S7  1  0.333333  0.666667  0.314955  1
  S  S8  1  0.666667  0.333333  0.685045  1
  S  S9  1  0.666667  0.333333  0.314955  1
  S  S10  1  0.000000  0.000000  0.681529  1
  S  S11  1  0.000000  0.000000  0.318471  1
