# generated using pymatgen
data_K2NpBr5
_symmetry_space_group_name_H-M   'P 1'
_cell_length_a   8.61456600
_cell_length_b   9.23542700
_cell_length_c   13.72953400
_cell_angle_alpha   90.00000000
_cell_angle_beta   90.00000000
_cell_angle_gamma   90.00000000
_symmetry_Int_Tables_number   1
_chemical_formula_structural   K2NpBr5
_chemical_formula_sum   'K8 Np4 Br20'
_cell_volume   1092.31067866
_cell_formula_units_Z   4
loop_
 _symmetry_equiv_pos_site_id
 _symmetry_equiv_pos_as_xyz
  1  'x, y, z'
loop_
 _atom_site_type_symbol
 _atom_site_label
 _atom_site_symmetry_multiplicity
 _atom_site_fract_x
 _atom_site_fract_y
 _atom_site_fract_z
 _atom_site_occupancy
  K  K0  1  0.948436  0.004478  0.828252  1
  K  K1  1  0.051564  0.995522  0.171748  1
  K  K2  1  0.448436  0.995522  0.671748  1
  K  K3  1  0.051564  0.504478  0.171748  1
  K  K4  1  0.551564  0.004478  0.328252  1
  K  K5  1  0.948436  0.495522  0.828252  1
  K  K6  1  0.551564  0.495522  0.328252  1
  K  K7  1  0.448436  0.504478  0.671748  1
  Np  Np8  1  0.925864  0.750000  0.504149  1
  Np  Np9  1  0.074136  0.250000  0.495851  1
  Np  Np10  1  0.425864  0.250000  0.995851  1
  Np  Np11  1  0.574136  0.750000  0.004149  1
  Br  Br12  1  0.126007  0.750000  0.678663  1
  Br  Br13  1  0.873993  0.250000  0.321337  1
  Br  Br14  1  0.626007  0.250000  0.821337  1
  Br  Br15  1  0.373993  0.750000  0.178663  1
  Br  Br16  1  0.835559  0.043394  0.576574  1
  Br  Br17  1  0.164441  0.956606  0.423426  1
  Br  Br18  1  0.335559  0.956606  0.923426  1
  Br  Br19  1  0.164441  0.543394  0.423426  1
  Br  Br20  1  0.664441  0.043394  0.076574  1
  Br  Br21  1  0.835559  0.456606  0.576574  1
  Br  Br22  1  0.664441  0.456606  0.076574  1
  Br  Br23  1  0.335559  0.543394  0.923426  1
  Br  Br24  1  0.577257  0.750000  0.508260  1
  Br  Br25  1  0.422743  0.250000  0.491740  1
  Br  Br26  1  0.077257  0.250000  0.991740  1
  Br  Br27  1  0.922743  0.750000  0.008260  1
  Br  Br28  1  0.662745  0.750000  0.796863  1
  Br  Br29  1  0.337255  0.250000  0.203137  1
  Br  Br30  1  0.162745  0.250000  0.703137  1
  Br  Br31  1  0.837255  0.750000  0.296863  1
