# generated using pymatgen
data_Ba6ScAs4
_symmetry_space_group_name_H-M   'P 1'
_cell_length_a   10.74380100
_cell_length_b   10.74380160
_cell_length_c   8.14444100
_cell_angle_alpha   90.00000000
_cell_angle_beta   90.00000000
_cell_angle_gamma   120.00000124
_symmetry_Int_Tables_number   1
_chemical_formula_structural   Ba6ScAs4
_chemical_formula_sum   'Ba12 Sc2 As8'
_cell_volume   814.15640368
_cell_formula_units_Z   2
loop_
 _symmetry_equiv_pos_site_id
 _symmetry_equiv_pos_as_xyz
  1  'x, y, z'
loop_
 _atom_site_type_symbol
 _atom_site_label
 _atom_site_symmetry_multiplicity
 _atom_site_fract_x
 _atom_site_fract_y
 _atom_site_fract_z
 _atom_site_occupancy
  Ba  Ba0  1  0.129002  0.870998  0.167843  1
  Ba  Ba1  1  0.258005  0.129002  0.667843  1
  Ba  Ba2  1  0.870998  0.741995  0.667843  1
  Ba  Ba3  1  0.129002  0.258005  0.167843  1
  Ba  Ba4  1  0.741995  0.870998  0.167843  1
  Ba  Ba5  1  0.870998  0.129002  0.667843  1
  Ba  Ba6  1  0.465480  0.930959  0.497185  1
  Ba  Ba7  1  0.534520  0.069041  0.997185  1
  Ba  Ba8  1  0.930959  0.465480  0.997185  1
  Ba  Ba9  1  0.465480  0.534520  0.497185  1
  Ba  Ba10  1  0.534520  0.465480  0.997185  1
  Ba  Ba11  1  0.069041  0.534520  0.497185  1
  Sc  Sc12  1  0.333333  0.666667  0.886908  1
  Sc  Sc13  1  0.666667  0.333333  0.386908  1
  As  As14  1  0.196639  0.803361  0.781481  1
  As  As15  1  0.393278  0.196639  0.281481  1
  As  As16  1  0.803361  0.606722  0.281481  1
  As  As17  1  0.196639  0.393278  0.781481  1
  As  As18  1  0.606722  0.803361  0.781481  1
  As  As19  1  0.803361  0.196639  0.281481  1
  As  As20  1  0.333333  0.666667  0.214244  1
  As  As21  1  0.666667  0.333333  0.714244  1
