# generated using pymatgen
data_CaEr2Ga8Ag3
_symmetry_space_group_name_H-M   'P 1'
_cell_length_a   4.36207298
_cell_length_b   8.37629807
_cell_length_c   8.37629928
_cell_angle_alpha   70.17815922
_cell_angle_beta   74.90726777
_cell_angle_gamma   74.90726345
_symmetry_Int_Tables_number   1
_chemical_formula_structural   CaEr2Ga8Ag3
_chemical_formula_sum   'Ca1 Er2 Ga8 Ag3'
_cell_volume   272.95376830
_cell_formula_units_Z   1
loop_
 _symmetry_equiv_pos_site_id
 _symmetry_equiv_pos_as_xyz
  1  'x, y, z'
loop_
 _atom_site_type_symbol
 _atom_site_label
 _atom_site_symmetry_multiplicity
 _atom_site_fract_x
 _atom_site_fract_y
 _atom_site_fract_z
 _atom_site_occupancy
  Ca  Ca0  1  0.500000  0.500000  0.500000  1
  Er  Er1  1  0.202687  0.797313  0.797313  1
  Er  Er2  1  0.797313  0.202687  0.202687  1
  Ga  Ga3  1  0.355535  0.361817  0.927111  1
  Ga  Ga4  1  0.644465  0.638183  0.072889  1
  Ga  Ga5  1  0.355535  0.927111  0.361817  1
  Ga  Ga6  1  0.644465  0.072889  0.638183  1
  Ga  Ga7  1  0.160076  0.471742  0.208108  1
  Ga  Ga8  1  0.839924  0.528258  0.791892  1
  Ga  Ga9  1  0.160076  0.208108  0.471742  1
  Ga  Ga10  1  0.839924  0.791892  0.528258  1
  Ag  Ag11  1  0.500000  0.000000  0.000000  1
  Ag  Ag12  1  0.000000  0.810979  0.189021  1
  Ag  Ag13  1  0.000000  0.189021  0.810979  1
