# generated using pymatgen
data_KBa3(AsRu)8
_symmetry_space_group_name_H-M   'P 1'
_cell_length_a   6.89815478
_cell_length_b   9.37183310
_cell_length_c   8.39604608
_cell_angle_alpha   63.28050283
_cell_angle_beta   72.33259942
_cell_angle_gamma   97.70745498
_symmetry_Int_Tables_number   1
_chemical_formula_structural   KBa3(AsRu)8
_chemical_formula_sum   'K1 Ba3 As8 Ru8'
_cell_volume   437.99659989
_cell_formula_units_Z   1
loop_
 _symmetry_equiv_pos_site_id
 _symmetry_equiv_pos_as_xyz
  1  'x, y, z'
loop_
 _atom_site_type_symbol
 _atom_site_label
 _atom_site_symmetry_multiplicity
 _atom_site_fract_x
 _atom_site_fract_y
 _atom_site_fract_z
 _atom_site_occupancy
  K  K0  1  0.000000  0.000000  0.000000  1
  Ba  Ba1  1  0.000009  0.492993  0.753491  1
  Ba  Ba2  1  0.000000  0.000000  0.500000  1
  Ba  Ba3  1  0.999991  0.507007  0.246509  1
  As  As4  1  0.299066  0.325529  0.511999  1
  As  As5  1  0.299187  0.324752  0.013053  1
  As  As6  1  0.302072  0.825279  0.262106  1
  As  As7  1  0.300368  0.824882  0.762203  1
  As  As8  1  0.700934  0.674471  0.488001  1
  As  As9  1  0.700813  0.675248  0.986947  1
  As  As10  1  0.699632  0.175118  0.237797  1
  As  As11  1  0.697928  0.174721  0.737894  1
  Ru  Ru12  1  0.501490  0.625149  0.312070  1
  Ru  Ru13  1  0.501004  0.624832  0.812356  1
  Ru  Ru14  1  0.500248  0.125469  0.062482  1
  Ru  Ru15  1  0.500001  0.125472  0.561808  1
  Ru  Ru16  1  0.498510  0.374851  0.687930  1
  Ru  Ru17  1  0.498996  0.375168  0.187644  1
  Ru  Ru18  1  0.499999  0.874528  0.438192  1
  Ru  Ru19  1  0.499752  0.874531  0.937518  1
