# generated using pymatgen
data_Er3TmSc4In3Co
_symmetry_space_group_name_H-M   'P 1'
_cell_length_a   9.91023800
_cell_length_b   9.91023812
_cell_length_c   6.89189500
_cell_angle_alpha   90.00000000
_cell_angle_beta   90.00000000
_cell_angle_gamma   119.99999961
_symmetry_Int_Tables_number   1
_chemical_formula_structural   Er3TmSc4In3Co
_chemical_formula_sum   'Er6 Tm2 Sc8 In6 Co2'
_cell_volume   586.18872341
_cell_formula_units_Z   2
loop_
 _symmetry_equiv_pos_site_id
 _symmetry_equiv_pos_as_xyz
  1  'x, y, z'
loop_
 _atom_site_type_symbol
 _atom_site_label
 _atom_site_symmetry_multiplicity
 _atom_site_fract_x
 _atom_site_fract_y
 _atom_site_fract_z
 _atom_site_occupancy
  Er  Er0  1  0.533199  0.066399  0.510138  1
  Er  Er1  1  0.933601  0.466801  0.510138  1
  Er  Er2  1  0.533199  0.466801  0.510138  1
  Er  Er3  1  0.466801  0.933601  0.010138  1
  Er  Er4  1  0.066399  0.533199  0.010138  1
  Er  Er5  1  0.466801  0.533199  0.010138  1
  Tm  Tm6  1  0.000000  0.000000  0.503391  1
  Tm  Tm7  1  0.000000  0.000000  0.003391  1
  Sc  Sc8  1  0.179692  0.359385  0.718142  1
  Sc  Sc9  1  0.640615  0.820308  0.718142  1
  Sc  Sc10  1  0.179692  0.820308  0.718142  1
  Sc  Sc11  1  0.820308  0.640615  0.218142  1
  Sc  Sc12  1  0.359385  0.179692  0.218142  1
  Sc  Sc13  1  0.820308  0.179692  0.218142  1
  Sc  Sc14  1  0.666667  0.333333  0.910222  1
  Sc  Sc15  1  0.333333  0.666667  0.410222  1
  In  In16  1  0.836920  0.673838  0.768573  1
  In  In17  1  0.326162  0.163080  0.768573  1
  In  In18  1  0.836920  0.163080  0.768573  1
  In  In19  1  0.163080  0.326162  0.268573  1
  In  In20  1  0.673838  0.836920  0.268573  1
  In  In21  1  0.163080  0.836920  0.268573  1
  Co  Co22  1  0.666667  0.333333  0.274828  1
  Co  Co23  1  0.333333  0.666667  0.774828  1
