# generated using pymatgen
data_Er5TlGa2
_symmetry_space_group_name_H-M   'P 1'
_cell_length_a   8.93001082
_cell_length_b   8.93001117
_cell_length_c   8.93001118
_cell_angle_alpha   128.95281168
_cell_angle_beta   128.95281775
_cell_angle_gamma   75.08650590
_symmetry_Int_Tables_number   1
_chemical_formula_structural   Er5TlGa2
_chemical_formula_sum   'Er10 Tl2 Ga4'
_cell_volume   419.32332332
_cell_formula_units_Z   2
loop_
 _symmetry_equiv_pos_site_id
 _symmetry_equiv_pos_as_xyz
  1  'x, y, z'
loop_
 _atom_site_type_symbol
 _atom_site_label
 _atom_site_symmetry_multiplicity
 _atom_site_fract_x
 _atom_site_fract_y
 _atom_site_fract_z
 _atom_site_occupancy
  Er  Er0  1  0.000000  0.000000  0.000000  1
  Er  Er1  1  0.500000  0.500000  0.000000  1
  Er  Er2  1  0.809715  0.309715  0.830233  1
  Er  Er3  1  0.190285  0.690285  0.169767  1
  Er  Er4  1  0.479480  0.979480  0.169767  1
  Er  Er5  1  0.309715  0.479480  0.500000  1
  Er  Er6  1  0.020520  0.190285  0.500000  1
  Er  Er7  1  0.520520  0.020520  0.830233  1
  Er  Er8  1  0.690285  0.520520  0.500000  1
  Er  Er9  1  0.979480  0.809715  0.500000  1
  Tl  Tl10  1  0.250000  0.250000  0.000000  1
  Tl  Tl11  1  0.750000  0.750000  0.000000  1
  Ga  Ga12  1  0.125484  0.625484  0.750969  1
  Ga  Ga13  1  0.874516  0.374516  0.249031  1
  Ga  Ga14  1  0.625484  0.874516  0.500000  1
  Ga  Ga15  1  0.374516  0.125484  0.500000  1
