# generated using pymatgen
data_Sr6Er4Ti5GeO24
_symmetry_space_group_name_H-M   'P 1'
_cell_length_a   11.57915724
_cell_length_b   11.57940205
_cell_length_c   11.58002100
_cell_angle_alpha   109.48627491
_cell_angle_beta   109.44479698
_cell_angle_gamma   109.48324752
_symmetry_Int_Tables_number   1
_chemical_formula_structural   Sr6Er4Ti5GeO24
_chemical_formula_sum   'Sr12 Er8 Ti10 Ge2 O48'
_cell_volume   1195.21755654
_cell_formula_units_Z   2
loop_
 _symmetry_equiv_pos_site_id
 _symmetry_equiv_pos_as_xyz
  1  'x, y, z'
loop_
 _atom_site_type_symbol
 _atom_site_label
 _atom_site_symmetry_multiplicity
 _atom_site_fract_x
 _atom_site_fract_y
 _atom_site_fract_z
 _atom_site_occupancy
  Sr  Sr0  1  0.750612  0.126522  0.376246  1
  Sr  Sr1  1  0.250280  0.375306  0.124696  1
  Sr  Sr2  1  0.125250  0.250500  0.375250  1
  Sr  Sr3  1  0.375165  0.750330  0.125165  1
  Sr  Sr4  1  0.749748  0.624126  0.874330  1
  Sr  Sr5  1  0.125026  0.375306  0.750609  1
  Sr  Sr6  1  0.624707  0.874531  0.749747  1
  Sr  Sr7  1  0.249824  0.874531  0.624784  1
  Sr  Sr8  1  0.874378  0.624126  0.249796  1
  Sr  Sr9  1  0.624399  0.248798  0.874399  1
  Sr  Sr10  1  0.874733  0.749465  0.624733  1
  Sr  Sr11  1  0.375910  0.126522  0.250275  1
  Er  Er12  1  0.999937  0.000019  0.000053  1
  Er  Er13  1  0.500489  0.001492  0.000561  1
  Er  Er14  1  0.999371  0.499525  0.998400  1
  Er  Er15  1  0.500153  0.499525  0.001125  1
  Er  Er16  1  0.997360  0.498930  0.499451  1
  Er  Er17  1  0.501003  0.001492  0.500931  1
  Er  Er18  1  0.501571  0.498930  0.499479  1
  Er  Er19  1  0.000082  0.000019  0.499965  1
  Ti  Ti20  1  0.125377  0.874921  0.249870  1
  Ti  Ti21  1  0.874897  0.124983  0.750002  1
  Ti  Ti22  1  0.249835  0.624467  0.374942  1
  Ti  Ti23  1  0.375502  0.250461  0.625252  1
  Ti  Ti24  1  0.749544  0.874921  0.125051  1
  Ti  Ti25  1  0.125089  0.750041  0.874645  1
  Ti  Ti26  1  0.374632  0.624467  0.749524  1
  Ti  Ti27  1  0.624952  0.750041  0.375396  1
  Ti  Ti28  1  0.874959  0.250461  0.125209  1
  Ti  Ti29  1  0.250086  0.124983  0.874981  1
  Ge  Ge30  1  0.750119  0.375196  0.625128  1
  Ge  Ge31  1  0.625077  0.375196  0.250068  1
  O  O32  1  0.412493  0.806547  0.792991  1
  O  O33  1  0.879212  0.394175  0.086422  1
  O  O34  1  0.105494  0.985791  0.693436  1
  O  O35  1  0.513782  0.618969  0.706616  1
  O  O36  1  0.693185  0.087293  0.708044  1
  O  O37  1  0.620703  0.707510  0.515043  1
  O  O38  1  0.617659  0.410835  0.108626  1
  O  O39  1  0.707245  0.509529  0.618665  1
  O  O40  1  0.802284  0.509529  0.390863  1
  O  O41  1  0.985881  0.792352  0.880026  1
  O  O42  1  0.792235  0.879928  0.985921  1
  O  O43  1  0.707398  0.693138  0.087836  1
  O  O44  1  0.411888  0.105679  0.619845  1
  O  O45  1  0.394054  0.806547  0.513555  1
  O  O46  1  0.086808  0.707510  0.692468  1
  O  O47  1  0.105187  0.618969  0.412353  1
  O  O48  1  0.514963  0.394175  0.807754  1
  O  O49  1  0.087693  0.879928  0.394007  1
  O  O50  1  0.985740  0.693138  0.105302  1
  O  O51  1  0.191886  0.485577  0.605779  1
  O  O52  1  0.693791  0.105679  0.985833  1
  O  O53  1  0.793175  0.410835  0.802208  1
  O  O54  1  0.394108  0.087293  0.879249  1
  O  O55  1  0.880297  0.985791  0.792356  1
  O  O56  1  0.589025  0.197810  0.206937  1
  O  O57  1  0.120787  0.606230  0.912623  1
  O  O58  1  0.894100  0.014030  0.306519  1
  O  O59  1  0.490716  0.382111  0.292725  1
  O  O60  1  0.307850  0.913712  0.292926  1
  O  O61  1  0.379728  0.292217  0.485244  1
  O  O62  1  0.380660  0.587397  0.894143  1
  O  O63  1  0.293691  0.485577  0.379797  1
  O  O64  1  0.119930  0.014030  0.207512  1
  O  O65  1  0.605861  0.913712  0.120786  1
  O  O66  1  0.206737  0.587397  0.193253  1
  O  O67  1  0.193864  0.207779  0.588003  1
  O  O68  1  0.306695  0.894853  0.014090  1
  O  O69  1  0.014521  0.306427  0.894570  1
  O  O70  1  0.912277  0.120050  0.605614  1
  O  O71  1  0.485444  0.606230  0.193607  1
  O  O72  1  0.891395  0.382111  0.589386  1
  O  O73  1  0.912488  0.292217  0.306972  1
  O  O74  1  0.608785  0.197810  0.490872  1
  O  O75  1  0.588158  0.894853  0.380763  1
  O  O76  1  0.291905  0.306427  0.911857  1
  O  O77  1  0.207772  0.120050  0.014435  1
  O  O78  1  0.013915  0.207779  0.119776  1
  O  O79  1  0.806471  0.792352  0.412326  1
