# generated using pymatgen
data_BeReH9
_symmetry_space_group_name_H-M   'P 1'
_cell_length_a   5.44097868
_cell_length_b   5.44097632
_cell_length_c   7.69449200
_cell_angle_alpha   90.00000000
_cell_angle_beta   90.00000000
_cell_angle_gamma   82.56996676
_symmetry_Int_Tables_number   1
_chemical_formula_structural   BeReH9
_chemical_formula_sum   'Be2 Re2 H18'
_cell_volume   225.87692684
_cell_formula_units_Z   2
loop_
 _symmetry_equiv_pos_site_id
 _symmetry_equiv_pos_as_xyz
  1  'x, y, z'
loop_
 _atom_site_type_symbol
 _atom_site_label
 _atom_site_symmetry_multiplicity
 _atom_site_fract_x
 _atom_site_fract_y
 _atom_site_fract_z
 _atom_site_occupancy
  Be  Be0  1  0.000000  0.000000  0.500000  1
  Be  Be1  1  0.000000  0.000000  0.000000  1
  Re  Re2  1  0.183583  0.816417  0.750000  1
  Re  Re3  1  0.816417  0.183583  0.250000  1
  H  H4  1  0.362699  0.637301  0.609145  1
  H  H5  1  0.637301  0.362699  0.390855  1
  H  H6  1  0.362699  0.637301  0.890855  1
  H  H7  1  0.637301  0.362699  0.109145  1
  H  H8  1  0.263001  0.017216  0.909946  1
  H  H9  1  0.017216  0.263001  0.090054  1
  H  H10  1  0.263001  0.017216  0.590054  1
  H  H11  1  0.017216  0.263001  0.409946  1
  H  H12  1  0.736999  0.982784  0.090054  1
  H  H13  1  0.982784  0.736999  0.909946  1
  H  H14  1  0.736999  0.982784  0.409946  1
  H  H15  1  0.982784  0.736999  0.590054  1
  H  H16  1  0.481934  0.850234  0.750000  1
  H  H17  1  0.850234  0.481934  0.250000  1
  H  H18  1  0.518066  0.149766  0.250000  1
  H  H19  1  0.149766  0.518066  0.750000  1
  H  H20  1  0.941718  0.058282  0.750000  1
  H  H21  1  0.058282  0.941718  0.250000  1
