# generated using pymatgen
data_Ac2Sm(PdPb)3
_symmetry_space_group_name_H-M   'P 1'
_cell_length_a   8.02447955
_cell_length_b   7.98080349
_cell_length_c   4.25886900
_cell_angle_alpha   90.00000000
_cell_angle_beta   90.00000000
_cell_angle_gamma   119.82011237
_symmetry_Int_Tables_number   1
_chemical_formula_structural   Ac2Sm(PdPb)3
_chemical_formula_sum   'Ac2 Sm1 Pd3 Pb3'
_cell_volume   236.63162504
_cell_formula_units_Z   1
loop_
 _symmetry_equiv_pos_site_id
 _symmetry_equiv_pos_as_xyz
  1  'x, y, z'
loop_
 _atom_site_type_symbol
 _atom_site_label
 _atom_site_symmetry_multiplicity
 _atom_site_fract_x
 _atom_site_fract_y
 _atom_site_fract_z
 _atom_site_occupancy
  Ac  Ac0  1  0.410878  0.411761  0.500000  1
  Ac  Ac1  1  0.589122  0.000883  0.500000  1
  Sm  Sm2  1  0.000000  0.594720  0.500000  1
  Pd  Pd3  1  0.674285  0.338161  0.000000  1
  Pd  Pd4  1  0.325715  0.663877  0.000000  1
  Pd  Pd5  1  0.000000  0.995033  0.500000  1
  Pb  Pb6  1  0.755420  0.746123  0.000000  1
  Pb  Pb7  1  0.244580  0.990703  0.000000  1
  Pb  Pb8  1  0.000000  0.258739  0.000000  1
