# generated using pymatgen
data_Pr3SnBi2Rh3
_symmetry_space_group_name_H-M   'P 1'
_cell_length_a   7.76726725
_cell_length_b   7.69482704
_cell_length_c   4.14503500
_cell_angle_alpha   90.00000000
_cell_angle_beta   90.00000000
_cell_angle_gamma   119.69195590
_symmetry_Int_Tables_number   1
_chemical_formula_structural   Pr3SnBi2Rh3
_chemical_formula_sum   'Pr3 Sn1 Bi2 Rh3'
_cell_volume   215.21159583
_cell_formula_units_Z   1
loop_
 _symmetry_equiv_pos_site_id
 _symmetry_equiv_pos_as_xyz
  1  'x, y, z'
loop_
 _atom_site_type_symbol
 _atom_site_label
 _atom_site_symmetry_multiplicity
 _atom_site_fract_x
 _atom_site_fract_y
 _atom_site_fract_z
 _atom_site_occupancy
  Pr  Pr0  1  0.599452  0.007885  0.500000  1
  Pr  Pr1  1  0.400548  0.408433  0.500000  1
  Pr  Pr2  1  0.000000  0.586690  0.500000  1
  Sn  Sn3  1  0.000000  0.257164  0.000000  1
  Bi  Bi4  1  0.259324  0.002762  0.000000  1
  Bi  Bi5  1  0.740676  0.743438  0.000000  1
  Rh  Rh6  1  0.000000  0.007538  0.500000  1
  Rh  Rh7  1  0.325893  0.655992  0.000000  1
  Rh  Rh8  1  0.674107  0.330098  0.000000  1
