# generated using pymatgen
data_Ho4Ga5Ru3
_symmetry_space_group_name_H-M   'P 1'
_cell_length_a   5.37819853
_cell_length_b   5.41806683
_cell_length_c   8.78131300
_cell_angle_alpha   90.00000000
_cell_angle_beta   90.00000000
_cell_angle_gamma   120.25038501
_symmetry_Int_Tables_number   1
_chemical_formula_structural   Ho4Ga5Ru3
_chemical_formula_sum   'Ho4 Ga5 Ru3'
_cell_volume   221.03955287
_cell_formula_units_Z   1
loop_
 _symmetry_equiv_pos_site_id
 _symmetry_equiv_pos_as_xyz
  1  'x, y, z'
loop_
 _atom_site_type_symbol
 _atom_site_label
 _atom_site_symmetry_multiplicity
 _atom_site_fract_x
 _atom_site_fract_y
 _atom_site_fract_z
 _atom_site_occupancy
  Ho  Ho0  1  0.660159  0.330077  0.553082  1
  Ho  Ho1  1  0.340476  0.670256  0.441444  1
  Ho  Ho2  1  0.340476  0.670256  0.058556  1
  Ho  Ho3  1  0.660159  0.330077  0.946918  1
  Ga  Ga4  1  0.164367  0.330416  0.750000  1
  Ga  Ga5  1  0.164358  0.833925  0.750000  1
  Ga  Ga6  1  0.669229  0.834605  0.750000  1
  Ga  Ga7  1  0.834492  0.668686  0.250000  1
  Ga  Ga8  1  0.834502  0.165849  0.250000  1
  Ru  Ru9  1  0.992721  0.996350  0.501634  1
  Ru  Ru10  1  0.992721  0.996350  0.998366  1
  Ru  Ru11  1  0.346340  0.173153  0.250000  1
