# generated using pymatgen
data_U2Zn(GaIr)3
_symmetry_space_group_name_H-M   'P 1'
_cell_length_a   6.92837834
_cell_length_b   6.59035656
_cell_length_c   4.11739500
_cell_angle_alpha   90.00000000
_cell_angle_beta   90.00000000
_cell_angle_gamma   121.73748070
_symmetry_Int_Tables_number   1
_chemical_formula_structural   U2Zn(GaIr)3
_chemical_formula_sum   'U2 Zn1 Ga3 Ir3'
_cell_volume   159.88974167
_cell_formula_units_Z   1
loop_
 _symmetry_equiv_pos_site_id
 _symmetry_equiv_pos_as_xyz
  1  'x, y, z'
loop_
 _atom_site_type_symbol
 _atom_site_label
 _atom_site_symmetry_multiplicity
 _atom_site_fract_x
 _atom_site_fract_y
 _atom_site_fract_z
 _atom_site_occupancy
  U  U0  1  0.426505  0.424603  0.500001  1
  U  U1  1  0.002601  0.575493  0.500001  1
  Zn  Zn2  1  0.595148  0.000202  0.500001  1
  Ga  Ga3  1  0.222011  0.000109  0.000000  1
  Ga  Ga4  1  0.010389  0.254652  0.000000  1
  Ga  Ga5  1  0.755552  0.744779  0.000000  1
  Ir  Ir6  1  0.650984  0.294882  0.000000  1
  Ir  Ir7  1  0.356270  0.705314  0.000000  1
  Ir  Ir8  1  0.980640  0.000069  0.500001  1
