# generated using pymatgen
data_TbDy2(CdGa)3
_symmetry_space_group_name_H-M   'P 1'
_cell_length_a   7.28312103
_cell_length_b   7.28312142
_cell_length_c   4.41453200
_cell_angle_alpha   90.00000000
_cell_angle_beta   90.00000000
_cell_angle_gamma   120.06080786
_symmetry_Int_Tables_number   1
_chemical_formula_structural   TbDy2(CdGa)3
_chemical_formula_sum   'Tb1 Dy2 Cd3 Ga3'
_cell_volume   202.66742144
_cell_formula_units_Z   1
loop_
 _symmetry_equiv_pos_site_id
 _symmetry_equiv_pos_as_xyz
  1  'x, y, z'
loop_
 _atom_site_type_symbol
 _atom_site_label
 _atom_site_symmetry_multiplicity
 _atom_site_fract_x
 _atom_site_fract_y
 _atom_site_fract_z
 _atom_site_occupancy
  Tb  Tb0  1  0.423559  0.423559  0.500000  1
  Dy  Dy1  1  0.576647  0.000125  0.500000  1
  Dy  Dy2  1  0.000125  0.576647  0.500000  1
  Cd  Cd3  1  0.751309  0.751309  0.000000  1
  Cd  Cd4  1  0.248874  0.999854  0.000000  1
  Cd  Cd5  1  0.999854  0.248874  0.000000  1
  Ga  Ga6  1  0.666866  0.333105  0.000000  1
  Ga  Ga7  1  0.333105  0.666866  0.000000  1
  Ga  Ga8  1  0.999660  0.999660  0.500000  1
