# generated using pymatgen
data_Tb5TcMoO12
_symmetry_space_group_name_H-M   'P 1'
_cell_length_a   6.86059785
_cell_length_b   6.86059761
_cell_length_c   7.56064894
_cell_angle_alpha   73.83055766
_cell_angle_beta   73.83055579
_cell_angle_gamma   50.00849762
_symmetry_Int_Tables_number   1
_chemical_formula_structural   Tb5TcMoO12
_chemical_formula_sum   'Tb5 Tc1 Mo1 O12'
_cell_volume   259.45045535
_cell_formula_units_Z   1
loop_
 _symmetry_equiv_pos_site_id
 _symmetry_equiv_pos_as_xyz
  1  'x, y, z'
loop_
 _atom_site_type_symbol
 _atom_site_label
 _atom_site_symmetry_multiplicity
 _atom_site_fract_x
 _atom_site_fract_y
 _atom_site_fract_z
 _atom_site_occupancy
  Tb  Tb0  1  0.314232  0.294595  0.359793  1
  Tb  Tb1  1  0.705405  0.685768  0.640207  1
  Tb  Tb2  1  0.316738  0.308885  0.825271  1
  Tb  Tb3  1  0.691115  0.683262  0.174729  1
  Tb  Tb4  1  0.006604  0.993396  0.500000  1
  Tc  Tc5  1  0.766361  0.233639  0.000000  1
  Mo  Mo6  1  0.210760  0.789240  0.000000  1
  O  O7  1  0.909659  0.428009  0.915901  1
  O  O8  1  0.415583  0.904614  0.917894  1
  O  O9  1  0.095386  0.584417  0.082106  1
  O  O10  1  0.571991  0.090341  0.084099  1
  O  O11  1  0.104733  0.590360  0.572380  1
  O  O12  1  0.597227  0.089904  0.577283  1
  O  O13  1  0.910096  0.402773  0.422717  1
  O  O14  1  0.409640  0.895267  0.427620  1
  O  O15  1  0.992852  0.006487  0.798454  1
  O  O16  1  0.993513  0.007148  0.201546  1
  O  O17  1  0.494388  0.506284  0.820315  1
  O  O18  1  0.493716  0.505612  0.179685  1
