# generated using pymatgen
data_Ba2Fe2PtN3
_symmetry_space_group_name_H-M   'P 1'
_cell_length_a   6.80494426
_cell_length_b   6.80494354
_cell_length_c   6.79633972
_cell_angle_alpha   89.23553288
_cell_angle_beta   89.23553024
_cell_angle_gamma   117.24189799
_symmetry_Int_Tables_number   1
_chemical_formula_structural   Ba2Fe2PtN3
_chemical_formula_sum   'Ba4 Fe4 Pt2 N6'
_cell_volume   279.71987042
_cell_formula_units_Z   2
loop_
 _symmetry_equiv_pos_site_id
 _symmetry_equiv_pos_as_xyz
  1  'x, y, z'
loop_
 _atom_site_type_symbol
 _atom_site_label
 _atom_site_symmetry_multiplicity
 _atom_site_fract_x
 _atom_site_fract_y
 _atom_site_fract_z
 _atom_site_occupancy
  Ba  Ba0  1  0.833705  0.673199  0.899348  1
  Ba  Ba1  1  0.326801  0.166295  0.600652  1
  Ba  Ba2  1  0.166295  0.326801  0.100652  1
  Ba  Ba3  1  0.673199  0.833705  0.399348  1
  Fe  Fe4  1  0.555159  0.152907  0.106560  1
  Fe  Fe5  1  0.444841  0.847093  0.893440  1
  Fe  Fe6  1  0.847093  0.444841  0.393440  1
  Fe  Fe7  1  0.152907  0.555159  0.606560  1
  Pt  Pt8  1  0.809943  0.190057  0.750000  1
  Pt  Pt9  1  0.190057  0.809943  0.250000  1
  N  N10  1  0.386736  0.613264  0.750000  1
  N  N11  1  0.613264  0.386736  0.250000  1
  N  N12  1  0.010985  0.712098  0.510164  1
  N  N13  1  0.712098  0.010985  0.010164  1
  N  N14  1  0.989015  0.287902  0.489836  1
  N  N15  1  0.287902  0.989015  0.989836  1
