# generated using pymatgen
data_YTe16
_symmetry_space_group_name_H-M   'P 1'
_cell_length_a   4.40286502
_cell_length_b   4.40286467
_cell_length_c   33.61515568
_cell_angle_alpha   86.24506124
_cell_angle_beta   86.24506124
_cell_angle_gamma   60.00000182
_symmetry_Int_Tables_number   1
_chemical_formula_structural   YTe16
_chemical_formula_sum   'Y1 Te16'
_cell_volume   562.71846650
_cell_formula_units_Z   1
loop_
 _symmetry_equiv_pos_site_id
 _symmetry_equiv_pos_as_xyz
  1  'x, y, z'
loop_
 _atom_site_type_symbol
 _atom_site_label
 _atom_site_symmetry_multiplicity
 _atom_site_fract_x
 _atom_site_fract_y
 _atom_site_fract_z
 _atom_site_occupancy
  Y  Y0  1  0.000000  0.000000  0.000000  1
  Te  Te1  1  0.290914  0.290914  0.127260  1
  Te  Te2  1  0.709086  0.709086  0.872740  1
  Te  Te3  1  0.233801  0.233801  0.298595  1
  Te  Te4  1  0.766199  0.766199  0.701405  1
  Te  Te5  1  0.470547  0.470547  0.588360  1
  Te  Te6  1  0.529453  0.529453  0.411640  1
  Te  Te7  1  0.350872  0.350872  0.947385  1
  Te  Te8  1  0.649128  0.649128  0.052615  1
  Te  Te9  1  0.059645  0.059645  0.821066  1
  Te  Te10  1  0.940355  0.940355  0.178934  1
  Te  Te11  1  0.411933  0.411933  0.764203  1
  Te  Te12  1  0.588067  0.588067  0.235797  1
  Te  Te13  1  0.117548  0.117548  0.647355  1
  Te  Te14  1  0.882452  0.882452  0.352645  1
  Te  Te15  1  0.175793  0.175793  0.472620  1
  Te  Te16  1  0.824207  0.824207  0.527380  1
