# generated using pymatgen
data_Tb3Y(Fe2O7)2
_symmetry_space_group_name_H-M   'P 1'
_cell_length_a   7.18274403
_cell_length_b   7.18249322
_cell_length_c   7.18337199
_cell_angle_alpha   60.08714411
_cell_angle_beta   60.08050650
_cell_angle_gamma   60.10063862
_symmetry_Int_Tables_number   1
_chemical_formula_structural   Tb3Y(Fe2O7)2
_chemical_formula_sum   'Tb3 Y1 Fe4 O14'
_cell_volume   262.57787619
_cell_formula_units_Z   1
loop_
 _symmetry_equiv_pos_site_id
 _symmetry_equiv_pos_as_xyz
  1  'x, y, z'
loop_
 _atom_site_type_symbol
 _atom_site_label
 _atom_site_symmetry_multiplicity
 _atom_site_fract_x
 _atom_site_fract_y
 _atom_site_fract_z
 _atom_site_occupancy
  Tb  Tb0  1  0.500002  0.000001  0.500007  1
  Tb  Tb1  1  0.000000  0.500002  0.499992  1
  Tb  Tb2  1  0.499994  0.500005  0.000000  1
  Y  Y3  1  0.500003  0.499996  0.500001  1
  Fe  Fe4  1  0.999999  0.500000  0.000000  1
  Fe  Fe5  1  0.499999  0.000000  0.000002  1
  Fe  Fe6  1  0.000006  0.999995  0.500001  1
  Fe  Fe7  1  0.999998  0.000004  0.999997  1
  O  O8  1  0.624484  0.624478  0.624477  1
  O  O9  1  0.375516  0.375524  0.375523  1
  O  O10  1  0.332893  0.917070  0.917122  1
  O  O11  1  0.082970  0.667163  0.667121  1
  O  O12  1  0.917046  0.332958  0.917072  1
  O  O13  1  0.917154  0.917143  0.332797  1
  O  O14  1  0.332820  0.332798  0.917043  1
  O  O15  1  0.332880  0.917042  0.332889  1
  O  O16  1  0.917030  0.332834  0.332880  1
  O  O17  1  0.667178  0.667202  0.082958  1
  O  O18  1  0.082849  0.082857  0.667202  1
  O  O19  1  0.667106  0.082929  0.082881  1
  O  O20  1  0.667122  0.082960  0.667111  1
  O  O21  1  0.082954  0.667044  0.082925  1
