# generated using pymatgen
data_Zr6Si2NO
_symmetry_space_group_name_H-M   'P 1'
_cell_length_a   5.82643750
_cell_length_b   5.82643647
_cell_length_c   8.58369012
_cell_angle_alpha   90.39403432
_cell_angle_beta   89.60596652
_cell_angle_gamma   144.83986046
_symmetry_Int_Tables_number   1
_chemical_formula_structural   Zr6Si2NO
_chemical_formula_sum   'Zr6 Si2 N1 O1'
_cell_volume   167.79867791
_cell_formula_units_Z   1
loop_
 _symmetry_equiv_pos_site_id
 _symmetry_equiv_pos_as_xyz
  1  'x, y, z'
loop_
 _atom_site_type_symbol
 _atom_site_label
 _atom_site_symmetry_multiplicity
 _atom_site_fract_x
 _atom_site_fract_y
 _atom_site_fract_z
 _atom_site_occupancy
  Zr  Zr0  1  0.363690  0.636308  0.054366  1
  Zr  Zr1  1  0.060556  0.939442  0.251219  1
  Zr  Zr2  1  0.368175  0.631823  0.444271  1
  Zr  Zr3  1  0.631823  0.368175  0.555730  1
  Zr  Zr4  1  0.939442  0.060556  0.748781  1
  Zr  Zr5  1  0.636308  0.363690  0.945634  1
  Si  Si6  1  0.745385  0.254613  0.250183  1
  Si  Si7  1  0.254613  0.745385  0.749817  1
  N  N8  1  0.000000  0.000000  0.500000  1
  O  O9  1  0.000000  0.000000  0.000000  1
