# generated using pymatgen
data_Ho11Er(Si3Ir)4
_symmetry_space_group_name_H-M   'P 1'
_cell_length_a   4.23154900
_cell_length_b   10.60774901
_cell_length_c   12.25720900
_cell_angle_alpha   90.02502969
_cell_angle_beta   90.00000000
_cell_angle_gamma   90.00000000
_symmetry_Int_Tables_number   1
_chemical_formula_structural   Ho11Er(Si3Ir)4
_chemical_formula_sum   'Ho11 Er1 Si12 Ir4'
_cell_volume   550.19185852
_cell_formula_units_Z   1
loop_
 _symmetry_equiv_pos_site_id
 _symmetry_equiv_pos_as_xyz
  1  'x, y, z'
loop_
 _atom_site_type_symbol
 _atom_site_label
 _atom_site_symmetry_multiplicity
 _atom_site_fract_x
 _atom_site_fract_y
 _atom_site_fract_z
 _atom_site_occupancy
  Ho  Ho0  1  0.250000  0.880313  0.020549  1
  Ho  Ho1  1  0.250000  0.619741  0.520540  1
  Ho  Ho2  1  0.750000  0.119888  0.979347  1
  Ho  Ho3  1  0.750000  0.380032  0.479604  1
  Ho  Ho4  1  0.250000  0.918756  0.603243  1
  Ho  Ho5  1  0.250000  0.581400  0.103366  1
  Ho  Ho6  1  0.750000  0.081291  0.396983  1
  Ho  Ho7  1  0.750000  0.418665  0.896571  1
  Ho  Ho8  1  0.250000  0.659106  0.800913  1
  Ho  Ho9  1  0.250000  0.841298  0.300938  1
  Ho  Ho10  1  0.750000  0.340806  0.199130  1
  Er  Er11  1  0.750000  0.158432  0.699139  1
  Si  Si12  1  0.250000  0.010275  0.820923  1
  Si  Si13  1  0.250000  0.489802  0.321054  1
  Si  Si14  1  0.750000  0.990090  0.178967  1
  Si  Si15  1  0.750000  0.510202  0.678945  1
  Si  Si16  1  0.250000  0.246122  0.840377  1
  Si  Si17  1  0.250000  0.253570  0.340853  1
  Si  Si18  1  0.750000  0.753800  0.159326  1
  Si  Si19  1  0.750000  0.746324  0.659177  1
  Si  Si20  1  0.250000  0.200483  0.544134  1
  Si  Si21  1  0.250000  0.299443  0.043504  1
  Si  Si22  1  0.750000  0.799222  0.456339  1
  Si  Si23  1  0.750000  0.700778  0.956403  1
  Ir  Ir24  1  0.250000  0.389364  0.680890  1
  Ir  Ir25  1  0.250000  0.110647  0.180740  1
  Ir  Ir26  1  0.750000  0.610498  0.319101  1
  Ir  Ir27  1  0.750000  0.889654  0.818944  1
