# generated using pymatgen
data_Nd3SmMn2(Co3O10)2
_symmetry_space_group_name_H-M   'P 1'
_cell_length_a   5.73000524
_cell_length_b   7.50417687
_cell_length_c   8.58415026
_cell_angle_alpha   90.11298977
_cell_angle_beta   90.01827689
_cell_angle_gamma   89.97281057
_symmetry_Int_Tables_number   1
_chemical_formula_structural   Nd3SmMn2(Co3O10)2
_chemical_formula_sum   'Nd3 Sm1 Mn2 Co6 O20'
_cell_volume   369.10886548
_cell_formula_units_Z   1
loop_
 _symmetry_equiv_pos_site_id
 _symmetry_equiv_pos_as_xyz
  1  'x, y, z'
loop_
 _atom_site_type_symbol
 _atom_site_label
 _atom_site_symmetry_multiplicity
 _atom_site_fract_x
 _atom_site_fract_y
 _atom_site_fract_z
 _atom_site_occupancy
  Nd  Nd0  1  0.000198  0.641134  0.327920  1
  Nd  Nd1  1  0.999781  0.858334  0.826955  1
  Nd  Nd2  1  0.999516  0.141938  0.172804  1
  Sm  Sm3  1  0.000280  0.357690  0.673028  1
  Mn  Mn4  1  0.740041  0.499707  0.999423  1
  Mn  Mn5  1  0.260292  0.000989  0.500279  1
  Co  Co6  1  0.499140  0.090410  0.849794  1
  Co  Co7  1  0.498682  0.910478  0.149652  1
  Co  Co8  1  0.500699  0.588086  0.650008  1
  Co  Co9  1  0.501111  0.410045  0.350676  1
  Co  Co10  1  0.258632  0.499515  0.999618  1
  Co  Co11  1  0.741244  0.001014  0.500255  1
  O  O12  1  0.249439  0.901224  0.290956  1
  O  O13  1  0.248784  0.101836  0.709142  1
  O  O14  1  0.750075  0.401410  0.209259  1
  O  O15  1  0.751824  0.596521  0.789884  1
  O  O16  1  0.750188  0.099963  0.706131  1
  O  O17  1  0.749307  0.903605  0.293815  1
  O  O18  1  0.249027  0.594626  0.792962  1
  O  O19  1  0.250962  0.403391  0.206101  1
  O  O20  1  0.497822  0.344618  0.935740  1
  O  O21  1  0.498923  0.655586  0.064039  1
  O  O22  1  0.502019  0.845250  0.565347  1
  O  O23  1  0.501717  0.155603  0.435199  1
  O  O24  1  0.281491  0.000256  0.999760  1
  O  O25  1  0.720312  0.497873  0.501416  1
  O  O26  1  0.718786  0.999655  0.999359  1
  O  O27  1  0.279684  0.497652  0.501545  1
  O  O28  1  0.998806  0.159550  0.450186  1
  O  O29  1  0.998712  0.843218  0.551069  1
  O  O30  1  0.001685  0.657318  0.050846  1
  O  O31  1  0.000820  0.341505  0.946830  1
