# generated using pymatgen
data_Ca2Er(B3Ir4)2
_symmetry_space_group_name_H-M   'P 1'
_cell_length_a   9.93658148
_cell_length_b   9.08332352
_cell_length_c   5.62467810
_cell_angle_alpha   81.32718073
_cell_angle_beta   64.64570415
_cell_angle_gamma   34.02711219
_symmetry_Int_Tables_number   1
_chemical_formula_structural   Ca2Er(B3Ir4)2
_chemical_formula_sum   'Ca2 Er1 B6 Ir8'
_cell_volume   234.88039282
_cell_formula_units_Z   1
loop_
 _symmetry_equiv_pos_site_id
 _symmetry_equiv_pos_as_xyz
  1  'x, y, z'
loop_
 _atom_site_type_symbol
 _atom_site_label
 _atom_site_symmetry_multiplicity
 _atom_site_fract_x
 _atom_site_fract_y
 _atom_site_fract_z
 _atom_site_occupancy
  Ca  Ca0  1  0.318157  0.318157  0.681843  1
  Ca  Ca1  1  0.681843  0.681843  0.318157  1
  Er  Er2  1  0.500000  0.500000  0.500000  1
  B  B3  1  0.670873  0.983268  0.016732  1
  B  B4  1  0.983268  0.670873  0.329127  1
  B  B5  1  0.329127  0.016732  0.983268  1
  B  B6  1  0.016732  0.329127  0.670873  1
  B  B7  1  0.167785  0.832215  0.167785  1
  B  B8  1  0.832215  0.167785  0.832215  1
  Ir  Ir9  1  0.585028  0.585028  0.914972  1
  Ir  Ir10  1  0.913834  0.913834  0.086166  1
  Ir  Ir11  1  0.414972  0.414972  0.085028  1
  Ir  Ir12  1  0.085028  0.085028  0.414972  1
  Ir  Ir13  1  0.914972  0.914972  0.585028  1
  Ir  Ir14  1  0.250000  0.250000  0.250000  1
  Ir  Ir15  1  0.086166  0.086166  0.913834  1
  Ir  Ir16  1  0.750000  0.750000  0.750000  1
