# generated using pymatgen
data_Nd2Si7IrRh11
_symmetry_space_group_name_H-M   'P 1'
_cell_length_a   9.79739695
_cell_length_b   9.80722498
_cell_length_c   3.89221000
_cell_angle_alpha   90.00369455
_cell_angle_beta   89.99903548
_cell_angle_gamma   120.10321695
_symmetry_Int_Tables_number   1
_chemical_formula_structural   Nd2Si7IrRh11
_chemical_formula_sum   'Nd2 Si7 Ir1 Rh11'
_cell_volume   323.54231980
_cell_formula_units_Z   1
loop_
 _symmetry_equiv_pos_site_id
 _symmetry_equiv_pos_as_xyz
  1  'x, y, z'
loop_
 _atom_site_type_symbol
 _atom_site_label
 _atom_site_symmetry_multiplicity
 _atom_site_fract_x
 _atom_site_fract_y
 _atom_site_fract_z
 _atom_site_occupancy
  Nd  Nd0  1  0.332862  0.666695  0.749609  1
  Nd  Nd1  1  0.666672  0.333253  0.250291  1
  Si  Si2  1  0.000470  0.000367  0.499262  1
  Si  Si3  1  0.891985  0.601848  0.751649  1
  Si  Si4  1  0.398082  0.290142  0.751115  1
  Si  Si5  1  0.709830  0.107210  0.751310  1
  Si  Si6  1  0.106635  0.396946  0.248738  1
  Si  Si7  1  0.602485  0.709496  0.248738  1
  Si  Si8  1  0.290148  0.893203  0.248924  1
  Ir  Ir9  1  0.619419  0.558454  0.751875  1
  Rh  Rh10  1  0.442353  0.061514  0.751921  1
  Rh  Rh11  1  0.938654  0.380404  0.751827  1
  Rh  Rh12  1  0.379715  0.442439  0.248215  1
  Rh  Rh13  1  0.557334  0.937342  0.248076  1
  Rh  Rh14  1  0.061795  0.619503  0.248278  1
  Rh  Rh15  1  0.118874  0.858350  0.744382  1
  Rh  Rh16  1  0.142581  0.261387  0.744284  1
  Rh  Rh17  1  0.740601  0.882000  0.744014  1
  Rh  Rh18  1  0.880506  0.141414  0.256000  1
  Rh  Rh19  1  0.858073  0.739001  0.256263  1
  Rh  Rh20  1  0.260925  0.119033  0.255228  1
