# generated using pymatgen
data_PrEr2Co8TcP6
_symmetry_space_group_name_H-M   'P 1'
_cell_length_a   3.74219400
_cell_length_b   10.59240300
_cell_length_c   12.30787900
_cell_angle_alpha   90.00000000
_cell_angle_beta   90.00000000
_cell_angle_gamma   90.00000000
_symmetry_Int_Tables_number   1
_chemical_formula_structural   PrEr2Co8TcP6
_chemical_formula_sum   'Pr2 Er4 Co16 Tc2 P12'
_cell_volume   487.86988583
_cell_formula_units_Z   2
loop_
 _symmetry_equiv_pos_site_id
 _symmetry_equiv_pos_as_xyz
  1  'x, y, z'
loop_
 _atom_site_type_symbol
 _atom_site_label
 _atom_site_symmetry_multiplicity
 _atom_site_fract_x
 _atom_site_fract_y
 _atom_site_fract_z
 _atom_site_occupancy
  Pr  Pr0  1  0.750000  0.250000  0.475257  1
  Pr  Pr1  1  0.250000  0.750000  0.524743  1
  Er  Er2  1  0.250000  0.932579  0.795458  1
  Er  Er3  1  0.250000  0.567421  0.795458  1
  Er  Er4  1  0.750000  0.067421  0.204542  1
  Er  Er5  1  0.750000  0.432579  0.204542  1
  Co  Co6  1  0.250000  0.250000  0.293333  1
  Co  Co7  1  0.750000  0.750000  0.706667  1
  Co  Co8  1  0.750000  0.250000  0.012879  1
  Co  Co9  1  0.250000  0.750000  0.987121  1
  Co  Co10  1  0.250000  0.417939  0.010055  1
  Co  Co11  1  0.250000  0.082061  0.010055  1
  Co  Co12  1  0.750000  0.582061  0.989945  1
  Co  Co13  1  0.750000  0.917939  0.989945  1
  Co  Co14  1  0.250000  0.454003  0.571011  1
  Co  Co15  1  0.250000  0.045997  0.571011  1
  Co  Co16  1  0.750000  0.545997  0.428989  1
  Co  Co17  1  0.750000  0.954003  0.428989  1
  Co  Co18  1  0.250000  0.870667  0.288725  1
  Co  Co19  1  0.250000  0.629333  0.288725  1
  Co  Co20  1  0.750000  0.129333  0.711275  1
  Co  Co21  1  0.750000  0.370667  0.711275  1
  Tc  Tc22  1  0.250000  0.250000  0.845887  1
  Tc  Tc23  1  0.750000  0.750000  0.154113  1
  P  P24  1  0.250000  0.250000  0.117732  1
  P  P25  1  0.750000  0.750000  0.882268  1
  P  P26  1  0.250000  0.250000  0.656279  1
  P  P27  1  0.750000  0.750000  0.343721  1
  P  P28  1  0.250000  0.442322  0.381292  1
  P  P29  1  0.250000  0.057678  0.381292  1
  P  P30  1  0.750000  0.557678  0.618708  1
  P  P31  1  0.750000  0.942322  0.618708  1
  P  P32  1  0.250000  0.904081  0.106302  1
  P  P33  1  0.250000  0.595919  0.106302  1
  P  P34  1  0.750000  0.095919  0.893698  1
  P  P35  1  0.750000  0.404081  0.893698  1
