# generated using pymatgen
data_Tb5Dy(Si3Ru)8
_symmetry_space_group_name_H-M   'P 1'
_cell_length_a   10.13329487
_cell_length_b   10.13329451
_cell_length_c   8.16277706
_cell_angle_alpha   89.99448161
_cell_angle_beta   89.99447963
_cell_angle_gamma   132.51051494
_symmetry_Int_Tables_number   1
_chemical_formula_structural   Tb5Dy(Si3Ru)8
_chemical_formula_sum   'Tb5 Dy1 Si24 Ru8'
_cell_volume   617.86999537
_cell_formula_units_Z   1
loop_
 _symmetry_equiv_pos_site_id
 _symmetry_equiv_pos_as_xyz
  1  'x, y, z'
loop_
 _atom_site_type_symbol
 _atom_site_label
 _atom_site_symmetry_multiplicity
 _atom_site_fract_x
 _atom_site_fract_y
 _atom_site_fract_z
 _atom_site_occupancy
  Tb  Tb0  1  0.500000  0.500000  0.500000  1
  Tb  Tb1  1  0.502532  0.002570  0.750081  1
  Tb  Tb2  1  0.997430  0.497468  0.249919  1
  Tb  Tb3  1  0.497468  0.997430  0.249919  1
  Tb  Tb4  1  0.002570  0.502532  0.750081  1
  Dy  Dy5  1  0.000000  0.000000  0.000000  1
  Si  Si6  1  0.794610  0.205390  0.500000  1
  Si  Si7  1  0.294480  0.705520  0.000000  1
  Si  Si8  1  0.205390  0.794610  0.500000  1
  Si  Si9  1  0.705520  0.294480  0.000000  1
  Si  Si10  1  0.332860  0.332860  0.833099  1
  Si  Si11  1  0.667140  0.667140  0.166901  1
  Si  Si12  1  0.167355  0.167355  0.333186  1
  Si  Si13  1  0.832645  0.832645  0.666814  1
  Si  Si14  1  0.122314  0.888024  0.728374  1
  Si  Si15  1  0.111976  0.877686  0.271626  1
  Si  Si16  1  0.612365  0.377955  0.228188  1
  Si  Si17  1  0.622045  0.387635  0.771812  1
  Si  Si18  1  0.877686  0.111976  0.271626  1
  Si  Si19  1  0.888024  0.122314  0.728374  1
  Si  Si20  1  0.387635  0.622045  0.771812  1
  Si  Si21  1  0.377955  0.612365  0.228188  1
  Si  Si22  1  0.345359  0.111635  0.505143  1
  Si  Si23  1  0.888365  0.654641  0.494857  1
  Si  Si24  1  0.388441  0.154679  0.005184  1
  Si  Si25  1  0.845321  0.611559  0.994816  1
  Si  Si26  1  0.654641  0.888365  0.494857  1
  Si  Si27  1  0.111635  0.345359  0.505143  1
  Si  Si28  1  0.611559  0.845321  0.994816  1
  Si  Si29  1  0.154679  0.388441  0.005184  1
  Ru  Ru30  1  0.668936  0.331064  0.500000  1
  Ru  Ru31  1  0.168674  0.831326  0.000000  1
  Ru  Ru32  1  0.331064  0.668936  0.500000  1
  Ru  Ru33  1  0.831326  0.168674  0.000000  1
  Ru  Ru34  1  0.125937  0.125937  0.627243  1
  Ru  Ru35  1  0.874063  0.874063  0.372757  1
  Ru  Ru36  1  0.373472  0.373472  0.126403  1
  Ru  Ru37  1  0.626528  0.626528  0.873597  1
