# generated using pymatgen
data_CaTbSm5FeI12
_symmetry_space_group_name_H-M   'P 1'
_cell_length_a   9.93031614
_cell_length_b   9.84776223
_cell_length_c   9.84523575
_cell_angle_alpha   106.81653472
_cell_angle_beta   106.73585575
_cell_angle_gamma   107.07979941
_symmetry_Int_Tables_number   1
_chemical_formula_structural   CaTbSm5FeI12
_chemical_formula_sum   'Ca1 Tb1 Sm5 Fe1 I12'
_cell_volume   804.47225645
_cell_formula_units_Z   1
loop_
 _symmetry_equiv_pos_site_id
 _symmetry_equiv_pos_as_xyz
  1  'x, y, z'
loop_
 _atom_site_type_symbol
 _atom_site_label
 _atom_site_symmetry_multiplicity
 _atom_site_fract_x
 _atom_site_fract_y
 _atom_site_fract_z
 _atom_site_occupancy
  Ca  Ca0  1  0.499975  0.500138  0.500068  1
  Tb  Tb1  1  0.698514  0.974566  0.901862  1
  Sm  Sm2  1  0.093167  0.289805  0.024379  1
  Sm  Sm3  1  0.024191  0.094069  0.289154  1
  Sm  Sm4  1  0.305497  0.025465  0.099189  1
  Sm  Sm5  1  0.905078  0.709895  0.975036  1
  Sm  Sm6  1  0.974928  0.905821  0.710383  1
  Fe  Fe7  1  0.999299  0.999535  0.999671  1
  I  I8  1  0.457104  0.380914  0.151669  1
  I  I9  1  0.153623  0.458716  0.380794  1
  I  I10  1  0.378787  0.152313  0.459039  1
  I  I11  1  0.543313  0.622971  0.848796  1
  I  I12  1  0.846375  0.541219  0.619239  1
  I  I13  1  0.621291  0.849571  0.545094  1
  I  I14  1  0.773646  0.314838  0.926526  1
  I  I15  1  0.926470  0.773690  0.317688  1
  I  I16  1  0.318686  0.926433  0.773005  1
  I  I17  1  0.223920  0.681093  0.072649  1
  I  I18  1  0.073555  0.226337  0.682317  1
  I  I19  1  0.682583  0.072612  0.223439  1
