# generated using pymatgen
data_Eu8DyYIr4
_symmetry_space_group_name_H-M   'P 1'
_cell_length_a   6.71761615
_cell_length_b   7.49784536
_cell_length_c   8.86134706
_cell_angle_alpha   96.88290405
_cell_angle_beta   112.27425368
_cell_angle_gamma   89.99999953
_symmetry_Int_Tables_number   1
_chemical_formula_structural   Eu8DyYIr4
_chemical_formula_sum   'Eu8 Dy1 Y1 Ir4'
_cell_volume   409.54237835
_cell_formula_units_Z   1
loop_
 _symmetry_equiv_pos_site_id
 _symmetry_equiv_pos_as_xyz
  1  'x, y, z'
loop_
 _atom_site_type_symbol
 _atom_site_label
 _atom_site_symmetry_multiplicity
 _atom_site_fract_x
 _atom_site_fract_y
 _atom_site_fract_z
 _atom_site_occupancy
  Eu  Eu0  1  0.801051  0.079481  0.822561  1
  Eu  Eu1  1  0.978490  0.420519  0.177439  1
  Eu  Eu2  1  0.198813  0.920360  0.177454  1
  Eu  Eu3  1  0.021359  0.579640  0.822546  1
  Eu  Eu4  1  0.203360  0.184521  0.568014  1
  Eu  Eu5  1  0.635345  0.315479  0.431986  1
  Eu  Eu6  1  0.796655  0.815384  0.431767  1
  Eu  Eu7  1  0.364890  0.684616  0.568233  1
  Dy  Dy8  1  0.563148  0.750000  0.000000  1
  Y  Y9  1  0.435841  0.250000  0.000000  1
  Ir  Ir10  1  0.597632  0.427675  0.794074  1
  Ir  Ir11  1  0.803558  0.072325  0.205926  1
  Ir  Ir12  1  0.402928  0.573727  0.205999  1
  Ir  Ir13  1  0.196929  0.926273  0.794001  1
