# generated using pymatgen
data_TmTh3(InPd2)2
_symmetry_space_group_name_H-M   'P 1'
_cell_length_a   7.87930996
_cell_length_b   7.87930996
_cell_length_c   3.81976800
_cell_angle_alpha   90.00000000
_cell_angle_beta   90.00000000
_cell_angle_gamma   89.63506311
_symmetry_Int_Tables_number   1
_chemical_formula_structural   TmTh3(InPd2)2
_chemical_formula_sum   'Tm1 Th3 In2 Pd4'
_cell_volume   237.13985332
_cell_formula_units_Z   1
loop_
 _symmetry_equiv_pos_site_id
 _symmetry_equiv_pos_as_xyz
  1  'x, y, z'
loop_
 _atom_site_type_symbol
 _atom_site_label
 _atom_site_symmetry_multiplicity
 _atom_site_fract_x
 _atom_site_fract_y
 _atom_site_fract_z
 _atom_site_occupancy
  Tm  Tm0  1  0.675047  0.175047  0.500000  1
  Th  Th1  1  0.328641  0.828641  0.500000  1
  Th  Th2  1  0.823403  0.672067  0.500000  1
  Th  Th3  1  0.172067  0.323403  0.500000  1
  In  In4  1  0.993615  0.002303  0.000000  1
  In  In5  1  0.502303  0.493615  0.000000  1
  Pd  Pd6  1  0.373001  0.129436  0.000000  1
  Pd  Pd7  1  0.872017  0.372017  0.000000  1
  Pd  Pd8  1  0.130471  0.630471  0.000000  1
  Pd  Pd9  1  0.629436  0.873001  0.000000  1
