# generated using pymatgen
data_Lu10Al5SbC8
_symmetry_space_group_name_H-M   'P 1'
_cell_length_a   10.66091300
_cell_length_b   10.66091300
_cell_length_c   3.43444400
_cell_angle_alpha   90.00000000
_cell_angle_beta   90.00000000
_cell_angle_gamma   90.00000000
_symmetry_Int_Tables_number   1
_chemical_formula_structural   Lu10Al5SbC8
_chemical_formula_sum   'Lu10 Al5 Sb1 C8'
_cell_volume   390.34195947
_cell_formula_units_Z   1
loop_
 _symmetry_equiv_pos_site_id
 _symmetry_equiv_pos_as_xyz
  1  'x, y, z'
loop_
 _atom_site_type_symbol
 _atom_site_label
 _atom_site_symmetry_multiplicity
 _atom_site_fract_x
 _atom_site_fract_y
 _atom_site_fract_z
 _atom_site_occupancy
  Lu  Lu0  1  0.550320  0.735777  0.500000  1
  Lu  Lu1  1  0.449680  0.264223  0.500000  1
  Lu  Lu2  1  0.049284  0.768520  0.500000  1
  Lu  Lu3  1  0.950716  0.231480  0.500000  1
  Lu  Lu4  1  0.264223  0.550320  0.500000  1
  Lu  Lu5  1  0.735777  0.449680  0.500000  1
  Lu  Lu6  1  0.231480  0.049284  0.500000  1
  Lu  Lu7  1  0.768520  0.950716  0.500000  1
  Lu  Lu8  1  0.500000  0.000000  0.000000  1
  Lu  Lu9  1  0.000000  0.500000  0.000000  1
  Al  Al10  1  0.709371  0.195913  0.000000  1
  Al  Al11  1  0.290629  0.804087  0.000000  1
  Al  Al12  1  0.195913  0.290629  0.000000  1
  Al  Al13  1  0.804087  0.709371  0.000000  1
  Al  Al14  1  0.000000  0.000000  0.000000  1
  Sb  Sb15  1  0.500000  0.500000  0.000000  1
  C  C16  1  0.626661  0.127443  0.500000  1
  C  C17  1  0.373339  0.872557  0.500000  1
  C  C18  1  0.127443  0.373339  0.500000  1
  C  C19  1  0.872557  0.626661  0.500000  1
  C  C20  1  0.162903  0.660679  0.000000  1
  C  C21  1  0.837097  0.339321  0.000000  1
  C  C22  1  0.660679  0.837097  0.000000  1
  C  C23  1  0.339321  0.162903  0.000000  1
