# generated using pymatgen
data_LiHf2SiAs2Ru3
_symmetry_space_group_name_H-M   'P 1'
_cell_length_a   7.62597346
_cell_length_b   7.62597455
_cell_length_c   7.62597389
_cell_angle_alpha   127.93963546
_cell_angle_beta   122.83726471
_cell_angle_gamma   80.96221780
_symmetry_Int_Tables_number   1
_chemical_formula_structural   LiHf2SiAs2Ru3
_chemical_formula_sum   'Li2 Hf4 Si2 As4 Ru6'
_cell_volume   283.28353650
_cell_formula_units_Z   2
loop_
 _symmetry_equiv_pos_site_id
 _symmetry_equiv_pos_as_xyz
  1  'x, y, z'
loop_
 _atom_site_type_symbol
 _atom_site_label
 _atom_site_symmetry_multiplicity
 _atom_site_fract_x
 _atom_site_fract_y
 _atom_site_fract_z
 _atom_site_occupancy
  Li  Li0  1  0.463105  0.680862  0.717758  1
  Li  Li1  1  0.536895  0.254653  0.217758  1
  Hf  Hf2  1  0.752066  0.851190  0.599124  1
  Hf  Hf3  1  0.247934  0.847060  0.099124  1
  Hf  Hf4  1  0.053995  0.254600  0.700604  1
  Hf  Hf5  1  0.946005  0.646609  0.200604  1
  Si  Si6  1  0.273059  0.283133  0.510076  1
  Si  Si7  1  0.726941  0.237017  0.010076  1
  As  As8  1  0.335425  0.579145  0.256235  1
  As  As9  1  0.664575  0.920809  0.243719  1
  As  As10  1  0.177091  0.920809  0.756235  1
  As  As11  1  0.822909  0.579145  0.743719  1
  Ru  Ru12  1  0.500000  0.497340  0.997340  1
  Ru  Ru13  1  0.000000  0.497340  0.497340  1
  Ru  Ru14  1  0.094119  0.246113  0.102950  1
  Ru  Ru15  1  0.905881  0.008830  0.151994  1
  Ru  Ru16  1  0.356835  0.008830  0.602950  1
  Ru  Ru17  1  0.643165  0.246113  0.651994  1
