# generated using pymatgen
data_Ti8Al15Fe3Rh4
_symmetry_space_group_name_H-M   'P 1'
_cell_length_a   8.57370783
_cell_length_b   8.55981882
_cell_length_c   8.57370690
_cell_angle_alpha   119.98802259
_cell_angle_beta   119.86358841
_cell_angle_gamma   90.17526736
_symmetry_Int_Tables_number   1
_chemical_formula_structural   Ti8Al15Fe3Rh4
_chemical_formula_sum   'Ti8 Al15 Fe3 Rh4'
_cell_volume   445.23999577
_cell_formula_units_Z   1
loop_
 _symmetry_equiv_pos_site_id
 _symmetry_equiv_pos_as_xyz
  1  'x, y, z'
loop_
 _atom_site_type_symbol
 _atom_site_label
 _atom_site_symmetry_multiplicity
 _atom_site_fract_x
 _atom_site_fract_y
 _atom_site_fract_z
 _atom_site_occupancy
  Ti  Ti0  1  0.780213  0.284647  0.066983  1
  Ti  Ti1  1  0.217664  0.284647  0.504434  1
  Ti  Ti2  1  0.212032  0.722282  0.510250  1
  Ti  Ti3  1  0.225146  0.723165  0.930884  1
  Ti  Ti4  1  0.792281  0.723165  0.498019  1
  Ti  Ti5  1  0.779029  0.270096  0.491067  1
  Ti  Ti6  1  0.377572  0.125259  0.747687  1
  Ti  Ti7  1  0.383127  0.632366  0.249239  1
  Al  Al8  1  0.995856  0.494698  0.498843  1
  Al  Al9  1  0.151492  0.349209  0.197715  1
  Al  Al10  1  0.159675  0.974469  0.814794  1
  Al  Al11  1  0.154165  0.343174  0.804676  1
  Al  Al12  1  0.538497  0.343174  0.189009  1
  Al  Al13  1  0.848341  0.648771  0.800430  1
  Al  Al14  1  0.841749  0.032230  0.190481  1
  Al  Al15  1  0.839218  0.656754  0.186880  1
  Al  Al16  1  0.469874  0.656754  0.817536  1
  Al  Al17  1  0.379415  0.121853  0.255782  1
  Al  Al18  1  0.866072  0.121853  0.742439  1
  Al  Al19  1  0.622019  0.873174  0.251155  1
  Al  Al20  1  0.618937  0.367375  0.748437  1
  Al  Al21  1  0.618437  0.878662  0.744408  1
  Al  Al22  1  0.134253  0.878662  0.260225  1
  Fe  Fe23  1  0.002722  0.999291  0.502591  1
  Fe  Fe24  1  0.496700  0.999291  0.996569  1
  Fe  Fe25  1  0.495715  0.498365  0.002650  1
  Rh  Rh26  1  0.499127  0.498971  0.498885  1
  Rh  Rh27  1  0.000085  0.498971  0.999844  1
  Rh  Rh28  1  0.999506  0.999440  0.999934  1
  Rh  Rh29  1  0.501076  0.999230  0.498154  1
