# generated using pymatgen
data_Sm2Er3Sn3Sb
_symmetry_space_group_name_H-M   'P 1'
_cell_length_a   8.12939600
_cell_length_b   8.16614900
_cell_length_c   15.38246900
_cell_angle_alpha   90.00000000
_cell_angle_beta   90.00000000
_cell_angle_gamma   90.00000000
_symmetry_Int_Tables_number   1
_chemical_formula_structural   Sm2Er3Sn3Sb
_chemical_formula_sum   'Sm8 Er12 Sn12 Sb4'
_cell_volume   1021.17841835
_cell_formula_units_Z   4
loop_
 _symmetry_equiv_pos_site_id
 _symmetry_equiv_pos_as_xyz
  1  'x, y, z'
loop_
 _atom_site_type_symbol
 _atom_site_label
 _atom_site_symmetry_multiplicity
 _atom_site_fract_x
 _atom_site_fract_y
 _atom_site_fract_z
 _atom_site_occupancy
  Sm  Sm0  1  0.526290  0.322984  0.900339  1
  Sm  Sm1  1  0.026290  0.177016  0.599661  1
  Sm  Sm2  1  0.473710  0.677016  0.400339  1
  Sm  Sm3  1  0.973710  0.822984  0.099661  1
  Sm  Sm4  1  0.479657  0.678162  0.098614  1
  Sm  Sm5  1  0.979657  0.821838  0.401386  1
  Sm  Sm6  1  0.520343  0.321838  0.598614  1
  Sm  Sm7  1  0.020343  0.178162  0.901386  1
  Er  Er8  1  0.367810  0.838276  0.876790  1
  Er  Er9  1  0.867810  0.661724  0.623210  1
  Er  Er10  1  0.632190  0.161724  0.376790  1
  Er  Er11  1  0.132190  0.338276  0.123210  1
  Er  Er12  1  0.634980  0.163446  0.122983  1
  Er  Er13  1  0.134980  0.336554  0.377017  1
  Er  Er14  1  0.365020  0.836554  0.622983  1
  Er  Er15  1  0.865020  0.663446  0.877017  1
  Er  Er16  1  0.195211  0.501367  0.748468  1
  Er  Er17  1  0.695211  0.998633  0.751532  1
  Er  Er18  1  0.804789  0.498633  0.248468  1
  Er  Er19  1  0.304789  0.001367  0.251532  1
  Sn  Sn20  1  0.706621  0.962627  0.957628  1
  Sn  Sn21  1  0.206621  0.537373  0.542372  1
  Sn  Sn22  1  0.293379  0.037373  0.457628  1
  Sn  Sn23  1  0.793379  0.462627  0.042372  1
  Sn  Sn24  1  0.562815  0.623398  0.749546  1
  Sn  Sn25  1  0.062815  0.876602  0.750454  1
  Sn  Sn26  1  0.437185  0.376602  0.249546  1
  Sn  Sn27  1  0.937185  0.123398  0.250454  1
  Sn  Sn28  1  0.329813  0.144747  0.750352  1
  Sn  Sn29  1  0.829813  0.355253  0.749648  1
  Sn  Sn30  1  0.670187  0.855253  0.250352  1
  Sn  Sn31  1  0.170187  0.644747  0.249648  1
  Sb  Sb32  1  0.291865  0.037656  0.042968  1
  Sb  Sb33  1  0.791865  0.462344  0.457032  1
  Sb  Sb34  1  0.708135  0.962344  0.542968  1
  Sb  Sb35  1  0.208135  0.537656  0.957032  1
