# generated using pymatgen
data_Hf2Al9Co2Os
_symmetry_space_group_name_H-M   'P 1'
_cell_length_a   7.29517066
_cell_length_b   7.29517091
_cell_length_c   9.08456700
_cell_angle_alpha   90.00000000
_cell_angle_beta   90.00000000
_cell_angle_gamma   118.74229548
_symmetry_Int_Tables_number   1
_chemical_formula_structural   Hf2Al9Co2Os
_chemical_formula_sum   'Hf4 Al18 Co4 Os2'
_cell_volume   423.90784485
_cell_formula_units_Z   2
loop_
 _symmetry_equiv_pos_site_id
 _symmetry_equiv_pos_as_xyz
  1  'x, y, z'
loop_
 _atom_site_type_symbol
 _atom_site_label
 _atom_site_symmetry_multiplicity
 _atom_site_fract_x
 _atom_site_fract_y
 _atom_site_fract_z
 _atom_site_occupancy
  Hf  Hf0  1  0.991330  0.684970  0.250000  1
  Hf  Hf1  1  0.008670  0.315030  0.750000  1
  Hf  Hf2  1  0.684970  0.991330  0.250000  1
  Hf  Hf3  1  0.315030  0.008670  0.750000  1
  Al  Al4  1  0.995006  0.342047  0.076200  1
  Al  Al5  1  0.004994  0.657953  0.923800  1
  Al  Al6  1  0.004994  0.657953  0.576200  1
  Al  Al7  1  0.342047  0.995006  0.423800  1
  Al  Al8  1  0.995006  0.342047  0.423800  1
  Al  Al9  1  0.657953  0.004994  0.576200  1
  Al  Al10  1  0.657953  0.004994  0.923800  1
  Al  Al11  1  0.342047  0.995006  0.076200  1
  Al  Al12  1  0.340934  0.570677  0.250000  1
  Al  Al13  1  0.659066  0.429323  0.750000  1
  Al  Al14  1  0.570677  0.340934  0.250000  1
  Al  Al15  1  0.429323  0.659066  0.750000  1
  Al  Al16  1  0.336172  0.336172  0.551389  1
  Al  Al17  1  0.663828  0.663828  0.448611  1
  Al  Al18  1  0.663828  0.663828  0.051389  1
  Al  Al19  1  0.336172  0.336172  0.948611  1
  Al  Al20  1  0.140609  0.140609  0.250000  1
  Al  Al21  1  0.859391  0.859391  0.750000  1
  Co  Co22  1  0.672288  0.327712  0.000000  1
  Co  Co23  1  0.327712  0.672288  0.000000  1
  Co  Co24  1  0.327712  0.672288  0.500000  1
  Co  Co25  1  0.672288  0.327712  0.500000  1
  Os  Os26  1  0.000000  0.000000  0.000000  1
  Os  Os27  1  0.000000  0.000000  0.500000  1
