# generated using pymatgen
data_Nd8Cd2RuPt
_symmetry_space_group_name_H-M   'P 1'
_cell_length_a   9.97136302
_cell_length_b   9.97136238
_cell_length_c   10.02595300
_cell_angle_alpha   59.81872785
_cell_angle_beta   59.81873000
_cell_angle_gamma   59.88054790
_symmetry_Int_Tables_number   1
_chemical_formula_structural   Nd8Cd2RuPt
_chemical_formula_sum   'Nd16 Cd4 Ru2 Pt2'
_cell_volume   702.31650835
_cell_formula_units_Z   2
loop_
 _symmetry_equiv_pos_site_id
 _symmetry_equiv_pos_as_xyz
  1  'x, y, z'
loop_
 _atom_site_type_symbol
 _atom_site_label
 _atom_site_symmetry_multiplicity
 _atom_site_fract_x
 _atom_site_fract_y
 _atom_site_fract_z
 _atom_site_occupancy
  Nd  Nd0  1  0.348026  0.348026  0.354029  1
  Nd  Nd1  1  0.348026  0.348026  0.949920  1
  Nd  Nd2  1  0.344786  0.955168  0.350023  1
  Nd  Nd3  1  0.955168  0.344786  0.350023  1
  Nd  Nd4  1  0.815216  0.189725  0.190751  1
  Nd  Nd5  1  0.189725  0.815216  0.804308  1
  Nd  Nd6  1  0.189725  0.815216  0.190751  1
  Nd  Nd7  1  0.815216  0.189725  0.804308  1
  Nd  Nd8  1  0.189242  0.189242  0.810758  1
  Nd  Nd9  1  0.806658  0.806658  0.193342  1
  Nd  Nd10  1  0.937958  0.558777  0.564734  1
  Nd  Nd11  1  0.558777  0.937958  0.938531  1
  Nd  Nd12  1  0.558777  0.937958  0.564734  1
  Nd  Nd13  1  0.937958  0.558777  0.938531  1
  Nd  Nd14  1  0.562528  0.562528  0.937472  1
  Nd  Nd15  1  0.938370  0.938370  0.561630  1
  Cd  Cd16  1  0.580016  0.580016  0.580452  1
  Cd  Cd17  1  0.580016  0.580016  0.259517  1
  Cd  Cd18  1  0.580874  0.257808  0.580659  1
  Cd  Cd19  1  0.257808  0.580874  0.580659  1
  Ru  Ru20  1  0.143122  0.143122  0.137279  1
  Ru  Ru21  1  0.143122  0.143122  0.576478  1
  Pt  Pt22  1  0.145426  0.573462  0.140556  1
  Pt  Pt23  1  0.573462  0.145426  0.140556  1
