# generated using pymatgen
data_La4Dy5TmRu4
_symmetry_space_group_name_H-M   'P 1'
_cell_length_a   6.50207282
_cell_length_b   7.25351494
_cell_length_c   8.77834434
_cell_angle_alpha   96.37304893
_cell_angle_beta   111.73703623
_cell_angle_gamma   89.99999814
_symmetry_Int_Tables_number   1
_chemical_formula_structural   La4Dy5TmRu4
_chemical_formula_sum   'La4 Dy5 Tm1 Ru4'
_cell_volume   381.81731454
_cell_formula_units_Z   1
loop_
 _symmetry_equiv_pos_site_id
 _symmetry_equiv_pos_as_xyz
  1  'x, y, z'
loop_
 _atom_site_type_symbol
 _atom_site_label
 _atom_site_symmetry_multiplicity
 _atom_site_fract_x
 _atom_site_fract_y
 _atom_site_fract_z
 _atom_site_occupancy
  La  La0  1  0.782962  0.088237  0.804702  1
  La  La1  1  0.978261  0.411763  0.195298  1
  La  La2  1  0.216722  0.911309  0.195057  1
  La  La3  1  0.021665  0.588691  0.804943  1
  Dy  Dy4  1  0.204061  0.184458  0.569214  1
  Dy  Dy5  1  0.634847  0.315542  0.430786  1
  Dy  Dy6  1  0.795981  0.815317  0.430461  1
  Dy  Dy7  1  0.365520  0.684683  0.569539  1
  Dy  Dy8  1  0.425486  0.250000  0.000000  1
  Tm  Tm9  1  0.574141  0.750000  0.000000  1
  Ru  Ru10  1  0.598899  0.418961  0.775254  1
  Ru  Ru11  1  0.823644  0.081039  0.224746  1
  Ru  Ru12  1  0.401302  0.581788  0.224793  1
  Ru  Ru13  1  0.176510  0.918212  0.775207  1
