# generated using pymatgen
data_La10As9I
_symmetry_space_group_name_H-M   'P 1'
_cell_length_a   7.61618369
_cell_length_b   8.82228759
_cell_length_c   9.83570700
_cell_angle_alpha   102.95363477
_cell_angle_beta   97.39227044
_cell_angle_gamma   106.85603338
_symmetry_Int_Tables_number   1
_chemical_formula_structural   La10As9I
_chemical_formula_sum   'La10 As9 I1'
_cell_volume   602.95876209
_cell_formula_units_Z   1
loop_
 _symmetry_equiv_pos_site_id
 _symmetry_equiv_pos_as_xyz
  1  'x, y, z'
loop_
 _atom_site_type_symbol
 _atom_site_label
 _atom_site_symmetry_multiplicity
 _atom_site_fract_x
 _atom_site_fract_y
 _atom_site_fract_z
 _atom_site_occupancy
  La  La0  1  0.902964  0.548610  0.799672  1
  La  La1  1  0.681120  0.157579  0.395154  1
  La  La2  1  0.501197  0.749201  0.002608  1
  La  La3  1  0.684167  0.629850  0.391926  1
  La  La4  1  0.315833  0.370150  0.608074  1
  La  La5  1  0.103654  0.943617  0.181701  1
  La  La6  1  0.498803  0.250799  0.997392  1
  La  La7  1  0.318880  0.842421  0.604846  1
  La  La8  1  0.097036  0.451390  0.200328  1
  La  La9  1  0.896346  0.056383  0.818299  1
  As  As10  1  0.800002  0.601594  0.101770  1
  As  As11  1  0.598662  0.198650  0.698941  1
  As  As12  1  0.401338  0.801350  0.301059  1
  As  As13  1  0.799743  0.100232  0.105245  1
  As  As14  1  0.199998  0.398406  0.898230  1
  As  As15  1  0.609788  0.703707  0.701375  1
  As  As16  1  0.390212  0.296293  0.298625  1
  As  As17  1  0.200257  0.899768  0.894755  1
  As  As18  1  0.000000  0.500000  0.500000  1
  I  I19  1  0.000000  0.000000  0.500000  1
