# generated using pymatgen
data_Hf4Re6MoW
_symmetry_space_group_name_H-M   'P 1'
_cell_length_a   5.31445308
_cell_length_b   5.29267084
_cell_length_c   8.68312200
_cell_angle_alpha   90.00000000
_cell_angle_beta   90.00000000
_cell_angle_gamma   119.88992332
_symmetry_Int_Tables_number   1
_chemical_formula_structural   Hf4Re6MoW
_chemical_formula_sum   'Hf4 Re6 Mo1 W1'
_cell_volume   211.74865078
_cell_formula_units_Z   1
loop_
 _symmetry_equiv_pos_site_id
 _symmetry_equiv_pos_as_xyz
  1  'x, y, z'
loop_
 _atom_site_type_symbol
 _atom_site_label
 _atom_site_symmetry_multiplicity
 _atom_site_fract_x
 _atom_site_fract_y
 _atom_site_fract_z
 _atom_site_occupancy
  Hf  Hf0  1  0.332753  0.666560  0.062254  1
  Hf  Hf1  1  0.667304  0.334027  0.562043  1
  Hf  Hf2  1  0.667304  0.334027  0.937957  1
  Hf  Hf3  1  0.332753  0.666560  0.437746  1
  Re  Re4  1  0.999855  0.000963  0.999699  1
  Re  Re5  1  0.999855  0.000963  0.500301  1
  Re  Re6  1  0.657570  0.827354  0.750000  1
  Re  Re7  1  0.342177  0.169772  0.250000  1
  Re  Re8  1  0.827308  0.169367  0.250000  1
  Re  Re9  1  0.172904  0.342381  0.750000  1
  Mo  Mo10  1  0.171073  0.829301  0.750000  1
  W  W11  1  0.829143  0.658725  0.250000  1
