# generated using pymatgen
data_ErCu2Ni2Au
_symmetry_space_group_name_H-M   'P 1'
_cell_length_a   4.95555070
_cell_length_b   4.95555102
_cell_length_c   4.94068900
_cell_angle_alpha   60.09915213
_cell_angle_beta   60.09914999
_cell_angle_gamma   60.40499871
_symmetry_Int_Tables_number   1
_chemical_formula_structural   ErCu2Ni2Au
_chemical_formula_sum   'Er1 Cu2 Ni2 Au1'
_cell_volume   86.18294010
_cell_formula_units_Z   1
loop_
 _symmetry_equiv_pos_site_id
 _symmetry_equiv_pos_as_xyz
  1  'x, y, z'
loop_
 _atom_site_type_symbol
 _atom_site_label
 _atom_site_symmetry_multiplicity
 _atom_site_fract_x
 _atom_site_fract_y
 _atom_site_fract_z
 _atom_site_occupancy
  Er  Er0  1  0.248062  0.248062  0.251938  1
  Cu  Cu1  1  0.625825  0.625825  0.625186  1
  Cu  Cu2  1  0.625825  0.625825  0.123165  1
  Ni  Ni3  1  0.625884  0.124097  0.625010  1
  Ni  Ni4  1  0.124097  0.625884  0.625010  1
  Au  Au5  1  0.000308  0.000308  0.999692  1
