# generated using pymatgen
data_Ce6Al24Tc5Au3
_symmetry_space_group_name_H-M   'P 1'
_cell_length_a   9.02340800
_cell_length_b   9.03257113
_cell_length_c   9.65202676
_cell_angle_alpha   89.46848998
_cell_angle_beta   90.00000000
_cell_angle_gamma   119.96644048
_symmetry_Int_Tables_number   1
_chemical_formula_structural   Ce6Al24Tc5Au3
_chemical_formula_sum   'Ce6 Al24 Tc5 Au3'
_cell_volume   681.47981935
_cell_formula_units_Z   1
loop_
 _symmetry_equiv_pos_site_id
 _symmetry_equiv_pos_as_xyz
  1  'x, y, z'
loop_
 _atom_site_type_symbol
 _atom_site_label
 _atom_site_symmetry_multiplicity
 _atom_site_fract_x
 _atom_site_fract_y
 _atom_site_fract_z
 _atom_site_occupancy
  Ce  Ce0  1  0.807653  0.615306  0.747704  1
  Ce  Ce1  1  0.191784  0.807179  0.254293  1
  Ce  Ce2  1  0.615394  0.807179  0.254293  1
  Ce  Ce3  1  0.384606  0.192821  0.745707  1
  Ce  Ce4  1  0.808216  0.192821  0.745707  1
  Ce  Ce5  1  0.192347  0.384694  0.252296  1
  Al  Al6  1  0.328776  0.657554  0.480816  1
  Al  Al7  1  0.661442  0.322884  0.972721  1
  Al  Al8  1  0.671224  0.342446  0.519184  1
  Al  Al9  1  0.338558  0.677116  0.027279  1
  Al  Al10  1  0.161641  0.323283  0.578558  1
  Al  Al11  1  0.679336  0.830760  0.578306  1
  Al  Al12  1  0.151424  0.830760  0.578306  1
  Al  Al13  1  0.830233  0.150164  0.078928  1
  Al  Al14  1  0.848576  0.169240  0.421694  1
  Al  Al15  1  0.841889  0.683777  0.082376  1
  Al  Al16  1  0.319931  0.150164  0.078928  1
  Al  Al17  1  0.680069  0.849836  0.921072  1
  Al  Al18  1  0.158111  0.316223  0.917624  1
  Al  Al19  1  0.838359  0.676717  0.421442  1
  Al  Al20  1  0.999954  0.999907  0.250426  1
  Al  Al21  1  0.000046  0.000093  0.749574  1
  Al  Al22  1  0.564535  0.129071  0.241776  1
  Al  Al23  1  0.435358  0.564369  0.743751  1
  Al  Al24  1  0.129011  0.564369  0.743751  1
  Al  Al25  1  0.870989  0.435631  0.256249  1
  Al  Al26  1  0.564642  0.435631  0.256249  1
  Al  Al27  1  0.435465  0.870929  0.758224  1
  Al  Al28  1  0.169767  0.849836  0.921072  1
  Al  Al29  1  0.320664  0.169240  0.421694  1
  Tc  Tc30  1  0.000000  0.000000  0.500000  1
  Tc  Tc31  1  0.000000  0.000000  0.000000  1
  Tc  Tc32  1  0.000000  0.500000  0.500000  1
  Tc  Tc33  1  0.500000  0.500000  0.500000  1
  Tc  Tc34  1  0.500000  0.000000  0.000000  1
  Au  Au35  1  0.500000  0.000000  0.500000  1
  Au  Au36  1  0.500000  0.500000  0.000000  1
  Au  Au37  1  0.000000  0.500000  0.000000  1
