# generated using pymatgen
data_TbTh3CdHgPd4
_symmetry_space_group_name_H-M   'P 1'
_cell_length_a   3.80880400
_cell_length_b   7.90172786
_cell_length_c   7.89978803
_cell_angle_alpha   90.71256491
_cell_angle_beta   90.00000000
_cell_angle_gamma   90.00000000
_symmetry_Int_Tables_number   1
_chemical_formula_structural   TbTh3CdHgPd4
_chemical_formula_sum   'Tb1 Th3 Cd1 Hg1 Pd4'
_cell_volume   237.73468259
_cell_formula_units_Z   1
loop_
 _symmetry_equiv_pos_site_id
 _symmetry_equiv_pos_as_xyz
  1  'x, y, z'
loop_
 _atom_site_type_symbol
 _atom_site_label
 _atom_site_symmetry_multiplicity
 _atom_site_fract_x
 _atom_site_fract_y
 _atom_site_fract_z
 _atom_site_occupancy
  Tb  Tb0  1  0.500000  0.675262  0.826447  1
  Th  Th1  1  0.500000  0.171173  0.676465  1
  Th  Th2  1  0.500000  0.825197  0.326772  1
  Th  Th3  1  0.500000  0.328315  0.170604  1
  Cd  Cd4  1  0.000000  0.502166  0.505692  1
  Hg  Hg5  1  0.000000  0.994236  0.997701  1
  Pd  Pd6  1  0.000000  0.625479  0.130144  1
  Pd  Pd7  1  0.000000  0.372358  0.871977  1
  Pd  Pd8  1  0.000000  0.874924  0.622631  1
  Pd  Pd9  1  0.000000  0.130892  0.371568  1
