# generated using pymatgen
data_Dy7Ho7Th2(CdPt)4
_symmetry_space_group_name_H-M   'P 1'
_cell_length_a   9.73329956
_cell_length_b   9.73329847
_cell_length_c   9.70817700
_cell_angle_alpha   60.08533816
_cell_angle_beta   60.08534185
_cell_angle_gamma   60.15643778
_symmetry_Int_Tables_number   1
_chemical_formula_structural   Dy7Ho7Th2(CdPt)4
_chemical_formula_sum   'Dy7 Ho7 Th2 Cd4 Pt4'
_cell_volume   651.94952132
_cell_formula_units_Z   1
loop_
 _symmetry_equiv_pos_site_id
 _symmetry_equiv_pos_as_xyz
  1  'x, y, z'
loop_
 _atom_site_type_symbol
 _atom_site_label
 _atom_site_symmetry_multiplicity
 _atom_site_fract_x
 _atom_site_fract_y
 _atom_site_fract_z
 _atom_site_occupancy
  Dy  Dy0  1  0.809957  0.809957  0.190043  1
  Dy  Dy1  1  0.935409  0.565563  0.566310  1
  Dy  Dy2  1  0.565563  0.935409  0.932718  1
  Dy  Dy3  1  0.565563  0.935409  0.566310  1
  Dy  Dy4  1  0.935409  0.565562  0.932718  1
  Dy  Dy5  1  0.566901  0.566901  0.933099  1
  Dy  Dy6  1  0.935721  0.935721  0.564278  1
  Ho  Ho7  1  0.352559  0.941393  0.353024  1
  Ho  Ho8  1  0.941393  0.352559  0.353024  1
  Ho  Ho9  1  0.811791  0.190029  0.188679  1
  Ho  Ho10  1  0.190029  0.811791  0.809501  1
  Ho  Ho11  1  0.190029  0.811791  0.188679  1
  Ho  Ho12  1  0.811791  0.190029  0.809501  1
  Ho  Ho13  1  0.187528  0.187528  0.812472  1
  Th  Th14  1  0.350244  0.350244  0.353821  1
  Th  Th15  1  0.350244  0.350244  0.945692  1
  Cd  Cd16  1  0.583442  0.583442  0.580070  1
  Cd  Cd17  1  0.583442  0.583442  0.253046  1
  Cd  Cd18  1  0.585145  0.251821  0.581516  1
  Cd  Cd19  1  0.251821  0.585145  0.581516  1
  Pt  Pt20  1  0.141252  0.141252  0.146890  1
  Pt  Pt21  1  0.141252  0.141252  0.570606  1
  Pt  Pt22  1  0.142698  0.570814  0.143244  1
  Pt  Pt23  1  0.570814  0.142698  0.143244  1
