# generated using pymatgen
data_CeY3Al18(PtRh2)2
_symmetry_space_group_name_H-M   'P 1'
_cell_length_a   7.60405930
_cell_length_b   7.60008409
_cell_length_c   9.45909223
_cell_angle_alpha   89.99383904
_cell_angle_beta   89.97385863
_cell_angle_gamma   119.59003721
_symmetry_Int_Tables_number   1
_chemical_formula_structural   CeY3Al18(PtRh2)2
_chemical_formula_sum   'Ce1 Y3 Al18 Pt2 Rh4'
_cell_volume   475.36064052
_cell_formula_units_Z   1
loop_
 _symmetry_equiv_pos_site_id
 _symmetry_equiv_pos_as_xyz
  1  'x, y, z'
loop_
 _atom_site_type_symbol
 _atom_site_label
 _atom_site_symmetry_multiplicity
 _atom_site_fract_x
 _atom_site_fract_y
 _atom_site_fract_z
 _atom_site_occupancy
  Ce  Ce0  1  0.995384  0.669555  0.250677  1
  Y  Y1  1  0.005704  0.331018  0.749892  1
  Y  Y2  1  0.669493  0.994646  0.250089  1
  Y  Y3  1  0.330696  0.004876  0.749875  1
  Al  Al4  1  0.127575  0.127815  0.250876  1
  Al  Al5  1  0.874880  0.875926  0.748726  1
  Al  Al6  1  0.000806  0.329791  0.076191  1
  Al  Al7  1  0.998635  0.668885  0.921377  1
  Al  Al8  1  0.000150  0.664864  0.576678  1
  Al  Al9  1  0.336684  0.001328  0.426512  1
  Al  Al10  1  0.999538  0.333095  0.426716  1
  Al  Al11  1  0.665283  0.000916  0.575095  1
  Al  Al12  1  0.669215  0.999307  0.922046  1
  Al  Al13  1  0.332307  0.002370  0.076248  1
  Al  Al14  1  0.331276  0.331230  0.551929  1
  Al  Al15  1  0.666523  0.668023  0.452819  1
  Al  Al16  1  0.667788  0.669061  0.053614  1
  Al  Al17  1  0.330246  0.330221  0.942259  1
  Al  Al18  1  0.341177  0.546720  0.253740  1
  Al  Al19  1  0.658980  0.450992  0.745964  1
  Al  Al20  1  0.545952  0.340436  0.253697  1
  Al  Al21  1  0.452793  0.659884  0.745918  1
  Pt  Pt22  1  0.671841  0.327627  0.999879  1
  Pt  Pt23  1  0.327543  0.671864  0.999917  1
  Rh  Rh24  1  0.327712  0.671742  0.499908  1
  Rh  Rh25  1  0.671756  0.327955  0.499631  1
  Rh  Rh26  1  0.999941  0.999930  0.999995  1
  Rh  Rh27  1  0.000121  0.999921  0.499733  1
