# generated using pymatgen
data_SrTm(Zn2Pt)4
_symmetry_space_group_name_H-M   'P 1'
_cell_length_a   7.68249900
_cell_length_b   7.68249952
_cell_length_c   4.22389400
_cell_angle_alpha   90.00000000
_cell_angle_beta   90.00000000
_cell_angle_gamma   92.26166945
_symmetry_Int_Tables_number   1
_chemical_formula_structural   SrTm(Zn2Pt)4
_chemical_formula_sum   'Sr1 Tm1 Zn8 Pt4'
_cell_volume   249.10338333
_cell_formula_units_Z   1
loop_
 _symmetry_equiv_pos_site_id
 _symmetry_equiv_pos_as_xyz
  1  'x, y, z'
loop_
 _atom_site_type_symbol
 _atom_site_label
 _atom_site_symmetry_multiplicity
 _atom_site_fract_x
 _atom_site_fract_y
 _atom_site_fract_z
 _atom_site_occupancy
  Sr  Sr0  1  0.000000  0.000000  0.000000  1
  Tm  Tm1  1  0.500000  0.500000  0.500000  1
  Zn  Zn2  1  0.356391  0.097881  0.500000  1
  Zn  Zn3  1  0.643609  0.902119  0.500000  1
  Zn  Zn4  1  0.848076  0.407692  0.000000  1
  Zn  Zn5  1  0.151924  0.592308  0.000000  1
  Zn  Zn6  1  0.097881  0.356391  0.500000  1
  Zn  Zn7  1  0.902119  0.643609  0.500000  1
  Zn  Zn8  1  0.407692  0.848076  0.000000  1
  Zn  Zn9  1  0.592308  0.151924  0.000000  1
  Pt  Pt10  1  0.770455  0.229545  0.500000  1
  Pt  Pt11  1  0.229545  0.770455  0.500000  1
  Pt  Pt12  1  0.294815  0.294815  0.000000  1
  Pt  Pt13  1  0.705185  0.705185  0.000000  1
