# generated using pymatgen
data_Ho5Er5In8RuPt3
_symmetry_space_group_name_H-M   'P 1'
_cell_length_a   3.62419000
_cell_length_b   8.09070375
_cell_length_c   18.15844820
_cell_angle_alpha   89.99650416
_cell_angle_beta   90.00000000
_cell_angle_gamma   90.00000000
_symmetry_Int_Tables_number   1
_chemical_formula_structural   Ho5Er5In8RuPt3
_chemical_formula_sum   'Ho5 Er5 In8 Ru1 Pt3'
_cell_volume   532.44651362
_cell_formula_units_Z   1
loop_
 _symmetry_equiv_pos_site_id
 _symmetry_equiv_pos_as_xyz
  1  'x, y, z'
loop_
 _atom_site_type_symbol
 _atom_site_label
 _atom_site_symmetry_multiplicity
 _atom_site_fract_x
 _atom_site_fract_y
 _atom_site_fract_z
 _atom_site_occupancy
  Ho  Ho0  1  0.000000  0.757370  0.778743  1
  Ho  Ho1  1  0.000000  0.257221  0.721469  1
  Ho  Ho2  1  0.000000  0.750772  0.278527  1
  Ho  Ho3  1  0.000000  0.999553  0.000476  1
  Ho  Ho4  1  0.000000  0.500571  0.499168  1
  Er  Er5  1  0.000000  0.115850  0.411671  1
  Er  Er6  1  0.000000  0.884157  0.585539  1
  Er  Er7  1  0.000000  0.384020  0.914487  1
  Er  Er8  1  0.000000  0.617935  0.087383  1
  Er  Er9  1  0.000000  0.233622  0.222799  1
  In  In10  1  0.500000  0.423172  0.350972  1
  In  In11  1  0.500000  0.574755  0.647771  1
  In  In12  1  0.500000  0.074792  0.852182  1
  In  In13  1  0.500000  0.930733  0.149707  1
  In  In14  1  0.500000  0.292793  0.066314  1
  In  In15  1  0.500000  0.707739  0.933963  1
  In  In16  1  0.500000  0.208850  0.566485  1
  In  In17  1  0.500000  0.794368  0.431156  1
  Ru  Ru18  1  0.500000  0.019394  0.304390  1
  Pt  Pt19  1  0.500000  0.976524  0.696032  1
  Pt  Pt20  1  0.500000  0.477362  0.804426  1
  Pt  Pt21  1  0.500000  0.518448  0.196340  1
