# generated using pymatgen
data_Dy7Er3AlSb5
_symmetry_space_group_name_H-M   'P 1'
_cell_length_a   6.36484607
_cell_length_b   8.90144429
_cell_length_c   8.89845257
_cell_angle_alpha   120.00844954
_cell_angle_beta   90.00602840
_cell_angle_gamma   90.01076512
_symmetry_Int_Tables_number   1
_chemical_formula_structural   Dy7Er3AlSb5
_chemical_formula_sum   'Dy7 Er3 Al1 Sb5'
_cell_volume   436.57262717
_cell_formula_units_Z   1
loop_
 _symmetry_equiv_pos_site_id
 _symmetry_equiv_pos_as_xyz
  1  'x, y, z'
loop_
 _atom_site_type_symbol
 _atom_site_label
 _atom_site_symmetry_multiplicity
 _atom_site_fract_x
 _atom_site_fract_y
 _atom_site_fract_z
 _atom_site_occupancy
  Dy  Dy0  1  0.999207  0.338159  0.673098  1
  Dy  Dy1  1  0.749985  0.247996  0.000005  1
  Dy  Dy2  1  0.749954  0.753910  0.762836  1
  Dy  Dy3  1  0.749802  0.991087  0.237237  1
  Dy  Dy4  1  0.250222  0.757552  0.000008  1
  Dy  Dy5  1  0.250076  0.245277  0.244885  1
  Dy  Dy6  1  0.250024  0.000692  0.755270  1
  Er  Er7  1  0.500984  0.338355  0.673182  1
  Er  Er8  1  0.501092  0.665147  0.326781  1
  Er  Er9  1  0.998785  0.665045  0.326451  1
  Al  Al10  1  0.749284  0.603923  0.000740  1
  Sb  Sb11  1  0.749367  0.389496  0.390749  1
  Sb  Sb12  1  0.749455  0.997429  0.608733  1
  Sb  Sb13  1  0.250723  0.393310  0.000729  1
  Sb  Sb14  1  0.250461  0.610593  0.607142  1
  Sb  Sb15  1  0.250579  0.002028  0.392153  1
