# generated using pymatgen
data_Hf12Ti4Re3Os5
_symmetry_space_group_name_H-M   'P 1'
_cell_length_a   8.59899614
_cell_length_b   8.59899664
_cell_length_c   8.59899604
_cell_angle_alpha   60.00903343
_cell_angle_beta   60.00903413
_cell_angle_gamma   60.00903595
_symmetry_Int_Tables_number   1
_chemical_formula_structural   Hf12Ti4Re3Os5
_chemical_formula_sum   'Hf12 Ti4 Re3 Os5'
_cell_volume   449.69414038
_cell_formula_units_Z   1
loop_
 _symmetry_equiv_pos_site_id
 _symmetry_equiv_pos_as_xyz
  1  'x, y, z'
loop_
 _atom_site_type_symbol
 _atom_site_label
 _atom_site_symmetry_multiplicity
 _atom_site_fract_x
 _atom_site_fract_y
 _atom_site_fract_z
 _atom_site_occupancy
  Hf  Hf0  1  0.806598  0.806598  0.193361  1
  Hf  Hf1  1  0.192553  0.192553  0.808241  1
  Hf  Hf2  1  0.806598  0.193361  0.806598  1
  Hf  Hf3  1  0.192553  0.808241  0.192553  1
  Hf  Hf4  1  0.193361  0.806598  0.806598  1
  Hf  Hf5  1  0.808241  0.192553  0.192553  1
  Hf  Hf6  1  0.442771  0.442771  0.056641  1
  Hf  Hf7  1  0.057555  0.057555  0.442550  1
  Hf  Hf8  1  0.442771  0.056641  0.442771  1
  Hf  Hf9  1  0.057555  0.442550  0.057555  1
  Hf  Hf10  1  0.056641  0.442771  0.442771  1
  Hf  Hf11  1  0.442550  0.057555  0.057555  1
  Ti  Ti12  1  0.122828  0.625226  0.625226  1
  Ti  Ti13  1  0.625226  0.122828  0.625226  1
  Ti  Ti14  1  0.625226  0.625226  0.122828  1
  Ti  Ti15  1  0.626209  0.626209  0.626209  1
  Re  Re16  1  0.757301  0.414231  0.414231  1
  Re  Re17  1  0.414231  0.757301  0.414231  1
  Re  Re18  1  0.414231  0.414231  0.757301  1
  Os  Os19  1  0.413801  0.413801  0.413801  1
  Os  Os20  1  0.491908  0.836542  0.836542  1
  Os  Os21  1  0.836542  0.491908  0.836542  1
  Os  Os22  1  0.836542  0.836542  0.491908  1
  Os  Os23  1  0.836208  0.836208  0.836208  1
