# generated using pymatgen
data_YbThFeOs3
_symmetry_space_group_name_H-M   'P 1'
_cell_length_a   5.27870903
_cell_length_b   5.41004841
_cell_length_c   5.41004900
_cell_angle_alpha   60.00000248
_cell_angle_beta   59.17346370
_cell_angle_gamma   59.17345956
_symmetry_Int_Tables_number   1
_chemical_formula_structural   YbThFeOs3
_chemical_formula_sum   'Yb1 Th1 Fe1 Os3'
_cell_volume   107.86359169
_cell_formula_units_Z   1
loop_
 _symmetry_equiv_pos_site_id
 _symmetry_equiv_pos_as_xyz
  1  'x, y, z'
loop_
 _atom_site_type_symbol
 _atom_site_label
 _atom_site_symmetry_multiplicity
 _atom_site_fract_x
 _atom_site_fract_y
 _atom_site_fract_z
 _atom_site_occupancy
  Yb  Yb0  1  0.751087  0.749638  0.749638  1
  Th  Th1  1  0.492901  0.502366  0.502366  1
  Fe  Fe2  1  0.631072  0.122976  0.122976  1
  Os  Os3  1  0.124980  0.125191  0.125191  1
  Os  Os4  1  0.124980  0.624638  0.125191  1
  Os  Os5  1  0.124980  0.125191  0.624638  1
