# generated using pymatgen
data_SmDyHo2(MoN3)4
_symmetry_space_group_name_H-M   'P 1'
_cell_length_a   7.32381334
_cell_length_b   7.32381305
_cell_length_c   6.27474507
_cell_angle_alpha   73.93421183
_cell_angle_beta   73.93419976
_cell_angle_gamma   81.89712329
_symmetry_Int_Tables_number   1
_chemical_formula_structural   SmDyHo2(MoN3)4
_chemical_formula_sum   'Sm1 Dy1 Ho2 Mo4 N12'
_cell_volume   310.03423164
_cell_formula_units_Z   1
loop_
 _symmetry_equiv_pos_site_id
 _symmetry_equiv_pos_as_xyz
  1  'x, y, z'
loop_
 _atom_site_type_symbol
 _atom_site_label
 _atom_site_symmetry_multiplicity
 _atom_site_fract_x
 _atom_site_fract_y
 _atom_site_fract_z
 _atom_site_occupancy
  Sm  Sm0  1  0.703190  0.296810  0.250000  1
  Dy  Dy1  1  0.294387  0.705613  0.750000  1
  Ho  Ho2  1  0.914206  0.085794  0.750000  1
  Ho  Ho3  1  0.088564  0.911436  0.250000  1
  Mo  Mo4  1  0.801007  0.620562  0.765274  1
  Mo  Mo5  1  0.199114  0.380852  0.232203  1
  Mo  Mo6  1  0.619148  0.800886  0.267797  1
  Mo  Mo7  1  0.379438  0.198993  0.734726  1
  N  N8  1  0.218507  0.998269  0.849282  1
  N  N9  1  0.359725  0.349836  0.443393  1
  N  N10  1  0.635098  0.649867  0.560457  1
  N  N11  1  0.622529  0.110770  0.667101  1
  N  N12  1  0.001731  0.781493  0.650718  1
  N  N13  1  0.784827  0.996808  0.150222  1
  N  N14  1  0.109346  0.623533  0.161932  1
  N  N15  1  0.889230  0.377471  0.832899  1
  N  N16  1  0.003192  0.215173  0.349778  1
  N  N17  1  0.350133  0.364902  0.939543  1
  N  N18  1  0.650164  0.640275  0.056607  1
  N  N19  1  0.376467  0.890654  0.338068  1
