# generated using pymatgen
data_Ca20Ga9Hg2Pb
_symmetry_space_group_name_H-M   'P 1'
_cell_length_a   8.03115700
_cell_length_b   8.03115700
_cell_length_c   14.95828800
_cell_angle_alpha   90.00000000
_cell_angle_beta   90.00000000
_cell_angle_gamma   90.00000000
_symmetry_Int_Tables_number   1
_chemical_formula_structural   Ca20Ga9Hg2Pb
_chemical_formula_sum   'Ca20 Ga9 Hg2 Pb1'
_cell_volume   964.80183895
_cell_formula_units_Z   1
loop_
 _symmetry_equiv_pos_site_id
 _symmetry_equiv_pos_as_xyz
  1  'x, y, z'
loop_
 _atom_site_type_symbol
 _atom_site_label
 _atom_site_symmetry_multiplicity
 _atom_site_fract_x
 _atom_site_fract_y
 _atom_site_fract_z
 _atom_site_occupancy
  Ca  Ca0  1  0.678958  0.170416  0.105350  1
  Ca  Ca1  1  0.173277  0.672268  0.608622  1
  Ca  Ca2  1  0.321042  0.829584  0.105350  1
  Ca  Ca3  1  0.826723  0.327732  0.608622  1
  Ca  Ca4  1  0.829584  0.678958  0.105350  1
  Ca  Ca5  1  0.327732  0.173277  0.608622  1
  Ca  Ca6  1  0.170416  0.321042  0.105350  1
  Ca  Ca7  1  0.672268  0.826723  0.608622  1
  Ca  Ca8  1  0.829584  0.321042  0.894650  1
  Ca  Ca9  1  0.327732  0.826723  0.391378  1
  Ca  Ca10  1  0.170416  0.678958  0.894650  1
  Ca  Ca11  1  0.672268  0.173277  0.391378  1
  Ca  Ca12  1  0.678958  0.829584  0.894650  1
  Ca  Ca13  1  0.173277  0.327732  0.391378  1
  Ca  Ca14  1  0.321042  0.170416  0.894650  1
  Ca  Ca15  1  0.826723  0.672268  0.391378  1
  Ca  Ca16  1  0.500000  0.500000  0.756450  1
  Ca  Ca17  1  0.000000  0.000000  0.248640  1
  Ca  Ca18  1  0.000000  0.000000  0.751360  1
  Ca  Ca19  1  0.500000  0.500000  0.243550  1
  Ga  Ga20  1  0.611263  0.112263  0.751371  1
  Ga  Ga21  1  0.112263  0.611263  0.248629  1
  Ga  Ga22  1  0.887737  0.388737  0.248629  1
  Ga  Ga23  1  0.388737  0.887737  0.751371  1
  Ga  Ga24  1  0.887737  0.611263  0.751371  1
  Ga  Ga25  1  0.388737  0.112263  0.248629  1
  Ga  Ga26  1  0.112263  0.388737  0.751371  1
  Ga  Ga27  1  0.611263  0.887737  0.248629  1
  Ga  Ga28  1  0.000000  0.000000  0.000000  1
  Hg  Hg29  1  0.500000  0.500000  0.500000  1
  Hg  Hg30  1  0.000000  0.000000  0.500000  1
  Pb  Pb31  1  0.500000  0.500000  0.000000  1
