# generated using pymatgen
data_La3Nd3(SnRu)4
_symmetry_space_group_name_H-M   'P 1'
_cell_length_a   5.93584028
_cell_length_b   8.58489300
_cell_length_c   14.00566417
_cell_angle_alpha   90.00000000
_cell_angle_beta   89.92380549
_cell_angle_gamma   90.00000000
_symmetry_Int_Tables_number   1
_chemical_formula_structural   La3Nd3(SnRu)4
_chemical_formula_sum   'La6 Nd6 Sn8 Ru8'
_cell_volume   713.70775834
_cell_formula_units_Z   2
loop_
 _symmetry_equiv_pos_site_id
 _symmetry_equiv_pos_as_xyz
  1  'x, y, z'
loop_
 _atom_site_type_symbol
 _atom_site_label
 _atom_site_symmetry_multiplicity
 _atom_site_fract_x
 _atom_site_fract_y
 _atom_site_fract_z
 _atom_site_occupancy
  La  La0  1  0.835162  0.908799  0.591234  1
  La  La1  1  0.164838  0.408799  0.908766  1
  La  La2  1  0.836173  0.591783  0.090596  1
  La  La3  1  0.835541  0.590150  0.409572  1
  La  La4  1  0.164459  0.090150  0.090428  1
  La  La5  1  0.163827  0.091783  0.409404  1
  Nd  Nd6  1  0.624128  0.281190  0.749625  1
  Nd  Nd7  1  0.624745  0.220035  0.249823  1
  Nd  Nd8  1  0.375255  0.720035  0.250177  1
  Nd  Nd9  1  0.375872  0.781190  0.750375  1
  Nd  Nd10  1  0.161338  0.407018  0.594863  1
  Nd  Nd11  1  0.838662  0.907018  0.905137  1
  Sn  Sn12  1  0.364282  0.748000  0.501041  1
  Sn  Sn13  1  0.367953  0.751147  0.999336  1
  Sn  Sn14  1  0.120651  0.120768  0.750143  1
  Sn  Sn15  1  0.632047  0.251147  0.500664  1
  Sn  Sn16  1  0.123325  0.379520  0.249917  1
  Sn  Sn17  1  0.876675  0.879520  0.250083  1
  Sn  Sn18  1  0.879349  0.620768  0.749857  1
  Sn  Sn19  1  0.635718  0.248000  0.998959  1
  Ru  Ru20  1  0.348591  0.031878  0.911282  1
  Ru  Ru21  1  0.351238  0.469188  0.087985  1
  Ru  Ru22  1  0.647147  0.968875  0.090327  1
  Ru  Ru23  1  0.650510  0.531648  0.911620  1
  Ru  Ru24  1  0.648762  0.969188  0.412015  1
  Ru  Ru25  1  0.651409  0.531878  0.588718  1
  Ru  Ru26  1  0.352853  0.468875  0.409673  1
  Ru  Ru27  1  0.349490  0.031648  0.588380  1
