# generated using pymatgen
data_Eu2Ga9Ir2Pd
_symmetry_space_group_name_H-M   'P 1'
_cell_length_a   7.63542609
_cell_length_b   7.63542569
_cell_length_c   9.79653300
_cell_angle_alpha   90.00000000
_cell_angle_beta   90.00000000
_cell_angle_gamma   119.14996074
_symmetry_Int_Tables_number   1
_chemical_formula_structural   Eu2Ga9Ir2Pd
_chemical_formula_sum   'Eu4 Ga18 Ir4 Pd2'
_cell_volume   498.79969251
_cell_formula_units_Z   2
loop_
 _symmetry_equiv_pos_site_id
 _symmetry_equiv_pos_as_xyz
  1  'x, y, z'
loop_
 _atom_site_type_symbol
 _atom_site_label
 _atom_site_symmetry_multiplicity
 _atom_site_fract_x
 _atom_site_fract_y
 _atom_site_fract_z
 _atom_site_occupancy
  Eu  Eu0  1  0.673270  0.997595  0.250000  1
  Eu  Eu1  1  0.002405  0.326730  0.750000  1
  Eu  Eu2  1  0.997595  0.673270  0.250000  1
  Eu  Eu3  1  0.326730  0.002405  0.750000  1
  Ga  Ga4  1  0.661173  0.997234  0.923598  1
  Ga  Ga5  1  0.135083  0.135083  0.250000  1
  Ga  Ga6  1  0.002766  0.338827  0.423598  1
  Ga  Ga7  1  0.337982  0.337982  0.561486  1
  Ga  Ga8  1  0.336983  0.545967  0.250000  1
  Ga  Ga9  1  0.454033  0.663017  0.750000  1
  Ga  Ga10  1  0.864917  0.864917  0.750000  1
  Ga  Ga11  1  0.662018  0.662018  0.061486  1
  Ga  Ga12  1  0.662018  0.662018  0.438514  1
  Ga  Ga13  1  0.997234  0.661173  0.576402  1
  Ga  Ga14  1  0.997234  0.661173  0.923598  1
  Ga  Ga15  1  0.338827  0.002766  0.423598  1
  Ga  Ga16  1  0.663017  0.454033  0.750000  1
  Ga  Ga17  1  0.545967  0.336983  0.250000  1
  Ga  Ga18  1  0.337982  0.337982  0.938514  1
  Ga  Ga19  1  0.338827  0.002766  0.076402  1
  Ga  Ga20  1  0.661173  0.997234  0.576402  1
  Ga  Ga21  1  0.002766  0.338827  0.076402  1
  Ir  Ir22  1  0.328992  0.671008  0.500000  1
  Ir  Ir23  1  0.328992  0.671008  0.000000  1
  Ir  Ir24  1  0.671008  0.328992  0.500000  1
  Ir  Ir25  1  0.671008  0.328992  0.000000  1
  Pd  Pd26  1  0.000000  0.000000  0.000000  1
  Pd  Pd27  1  0.000000  0.000000  0.500000  1
