# generated using pymatgen
data_LaTb2Nd(Mo2O7)2
_symmetry_space_group_name_H-M   'P 1'
_cell_length_a   7.50237548
_cell_length_b   7.54741641
_cell_length_c   7.49780174
_cell_angle_alpha   59.29621355
_cell_angle_beta   59.02338029
_cell_angle_gamma   59.27897137
_symmetry_Int_Tables_number   1
_chemical_formula_structural   LaTb2Nd(Mo2O7)2
_chemical_formula_sum   'La1 Tb2 Nd1 Mo4 O14'
_cell_volume   294.72435338
_cell_formula_units_Z   1
loop_
 _symmetry_equiv_pos_site_id
 _symmetry_equiv_pos_as_xyz
  1  'x, y, z'
loop_
 _atom_site_type_symbol
 _atom_site_label
 _atom_site_symmetry_multiplicity
 _atom_site_fract_x
 _atom_site_fract_y
 _atom_site_fract_z
 _atom_site_occupancy
  La  La0  1  0.125000  0.125000  0.125000  1
  Tb  Tb1  1  0.625000  0.125000  0.125000  1
  Tb  Tb2  1  0.125000  0.125000  0.625000  1
  Nd  Nd3  1  0.125000  0.625000  0.125000  1
  Mo  Mo4  1  0.625000  0.625000  0.625000  1
  Mo  Mo5  1  0.125000  0.625000  0.625000  1
  Mo  Mo6  1  0.625000  0.625000  0.125000  1
  Mo  Mo7  1  0.625000  0.125000  0.625000  1
  O  O8  1  0.995590  0.005780  0.995790  1
  O  O9  1  0.254410  0.244220  0.254210  1
  O  O10  1  0.289399  0.293423  0.701685  1
  O  O11  1  0.546375  0.530197  0.960629  1
  O  O12  1  0.716042  0.282123  0.714235  1
  O  O13  1  0.702183  0.292619  0.290669  1
  O  O14  1  0.289913  0.718019  0.705077  1
  O  O15  1  0.291032  0.701213  0.290290  1
  O  O16  1  0.703625  0.719803  0.289371  1
  O  O17  1  0.960087  0.531981  0.544923  1
  O  O18  1  0.547817  0.957381  0.959331  1
  O  O19  1  0.960601  0.956577  0.548315  1
  O  O20  1  0.958968  0.548787  0.959710  1
  O  O21  1  0.533958  0.967877  0.535765  1
