# generated using pymatgen
data_Tb8Si12IrPd3
_symmetry_space_group_name_H-M   'P 1'
_cell_length_a   8.21388100
_cell_length_b   8.21387986
_cell_length_c   7.95689100
_cell_angle_alpha   90.00000000
_cell_angle_beta   90.00000000
_cell_angle_gamma   120.00000863
_symmetry_Int_Tables_number   1
_chemical_formula_structural   Tb8Si12IrPd3
_chemical_formula_sum   'Tb8 Si12 Ir1 Pd3'
_cell_volume   464.91199941
_cell_formula_units_Z   1
loop_
 _symmetry_equiv_pos_site_id
 _symmetry_equiv_pos_as_xyz
  1  'x, y, z'
loop_
 _atom_site_type_symbol
 _atom_site_label
 _atom_site_symmetry_multiplicity
 _atom_site_fract_x
 _atom_site_fract_y
 _atom_site_fract_z
 _atom_site_occupancy
  Tb  Tb0  1  0.509360  0.018720  0.247744  1
  Tb  Tb1  1  0.487269  0.974539  0.751283  1
  Tb  Tb2  1  0.981280  0.490640  0.247744  1
  Tb  Tb3  1  0.025461  0.512731  0.751283  1
  Tb  Tb4  1  0.509360  0.490640  0.247744  1
  Tb  Tb5  1  0.487269  0.512731  0.751283  1
  Tb  Tb6  1  0.000000  0.000000  0.251266  1
  Tb  Tb7  1  0.000000  0.000000  0.750376  1
  Si  Si8  1  0.167314  0.334627  0.003282  1
  Si  Si9  1  0.835209  0.670417  0.997808  1
  Si  Si10  1  0.665373  0.832686  0.003282  1
  Si  Si11  1  0.834485  0.668970  0.501018  1
  Si  Si12  1  0.329583  0.164791  0.997808  1
  Si  Si13  1  0.165241  0.330481  0.500618  1
  Si  Si14  1  0.167314  0.832686  0.003282  1
  Si  Si15  1  0.331030  0.165515  0.501018  1
  Si  Si16  1  0.835209  0.164791  0.997808  1
  Si  Si17  1  0.669519  0.834759  0.500618  1
  Si  Si18  1  0.834485  0.165515  0.501018  1
  Si  Si19  1  0.165241  0.834759  0.500618  1
  Ir  Ir20  1  0.333333  0.666667  0.036052  1
  Pd  Pd21  1  0.666667  0.333333  0.962189  1
  Pd  Pd22  1  0.666667  0.333333  0.541182  1
  Pd  Pd23  1  0.333333  0.666667  0.453680  1
