# generated using pymatgen
data_Ti3AlFe4
_symmetry_space_group_name_H-M   'P 1'
_cell_length_a   5.07273702
_cell_length_b   5.07273748
_cell_length_c   4.14109500
_cell_angle_alpha   90.00000000
_cell_angle_beta   90.00000000
_cell_angle_gamma   109.33617747
_symmetry_Int_Tables_number   1
_chemical_formula_structural   Ti3AlFe4
_chemical_formula_sum   'Ti3 Al1 Fe4'
_cell_volume   100.55049508
_cell_formula_units_Z   1
loop_
 _symmetry_equiv_pos_site_id
 _symmetry_equiv_pos_as_xyz
  1  'x, y, z'
loop_
 _atom_site_type_symbol
 _atom_site_label
 _atom_site_symmetry_multiplicity
 _atom_site_fract_x
 _atom_site_fract_y
 _atom_site_fract_z
 _atom_site_occupancy
  Ti  Ti0  1  0.615310  0.384691  0.250001  1
  Ti  Ti1  1  0.134649  0.865352  0.250001  1
  Ti  Ti2  1  0.875025  0.124976  0.750000  1
  Al  Al3  1  0.375017  0.624984  0.750000  1
  Fe  Fe4  1  0.119220  0.369221  0.250001  1
  Fe  Fe5  1  0.630780  0.880781  0.250001  1
  Fe  Fe6  1  0.375007  0.125004  0.750000  1
  Fe  Fe7  1  0.874997  0.624994  0.750000  1
