# generated using pymatgen
data_DyY3Si4TcRh3
_symmetry_space_group_name_H-M   'P 1'
_cell_length_a   4.31918700
_cell_length_b   6.96555134
_cell_length_c   7.27643205
_cell_angle_alpha   90.12268555
_cell_angle_beta   90.00000000
_cell_angle_gamma   90.00000000
_symmetry_Int_Tables_number   1
_chemical_formula_structural   DyY3Si4TcRh3
_chemical_formula_sum   'Dy1 Y3 Si4 Tc1 Rh3'
_cell_volume   218.91473115
_cell_formula_units_Z   1
loop_
 _symmetry_equiv_pos_site_id
 _symmetry_equiv_pos_as_xyz
  1  'x, y, z'
loop_
 _atom_site_type_symbol
 _atom_site_label
 _atom_site_symmetry_multiplicity
 _atom_site_fract_x
 _atom_site_fract_y
 _atom_site_fract_z
 _atom_site_occupancy
  Dy  Dy0  1  0.750000  0.504465  0.313842  1
  Y  Y1  1  0.250000  0.987719  0.810687  1
  Y  Y2  1  0.750000  0.008356  0.190452  1
  Y  Y3  1  0.250000  0.495130  0.685272  1
  Si  Si4  1  0.250000  0.301755  0.102133  1
  Si  Si5  1  0.250000  0.800136  0.385854  1
  Si  Si6  1  0.750000  0.700337  0.902754  1
  Si  Si7  1  0.750000  0.200431  0.608525  1
  Tc  Tc8  1  0.250000  0.653825  0.068708  1
  Rh  Rh9  1  0.250000  0.156384  0.433676  1
  Rh  Rh10  1  0.750000  0.846983  0.567070  1
  Rh  Rh11  1  0.750000  0.344479  0.931026  1
