# generated using pymatgen
data_Tb11ErCo4SnRh
_symmetry_space_group_name_H-M   'P 1'
_cell_length_a   8.32225488
_cell_length_b   8.32913338
_cell_length_c   8.32913352
_cell_angle_alpha   110.94950165
_cell_angle_beta   110.53308940
_cell_angle_gamma   106.99197613
_symmetry_Int_Tables_number   1
_chemical_formula_structural   Tb11ErCo4SnRh
_chemical_formula_sum   'Tb11 Er1 Co4 Sn1 Rh1'
_cell_volume   443.63638256
_cell_formula_units_Z   1
loop_
 _symmetry_equiv_pos_site_id
 _symmetry_equiv_pos_as_xyz
  1  'x, y, z'
loop_
 _atom_site_type_symbol
 _atom_site_label
 _atom_site_symmetry_multiplicity
 _atom_site_fract_x
 _atom_site_fract_y
 _atom_site_fract_z
 _atom_site_occupancy
  Tb  Tb0  1  0.596287  0.791212  0.805074  1
  Tb  Tb1  1  0.014749  0.209110  0.805639  1
  Tb  Tb2  1  0.985576  0.789834  0.195743  1
  Tb  Tb3  1  0.187027  0.292957  0.479276  1
  Tb  Tb4  1  0.812431  0.705346  0.518534  1
  Tb  Tb5  1  0.187027  0.707751  0.894069  1
  Tb  Tb6  1  0.812431  0.293898  0.107086  1
  Tb  Tb7  1  0.313417  0.617756  0.305661  1
  Tb  Tb8  1  0.686238  0.381080  0.693909  1
  Tb  Tb9  1  0.313417  0.007756  0.695659  1
  Tb  Tb10  1  0.686238  0.992329  0.305159  1
  Er  Er11  1  0.406691  0.210481  0.196211  1
  Co  Co12  1  0.378328  0.000475  0.377852  1
  Co  Co13  1  0.618330  0.999586  0.618744  1
  Co  Co14  1  0.111581  0.611423  0.500158  1
  Co  Co15  1  0.885607  0.387720  0.497887  1
  Sn  Sn16  1  0.499794  0.499716  0.000078  1
  Rh  Rh17  1  0.004832  0.001571  0.003261  1
