# generated using pymatgen
data_HoLu5(Al3Os)8
_symmetry_space_group_name_H-M   'P 1'
_cell_length_a   8.75928300
_cell_length_b   8.75928479
_cell_length_c   9.58470900
_cell_angle_alpha   90.00000000
_cell_angle_beta   90.00000000
_cell_angle_gamma   119.96751556
_symmetry_Int_Tables_number   1
_chemical_formula_structural   HoLu5(Al3Os)8
_chemical_formula_sum   'Ho1 Lu5 Al24 Os8'
_cell_volume   637.07246492
_cell_formula_units_Z   1
loop_
 _symmetry_equiv_pos_site_id
 _symmetry_equiv_pos_as_xyz
  1  'x, y, z'
loop_
 _atom_site_type_symbol
 _atom_site_label
 _atom_site_symmetry_multiplicity
 _atom_site_fract_x
 _atom_site_fract_y
 _atom_site_fract_z
 _atom_site_occupancy
  Ho  Ho0  1  0.806170  0.193830  0.750000  1
  Lu  Lu1  1  0.195415  0.391266  0.250000  1
  Lu  Lu2  1  0.804010  0.607832  0.750000  1
  Lu  Lu3  1  0.608734  0.804585  0.250000  1
  Lu  Lu4  1  0.392168  0.195990  0.750000  1
  Lu  Lu5  1  0.195394  0.804606  0.250000  1
  Al  Al6  1  0.333208  0.666792  0.022275  1
  Al  Al7  1  0.666663  0.333337  0.978933  1
  Al  Al8  1  0.666663  0.333337  0.521067  1
  Al  Al9  1  0.333208  0.666792  0.477725  1
  Al  Al10  1  0.164080  0.327803  0.576429  1
  Al  Al11  1  0.836296  0.672673  0.423068  1
  Al  Al12  1  0.672197  0.835920  0.576429  1
  Al  Al13  1  0.836296  0.672673  0.076932  1
  Al  Al14  1  0.327327  0.163704  0.423068  1
  Al  Al15  1  0.164080  0.327803  0.923571  1
  Al  Al16  1  0.163630  0.836370  0.576313  1
  Al  Al17  1  0.327327  0.163704  0.076932  1
  Al  Al18  1  0.836144  0.163856  0.422509  1
  Al  Al19  1  0.672197  0.835920  0.923571  1
  Al  Al20  1  0.836144  0.163856  0.077491  1
  Al  Al21  1  0.163630  0.836370  0.923687  1
  Al  Al22  1  0.561517  0.123576  0.250000  1
  Al  Al23  1  0.437468  0.875893  0.750000  1
  Al  Al24  1  0.876424  0.438483  0.250000  1
  Al  Al25  1  0.124107  0.562532  0.750000  1
  Al  Al26  1  0.561672  0.438328  0.250000  1
  Al  Al27  1  0.438256  0.561744  0.750000  1
  Al  Al28  1  0.999840  0.000160  0.250000  1
  Al  Al29  1  0.001424  0.998576  0.750000  1
  Os  Os30  1  0.499135  0.999603  0.000401  1
  Os  Os31  1  0.000397  0.500865  0.000401  1
  Os  Os32  1  0.499135  0.999603  0.499599  1
  Os  Os33  1  0.499834  0.500166  0.999917  1
  Os  Os34  1  0.000397  0.500865  0.499599  1
  Os  Os35  1  0.499834  0.500166  0.500083  1
  Os  Os36  1  0.999789  0.000211  0.000077  1
  Os  Os37  1  0.999789  0.000211  0.499923  1
