# generated using pymatgen
data_Y19Er(Sn3Sb)4
_symmetry_space_group_name_H-M   'P 1'
_cell_length_a   8.15982000
_cell_length_b   8.17315114
_cell_length_c   15.45876800
_cell_angle_alpha   90.00292327
_cell_angle_beta   89.99844821
_cell_angle_gamma   89.98991234
_symmetry_Int_Tables_number   1
_chemical_formula_structural   Y19Er(Sn3Sb)4
_chemical_formula_sum   'Y19 Er1 Sn12 Sb4'
_cell_volume   1030.96751389
_cell_formula_units_Z   1
loop_
 _symmetry_equiv_pos_site_id
 _symmetry_equiv_pos_as_xyz
  1  'x, y, z'
loop_
 _atom_site_type_symbol
 _atom_site_label
 _atom_site_symmetry_multiplicity
 _atom_site_fract_x
 _atom_site_fract_y
 _atom_site_fract_z
 _atom_site_occupancy
  Y  Y0  1  0.388981  0.839784  0.880309  1
  Y  Y1  1  0.889071  0.660385  0.619844  1
  Y  Y2  1  0.611106  0.160359  0.379954  1
  Y  Y3  1  0.110952  0.339468  0.120028  1
  Y  Y4  1  0.613148  0.161343  0.119737  1
  Y  Y5  1  0.113077  0.338541  0.380150  1
  Y  Y6  1  0.386637  0.838512  0.619487  1
  Y  Y7  1  0.886709  0.661541  0.880396  1
  Y  Y8  1  0.555936  0.331606  0.892149  1
  Y  Y9  1  0.055906  0.168568  0.607756  1
  Y  Y10  1  0.444085  0.668449  0.391966  1
  Y  Y11  1  0.944083  0.831411  0.107949  1
  Y  Y12  1  0.454948  0.670529  0.105216  1
  Y  Y13  1  0.955279  0.829366  0.394739  1
  Y  Y14  1  0.544828  0.329487  0.605122  1
  Y  Y15  1  0.044887  0.170527  0.895040  1
  Y  Y16  1  0.219924  0.500893  0.748366  1
  Y  Y17  1  0.719882  0.999167  0.751567  1
  Y  Y18  1  0.780120  0.499205  0.248308  1
  Er  Er19  1  0.280053  0.001045  0.251993  1
  Sn  Sn20  1  0.725161  0.974964  0.955770  1
  Sn  Sn21  1  0.225147  0.524989  0.544160  1
  Sn  Sn22  1  0.274984  0.025034  0.455148  1
  Sn  Sn23  1  0.774863  0.474871  0.044275  1
  Sn  Sn24  1  0.585386  0.627095  0.749105  1
  Sn  Sn25  1  0.085443  0.873010  0.750915  1
  Sn  Sn26  1  0.414458  0.372360  0.249072  1
  Sn  Sn27  1  0.915396  0.126766  0.250892  1
  Sn  Sn28  1  0.355802  0.144111  0.750924  1
  Sn  Sn29  1  0.855892  0.355837  0.749135  1
  Sn  Sn30  1  0.643429  0.856018  0.250787  1
  Sn  Sn31  1  0.144500  0.645125  0.249072  1
  Sb  Sb32  1  0.269137  0.019875  0.046790  1
  Sb  Sb33  1  0.769246  0.479767  0.453867  1
  Sb  Sb34  1  0.730817  0.979739  0.545973  1
  Sb  Sb35  1  0.230728  0.520254  0.954036  1
