# generated using pymatgen
data_ErZn3CdRu
_symmetry_space_group_name_H-M   'P 1'
_cell_length_a   5.28883658
_cell_length_b   5.28108485
_cell_length_c   5.28883700
_cell_angle_alpha   59.95143634
_cell_angle_beta   60.00000362
_cell_angle_gamma   59.95144237
_symmetry_Int_Tables_number   1
_chemical_formula_structural   ErZn3CdRu
_chemical_formula_sum   'Er1 Zn3 Cd1 Ru1'
_cell_volume   104.37808619
_cell_formula_units_Z   1
loop_
 _symmetry_equiv_pos_site_id
 _symmetry_equiv_pos_as_xyz
  1  'x, y, z'
loop_
 _atom_site_type_symbol
 _atom_site_label
 _atom_site_symmetry_multiplicity
 _atom_site_fract_x
 _atom_site_fract_y
 _atom_site_fract_z
 _atom_site_occupancy
  Er  Er0  1  0.747393  0.757821  0.747393  1
  Zn  Zn1  1  0.373511  0.376845  0.373511  1
  Zn  Zn2  1  0.876132  0.376845  0.373511  1
  Zn  Zn3  1  0.373511  0.376845  0.876132  1
  Cd  Cd4  1  0.005003  0.984989  0.005003  1
  Ru  Ru5  1  0.374448  0.876654  0.374448  1
