# generated using pymatgen
data_CsEr(SeO3)2
_symmetry_space_group_name_H-M   'P 1'
_cell_length_a   8.97462800
_cell_length_b   8.97462800
_cell_length_c   8.97462800
_cell_angle_alpha   90.00000000
_cell_angle_beta   90.00000000
_cell_angle_gamma   90.00000000
_symmetry_Int_Tables_number   1
_chemical_formula_structural   CsEr(SeO3)2
_chemical_formula_sum   'Cs4 Er4 Se8 O24'
_cell_volume   722.85196860
_cell_formula_units_Z   4
loop_
 _symmetry_equiv_pos_site_id
 _symmetry_equiv_pos_as_xyz
  1  'x, y, z'
loop_
 _atom_site_type_symbol
 _atom_site_label
 _atom_site_symmetry_multiplicity
 _atom_site_fract_x
 _atom_site_fract_y
 _atom_site_fract_z
 _atom_site_occupancy
  Cs  Cs0  1  0.500000  0.500000  0.000000  1
  Cs  Cs1  1  0.500000  0.000000  0.500000  1
  Cs  Cs2  1  0.000000  0.500000  0.500000  1
  Cs  Cs3  1  0.000000  0.000000  0.000000  1
  Er  Er4  1  0.500000  0.000000  0.000000  1
  Er  Er5  1  0.500000  0.500000  0.500000  1
  Er  Er6  1  0.000000  0.000000  0.500000  1
  Er  Er7  1  0.000000  0.500000  0.000000  1
  Se  Se8  1  0.264234  0.735766  0.235766  1
  Se  Se9  1  0.735766  0.235766  0.264234  1
  Se  Se10  1  0.235766  0.264234  0.735766  1
  Se  Se11  1  0.764234  0.764234  0.764234  1
  Se  Se12  1  0.735766  0.264234  0.764234  1
  Se  Se13  1  0.264234  0.764234  0.735766  1
  Se  Se14  1  0.764234  0.735766  0.264234  1
  Se  Se15  1  0.235766  0.235766  0.235766  1
  O  O16  1  0.179303  0.656888  0.081387  1
  O  O17  1  0.820697  0.156888  0.418613  1
  O  O18  1  0.320697  0.343112  0.581387  1
  O  O19  1  0.679303  0.843112  0.918613  1
  O  O20  1  0.081387  0.179303  0.656888  1
  O  O21  1  0.418613  0.820697  0.156888  1
  O  O22  1  0.581387  0.320697  0.343112  1
  O  O23  1  0.918613  0.679303  0.843112  1
  O  O24  1  0.656888  0.081387  0.179303  1
  O  O25  1  0.156888  0.418613  0.820697  1
  O  O26  1  0.343112  0.581387  0.320697  1
  O  O27  1  0.843112  0.918613  0.679303  1
  O  O28  1  0.820697  0.343112  0.918613  1
  O  O29  1  0.179303  0.843112  0.581387  1
  O  O30  1  0.679303  0.656888  0.418613  1
  O  O31  1  0.320697  0.156888  0.081387  1
  O  O32  1  0.918613  0.820697  0.343112  1
  O  O33  1  0.581387  0.179303  0.843112  1
  O  O34  1  0.418613  0.679303  0.656888  1
  O  O35  1  0.081387  0.320697  0.156888  1
  O  O36  1  0.343112  0.918613  0.820697  1
  O  O37  1  0.843112  0.581387  0.179303  1
  O  O38  1  0.656888  0.418613  0.679303  1
  O  O39  1  0.156888  0.081387  0.320697  1
