# generated using pymatgen
data_Tb9Nd7Cd4(OsPd)2
_symmetry_space_group_name_H-M   'P 1'
_cell_length_a   9.82391952
_cell_length_b   9.82391968
_cell_length_c   9.89010400
_cell_angle_alpha   59.77688855
_cell_angle_beta   59.77688800
_cell_angle_gamma   59.81953604
_symmetry_Int_Tables_number   1
_chemical_formula_structural   Tb9Nd7Cd4(OsPd)2
_chemical_formula_sum   'Tb9 Nd7 Cd4 Os2 Pd2'
_cell_volume   671.72391676
_cell_formula_units_Z   1
loop_
 _symmetry_equiv_pos_site_id
 _symmetry_equiv_pos_as_xyz
  1  'x, y, z'
loop_
 _atom_site_type_symbol
 _atom_site_label
 _atom_site_symmetry_multiplicity
 _atom_site_fract_x
 _atom_site_fract_y
 _atom_site_fract_z
 _atom_site_occupancy
  Tb  Tb0  1  0.348128  0.348128  0.355571  1
  Tb  Tb1  1  0.348128  0.348128  0.948174  1
  Tb  Tb2  1  0.342202  0.958710  0.349544  1
  Tb  Tb3  1  0.958710  0.342202  0.349544  1
  Tb  Tb4  1  0.817767  0.187558  0.189385  1
  Tb  Tb5  1  0.187558  0.817767  0.805291  1
  Tb  Tb6  1  0.187558  0.817767  0.189385  1
  Tb  Tb7  1  0.817767  0.187558  0.805291  1
  Tb  Tb8  1  0.186507  0.186507  0.813493  1
  Nd  Nd9  1  0.809578  0.809578  0.190422  1
  Nd  Nd10  1  0.939870  0.553599  0.566040  1
  Nd  Nd11  1  0.553599  0.939870  0.940490  1
  Nd  Nd12  1  0.553599  0.939870  0.566040  1
  Nd  Nd13  1  0.939870  0.553599  0.940490  1
  Nd  Nd14  1  0.561736  0.561736  0.938264  1
  Nd  Nd15  1  0.941297  0.941297  0.558703  1
  Cd  Cd16  1  0.578535  0.578535  0.581068  1
  Cd  Cd17  1  0.578535  0.578535  0.261863  1
  Cd  Cd18  1  0.580306  0.259258  0.580219  1
  Cd  Cd19  1  0.259258  0.580306  0.580219  1
  Os  Os20  1  0.144062  0.144062  0.137454  1
  Os  Os21  1  0.144062  0.144062  0.574422  1
  Pd  Pd22  1  0.150513  0.570856  0.139315  1
  Pd  Pd23  1  0.570856  0.150513  0.139315  1
