# generated using pymatgen
data_HoLu7Cd2IrRu
_symmetry_space_group_name_H-M   'P 1'
_cell_length_a   9.45216770
_cell_length_b   9.45216896
_cell_length_c   9.48688900
_cell_angle_alpha   59.87841229
_cell_angle_beta   59.87840786
_cell_angle_gamma   59.71899851
_symmetry_Int_Tables_number   1
_chemical_formula_structural   HoLu7Cd2IrRu
_chemical_formula_sum   'Ho2 Lu14 Cd4 Ir2 Ru2'
_cell_volume   596.95789709
_cell_formula_units_Z   2
loop_
 _symmetry_equiv_pos_site_id
 _symmetry_equiv_pos_as_xyz
  1  'x, y, z'
loop_
 _atom_site_type_symbol
 _atom_site_label
 _atom_site_symmetry_multiplicity
 _atom_site_fract_x
 _atom_site_fract_y
 _atom_site_fract_z
 _atom_site_occupancy
  Ho  Ho0  1  0.811709  0.811709  0.188291  1
  Ho  Ho1  1  0.188583  0.188583  0.811417  1
  Lu  Lu2  1  0.598219  0.598219  0.598738  1
  Lu  Lu3  1  0.598219  0.598219  0.204827  1
  Lu  Lu4  1  0.597487  0.207827  0.597344  1
  Lu  Lu5  1  0.207827  0.597487  0.597344  1
  Lu  Lu6  1  0.061801  0.438302  0.440010  1
  Lu  Lu7  1  0.438302  0.061801  0.059886  1
  Lu  Lu8  1  0.438302  0.061801  0.440010  1
  Lu  Lu9  1  0.061801  0.438302  0.059886  1
  Lu  Lu10  1  0.438397  0.438397  0.061603  1
  Lu  Lu11  1  0.059272  0.059272  0.440728  1
  Lu  Lu12  1  0.188505  0.809792  0.812917  1
  Lu  Lu13  1  0.809792  0.188505  0.188788  1
  Lu  Lu14  1  0.809792  0.188505  0.812917  1
  Lu  Lu15  1  0.188505  0.809792  0.188788  1
  Cd  Cd16  1  0.830662  0.830662  0.830568  1
  Cd  Cd17  1  0.830662  0.830662  0.508107  1
  Cd  Cd18  1  0.830377  0.507288  0.831167  1
  Cd  Cd19  1  0.507288  0.830377  0.831167  1
  Ir  Ir20  1  0.393432  0.827082  0.389743  1
  Ir  Ir21  1  0.827082  0.393432  0.389743  1
  Ru  Ru22  1  0.391993  0.391993  0.387943  1
  Ru  Ru23  1  0.391993  0.391993  0.828071  1
