# generated using pymatgen
data_ErTm9(Bi2Au)2
_symmetry_space_group_name_H-M   'P 1'
_cell_length_a   7.97758200
_cell_length_b   9.25154900
_cell_length_c   12.05349300
_cell_angle_alpha   90.00000000
_cell_angle_beta   90.00000000
_cell_angle_gamma   90.00000000
_symmetry_Int_Tables_number   1
_chemical_formula_structural   ErTm9(Bi2Au)2
_chemical_formula_sum   'Er2 Tm18 Bi8 Au4'
_cell_volume   889.60793967
_cell_formula_units_Z   2
loop_
 _symmetry_equiv_pos_site_id
 _symmetry_equiv_pos_as_xyz
  1  'x, y, z'
loop_
 _atom_site_type_symbol
 _atom_site_label
 _atom_site_symmetry_multiplicity
 _atom_site_fract_x
 _atom_site_fract_y
 _atom_site_fract_z
 _atom_site_occupancy
  Er  Er0  1  0.365602  0.250000  0.702613  1
  Er  Er1  1  0.134398  0.250000  0.202613  1
  Tm  Tm2  1  0.820206  0.553566  0.065197  1
  Tm  Tm3  1  0.679794  0.946434  0.565197  1
  Tm  Tm4  1  0.179767  0.053566  0.934812  1
  Tm  Tm5  1  0.320233  0.446434  0.434812  1
  Tm  Tm6  1  0.179767  0.446434  0.934812  1
  Tm  Tm7  1  0.320233  0.053566  0.434812  1
  Tm  Tm8  1  0.820206  0.946434  0.065197  1
  Tm  Tm9  1  0.679794  0.553566  0.565197  1
  Tm  Tm10  1  0.174725  0.750000  0.218567  1
  Tm  Tm11  1  0.325275  0.750000  0.718567  1
  Tm  Tm12  1  0.825214  0.250000  0.781356  1
  Tm  Tm13  1  0.674786  0.250000  0.281356  1
  Tm  Tm14  1  0.457073  0.750000  0.001832  1
  Tm  Tm15  1  0.042927  0.750000  0.501832  1
  Tm  Tm16  1  0.542921  0.250000  0.998219  1
  Tm  Tm17  1  0.957079  0.250000  0.498219  1
  Tm  Tm18  1  0.634213  0.750000  0.297577  1
  Tm  Tm19  1  0.865787  0.750000  0.797577  1
  Bi  Bi20  1  0.934158  0.510565  0.326353  1
  Bi  Bi21  1  0.565842  0.989435  0.826353  1
  Bi  Bi22  1  0.065663  0.010319  0.673656  1
  Bi  Bi23  1  0.434337  0.489681  0.173656  1
  Bi  Bi24  1  0.065663  0.489681  0.673656  1
  Bi  Bi25  1  0.434337  0.010319  0.173656  1
  Bi  Bi26  1  0.934158  0.989435  0.326353  1
  Bi  Bi27  1  0.565842  0.510565  0.826353  1
  Au  Au28  1  0.409281  0.750000  0.483459  1
  Au  Au29  1  0.090719  0.750000  0.983459  1
  Au  Au30  1  0.590934  0.250000  0.516339  1
  Au  Au31  1  0.909066  0.250000  0.016339  1
