# generated using pymatgen
data_ErZr(NiAs)2
_symmetry_space_group_name_H-M   'P 1'
_cell_length_a   4.00257900
_cell_length_b   4.00257917
_cell_length_c   14.73262800
_cell_angle_alpha   90.00000000
_cell_angle_beta   90.00000000
_cell_angle_gamma   120.00000688
_symmetry_Int_Tables_number   1
_chemical_formula_structural   ErZr(NiAs)2
_chemical_formula_sum   'Er2 Zr2 Ni4 As4'
_cell_volume   204.40460126
_cell_formula_units_Z   2
loop_
 _symmetry_equiv_pos_site_id
 _symmetry_equiv_pos_as_xyz
  1  'x, y, z'
loop_
 _atom_site_type_symbol
 _atom_site_label
 _atom_site_symmetry_multiplicity
 _atom_site_fract_x
 _atom_site_fract_y
 _atom_site_fract_z
 _atom_site_occupancy
  Er  Er0  1  0.000000  0.000000  0.000000  1
  Er  Er1  1  0.000000  0.000000  0.500000  1
  Zr  Zr2  1  0.000000  0.000000  0.250000  1
  Zr  Zr3  1  0.000000  0.000000  0.750000  1
  Ni  Ni4  1  0.333333  0.666667  0.153723  1
  Ni  Ni5  1  0.666667  0.333333  0.846277  1
  Ni  Ni6  1  0.666667  0.333333  0.653723  1
  Ni  Ni7  1  0.333333  0.666667  0.346277  1
  As  As8  1  0.333333  0.666667  0.620798  1
  As  As9  1  0.666667  0.333333  0.379202  1
  As  As10  1  0.666667  0.333333  0.120798  1
  As  As11  1  0.333333  0.666667  0.879202  1
