# generated using pymatgen
data_Sr6DyTm(BO3)6
_symmetry_space_group_name_H-M   'P 1'
_cell_length_a   7.90742091
_cell_length_b   7.90742136
_cell_length_c   7.90742054
_cell_angle_alpha   105.00918445
_cell_angle_beta   105.00919664
_cell_angle_gamma   105.00919688
_symmetry_Int_Tables_number   1
_chemical_formula_structural   Sr6DyTm(BO3)6
_chemical_formula_sum   'Sr6 Dy1 Tm1 B6 O18'
_cell_volume   432.18358878
_cell_formula_units_Z   1
loop_
 _symmetry_equiv_pos_site_id
 _symmetry_equiv_pos_as_xyz
  1  'x, y, z'
loop_
 _atom_site_type_symbol
 _atom_site_label
 _atom_site_symmetry_multiplicity
 _atom_site_fract_x
 _atom_site_fract_y
 _atom_site_fract_z
 _atom_site_occupancy
  Sr  Sr0  1  0.359582  0.735099  0.858638  1
  Sr  Sr1  1  0.858638  0.359582  0.735099  1
  Sr  Sr2  1  0.735099  0.858638  0.359582  1
  Sr  Sr3  1  0.640418  0.264901  0.141362  1
  Sr  Sr4  1  0.141362  0.640418  0.264901  1
  Sr  Sr5  1  0.264901  0.141362  0.640418  1
  Dy  Dy6  1  0.000000  0.000000  0.000000  1
  Tm  Tm7  1  0.500000  0.500000  0.500000  1
  B  B8  1  0.707360  0.611617  0.958545  1
  B  B9  1  0.958545  0.707360  0.611617  1
  B  B10  1  0.611617  0.958545  0.707360  1
  B  B11  1  0.041455  0.292640  0.388383  1
  B  B12  1  0.388383  0.041455  0.292640  1
  B  B13  1  0.292640  0.388383  0.041455  1
  O  O14  1  0.045844  0.811085  0.523084  1
  O  O15  1  0.523084  0.045844  0.811085  1
  O  O16  1  0.443748  0.492472  0.208758  1
  O  O17  1  0.492472  0.208758  0.443748  1
  O  O18  1  0.208758  0.443748  0.492472  1
  O  O19  1  0.791242  0.556252  0.507528  1
  O  O20  1  0.556252  0.507528  0.791242  1
  O  O21  1  0.507528  0.791242  0.556252  1
  O  O22  1  0.253239  0.196147  0.968861  1
  O  O23  1  0.196147  0.968861  0.253239  1
  O  O24  1  0.968861  0.253239  0.196147  1
  O  O25  1  0.746761  0.803853  0.031139  1
  O  O26  1  0.803853  0.031139  0.746761  1
  O  O27  1  0.031139  0.746761  0.803853  1
  O  O28  1  0.188915  0.476916  0.954156  1
  O  O29  1  0.476916  0.954156  0.188915  1
  O  O30  1  0.954156  0.188915  0.476916  1
  O  O31  1  0.811085  0.523084  0.045844  1
