# generated using pymatgen
data_Dy2Co6Si7Ru6
_symmetry_space_group_name_H-M   'P 1'
_cell_length_a   9.32721200
_cell_length_b   9.32721153
_cell_length_c   3.77912900
_cell_angle_alpha   90.00000000
_cell_angle_beta   90.00000000
_cell_angle_gamma   120.00000780
_symmetry_Int_Tables_number   1
_chemical_formula_structural   Dy2Co6Si7Ru6
_chemical_formula_sum   'Dy2 Co6 Si7 Ru6'
_cell_volume   284.72525376
_cell_formula_units_Z   1
loop_
 _symmetry_equiv_pos_site_id
 _symmetry_equiv_pos_as_xyz
  1  'x, y, z'
loop_
 _atom_site_type_symbol
 _atom_site_label
 _atom_site_symmetry_multiplicity
 _atom_site_fract_x
 _atom_site_fract_y
 _atom_site_fract_z
 _atom_site_occupancy
  Dy  Dy0  1  0.666667  0.333333  0.000000  1
  Dy  Dy1  1  0.000000  0.000000  0.500000  1
  Co  Co2  1  0.758380  0.724212  0.000000  1
  Co  Co3  1  0.275788  0.034168  0.000000  1
  Co  Co4  1  0.965832  0.241620  0.000000  1
  Co  Co5  1  0.483081  0.941615  0.000000  1
  Co  Co6  1  0.058385  0.541466  0.000000  1
  Co  Co7  1  0.458534  0.516919  0.000000  1
  Si  Si8  1  0.440810  0.058646  0.500000  1
  Si  Si9  1  0.941354  0.382165  0.500000  1
  Si  Si10  1  0.617835  0.559190  0.500000  1
  Si  Si11  1  0.333333  0.666667  0.000000  1
  Si  Si12  1  0.738770  0.960583  0.000000  1
  Si  Si13  1  0.039417  0.778187  0.000000  1
  Si  Si14  1  0.221813  0.261230  0.000000  1
  Ru  Ru15  1  0.720629  0.106268  0.500000  1
  Ru  Ru16  1  0.893732  0.614361  0.500000  1
  Ru  Ru17  1  0.385639  0.279371  0.500000  1
  Ru  Ru18  1  0.543398  0.766272  0.500000  1
  Ru  Ru19  1  0.233728  0.777127  0.500000  1
  Ru  Ru20  1  0.222873  0.456602  0.500000  1
