# generated using pymatgen
data_Dy5P12Ir6Ru9Rh4
_symmetry_space_group_name_H-M   'P 1'
_cell_length_a   12.64962931
_cell_length_b   12.58360956
_cell_length_c   3.95662900
_cell_angle_alpha   90.00000000
_cell_angle_beta   90.00000000
_cell_angle_gamma   119.97654964
_symmetry_Int_Tables_number   1
_chemical_formula_structural   Dy5P12Ir6Ru9Rh4
_chemical_formula_sum   'Dy5 P12 Ir6 Ru9 Rh4'
_cell_volume   545.55880716
_cell_formula_units_Z   1
loop_
 _symmetry_equiv_pos_site_id
 _symmetry_equiv_pos_as_xyz
  1  'x, y, z'
loop_
 _atom_site_type_symbol
 _atom_site_label
 _atom_site_symmetry_multiplicity
 _atom_site_fract_x
 _atom_site_fract_y
 _atom_site_fract_z
 _atom_site_occupancy
  Dy  Dy0  1  0.666777  0.332172  0.000000  1
  Dy  Dy1  1  0.334767  0.667413  0.000000  1
  Dy  Dy2  1  0.811485  0.000822  0.500000  1
  Dy  Dy3  1  0.184907  0.186907  0.500000  1
  Dy  Dy4  1  0.000159  0.813391  0.500000  1
  P  P5  1  0.632067  0.998326  0.000000  1
  P  P6  1  0.365194  0.369955  0.000000  1
  P  P7  1  0.001219  0.634574  0.000000  1
  P  P8  1  0.688526  0.519257  0.500000  1
  P  P9  1  0.830146  0.307957  0.500000  1
  P  P10  1  0.316596  0.833593  0.500000  1
  P  P11  1  0.517860  0.687265  0.500000  1
  P  P12  1  0.180122  0.000558  0.000000  1
  P  P13  1  0.819209  0.819826  0.000000  1
  P  P14  1  0.995443  0.180492  0.000000  1
  P  P15  1  0.479350  0.167446  0.500000  1
  P  P16  1  0.172482  0.481041  0.500000  1
  Ir  Ir17  1  0.623999  0.803927  0.000000  1
  Ir  Ir18  1  0.180739  0.376722  0.000000  1
  Ir  Ir19  1  0.374998  0.183625  0.000000  1
  Ir  Ir20  1  0.194738  0.818162  0.000000  1
  Ir  Ir21  1  0.806950  0.623557  0.000000  1
  Ir  Ir22  1  0.999784  0.000350  0.000000  1
  Ru  Ru23  1  0.362553  0.488272  0.500000  1
  Ru  Ru24  1  0.511350  0.871328  0.500000  1
  Ru  Ru25  1  0.714796  0.713704  0.500000  1
  Ru  Ru26  1  0.000593  0.286601  0.500000  1
  Ru  Ru27  1  0.449723  0.001569  0.000000  1
  Ru  Ru28  1  0.552396  0.547653  0.000000  1
  Ru  Ru29  1  0.999910  0.451436  0.000000  1
  Ru  Ru30  1  0.816470  0.195485  0.000000  1
  Ru  Ru31  1  0.284922  0.000169  0.500000  1
  Rh  Rh32  1  0.870707  0.508149  0.500000  1
  Rh  Rh33  1  0.492530  0.361092  0.500000  1
  Rh  Rh34  1  0.636207  0.128617  0.500000  1
  Rh  Rh35  1  0.130328  0.638586  0.500000  1
