# generated using pymatgen
data_Nd3AlS6
_symmetry_space_group_name_H-M   'P 1'
_cell_length_a   6.64651200
_cell_length_b   8.79008841
_cell_length_c   8.79008937
_cell_angle_alpha   102.50626755
_cell_angle_beta   90.00000000
_cell_angle_gamma   90.00000000
_symmetry_Int_Tables_number   1
_chemical_formula_structural   Nd3AlS6
_chemical_formula_sum   'Nd6 Al2 S12'
_cell_volume   501.36187439
_cell_formula_units_Z   2
loop_
 _symmetry_equiv_pos_site_id
 _symmetry_equiv_pos_as_xyz
  1  'x, y, z'
loop_
 _atom_site_type_symbol
 _atom_site_label
 _atom_site_symmetry_multiplicity
 _atom_site_fract_x
 _atom_site_fract_y
 _atom_site_fract_z
 _atom_site_occupancy
  Nd  Nd0  1  0.971503  0.285640  0.084891  1
  Nd  Nd1  1  0.471501  0.084891  0.285640  1
  Nd  Nd2  1  0.390529  0.602971  0.397030  1
  Nd  Nd3  1  0.890528  0.397030  0.602971  1
  Nd  Nd4  1  0.971503  0.915108  0.714360  1
  Nd  Nd5  1  0.471501  0.714360  0.915108  1
  Al  Al6  1  0.014590  0.801831  0.198169  1
  Al  Al7  1  0.514590  0.198169  0.801831  1
  S  S8  1  0.145978  0.957105  0.042896  1
  S  S9  1  0.177673  0.575816  0.099663  1
  S  S10  1  0.675412  0.784027  0.215974  1
  S  S11  1  0.681781  0.363689  0.315551  1
  S  S12  1  0.181781  0.315551  0.363689  1
  S  S13  1  0.177673  0.900337  0.424183  1
  S  S14  1  0.677672  0.099663  0.575816  1
  S  S15  1  0.681781  0.684449  0.636311  1
  S  S16  1  0.181781  0.636311  0.684449  1
  S  S17  1  0.175412  0.215974  0.784027  1
  S  S18  1  0.677672  0.424183  0.900337  1
  S  S19  1  0.645980  0.042896  0.957105  1
