# generated using pymatgen
data_TbPuBr6
_symmetry_space_group_name_H-M   'P 1'
_cell_length_a   7.36378466
_cell_length_b   7.36898964
_cell_length_c   7.21062639
_cell_angle_alpha   99.48648487
_cell_angle_beta   99.50852410
_cell_angle_gamma   119.68235000
_symmetry_Int_Tables_number   1
_chemical_formula_structural   TbPuBr6
_chemical_formula_sum   'Tb1 Pu1 Br6'
_cell_volume   321.07631423
_cell_formula_units_Z   1
loop_
 _symmetry_equiv_pos_site_id
 _symmetry_equiv_pos_as_xyz
  1  'x, y, z'
loop_
 _atom_site_type_symbol
 _atom_site_label
 _atom_site_symmetry_multiplicity
 _atom_site_fract_x
 _atom_site_fract_y
 _atom_site_fract_z
 _atom_site_occupancy
  Tb  Tb0  1  0.167505  0.833206  0.000052  1
  Pu  Pu1  1  0.834181  0.165495  0.999964  1
  Br  Br2  1  0.938340  0.580668  0.233836  1
  Br  Br3  1  0.567875  0.932368  0.235808  1
  Br  Br4  1  0.217162  0.211697  0.238008  1
  Br  Br5  1  0.788454  0.783214  0.761956  1
  Br  Br6  1  0.418749  0.061334  0.766018  1
  Br  Br7  1  0.067732  0.432018  0.764360  1
