# generated using pymatgen
data_Ta10GaSi4As
_symmetry_space_group_name_H-M   'P 1'
_cell_length_a   6.59630700
_cell_length_b   7.59563435
_cell_length_c   6.59630700
_cell_angle_alpha   115.73547616
_cell_angle_beta   90.00000000
_cell_angle_gamma   115.73547616
_symmetry_Int_Tables_number   1
_chemical_formula_structural   Ta10GaSi4As
_chemical_formula_sum   'Ta10 Ga1 Si4 As1'
_cell_volume   260.84281703
_cell_formula_units_Z   1
loop_
 _symmetry_equiv_pos_site_id
 _symmetry_equiv_pos_as_xyz
  1  'x, y, z'
loop_
 _atom_site_type_symbol
 _atom_site_label
 _atom_site_symmetry_multiplicity
 _atom_site_fract_x
 _atom_site_fract_y
 _atom_site_fract_z
 _atom_site_occupancy
  Ta  Ta0  1  0.001488  0.002976  0.001488  1
  Ta  Ta1  1  0.498512  0.997024  0.498512  1
  Ta  Ta2  1  0.515392  0.702732  0.688971  1
  Ta  Ta3  1  0.187339  0.702732  0.013760  1
  Ta  Ta4  1  0.688971  0.702732  0.187339  1
  Ta  Ta5  1  0.013760  0.702732  0.515392  1
  Ta  Ta6  1  0.486240  0.297268  0.312661  1
  Ta  Ta7  1  0.811029  0.297268  0.984608  1
  Ta  Ta8  1  0.312661  0.297268  0.811029  1
  Ta  Ta9  1  0.984608  0.297268  0.486240  1
  Ga  Ga10  1  0.250000  0.500000  0.250000  1
  Si  Si11  1  0.869328  0.000000  0.630672  1
  Si  Si12  1  0.130672  0.000000  0.369328  1
  Si  Si13  1  0.630672  0.000000  0.130672  1
  Si  Si14  1  0.369328  0.000000  0.869328  1
  As  As15  1  0.750000  0.500000  0.750000  1
