# generated using pymatgen
data_Yb7HoBi6
_symmetry_space_group_name_H-M   'P 1'
_cell_length_a   8.27529705
_cell_length_b   8.35926524
_cell_length_c   8.35926465
_cell_angle_alpha   109.67380734
_cell_angle_beta   109.26786142
_cell_angle_gamma   109.26786985
_symmetry_Int_Tables_number   1
_chemical_formula_structural   Yb7HoBi6
_chemical_formula_sum   'Yb7 Ho1 Bi6'
_cell_volume   446.25353819
_cell_formula_units_Z   1
loop_
 _symmetry_equiv_pos_site_id
 _symmetry_equiv_pos_as_xyz
  1  'x, y, z'
loop_
 _atom_site_type_symbol
 _atom_site_label
 _atom_site_symmetry_multiplicity
 _atom_site_fract_x
 _atom_site_fract_y
 _atom_site_fract_z
 _atom_site_occupancy
  Yb  Yb0  1  0.649269  0.500000  0.000000  1
  Yb  Yb1  1  0.500077  0.000442  0.650253  1
  Yb  Yb2  1  0.352491  0.350705  0.352362  1
  Yb  Yb3  1  0.501786  0.001657  0.149295  1
  Yb  Yb4  1  0.999635  0.649811  0.499558  1
  Yb  Yb5  1  0.849823  0.849747  0.850189  1
  Yb  Yb6  1  0.000129  0.147638  0.498343  1
  Ho  Ho7  1  0.146336  0.500000  0.000000  1
  Bi  Bi8  1  0.372299  0.624407  0.754058  1
  Bi  Bi9  1  0.880298  0.254217  0.124658  1
  Bi  Bi10  1  0.618241  0.745942  0.370348  1
  Bi  Bi11  1  0.126082  0.870441  0.245783  1
  Bi  Bi12  1  0.247893  0.129652  0.875593  1
  Bi  Bi13  1  0.755641  0.375342  0.629559  1
