# generated using pymatgen
data_Ce3Y(WN3)4
_symmetry_space_group_name_H-M   'P 1'
_cell_length_a   5.48893200
_cell_length_b   5.68086665
_cell_length_c   7.75572900
_cell_angle_alpha   90.00000000
_cell_angle_beta   90.00000000
_cell_angle_gamma   89.91230440
_symmetry_Int_Tables_number   1
_chemical_formula_structural   Ce3Y(WN3)4
_chemical_formula_sum   'Ce3 Y1 W4 N12'
_cell_volume   241.83801121
_cell_formula_units_Z   1
loop_
 _symmetry_equiv_pos_site_id
 _symmetry_equiv_pos_as_xyz
  1  'x, y, z'
loop_
 _atom_site_type_symbol
 _atom_site_label
 _atom_site_symmetry_multiplicity
 _atom_site_fract_x
 _atom_site_fract_y
 _atom_site_fract_z
 _atom_site_occupancy
  Ce  Ce0  1  0.490346  0.443494  0.250000  1
  Ce  Ce1  1  0.008875  0.948114  0.250000  1
  Ce  Ce2  1  0.503167  0.554787  0.750000  1
  Y  Y3  1  0.991324  0.058748  0.750000  1
  W  W4  1  0.502148  0.999265  0.501669  1
  W  W5  1  0.998394  0.500489  0.999086  1
  W  W6  1  0.998394  0.500489  0.500914  1
  W  W7  1  0.502148  0.999265  0.998331  1
  N  N8  1  0.701390  0.296202  0.543087  1
  N  N9  1  0.301645  0.700918  0.042854  1
  N  N10  1  0.201844  0.203851  0.045897  1
  N  N11  1  0.411419  0.981578  0.750000  1
  N  N12  1  0.915649  0.522377  0.250000  1
  N  N13  1  0.301645  0.700918  0.457146  1
  N  N14  1  0.801406  0.797887  0.954442  1
  N  N15  1  0.701390  0.296202  0.956913  1
  N  N16  1  0.801406  0.797887  0.545558  1
  N  N17  1  0.082268  0.475889  0.750000  1
  N  N18  1  0.201844  0.203851  0.454103  1
  N  N19  1  0.583295  0.017787  0.250000  1
