# generated using pymatgen
data_TbY2Hf3(SnRh)6
_symmetry_space_group_name_H-M   'P 1'
_cell_length_a   7.47823000
_cell_length_b   7.46869525
_cell_length_c   7.52920900
_cell_angle_alpha   90.00000000
_cell_angle_beta   90.00000000
_cell_angle_gamma   120.04772527
_symmetry_Int_Tables_number   1
_chemical_formula_structural   TbY2Hf3(SnRh)6
_chemical_formula_sum   'Tb1 Y2 Hf3 Sn6 Rh6'
_cell_volume   364.01097948
_cell_formula_units_Z   1
loop_
 _symmetry_equiv_pos_site_id
 _symmetry_equiv_pos_as_xyz
  1  'x, y, z'
loop_
 _atom_site_type_symbol
 _atom_site_label
 _atom_site_symmetry_multiplicity
 _atom_site_fract_x
 _atom_site_fract_y
 _atom_site_fract_z
 _atom_site_occupancy
  Tb  Tb0  1  0.406296  0.000108  0.750000  1
  Y  Y1  1  0.999839  0.406369  0.750000  1
  Y  Y2  1  0.593715  0.593424  0.750000  1
  Hf  Hf3  1  0.999256  0.392914  0.250000  1
  Hf  Hf4  1  0.606729  0.606650  0.250000  1
  Hf  Hf5  1  0.393611  0.000412  0.250000  1
  Sn  Sn6  1  0.266315  0.266793  0.492560  1
  Sn  Sn7  1  0.000044  0.733502  0.492566  1
  Sn  Sn8  1  0.000044  0.733502  0.007434  1
  Sn  Sn9  1  0.733835  0.999694  0.493137  1
  Sn  Sn10  1  0.733835  0.999694  0.006863  1
  Sn  Sn11  1  0.266315  0.266793  0.007440  1
  Rh  Rh12  1  0.333339  0.667114  0.459040  1
  Rh  Rh13  1  0.666267  0.332928  0.459750  1
  Rh  Rh14  1  0.333339  0.667114  0.040960  1
  Rh  Rh15  1  0.001307  0.000047  0.750000  1
  Rh  Rh16  1  0.999646  0.000016  0.250000  1
  Rh  Rh17  1  0.666267  0.332928  0.040250  1
