# generated using pymatgen
data_Mg2Zn2GaRu
_symmetry_space_group_name_H-M   'P 1'
_cell_length_a   5.24266887
_cell_length_b   5.24266841
_cell_length_c   8.34280700
_cell_angle_alpha   90.00000000
_cell_angle_beta   90.00000000
_cell_angle_gamma   120.18260943
_symmetry_Int_Tables_number   1
_chemical_formula_structural   Mg2Zn2GaRu
_chemical_formula_sum   'Mg4 Zn4 Ga2 Ru2'
_cell_volume   198.21912771
_cell_formula_units_Z   2
loop_
 _symmetry_equiv_pos_site_id
 _symmetry_equiv_pos_as_xyz
  1  'x, y, z'
loop_
 _atom_site_type_symbol
 _atom_site_label
 _atom_site_symmetry_multiplicity
 _atom_site_fract_x
 _atom_site_fract_y
 _atom_site_fract_z
 _atom_site_occupancy
  Mg  Mg0  1  0.674923  0.325077  0.067034  1
  Mg  Mg1  1  0.325077  0.674923  0.932966  1
  Mg  Mg2  1  0.325077  0.674923  0.567034  1
  Mg  Mg3  1  0.674923  0.325077  0.432966  1
  Zn  Zn4  1  0.830032  0.641646  0.750000  1
  Zn  Zn5  1  0.169968  0.358354  0.250000  1
  Zn  Zn6  1  0.358354  0.169968  0.750000  1
  Zn  Zn7  1  0.641646  0.830032  0.250000  1
  Ga  Ga8  1  0.000000  0.000000  0.500000  1
  Ga  Ga9  1  0.000000  0.000000  0.000000  1
  Ru  Ru10  1  0.843516  0.156484  0.750000  1
  Ru  Ru11  1  0.156484  0.843516  0.250000  1
