# generated using pymatgen
data_Hf9Ta3ReAs
_symmetry_space_group_name_H-M   'P 1'
_cell_length_a   8.74022535
_cell_length_b   8.74022588
_cell_length_c   8.82274700
_cell_angle_alpha   90.00000000
_cell_angle_beta   90.00000000
_cell_angle_gamma   120.03287350
_symmetry_Int_Tables_number   1
_chemical_formula_structural   Hf9Ta3ReAs
_chemical_formula_sum   'Hf18 Ta6 Re2 As2'
_cell_volume   583.49318297
_cell_formula_units_Z   2
loop_
 _symmetry_equiv_pos_site_id
 _symmetry_equiv_pos_as_xyz
  1  'x, y, z'
loop_
 _atom_site_type_symbol
 _atom_site_label
 _atom_site_symmetry_multiplicity
 _atom_site_fract_x
 _atom_site_fract_y
 _atom_site_fract_z
 _atom_site_occupancy
  Hf  Hf0  1  0.803862  0.607737  0.546072  1
  Hf  Hf1  1  0.803494  0.196506  0.545820  1
  Hf  Hf2  1  0.392263  0.196138  0.546072  1
  Hf  Hf3  1  0.196138  0.392263  0.453928  1
  Hf  Hf4  1  0.196506  0.803494  0.454180  1
  Hf  Hf5  1  0.607737  0.803862  0.453928  1
  Hf  Hf6  1  0.196138  0.392263  0.046072  1
  Hf  Hf7  1  0.196506  0.803494  0.045820  1
  Hf  Hf8  1  0.607737  0.803862  0.046072  1
  Hf  Hf9  1  0.803862  0.607737  0.953928  1
  Hf  Hf10  1  0.803494  0.196506  0.954180  1
  Hf  Hf11  1  0.392263  0.196138  0.953928  1
  Hf  Hf12  1  0.461051  0.922126  0.750000  1
  Hf  Hf13  1  0.461095  0.538905  0.750000  1
  Hf  Hf14  1  0.077874  0.538949  0.750000  1
  Hf  Hf15  1  0.538949  0.077874  0.250000  1
  Hf  Hf16  1  0.538905  0.461095  0.250000  1
  Hf  Hf17  1  0.922126  0.461051  0.250000  1
  Ta  Ta18  1  0.110186  0.220756  0.750000  1
  Ta  Ta19  1  0.110400  0.889600  0.750000  1
  Ta  Ta20  1  0.779244  0.889814  0.750000  1
  Ta  Ta21  1  0.889814  0.779244  0.250000  1
  Ta  Ta22  1  0.889600  0.110400  0.250000  1
  Ta  Ta23  1  0.220756  0.110186  0.250000  1
  Re  Re24  1  0.000000  0.000000  0.500000  1
  Re  Re25  1  0.000000  0.000000  0.000000  1
  As  As26  1  0.666570  0.333430  0.750000  1
  As  As27  1  0.333430  0.666570  0.250000  1
