# generated using pymatgen
data_TbHo4In4PtRh
_symmetry_space_group_name_H-M   'P 1'
_cell_length_a   3.61396100
_cell_length_b   8.11649163
_cell_length_c   18.25250606
_cell_angle_alpha   90.13055168
_cell_angle_beta   90.00000000
_cell_angle_gamma   90.00000000
_symmetry_Int_Tables_number   1
_chemical_formula_structural   TbHo4In4PtRh
_chemical_formula_sum   'Tb2 Ho8 In8 Pt2 Rh2'
_cell_volume   535.39360675
_cell_formula_units_Z   2
loop_
 _symmetry_equiv_pos_site_id
 _symmetry_equiv_pos_as_xyz
  1  'x, y, z'
loop_
 _atom_site_type_symbol
 _atom_site_label
 _atom_site_symmetry_multiplicity
 _atom_site_fract_x
 _atom_site_fract_y
 _atom_site_fract_z
 _atom_site_occupancy
  Tb  Tb0  1  0.000000  0.000000  0.000000  1
  Tb  Tb1  1  0.000000  0.500000  0.500000  1
  Ho  Ho2  1  0.000000  0.115569  0.412027  1
  Ho  Ho3  1  0.000000  0.884431  0.587973  1
  Ho  Ho4  1  0.000000  0.383113  0.914172  1
  Ho  Ho5  1  0.000000  0.616887  0.085828  1
  Ho  Ho6  1  0.000000  0.239118  0.221205  1
  Ho  Ho7  1  0.000000  0.760882  0.778795  1
  Ho  Ho8  1  0.000000  0.250950  0.720085  1
  Ho  Ho9  1  0.000000  0.749050  0.279915  1
  In  In10  1  0.500000  0.423219  0.350800  1
  In  In11  1  0.500000  0.576781  0.649200  1
  In  In12  1  0.500000  0.074162  0.849918  1
  In  In13  1  0.500000  0.925838  0.150082  1
  In  In14  1  0.500000  0.292711  0.066598  1
  In  In15  1  0.500000  0.707289  0.933402  1
  In  In16  1  0.500000  0.205796  0.567756  1
  In  In17  1  0.500000  0.794204  0.432244  1
  Pt  Pt18  1  0.500000  0.476638  0.803356  1
  Pt  Pt19  1  0.500000  0.523362  0.196644  1
  Rh  Rh20  1  0.500000  0.022785  0.304351  1
  Rh  Rh21  1  0.500000  0.977215  0.695649  1
