# generated using pymatgen
data_RbLiPrF5
_symmetry_space_group_name_H-M   'P 1'
_cell_length_a   12.33554500
_cell_length_b   6.67014050
_cell_length_c   6.88847921
_cell_angle_alpha   66.27657171
_cell_angle_beta   90.00000000
_cell_angle_gamma   90.00000000
_symmetry_Int_Tables_number   1
_chemical_formula_structural   RbLiPrF5
_chemical_formula_sum   'Rb4 Li4 Pr4 F20'
_cell_volume   518.88862648
_cell_formula_units_Z   4
loop_
 _symmetry_equiv_pos_site_id
 _symmetry_equiv_pos_as_xyz
  1  'x, y, z'
loop_
 _atom_site_type_symbol
 _atom_site_label
 _atom_site_symmetry_multiplicity
 _atom_site_fract_x
 _atom_site_fract_y
 _atom_site_fract_z
 _atom_site_occupancy
  Rb  Rb0  1  0.846569  0.036228  0.948407  1
  Rb  Rb1  1  0.653431  0.536228  0.948407  1
  Rb  Rb2  1  0.346569  0.463772  0.051593  1
  Rb  Rb3  1  0.153431  0.963772  0.051593  1
  Li  Li4  1  0.748067  0.460430  0.446291  1
  Li  Li5  1  0.751933  0.960430  0.446291  1
  Li  Li6  1  0.251933  0.539570  0.553709  1
  Li  Li7  1  0.248067  0.039570  0.553709  1
  Pr  Pr8  1  0.996643  0.319110  0.319957  1
  Pr  Pr9  1  0.003357  0.680890  0.680043  1
  Pr  Pr10  1  0.503357  0.819110  0.319957  1
  Pr  Pr11  1  0.496643  0.180890  0.680043  1
  F  F12  1  0.676120  0.291156  0.696808  1
  F  F13  1  0.606600  0.967144  0.533558  1
  F  F14  1  0.323880  0.708844  0.303192  1
  F  F15  1  0.007986  0.326439  0.960413  1
  F  F16  1  0.176120  0.208844  0.303192  1
  F  F17  1  0.393400  0.032856  0.466442  1
  F  F18  1  0.893400  0.467144  0.533558  1
  F  F19  1  0.532303  0.454506  0.334417  1
  F  F20  1  0.800757  0.268741  0.294390  1
  F  F21  1  0.300757  0.231259  0.705610  1
  F  F22  1  0.467697  0.545494  0.665583  1
  F  F23  1  0.992014  0.673561  0.039587  1
  F  F24  1  0.199243  0.731259  0.705610  1
  F  F25  1  0.507986  0.173561  0.039587  1
  F  F26  1  0.967697  0.954506  0.334417  1
  F  F27  1  0.699243  0.768741  0.294390  1
  F  F28  1  0.032303  0.045494  0.665583  1
  F  F29  1  0.823880  0.791156  0.696808  1
  F  F30  1  0.106600  0.532856  0.466442  1
  F  F31  1  0.492014  0.826439  0.960413  1
