# generated using pymatgen
data_Pr4TmSi2Sn
_symmetry_space_group_name_H-M   'P 1'
_cell_length_a   7.74542700
_cell_length_b   9.35643248
_cell_length_c   7.74542700
_cell_angle_alpha   114.45063914
_cell_angle_beta   90.00000000
_cell_angle_gamma   114.45063914
_symmetry_Int_Tables_number   1
_chemical_formula_structural   Pr4TmSi2Sn
_chemical_formula_sum   'Pr8 Tm2 Si4 Sn2'
_cell_volume   455.09507679
_cell_formula_units_Z   2
loop_
 _symmetry_equiv_pos_site_id
 _symmetry_equiv_pos_as_xyz
  1  'x, y, z'
loop_
 _atom_site_type_symbol
 _atom_site_label
 _atom_site_symmetry_multiplicity
 _atom_site_fract_x
 _atom_site_fract_y
 _atom_site_fract_z
 _atom_site_occupancy
  Pr  Pr0  1  0.538057  0.725814  0.687759  1
  Pr  Pr1  1  0.187759  0.725814  0.038057  1
  Pr  Pr2  1  0.687759  0.725814  0.187759  1
  Pr  Pr3  1  0.038057  0.725814  0.538057  1
  Pr  Pr4  1  0.461943  0.274186  0.312241  1
  Pr  Pr5  1  0.812241  0.274186  0.961943  1
  Pr  Pr6  1  0.312241  0.274186  0.812241  1
  Pr  Pr7  1  0.961943  0.274186  0.461943  1
  Tm  Tm8  1  0.000000  0.000000  0.000000  1
  Tm  Tm9  1  0.500000  0.000000  0.500000  1
  Si  Si10  1  0.878459  0.000000  0.621541  1
  Si  Si11  1  0.121541  0.000000  0.378459  1
  Si  Si12  1  0.621541  0.000000  0.121541  1
  Si  Si13  1  0.378459  0.000000  0.878459  1
  Sn  Sn14  1  0.750000  0.500000  0.750000  1
  Sn  Sn15  1  0.250000  0.500000  0.250000  1
