# generated using pymatgen
data_YbDy6IrBr12
_symmetry_space_group_name_H-M   'P 1'
_cell_length_a   9.25374721
_cell_length_b   9.33780890
_cell_length_c   9.32834339
_cell_angle_alpha   107.00936979
_cell_angle_beta   107.25435266
_cell_angle_gamma   106.87719379
_symmetry_Int_Tables_number   1
_chemical_formula_structural   YbDy6IrBr12
_chemical_formula_sum   'Yb1 Dy6 Ir1 Br12'
_cell_volume   670.42631812
_cell_formula_units_Z   1
loop_
 _symmetry_equiv_pos_site_id
 _symmetry_equiv_pos_as_xyz
  1  'x, y, z'
loop_
 _atom_site_type_symbol
 _atom_site_label
 _atom_site_symmetry_multiplicity
 _atom_site_fract_x
 _atom_site_fract_y
 _atom_site_fract_z
 _atom_site_occupancy
  Yb  Yb0  1  0.500000  0.500000  0.500000  1
  Dy  Dy1  1  0.102713  0.313522  0.025102  1
  Dy  Dy2  1  0.307492  0.022710  0.101104  1
  Dy  Dy3  1  0.022569  0.104301  0.312957  1
  Dy  Dy4  1  0.977432  0.895699  0.687044  1
  Dy  Dy5  1  0.692508  0.977291  0.898896  1
  Dy  Dy6  1  0.897287  0.686478  0.974898  1
  Ir  Ir7  1  0.000000  0.000000  0.000000  1
  Br  Br8  1  0.221074  0.681234  0.074307  1
  Br  Br9  1  0.454916  0.375081  0.159704  1
  Br  Br10  1  0.678320  0.071355  0.217901  1
  Br  Br11  1  0.925950  0.780372  0.320087  1
  Br  Br12  1  0.158177  0.455986  0.377398  1
  Br  Br13  1  0.376456  0.159821  0.453750  1
  Br  Br14  1  0.623544  0.840179  0.546251  1
  Br  Br15  1  0.841824  0.544014  0.622602  1
  Br  Br16  1  0.074051  0.219628  0.679914  1
  Br  Br17  1  0.321681  0.928646  0.782099  1
  Br  Br18  1  0.545084  0.624919  0.840297  1
  Br  Br19  1  0.778926  0.318766  0.925693  1
