# generated using pymatgen
data_Y12TlZnFe3Co
_symmetry_space_group_name_H-M   'P 1'
_cell_length_a   8.40287527
_cell_length_b   8.40287534
_cell_length_c   8.40287423
_cell_angle_alpha   110.78642975
_cell_angle_beta   111.29712952
_cell_angle_gamma   106.37422369
_symmetry_Int_Tables_number   1
_chemical_formula_structural   Y12TlZnFe3Co
_chemical_formula_sum   'Y12 Tl1 Zn1 Fe3 Co1'
_cell_volume   455.72887415
_cell_formula_units_Z   1
loop_
 _symmetry_equiv_pos_site_id
 _symmetry_equiv_pos_as_xyz
  1  'x, y, z'
loop_
 _atom_site_type_symbol
 _atom_site_label
 _atom_site_symmetry_multiplicity
 _atom_site_fract_x
 _atom_site_fract_y
 _atom_site_fract_z
 _atom_site_occupancy
  Y  Y0  1  0.288339  0.186628  0.475955  1
  Y  Y1  1  0.710672  0.812383  0.524045  1
  Y  Y2  1  0.288339  0.812383  0.101713  1
  Y  Y3  1  0.710672  0.186628  0.898287  1
  Y  Y4  1  0.613606  0.312720  0.300887  1
  Y  Y5  1  0.386899  0.687227  0.699671  1
  Y  Y6  1  0.011833  0.312720  0.699113  1
  Y  Y7  1  0.987556  0.687227  0.300329  1
  Y  Y8  1  0.221818  0.427763  0.205945  1
  Y  Y9  1  0.778186  0.573056  0.794871  1
  Y  Y10  1  0.221818  0.015873  0.794055  1
  Y  Y11  1  0.778186  0.983315  0.205129  1
  Tl  Tl12  1  0.499369  0.499369  0.000000  1
  Zn  Zn13  1  0.000547  0.000547  0.000000  1
  Fe  Fe14  1  0.999355  0.384886  0.385531  1
  Fe  Fe15  1  0.999355  0.613823  0.614469  1
  Fe  Fe16  1  0.392912  0.892912  0.500000  1
  Co  Co17  1  0.610539  0.110539  0.500000  1
