# generated using pymatgen
data_Y2Zn2Ag5
_symmetry_space_group_name_H-M   'P 1'
_cell_length_a   5.41724644
_cell_length_b   5.32937028
_cell_length_c   14.10997200
_cell_angle_alpha   90.00000000
_cell_angle_beta   90.00000000
_cell_angle_gamma   119.32310123
_symmetry_Int_Tables_number   1
_chemical_formula_structural   Y2Zn2Ag5
_chemical_formula_sum   'Y4 Zn4 Ag10'
_cell_volume   355.16757888
_cell_formula_units_Z   2
loop_
 _symmetry_equiv_pos_site_id
 _symmetry_equiv_pos_as_xyz
  1  'x, y, z'
loop_
 _atom_site_type_symbol
 _atom_site_label
 _atom_site_symmetry_multiplicity
 _atom_site_fract_x
 _atom_site_fract_y
 _atom_site_fract_z
 _atom_site_occupancy
  Y  Y0  1  0.310118  0.314079  0.120340  1
  Y  Y1  1  0.689882  0.685921  0.620340  1
  Y  Y2  1  0.310118  0.314079  0.379660  1
  Y  Y3  1  0.689882  0.685921  0.879660  1
  Zn  Zn4  1  0.816256  0.821372  0.250000  1
  Zn  Zn5  1  0.183744  0.178628  0.750000  1
  Zn  Zn6  1  0.814199  0.323902  0.250000  1
  Zn  Zn7  1  0.185801  0.676098  0.750000  1
  Ag  Ag8  1  0.319676  0.819848  0.250000  1
  Ag  Ag9  1  0.680324  0.180152  0.750000  1
  Ag  Ag10  1  0.968582  0.651094  0.076634  1
  Ag  Ag11  1  0.031418  0.348906  0.576634  1
  Ag  Ag12  1  0.661634  0.984409  0.424468  1
  Ag  Ag13  1  0.338366  0.015591  0.924468  1
  Ag  Ag14  1  0.031418  0.348906  0.923366  1
  Ag  Ag15  1  0.968582  0.651094  0.423366  1
  Ag  Ag16  1  0.338366  0.015591  0.575532  1
  Ag  Ag17  1  0.661634  0.984409  0.075532  1
