# generated using pymatgen
data_Dy3Ag(Pt2O7)2
_symmetry_space_group_name_H-M   'P 1'
_cell_length_a   7.32632066
_cell_length_b   7.32631969
_cell_length_c   7.18853073
_cell_angle_alpha   59.36387133
_cell_angle_beta   59.36387794
_cell_angle_gamma   60.00000283
_symmetry_Int_Tables_number   1
_chemical_formula_structural   Dy3Ag(Pt2O7)2
_chemical_formula_sum   'Dy3 Ag1 Pt4 O14'
_cell_volume   270.18022813
_cell_formula_units_Z   1
loop_
 _symmetry_equiv_pos_site_id
 _symmetry_equiv_pos_as_xyz
  1  'x, y, z'
loop_
 _atom_site_type_symbol
 _atom_site_label
 _atom_site_symmetry_multiplicity
 _atom_site_fract_x
 _atom_site_fract_y
 _atom_site_fract_z
 _atom_site_occupancy
  Dy  Dy0  1  0.125000  0.625000  0.125000  1
  Dy  Dy1  1  0.625000  0.125000  0.125000  1
  Dy  Dy2  1  0.125000  0.125000  0.125000  1
  Ag  Ag3  1  0.125000  0.125000  0.625000  1
  Pt  Pt4  1  0.625000  0.625000  0.625000  1
  Pt  Pt5  1  0.125000  0.625000  0.625000  1
  Pt  Pt6  1  0.625000  0.125000  0.625000  1
  Pt  Pt7  1  0.625000  0.625000  0.125000  1
  O  O8  1  0.293260  0.694877  0.718604  1
  O  O9  1  0.531835  0.965161  0.971169  1
  O  O10  1  0.694877  0.293260  0.718604  1
  O  O11  1  0.293260  0.293260  0.718604  1
  O  O12  1  0.718165  0.718165  0.278831  1
  O  O13  1  0.004734  0.004734  0.985798  1
  O  O14  1  0.284839  0.718165  0.278831  1
  O  O15  1  0.965161  0.531835  0.971169  1
  O  O16  1  0.956740  0.956740  0.531396  1
  O  O17  1  0.531835  0.531835  0.971169  1
  O  O18  1  0.245266  0.245266  0.264202  1
  O  O19  1  0.555123  0.956740  0.531396  1
  O  O20  1  0.718165  0.284839  0.278831  1
  O  O21  1  0.956740  0.555123  0.531396  1
