# generated using pymatgen
data_Tb3Dy5C14
_symmetry_space_group_name_H-M   'P 1'
_cell_length_a   13.77308450
_cell_length_b   3.72545867
_cell_length_c   6.49019464
_cell_angle_alpha   75.28958783
_cell_angle_beta   90.02629329
_cell_angle_gamma   89.99136983
_symmetry_Int_Tables_number   1
_chemical_formula_structural   Tb3Dy5C14
_chemical_formula_sum   'Tb3 Dy5 C14'
_cell_volume   322.10288683
_cell_formula_units_Z   1
loop_
 _symmetry_equiv_pos_site_id
 _symmetry_equiv_pos_as_xyz
  1  'x, y, z'
loop_
 _atom_site_type_symbol
 _atom_site_label
 _atom_site_symmetry_multiplicity
 _atom_site_fract_x
 _atom_site_fract_y
 _atom_site_fract_z
 _atom_site_occupancy
  Tb  Tb0  1  0.944625  0.368985  0.260457  1
  Tb  Tb1  1  0.555457  0.368901  0.760729  1
  Tb  Tb2  1  0.444409  0.630968  0.239403  1
  Dy  Dy3  1  0.336518  0.947536  0.660858  1
  Dy  Dy4  1  0.663260  0.052621  0.339073  1
  Dy  Dy5  1  0.836793  0.052361  0.838834  1
  Dy  Dy6  1  0.163202  0.947761  0.160591  1
  Dy  Dy7  1  0.055216  0.630908  0.739723  1
  C  C8  1  0.895853  0.737078  0.550655  1
  C  C9  1  0.104570  0.260966  0.451853  1
  C  C10  1  0.395215  0.262469  0.949908  1
  C  C11  1  0.604651  0.738206  0.049919  1
  C  C12  1  0.216618  0.534774  0.925604  1
  C  C13  1  0.783079  0.465159  0.073628  1
  C  C14  1  0.717231  0.465817  0.573477  1
  C  C15  1  0.282948  0.534840  0.426048  1
  C  C16  1  0.804410  0.621634  0.545731  1
  C  C17  1  0.195814  0.378721  0.454630  1
  C  C18  1  0.303828  0.378687  0.953919  1
  C  C19  1  0.695932  0.621485  0.045702  1
  C  C20  1  0.500077  0.999987  0.499987  1
  C  C21  1  0.000296  0.000135  0.999273  1
