# generated using pymatgen
data_Tb13Th3(CdIr)4
_symmetry_space_group_name_H-M   'P 1'
_cell_length_a   9.76623986
_cell_length_b   9.76572975
_cell_length_c   9.76572900
_cell_angle_alpha   59.99999916
_cell_angle_beta   60.00172697
_cell_angle_gamma   60.00173332
_symmetry_Int_Tables_number   1
_chemical_formula_structural   Tb13Th3(CdIr)4
_chemical_formula_sum   'Tb13 Th3 Cd4 Ir4'
_cell_volume   658.61726790
_cell_formula_units_Z   1
loop_
 _symmetry_equiv_pos_site_id
 _symmetry_equiv_pos_as_xyz
  1  'x, y, z'
loop_
 _atom_site_type_symbol
 _atom_site_label
 _atom_site_symmetry_multiplicity
 _atom_site_fract_x
 _atom_site_fract_y
 _atom_site_fract_z
 _atom_site_occupancy
  Tb  Tb0  1  0.199056  0.600315  0.600315  1
  Tb  Tb1  1  0.061398  0.439543  0.439543  1
  Tb  Tb2  1  0.439020  0.061770  0.061770  1
  Tb  Tb3  1  0.439020  0.061770  0.437439  1
  Tb  Tb4  1  0.061398  0.439543  0.059516  1
  Tb  Tb5  1  0.439020  0.437439  0.061770  1
  Tb  Tb6  1  0.061398  0.059516  0.439543  1
  Tb  Tb7  1  0.186240  0.813632  0.813632  1
  Tb  Tb8  1  0.814570  0.185461  0.185461  1
  Tb  Tb9  1  0.814570  0.185461  0.814508  1
  Tb  Tb10  1  0.186240  0.813632  0.186497  1
  Tb  Tb11  1  0.814570  0.814508  0.185461  1
  Tb  Tb12  1  0.186240  0.186497  0.813632  1
  Th  Th13  1  0.597056  0.599434  0.599434  1
  Th  Th14  1  0.597056  0.599434  0.204078  1
  Th  Th15  1  0.597056  0.204078  0.599434  1
  Cd  Cd16  1  0.833483  0.831340  0.831340  1
  Cd  Cd17  1  0.833483  0.831340  0.503839  1
  Cd  Cd18  1  0.833483  0.503839  0.831340  1
  Cd  Cd19  1  0.501933  0.832689  0.832689  1
  Ir  Ir20  1  0.394431  0.391790  0.391790  1
  Ir  Ir21  1  0.394431  0.391790  0.821990  1
  Ir  Ir22  1  0.394431  0.821990  0.391790  1
  Ir  Ir23  1  0.820418  0.393194  0.393194  1
