# generated using pymatgen
data_Rb4Mn5CoSe8
_symmetry_space_group_name_H-M   'P 1'
_cell_length_a   9.79054725
_cell_length_b   9.75078133
_cell_length_c   9.79054854
_cell_angle_alpha   143.85895626
_cell_angle_beta   104.56939395
_cell_angle_gamma   86.78587170
_symmetry_Int_Tables_number   1
_chemical_formula_structural   Rb4Mn5CoSe8
_chemical_formula_sum   'Rb4 Mn5 Co1 Se8'
_cell_volume   515.49852868
_cell_formula_units_Z   1
loop_
 _symmetry_equiv_pos_site_id
 _symmetry_equiv_pos_as_xyz
  1  'x, y, z'
loop_
 _atom_site_type_symbol
 _atom_site_label
 _atom_site_symmetry_multiplicity
 _atom_site_fract_x
 _atom_site_fract_y
 _atom_site_fract_z
 _atom_site_occupancy
  Rb  Rb0  1  0.125336  0.237490  0.359315  1
  Rb  Rb1  1  0.379394  0.738459  0.113657  1
  Rb  Rb2  1  0.621825  0.262510  0.887846  1
  Rb  Rb3  1  0.875197  0.761541  0.640935  1
  Mn  Mn4  1  0.978666  0.750000  0.228666  1
  Mn  Mn5  1  0.485996  0.250000  0.235996  1
  Mn  Mn6  1  0.745681  0.250000  0.495681  1
  Mn  Mn7  1  0.257486  0.750000  0.507486  1
  Mn  Mn8  1  0.018765  0.250000  0.768765  1
  Co  Co9  1  0.506289  0.750000  0.756289  1
  Se  Se10  1  0.222994  0.076184  0.591517  1
  Se  Se11  1  0.286629  0.868918  0.857304  1
  Se  Se12  1  0.015333  0.423816  0.146810  1
  Se  Se13  1  0.488386  0.631082  0.417712  1
  Se  Se14  1  0.774697  0.922549  0.408442  1
  Se  Se15  1  0.709435  0.098016  0.120015  1
  Se  Se16  1  0.985893  0.577451  0.852148  1
  Se  Se17  1  0.521999  0.401984  0.611419  1
