# generated using pymatgen
data_SbF18
_symmetry_space_group_name_H-M   'P 1'
_cell_length_a   5.95421359
_cell_length_b   9.53245987
_cell_length_c   13.78572846
_cell_angle_alpha   101.85033056
_cell_angle_beta   93.26313785
_cell_angle_gamma   102.74165076
_symmetry_Int_Tables_number   1
_chemical_formula_structural   SbF18
_chemical_formula_sum   'Sb2 F36'
_cell_volume   742.62645458
_cell_formula_units_Z   2
loop_
 _symmetry_equiv_pos_site_id
 _symmetry_equiv_pos_as_xyz
  1  'x, y, z'
loop_
 _atom_site_type_symbol
 _atom_site_label
 _atom_site_symmetry_multiplicity
 _atom_site_fract_x
 _atom_site_fract_y
 _atom_site_fract_z
 _atom_site_occupancy
  Sb  Sb0  1  0.158434  0.983970  0.290269  1
  Sb  Sb1  1  0.841566  0.016030  0.709731  1
  F  F2  1  0.681943  0.626573  0.368383  1
  F  F3  1  0.318057  0.373427  0.631617  1
  F  F4  1  0.059421  0.374138  0.382389  1
  F  F5  1  0.940579  0.625862  0.617611  1
  F  F6  1  0.212736  0.898777  0.949505  1
  F  F7  1  0.787264  0.101223  0.050495  1
  F  F8  1  0.886582  0.052983  0.326131  1
  F  F9  1  0.113418  0.947017  0.673869  1
  F  F10  1  0.005273  0.787550  0.297553  1
  F  F11  1  0.994727  0.212450  0.702447  1
  F  F12  1  0.591725  0.491011  0.396009  1
  F  F13  1  0.408275  0.508989  0.603991  1
  F  F14  1  0.040558  0.946458  0.152679  1
  F  F15  1  0.959442  0.053542  0.847321  1
  F  F16  1  0.265799  0.035731  0.430422  1
  F  F17  1  0.734201  0.964269  0.569578  1
  F  F18  1  0.049395  0.395835  0.283629  1
  F  F19  1  0.950605  0.604165  0.716371  1
  F  F20  1  0.724700  0.671336  0.057450  1
  F  F21  1  0.275300  0.328664  0.942550  1
  F  F22  1  0.847058  0.576492  0.000873  1
  F  F23  1  0.152942  0.423508  0.999127  1
  F  F24  1  0.536669  0.559220  0.842021  1
  F  F25  1  0.463331  0.440780  0.157979  1
  F  F26  1  0.322450  0.177402  0.281073  1
  F  F27  1  0.677550  0.822598  0.718927  1
  F  F28  1  0.269936  0.805460  0.500661  1
  F  F29  1  0.730064  0.194540  0.499339  1
  F  F30  1  0.355485  0.843544  0.011008  1
  F  F31  1  0.644515  0.156456  0.988992  1
  F  F32  1  0.424817  0.908313  0.256964  1
  F  F33  1  0.575183  0.091687  0.743036  1
  F  F34  1  0.662664  0.388310  0.177939  1
  F  F35  1  0.337336  0.611690  0.822061  1
  F  F36  1  0.241956  0.651103  0.466960  1
  F  F37  1  0.758044  0.348897  0.533040  1
