# generated using pymatgen
data_Dy7Ho2Al(SiB4)4
_symmetry_space_group_name_H-M   'P 1'
_cell_length_a   7.15795301
_cell_length_b   7.15862701
_cell_length_c   7.97583201
_cell_angle_alpha   90.00314990
_cell_angle_beta   90.00306692
_cell_angle_gamma   90.00461033
_symmetry_Int_Tables_number   1
_chemical_formula_structural   Dy7Ho2Al(SiB4)4
_chemical_formula_sum   'Dy7 Ho2 Al1 Si4 B16'
_cell_volume   408.69052834
_cell_formula_units_Z   1
loop_
 _symmetry_equiv_pos_site_id
 _symmetry_equiv_pos_as_xyz
  1  'x, y, z'
loop_
 _atom_site_type_symbol
 _atom_site_label
 _atom_site_symmetry_multiplicity
 _atom_site_fract_x
 _atom_site_fract_y
 _atom_site_fract_z
 _atom_site_occupancy
  Dy  Dy0  1  0.682378  0.179439  0.227763  1
  Dy  Dy1  1  0.317615  0.820637  0.772185  1
  Dy  Dy2  1  0.317590  0.820595  0.227787  1
  Dy  Dy3  1  0.820642  0.682326  0.227780  1
  Dy  Dy4  1  0.820621  0.682341  0.772260  1
  Dy  Dy5  1  0.682369  0.179387  0.772196  1
  Dy  Dy6  1  0.179397  0.317589  0.772300  1
  Ho  Ho7  1  0.179425  0.317684  0.226772  1
  Ho  Ho8  1  0.499881  0.499912  0.499872  1
  Al  Al9  1  0.000092  0.000162  0.499881  1
  Si  Si10  1  0.113650  0.620466  0.499768  1
  Si  Si11  1  0.886798  0.379093  0.499700  1
  Si  Si12  1  0.378893  0.113742  0.499642  1
  Si  Si13  1  0.620657  0.886593  0.499937  1
  B  B14  1  0.174670  0.039897  0.000154  1
  B  B15  1  0.825454  0.960356  0.000084  1
  B  B16  1  0.960473  0.174703  0.000218  1
  B  B17  1  0.327175  0.539319  0.000170  1
  B  B18  1  0.039749  0.825444  0.000104  1
  B  B19  1  0.672690  0.460459  0.000106  1
  B  B20  1  0.539422  0.672660  0.000078  1
  B  B21  1  0.460360  0.327201  0.000109  1
  B  B22  1  0.090138  0.588592  0.000234  1
  B  B23  1  0.910022  0.411279  0.000280  1
  B  B24  1  0.411281  0.090132  0.000040  1
  B  B25  1  0.588689  0.909902  0.000057  1
  B  B26  1  0.000181  0.000287  0.160840  1
  B  B27  1  0.000029  0.000034  0.839473  1
  B  B28  1  0.499983  0.499961  0.836347  1
  B  B29  1  0.499677  0.499807  0.163863  1
