# generated using pymatgen
data_TiGaIr3S8
_symmetry_space_group_name_H-M   'P 1'
_cell_length_a   6.87854665
_cell_length_b   6.87854653
_cell_length_c   6.87854616
_cell_angle_alpha   62.88924449
_cell_angle_beta   62.88924743
_cell_angle_gamma   62.88924531
_symmetry_Int_Tables_number   1
_chemical_formula_structural   TiGaIr3S8
_chemical_formula_sum   'Ti1 Ga1 Ir3 S8'
_cell_volume   244.90480454
_cell_formula_units_Z   1
loop_
 _symmetry_equiv_pos_site_id
 _symmetry_equiv_pos_as_xyz
  1  'x, y, z'
loop_
 _atom_site_type_symbol
 _atom_site_label
 _atom_site_symmetry_multiplicity
 _atom_site_fract_x
 _atom_site_fract_y
 _atom_site_fract_z
 _atom_site_occupancy
  Ti  Ti0  1  0.593500  0.593500  0.593500  1
  Ga  Ga1  1  0.011937  0.011937  0.011937  1
  Ir  Ir2  1  0.625976  0.625976  0.138927  1
  Ir  Ir3  1  0.625976  0.138927  0.625976  1
  Ir  Ir4  1  0.138927  0.625976  0.625976  1
  S  S5  1  0.366985  0.366985  0.871817  1
  S  S6  1  0.366985  0.871817  0.366985  1
  S  S7  1  0.871817  0.366985  0.366985  1
  S  S8  1  0.389192  0.389192  0.389192  1
  S  S9  1  0.861142  0.861142  0.418230  1
  S  S10  1  0.861142  0.418230  0.861142  1
  S  S11  1  0.418230  0.861142  0.861142  1
  S  S12  1  0.868188  0.868188  0.868188  1
