# generated using pymatgen
data_Er2P7(IrRu3)3
_symmetry_space_group_name_H-M   'P 1'
_cell_length_a   9.44437700
_cell_length_b   9.44437727
_cell_length_c   3.93343200
_cell_angle_alpha   90.00000000
_cell_angle_beta   90.00000000
_cell_angle_gamma   119.99999557
_symmetry_Int_Tables_number   1
_chemical_formula_structural   Er2P7(IrRu3)3
_chemical_formula_sum   'Er2 P7 Ir3 Ru9'
_cell_volume   303.84279309
_cell_formula_units_Z   1
loop_
 _symmetry_equiv_pos_site_id
 _symmetry_equiv_pos_as_xyz
  1  'x, y, z'
loop_
 _atom_site_type_symbol
 _atom_site_label
 _atom_site_symmetry_multiplicity
 _atom_site_fract_x
 _atom_site_fract_y
 _atom_site_fract_z
 _atom_site_occupancy
  Er  Er0  1  0.000000  0.000000  0.000000  1
  Er  Er1  1  0.333333  0.666667  0.500000  1
  P  P2  1  0.086333  0.632706  0.000000  1
  P  P3  1  0.546372  0.913667  0.000000  1
  P  P4  1  0.367294  0.453628  0.000000  1
  P  P5  1  0.782255  0.733803  0.500000  1
  P  P6  1  0.951547  0.217745  0.500000  1
  P  P7  1  0.266197  0.048453  0.500000  1
  P  P8  1  0.666667  0.333333  0.000000  1
  Ir  Ir9  1  0.054984  0.779955  0.500000  1
  Ir  Ir10  1  0.724971  0.945016  0.500000  1
  Ir  Ir11  1  0.220045  0.275029  0.500000  1
  Ru  Ru12  1  0.100125  0.398805  0.000000  1
  Ru  Ru13  1  0.298680  0.899875  0.000000  1
  Ru  Ru14  1  0.601195  0.701320  0.000000  1
  Ru  Ru15  1  0.828842  0.604857  0.000000  1
  Ru  Ru16  1  0.776015  0.171158  0.000000  1
  Ru  Ru17  1  0.395143  0.223985  0.000000  1
  Ru  Ru18  1  0.886904  0.423829  0.500000  1
  Ru  Ru19  1  0.536924  0.113096  0.500000  1
  Ru  Ru20  1  0.576171  0.463076  0.500000  1
