# generated using pymatgen
data_Tm8Sc12Sn15Os
_symmetry_space_group_name_H-M   'P 1'
_cell_length_a   7.60076360
_cell_length_b   7.92169005
_cell_length_c   14.69394700
_cell_angle_alpha   90.00000000
_cell_angle_beta   90.00000000
_cell_angle_gamma   89.58332312
_symmetry_Int_Tables_number   1
_chemical_formula_structural   Tm8Sc12Sn15Os
_chemical_formula_sum   'Tm8 Sc12 Sn15 Os1'
_cell_volume   884.71228050
_cell_formula_units_Z   1
loop_
 _symmetry_equiv_pos_site_id
 _symmetry_equiv_pos_as_xyz
  1  'x, y, z'
loop_
 _atom_site_type_symbol
 _atom_site_label
 _atom_site_symmetry_multiplicity
 _atom_site_fract_x
 _atom_site_fract_y
 _atom_site_fract_z
 _atom_site_occupancy
  Tm  Tm0  1  0.991120  0.181094  0.092901  1
  Tm  Tm1  1  0.006596  0.836314  0.901515  1
  Tm  Tm2  1  0.509190  0.682570  0.906194  1
  Tm  Tm3  1  0.006596  0.836314  0.598485  1
  Tm  Tm4  1  0.492902  0.323720  0.093384  1
  Tm  Tm5  1  0.991120  0.181094  0.407099  1
  Tm  Tm6  1  0.492902  0.323720  0.406616  1
  Tm  Tm7  1  0.509190  0.682570  0.593806  1
  Sc  Sc8  1  0.172964  0.491894  0.750000  1
  Sc  Sc9  1  0.831602  0.503624  0.250000  1
  Sc  Sc10  1  0.331992  0.998874  0.250000  1
  Sc  Sc11  1  0.688868  0.005438  0.750000  1
  Sc  Sc12  1  0.303516  0.158011  0.634700  1
  Sc  Sc13  1  0.663064  0.839328  0.373400  1
  Sc  Sc14  1  0.161022  0.663742  0.373191  1
  Sc  Sc15  1  0.663064  0.839328  0.126600  1
  Sc  Sc16  1  0.867381  0.315658  0.636949  1
  Sc  Sc17  1  0.303516  0.158011  0.865300  1
  Sc  Sc18  1  0.867381  0.315658  0.863051  1
  Sc  Sc19  1  0.161022  0.663742  0.126809  1
  Sn  Sn20  1  0.968861  0.878825  0.250000  1
  Sn  Sn21  1  0.470314  0.621999  0.250000  1
  Sn  Sn22  1  0.533166  0.376435  0.750000  1
  Sn  Sn23  1  0.307001  0.850594  0.750000  1
  Sn  Sn24  1  0.688583  0.153917  0.250000  1
  Sn  Sn25  1  0.188462  0.348442  0.250000  1
  Sn  Sn26  1  0.805876  0.644331  0.750000  1
  Sn  Sn27  1  0.185705  0.466325  0.541611  1
  Sn  Sn28  1  0.818377  0.540421  0.462953  1
  Sn  Sn29  1  0.319384  0.961158  0.458685  1
  Sn  Sn30  1  0.818377  0.540421  0.037047  1
  Sn  Sn31  1  0.674441  0.045452  0.542516  1
  Sn  Sn32  1  0.185705  0.466325  0.958389  1
  Sn  Sn33  1  0.674441  0.045452  0.957484  1
  Sn  Sn34  1  0.319384  0.961158  0.041315  1
  Os  Os35  1  0.026916  0.098041  0.750000  1
