# generated using pymatgen
data_TbPr6OsI12
_symmetry_space_group_name_H-M   'P 1'
_cell_length_a   10.13817429
_cell_length_b   10.13817528
_cell_length_c   10.13817527
_cell_angle_alpha   107.09981521
_cell_angle_beta   107.09981242
_cell_angle_gamma   107.09981407
_symmetry_Int_Tables_number   1
_chemical_formula_structural   TbPr6OsI12
_chemical_formula_sum   'Tb1 Pr6 Os1 I12'
_cell_volume   865.43704552
_cell_formula_units_Z   1
loop_
 _symmetry_equiv_pos_site_id
 _symmetry_equiv_pos_as_xyz
  1  'x, y, z'
loop_
 _atom_site_type_symbol
 _atom_site_label
 _atom_site_symmetry_multiplicity
 _atom_site_fract_x
 _atom_site_fract_y
 _atom_site_fract_z
 _atom_site_occupancy
  Tb  Tb0  1  0.500000  0.500000  0.500000  1
  Pr  Pr1  1  0.097035  0.301374  0.023636  1
  Pr  Pr2  1  0.023636  0.097035  0.301374  1
  Pr  Pr3  1  0.301374  0.023636  0.097035  1
  Pr  Pr4  1  0.902965  0.698626  0.976364  1
  Pr  Pr5  1  0.976364  0.902965  0.698626  1
  Pr  Pr6  1  0.698626  0.976364  0.902965  1
  Os  Os7  1  0.000000  0.000000  0.000000  1
  I  I8  1  0.466464  0.390230  0.170734  1
  I  I9  1  0.170734  0.466464  0.390230  1
  I  I10  1  0.390230  0.170734  0.466464  1
  I  I11  1  0.533536  0.609770  0.829266  1
  I  I12  1  0.829266  0.533536  0.609770  1
  I  I13  1  0.609770  0.829266  0.533536  1
  I  I14  1  0.773498  0.318670  0.927569  1
  I  I15  1  0.927569  0.773498  0.318670  1
  I  I16  1  0.318670  0.927569  0.773498  1
  I  I17  1  0.226502  0.681330  0.072431  1
  I  I18  1  0.072431  0.226502  0.681330  1
  I  I19  1  0.681330  0.072431  0.226502  1
