# generated using pymatgen
data_YHo3(TcB4)4
_symmetry_space_group_name_H-M   'P 1'
_cell_length_a   5.95669503
_cell_length_b   11.54019806
_cell_length_c   3.59122900
_cell_angle_alpha   90.00000000
_cell_angle_beta   90.00000000
_cell_angle_gamma   89.98810304
_symmetry_Int_Tables_number   1
_chemical_formula_structural   YHo3(TcB4)4
_chemical_formula_sum   'Y1 Ho3 Tc4 B16'
_cell_volume   246.86624918
_cell_formula_units_Z   1
loop_
 _symmetry_equiv_pos_site_id
 _symmetry_equiv_pos_as_xyz
  1  'x, y, z'
loop_
 _atom_site_type_symbol
 _atom_site_label
 _atom_site_symmetry_multiplicity
 _atom_site_fract_x
 _atom_site_fract_y
 _atom_site_fract_z
 _atom_site_occupancy
  Y  Y0  1  0.126832  0.850133  0.000000  1
  Ho  Ho1  1  0.873149  0.149900  0.000000  1
  Ho  Ho2  1  0.373163  0.350106  0.000000  1
  Ho  Ho3  1  0.626825  0.649848  0.000000  1
  Tc  Tc4  1  0.366470  0.087998  0.000000  1
  Tc  Tc5  1  0.866319  0.412159  0.000000  1
  Tc  Tc6  1  0.133686  0.587578  0.000000  1
  Tc  Tc7  1  0.633570  0.912281  0.000000  1
  B  B8  1  0.135774  0.031683  0.499999  1
  B  B9  1  0.613802  0.047377  0.499999  1
  B  B10  1  0.212773  0.185222  0.499999  1
  B  B11  1  0.523795  0.192568  0.499999  1
  B  B12  1  0.023800  0.307435  0.499999  1
  B  B13  1  0.712786  0.314796  0.499999  1
  B  B14  1  0.113791  0.452689  0.499999  1
  B  B15  1  0.635724  0.468549  0.499999  1
  B  B16  1  0.364291  0.531412  0.499999  1
  B  B17  1  0.886173  0.547255  0.499999  1
  B  B18  1  0.287379  0.684954  0.499999  1
  B  B19  1  0.975961  0.692296  0.499999  1
  B  B20  1  0.476591  0.807392  0.499999  1
  B  B21  1  0.786732  0.814719  0.499999  1
  B  B22  1  0.386645  0.952919  0.499999  1
  B  B23  1  0.863972  0.968739  0.499999  1
