# generated using pymatgen
data_Tb2DyCo8TcP6
_symmetry_space_group_name_H-M   'P 1'
_cell_length_a   3.71961700
_cell_length_b   10.53656900
_cell_length_c   12.24690700
_cell_angle_alpha   90.00000000
_cell_angle_beta   90.00000000
_cell_angle_gamma   90.00000000
_symmetry_Int_Tables_number   1
_chemical_formula_structural   Tb2DyCo8TcP6
_chemical_formula_sum   'Tb4 Dy2 Co16 Tc2 P12'
_cell_volume   479.98079352
_cell_formula_units_Z   2
loop_
 _symmetry_equiv_pos_site_id
 _symmetry_equiv_pos_as_xyz
  1  'x, y, z'
loop_
 _atom_site_type_symbol
 _atom_site_label
 _atom_site_symmetry_multiplicity
 _atom_site_fract_x
 _atom_site_fract_y
 _atom_site_fract_z
 _atom_site_occupancy
  Tb  Tb0  1  0.000000  0.500000  0.523796  1
  Tb  Tb1  1  0.500000  0.000000  0.476266  1
  Tb  Tb2  1  0.000000  0.682473  0.794122  1
  Tb  Tb3  1  0.000000  0.317527  0.794122  1
  Dy  Dy4  1  0.500000  0.817670  0.205853  1
  Dy  Dy5  1  0.500000  0.182330  0.205853  1
  Co  Co6  1  0.500000  0.500000  0.703045  1
  Co  Co7  1  0.000000  0.000000  0.296716  1
  Co  Co8  1  0.000000  0.500000  0.987448  1
  Co  Co9  1  0.500000  0.000000  0.012958  1
  Co  Co10  1  0.500000  0.332152  0.990429  1
  Co  Co11  1  0.500000  0.667848  0.990429  1
  Co  Co12  1  0.000000  0.167666  0.010046  1
  Co  Co13  1  0.000000  0.832334  0.010046  1
  Co  Co14  1  0.500000  0.296454  0.430791  1
  Co  Co15  1  0.500000  0.703546  0.430791  1
  Co  Co16  1  0.000000  0.203395  0.568851  1
  Co  Co17  1  0.000000  0.796605  0.568851  1
  Co  Co18  1  0.500000  0.879435  0.707947  1
  Co  Co19  1  0.500000  0.120565  0.707947  1
  Co  Co20  1  0.000000  0.620843  0.291843  1
  Co  Co21  1  0.000000  0.379157  0.291843  1
  Tc  Tc22  1  0.500000  0.500000  0.156375  1
  Tc  Tc23  1  0.000000  0.000000  0.843712  1
  P  P24  1  0.500000  0.500000  0.881901  1
  P  P25  1  0.000000  0.000000  0.118547  1
  P  P26  1  0.500000  0.500000  0.347919  1
  P  P27  1  0.000000  0.000000  0.652003  1
  P  P28  1  0.500000  0.310889  0.615697  1
  P  P29  1  0.500000  0.689111  0.615697  1
  P  P30  1  0.000000  0.188865  0.383809  1
  P  P31  1  0.000000  0.811135  0.383809  1
  P  P32  1  0.500000  0.846544  0.893143  1
  P  P33  1  0.500000  0.153456  0.893143  1
  P  P34  1  0.000000  0.653815  0.107125  1
  P  P35  1  0.000000  0.346185  0.107125  1
