# generated using pymatgen
data_Lu4CoCu2Si4Ru
_symmetry_space_group_name_H-M   'P 1'
_cell_length_a   4.15417100
_cell_length_b   6.80318003
_cell_length_c   7.28514600
_cell_angle_alpha   91.13084135
_cell_angle_beta   90.00000000
_cell_angle_gamma   90.00000000
_symmetry_Int_Tables_number   1
_chemical_formula_structural   Lu4CoCu2Si4Ru
_chemical_formula_sum   'Lu4 Co1 Cu2 Si4 Ru1'
_cell_volume   205.84958650
_cell_formula_units_Z   1
loop_
 _symmetry_equiv_pos_site_id
 _symmetry_equiv_pos_as_xyz
  1  'x, y, z'
loop_
 _atom_site_type_symbol
 _atom_site_label
 _atom_site_symmetry_multiplicity
 _atom_site_fract_x
 _atom_site_fract_y
 _atom_site_fract_z
 _atom_site_occupancy
  Lu  Lu0  1  0.250000  0.994656  0.795685  1
  Lu  Lu1  1  0.750000  0.003017  0.201402  1
  Lu  Lu2  1  0.250000  0.493278  0.695612  1
  Lu  Lu3  1  0.750000  0.501527  0.305761  1
  Co  Co4  1  0.750000  0.350621  0.939309  1
  Cu  Cu5  1  0.750000  0.828545  0.574566  1
  Cu  Cu6  1  0.250000  0.173753  0.427202  1
  Si  Si7  1  0.250000  0.295182  0.086500  1
  Si  Si8  1  0.750000  0.700880  0.904407  1
  Si  Si9  1  0.250000  0.790523  0.394119  1
  Si  Si10  1  0.750000  0.211339  0.613883  1
  Ru  Ru11  1  0.250000  0.656676  0.061555  1
