# generated using pymatgen
data_Dy12AlCo4Sn
_symmetry_space_group_name_H-M   'P 1'
_cell_length_a   8.31537707
_cell_length_b   8.31537652
_cell_length_c   8.31537568
_cell_angle_alpha   112.10533315
_cell_angle_beta   109.42486520
_cell_angle_gamma   106.92496868
_symmetry_Int_Tables_number   1
_chemical_formula_structural   Dy12AlCo4Sn
_chemical_formula_sum   'Dy12 Al1 Co4 Sn1'
_cell_volume   441.70701921
_cell_formula_units_Z   1
loop_
 _symmetry_equiv_pos_site_id
 _symmetry_equiv_pos_as_xyz
  1  'x, y, z'
loop_
 _atom_site_type_symbol
 _atom_site_label
 _atom_site_symmetry_multiplicity
 _atom_site_fract_x
 _atom_site_fract_y
 _atom_site_fract_z
 _atom_site_occupancy
  Dy  Dy0  1  0.436145  0.234265  0.201880  1
  Dy  Dy1  1  0.563855  0.765735  0.798120  1
  Dy  Dy2  1  0.032386  0.234265  0.798120  1
  Dy  Dy3  1  0.967614  0.765735  0.201880  1
  Dy  Dy4  1  0.181062  0.281698  0.462760  1
  Dy  Dy5  1  0.818938  0.718302  0.537240  1
  Dy  Dy6  1  0.181062  0.718302  0.899363  1
  Dy  Dy7  1  0.818938  0.281698  0.100637  1
  Dy  Dy8  1  0.323519  0.636534  0.313015  1
  Dy  Dy9  1  0.676481  0.363466  0.686985  1
  Dy  Dy10  1  0.323519  0.010503  0.686985  1
  Dy  Dy11  1  0.676481  0.989497  0.313015  1
  Al  Al12  1  0.000000  0.000000  0.000000  1
  Co  Co13  1  0.336386  0.000000  0.336386  1
  Co  Co14  1  0.663614  0.000000  0.663614  1
  Co  Co15  1  0.114214  0.614214  0.500000  1
  Co  Co16  1  0.885786  0.385786  0.500000  1
  Sn  Sn17  1  0.500000  0.500000  0.000000  1
