# generated using pymatgen
data_Tb7Lu(Si3Ni)4
_symmetry_space_group_name_H-M   'P 1'
_cell_length_a   7.93992100
_cell_length_b   7.94735525
_cell_length_c   8.07315400
_cell_angle_alpha   90.00000000
_cell_angle_beta   90.00000000
_cell_angle_gamma   119.96906496
_symmetry_Int_Tables_number   1
_chemical_formula_structural   Tb7Lu(Si3Ni)4
_chemical_formula_sum   'Tb7 Lu1 Si12 Ni4'
_cell_volume   441.31427084
_cell_formula_units_Z   1
loop_
 _symmetry_equiv_pos_site_id
 _symmetry_equiv_pos_as_xyz
  1  'x, y, z'
loop_
 _atom_site_type_symbol
 _atom_site_label
 _atom_site_symmetry_multiplicity
 _atom_site_fract_x
 _atom_site_fract_y
 _atom_site_fract_z
 _atom_site_occupancy
  Tb  Tb0  1  0.499890  0.999781  0.750000  1
  Tb  Tb1  1  0.999737  0.499884  0.250000  1
  Tb  Tb2  1  0.000199  0.500118  0.750000  1
  Tb  Tb3  1  0.500148  0.499884  0.250000  1
  Tb  Tb4  1  0.499916  0.500118  0.750000  1
  Tb  Tb5  1  0.999990  0.999981  0.250000  1
  Tb  Tb6  1  0.999990  0.999982  0.750000  1
  Lu  Lu7  1  0.500071  0.000142  0.250000  1
  Si  Si8  1  0.170668  0.341334  0.000283  1
  Si  Si9  1  0.829288  0.658576  0.999973  1
  Si  Si10  1  0.658063  0.829706  0.001147  1
  Si  Si11  1  0.829288  0.658576  0.500027  1
  Si  Si12  1  0.342004  0.170335  0.000855  1
  Si  Si13  1  0.170668  0.341334  0.499717  1
  Si  Si14  1  0.171643  0.829706  0.001147  1
  Si  Si15  1  0.342004  0.170335  0.499145  1
  Si  Si16  1  0.828331  0.170335  0.000855  1
  Si  Si17  1  0.658063  0.829706  0.498853  1
  Si  Si18  1  0.828331  0.170335  0.499145  1
  Si  Si19  1  0.171643  0.829706  0.498853  1
  Ni  Ni20  1  0.333652  0.667307  0.003173  1
  Ni  Ni21  1  0.666378  0.332756  0.002673  1
  Ni  Ni22  1  0.666378  0.332756  0.497327  1
  Ni  Ni23  1  0.333652  0.667307  0.496827  1
