# generated using pymatgen
data_Ho8SnPt24
_symmetry_space_group_name_H-M   'P 1'
_cell_length_a   8.41118500
_cell_length_b   8.41118500
_cell_length_c   8.41118500
_cell_angle_alpha   90.00000000
_cell_angle_beta   90.00000000
_cell_angle_gamma   90.00000000
_symmetry_Int_Tables_number   1
_chemical_formula_structural   Ho8SnPt24
_chemical_formula_sum   'Ho8 Sn1 Pt24'
_cell_volume   595.07479483
_cell_formula_units_Z   1
loop_
 _symmetry_equiv_pos_site_id
 _symmetry_equiv_pos_as_xyz
  1  'x, y, z'
loop_
 _atom_site_type_symbol
 _atom_site_label
 _atom_site_symmetry_multiplicity
 _atom_site_fract_x
 _atom_site_fract_y
 _atom_site_fract_z
 _atom_site_occupancy
  Ho  Ho0  1  0.251837  0.251837  0.251837  1
  Ho  Ho1  1  0.748163  0.748163  0.748163  1
  Ho  Ho2  1  0.748163  0.748163  0.251837  1
  Ho  Ho3  1  0.748163  0.251837  0.748163  1
  Ho  Ho4  1  0.251837  0.251837  0.748163  1
  Ho  Ho5  1  0.251837  0.748163  0.251837  1
  Ho  Ho6  1  0.251837  0.748163  0.748163  1
  Ho  Ho7  1  0.748163  0.251837  0.251837  1
  Sn  Sn8  1  0.000000  0.000000  0.000000  1
  Pt  Pt9  1  0.266225  0.500000  0.000000  1
  Pt  Pt10  1  0.733775  0.500000  0.000000  1
  Pt  Pt11  1  0.000000  0.266225  0.500000  1
  Pt  Pt12  1  0.500000  0.266225  0.000000  1
  Pt  Pt13  1  0.000000  0.733775  0.500000  1
  Pt  Pt14  1  0.500000  0.733775  0.000000  1
  Pt  Pt15  1  0.500000  0.000000  0.266225  1
  Pt  Pt16  1  0.266225  0.000000  0.500000  1
  Pt  Pt17  1  0.500000  0.000000  0.733775  1
  Pt  Pt18  1  0.733775  0.000000  0.500000  1
  Pt  Pt19  1  0.000000  0.500000  0.266225  1
  Pt  Pt20  1  0.000000  0.500000  0.733775  1
  Pt  Pt21  1  0.254738  0.500000  0.500000  1
  Pt  Pt22  1  0.745262  0.500000  0.500000  1
  Pt  Pt23  1  0.500000  0.254738  0.500000  1
  Pt  Pt24  1  0.500000  0.745262  0.500000  1
  Pt  Pt25  1  0.500000  0.500000  0.254738  1
  Pt  Pt26  1  0.500000  0.500000  0.745262  1
  Pt  Pt27  1  0.311162  0.000000  0.000000  1
  Pt  Pt28  1  0.688838  0.000000  0.000000  1
  Pt  Pt29  1  0.000000  0.311162  0.000000  1
  Pt  Pt30  1  0.000000  0.688838  0.000000  1
  Pt  Pt31  1  0.000000  0.000000  0.311162  1
  Pt  Pt32  1  0.000000  0.000000  0.688838  1
