# generated using pymatgen
data_YbDy(TcO4)6
_symmetry_space_group_name_H-M   'P 1'
_cell_length_a   10.29694600
_cell_length_b   10.29694629
_cell_length_c   6.25353900
_cell_angle_alpha   90.00000000
_cell_angle_beta   90.00000000
_cell_angle_gamma   120.00000078
_symmetry_Int_Tables_number   1
_chemical_formula_structural   YbDy(TcO4)6
_chemical_formula_sum   'Yb1 Dy1 Tc6 O24'
_cell_volume   574.21346681
_cell_formula_units_Z   1
loop_
 _symmetry_equiv_pos_site_id
 _symmetry_equiv_pos_as_xyz
  1  'x, y, z'
loop_
 _atom_site_type_symbol
 _atom_site_label
 _atom_site_symmetry_multiplicity
 _atom_site_fract_x
 _atom_site_fract_y
 _atom_site_fract_z
 _atom_site_occupancy
  Yb  Yb0  1  0.333333  0.666667  0.250000  1
  Dy  Dy1  1  0.666667  0.333333  0.750000  1
  Tc  Tc2  1  0.090473  0.395300  0.750000  1
  Tc  Tc3  1  0.397019  0.303015  0.250000  1
  Tc  Tc4  1  0.604700  0.695171  0.750000  1
  Tc  Tc5  1  0.905994  0.602981  0.250000  1
  Tc  Tc6  1  0.304829  0.909527  0.750000  1
  Tc  Tc7  1  0.696985  0.094006  0.250000  1
  O  O8  1  0.492006  0.655044  0.523577  1
  O  O9  1  0.344956  0.836963  0.523577  1
  O  O10  1  0.852439  0.735774  0.250000  1
  O  O11  1  0.118166  0.855619  0.750000  1
  O  O12  1  0.264226  0.116665  0.250000  1
  O  O13  1  0.144381  0.262547  0.750000  1
  O  O14  1  0.510256  0.344730  0.021146  1
  O  O15  1  0.883335  0.147561  0.250000  1
  O  O16  1  0.100146  0.689084  0.250000  1
  O  O17  1  0.163037  0.507994  0.976423  1
  O  O18  1  0.163037  0.507994  0.523577  1
  O  O19  1  0.893651  0.311470  0.750000  1
  O  O20  1  0.310916  0.411062  0.250000  1
  O  O21  1  0.688530  0.582181  0.750000  1
  O  O22  1  0.834475  0.489744  0.478854  1
  O  O23  1  0.417819  0.106349  0.750000  1
  O  O24  1  0.655270  0.165525  0.021146  1
  O  O25  1  0.492006  0.655044  0.976423  1
  O  O26  1  0.344956  0.836963  0.976423  1
  O  O27  1  0.655270  0.165525  0.478854  1
  O  O28  1  0.510256  0.344730  0.478854  1
  O  O29  1  0.834475  0.489744  0.021146  1
  O  O30  1  0.737453  0.881834  0.750000  1
  O  O31  1  0.588938  0.899854  0.250000  1
