# generated using pymatgen
data_La3Pr(Zn2I)2
_symmetry_space_group_name_H-M   'P 1'
_cell_length_a   4.45163900
_cell_length_b   4.45164058
_cell_length_c   16.62957400
_cell_angle_alpha   90.00000000
_cell_angle_beta   90.00000000
_cell_angle_gamma   119.99999568
_symmetry_Int_Tables_number   1
_chemical_formula_structural   La3Pr(Zn2I)2
_chemical_formula_sum   'La3 Pr1 Zn4 I2'
_cell_volume   285.39857872
_cell_formula_units_Z   1
loop_
 _symmetry_equiv_pos_site_id
 _symmetry_equiv_pos_as_xyz
  1  'x, y, z'
loop_
 _atom_site_type_symbol
 _atom_site_label
 _atom_site_symmetry_multiplicity
 _atom_site_fract_x
 _atom_site_fract_y
 _atom_site_fract_z
 _atom_site_occupancy
  La  La0  1  0.000000  0.000000  0.614587  1
  La  La1  1  0.000000  0.000000  0.386565  1
  La  La2  1  0.000000  0.000000  0.112387  1
  Pr  Pr3  1  0.000000  0.000000  0.887467  1
  Zn  Zn4  1  0.666667  0.333333  0.504909  1
  Zn  Zn5  1  0.333333  0.666667  0.003273  1
  Zn  Zn6  1  0.666667  0.333333  0.993278  1
  Zn  Zn7  1  0.333333  0.666667  0.495617  1
  I  I8  1  0.666667  0.333333  0.249529  1
  I  I9  1  0.333333  0.666667  0.752388  1
