# generated using pymatgen
data_SrEr(ThIr4)2
_symmetry_space_group_name_H-M   'P 1'
_cell_length_a   9.40790284
_cell_length_b   9.40790231
_cell_length_c   9.40790327
_cell_angle_alpha   33.54953740
_cell_angle_beta   33.54954394
_cell_angle_gamma   33.54954020
_symmetry_Int_Tables_number   1
_chemical_formula_structural   SrEr(ThIr4)2
_chemical_formula_sum   'Sr1 Er1 Th2 Ir8'
_cell_volume   226.53142024
_cell_formula_units_Z   1
loop_
 _symmetry_equiv_pos_site_id
 _symmetry_equiv_pos_as_xyz
  1  'x, y, z'
loop_
 _atom_site_type_symbol
 _atom_site_label
 _atom_site_symmetry_multiplicity
 _atom_site_fract_x
 _atom_site_fract_y
 _atom_site_fract_z
 _atom_site_occupancy
  Sr  Sr0  1  0.125603  0.125603  0.125603  1
  Er  Er1  1  0.624397  0.624397  0.624397  1
  Th  Th2  1  0.001015  0.001015  0.001015  1
  Th  Th3  1  0.499190  0.499190  0.499190  1
  Ir  Ir4  1  0.562626  0.562626  0.056842  1
  Ir  Ir5  1  0.063692  0.063692  0.565932  1
  Ir  Ir6  1  0.562626  0.056842  0.562626  1
  Ir  Ir7  1  0.063692  0.565932  0.063692  1
  Ir  Ir8  1  0.812164  0.812164  0.812164  1
  Ir  Ir9  1  0.312224  0.312224  0.312224  1
  Ir  Ir10  1  0.056842  0.562626  0.562626  1
  Ir  Ir11  1  0.565932  0.063692  0.063692  1
