# generated using pymatgen
data_CrFe2Co4P4Ru
_symmetry_space_group_name_H-M   'P 1'
_cell_length_a   3.57163200
_cell_length_b   5.74456061
_cell_length_c   6.60545360
_cell_angle_alpha   89.69503230
_cell_angle_beta   90.00000000
_cell_angle_gamma   90.00000000
_symmetry_Int_Tables_number   1
_chemical_formula_structural   CrFe2Co4P4Ru
_chemical_formula_sum   'Cr1 Fe2 Co4 P4 Ru1'
_cell_volume   135.52518710
_cell_formula_units_Z   1
loop_
 _symmetry_equiv_pos_site_id
 _symmetry_equiv_pos_as_xyz
  1  'x, y, z'
loop_
 _atom_site_type_symbol
 _atom_site_label
 _atom_site_symmetry_multiplicity
 _atom_site_fract_x
 _atom_site_fract_y
 _atom_site_fract_z
 _atom_site_occupancy
  Cr  Cr0  1  0.250000  0.971734  0.674018  1
  Fe  Fe1  1  0.750000  0.526122  0.163334  1
  Fe  Fe2  1  0.250000  0.470264  0.836983  1
  Co  Co3  1  0.750000  0.642034  0.565119  1
  Co  Co4  1  0.750000  0.141506  0.932902  1
  Co  Co5  1  0.250000  0.362315  0.434292  1
  Co  Co6  1  0.250000  0.853988  0.062051  1
  P  P7  1  0.750000  0.267850  0.624688  1
  P  P8  1  0.750000  0.754113  0.881234  1
  P  P9  1  0.250000  0.736074  0.373898  1
  P  P10  1  0.250000  0.241853  0.116844  1
  Ru  Ru11  1  0.750000  0.032148  0.334636  1
