# generated using pymatgen
data_Dy7HoCd2IrRu
_symmetry_space_group_name_H-M   'P 1'
_cell_length_a   9.62670873
_cell_length_b   9.62670856
_cell_length_c   9.65768900
_cell_angle_alpha   59.89348982
_cell_angle_beta   59.89349040
_cell_angle_gamma   59.77470234
_symmetry_Int_Tables_number   1
_chemical_formula_structural   Dy7HoCd2IrRu
_chemical_formula_sum   'Dy14 Ho2 Cd4 Ir2 Ru2'
_cell_volume   630.76890941
_cell_formula_units_Z   2
loop_
 _symmetry_equiv_pos_site_id
 _symmetry_equiv_pos_as_xyz
  1  'x, y, z'
loop_
 _atom_site_type_symbol
 _atom_site_label
 _atom_site_symmetry_multiplicity
 _atom_site_fract_x
 _atom_site_fract_y
 _atom_site_fract_z
 _atom_site_occupancy
  Dy  Dy0  1  0.596952  0.208618  0.597216  1
  Dy  Dy1  1  0.208618  0.596952  0.597216  1
  Dy  Dy2  1  0.061809  0.438401  0.439731  1
  Dy  Dy3  1  0.438401  0.061809  0.060059  1
  Dy  Dy4  1  0.438401  0.061809  0.439731  1
  Dy  Dy5  1  0.061809  0.438401  0.060059  1
  Dy  Dy6  1  0.438383  0.438383  0.061617  1
  Dy  Dy7  1  0.059892  0.059892  0.440108  1
  Dy  Dy8  1  0.188154  0.810369  0.812903  1
  Dy  Dy9  1  0.810369  0.188154  0.188574  1
  Dy  Dy10  1  0.810369  0.188154  0.812903  1
  Dy  Dy11  1  0.188154  0.810369  0.188574  1
  Dy  Dy12  1  0.811787  0.811787  0.188213  1
  Dy  Dy13  1  0.188725  0.188725  0.811275  1
  Ho  Ho14  1  0.597845  0.597845  0.597871  1
  Ho  Ho15  1  0.597845  0.597845  0.206440  1
  Cd  Cd16  1  0.830303  0.830303  0.830805  1
  Cd  Cd17  1  0.830303  0.830303  0.508589  1
  Cd  Cd18  1  0.830296  0.507802  0.830952  1
  Cd  Cd19  1  0.507802  0.830296  0.830952  1
  Ir  Ir20  1  0.393896  0.826608  0.389748  1
  Ir  Ir21  1  0.826608  0.393896  0.389748  1
  Ru  Ru22  1  0.391641  0.391641  0.387793  1
  Ru  Ru23  1  0.391641  0.391641  0.828924  1
