# generated using pymatgen
data_Zn9CuPd10
_symmetry_space_group_name_H-M   'P 1'
_cell_length_a   7.38929365
_cell_length_b   7.38929368
_cell_length_c   7.38927085
_cell_angle_alpha   101.56753161
_cell_angle_beta   101.56745347
_cell_angle_gamma   126.79530655
_symmetry_Int_Tables_number   1
_chemical_formula_structural   Zn9CuPd10
_chemical_formula_sum   'Zn9 Cu1 Pd10'
_cell_volume   288.88421927
_cell_formula_units_Z   1
loop_
 _symmetry_equiv_pos_site_id
 _symmetry_equiv_pos_as_xyz
  1  'x, y, z'
loop_
 _atom_site_type_symbol
 _atom_site_label
 _atom_site_symmetry_multiplicity
 _atom_site_fract_x
 _atom_site_fract_y
 _atom_site_fract_z
 _atom_site_occupancy
  Zn  Zn0  1  0.204694  0.401165  0.605859  1
  Zn  Zn1  1  0.795306  0.598835  0.394141  1
  Zn  Zn2  1  0.598834  0.204694  0.803529  1
  Zn  Zn3  1  0.401166  0.795306  0.196471  1
  Zn  Zn4  1  0.301505  0.101429  0.402935  1
  Zn  Zn5  1  0.698495  0.898571  0.597065  1
  Zn  Zn6  1  0.898571  0.301505  0.200075  1
  Zn  Zn7  1  0.101429  0.698495  0.799925  1
  Zn  Zn8  1  0.000000  0.000000  0.000000  1
  Cu  Cu9  1  0.500000  0.500000  0.000000  1
  Pd  Pd10  1  0.346193  0.447282  0.299662  1
  Pd  Pd11  1  0.653807  0.552718  0.700338  1
  Pd  Pd12  1  0.147619  0.046531  0.700339  1
  Pd  Pd13  1  0.046531  0.346192  0.898913  1
  Pd  Pd14  1  0.852381  0.953469  0.299661  1
  Pd  Pd15  1  0.953469  0.653808  0.101087  1
  Pd  Pd16  1  0.447279  0.147618  0.101088  1
  Pd  Pd17  1  0.552721  0.852382  0.898912  1
  Pd  Pd18  1  0.250000  0.750000  0.500000  1
  Pd  Pd19  1  0.750000  0.250000  0.500000  1
