# generated using pymatgen
data_Zr4Pd6Pt5Rh
_symmetry_space_group_name_H-M   'P 1'
_cell_length_a   5.69923260
_cell_length_b   5.72099516
_cell_length_c   9.34211641
_cell_angle_alpha   90.48495734
_cell_angle_beta   89.95570861
_cell_angle_gamma   119.94830366
_symmetry_Int_Tables_number   1
_chemical_formula_structural   Zr4Pd6Pt5Rh
_chemical_formula_sum   'Zr4 Pd6 Pt5 Rh1'
_cell_volume   263.91912552
_cell_formula_units_Z   1
loop_
 _symmetry_equiv_pos_site_id
 _symmetry_equiv_pos_as_xyz
  1  'x, y, z'
loop_
 _atom_site_type_symbol
 _atom_site_label
 _atom_site_symmetry_multiplicity
 _atom_site_fract_x
 _atom_site_fract_y
 _atom_site_fract_z
 _atom_site_occupancy
  Zr  Zr0  1  0.999595  0.000494  0.499164  1
  Zr  Zr1  1  0.999350  0.000421  0.000839  1
  Zr  Zr2  1  0.337188  0.672389  0.253808  1
  Zr  Zr3  1  0.663630  0.327103  0.745961  1
  Pd  Pd4  1  0.499823  0.000043  0.999655  1
  Pd  Pd5  1  0.831026  0.661884  0.249091  1
  Pd  Pd6  1  0.340520  0.171761  0.249366  1
  Pd  Pd7  1  0.169346  0.827855  0.750626  1
  Pd  Pd8  1  0.169139  0.338316  0.750796  1
  Pd  Pd9  1  0.659422  0.828406  0.750609  1
  Pt  Pt10  1  0.499856  0.500216  0.500974  1
  Pt  Pt11  1  0.999944  0.500352  0.500414  1
  Pt  Pt12  1  0.499860  0.499939  0.998943  1
  Pt  Pt13  1  0.999751  0.499982  0.999722  1
  Pt  Pt14  1  0.831027  0.170455  0.249671  1
  Rh  Rh15  1  0.500524  0.000383  0.500359  1
