# generated using pymatgen
data_Sr2Li(ZnAu3)2
_symmetry_space_group_name_H-M   'P 1'
_cell_length_a   8.89148809
_cell_length_b   8.93071242
_cell_length_c   8.93071147
_cell_angle_alpha   57.24658157
_cell_angle_beta   57.10482299
_cell_angle_gamma   57.10482233
_symmetry_Int_Tables_number   1
_chemical_formula_structural   Sr2Li(ZnAu3)2
_chemical_formula_sum   'Sr4 Li2 Zn4 Au12'
_cell_volume   468.54862371
_cell_formula_units_Z   2
loop_
 _symmetry_equiv_pos_site_id
 _symmetry_equiv_pos_as_xyz
  1  'x, y, z'
loop_
 _atom_site_type_symbol
 _atom_site_label
 _atom_site_symmetry_multiplicity
 _atom_site_fract_x
 _atom_site_fract_y
 _atom_site_fract_z
 _atom_site_occupancy
  Sr  Sr0  1  0.908264  0.907163  0.906557  1
  Sr  Sr1  1  0.406935  0.407524  0.406332  1
  Sr  Sr2  1  0.093065  0.093668  0.092476  1
  Sr  Sr3  1  0.591736  0.593443  0.592837  1
  Li  Li4  1  0.556116  0.749705  0.944133  1
  Li  Li5  1  0.943884  0.555867  0.750295  1
  Zn  Zn6  1  0.750000  0.942557  0.557443  1
  Zn  Zn7  1  0.440110  0.249419  0.059263  1
  Zn  Zn8  1  0.059890  0.440737  0.250581  1
  Zn  Zn9  1  0.250000  0.060076  0.439924  1
  Au  Au10  1  0.483417  0.861681  0.203525  1
  Au  Au11  1  0.203462  0.482377  0.862022  1
  Au  Au12  1  0.864111  0.205044  0.479835  1
  Au  Au13  1  0.706389  0.367548  0.978571  1
  Au  Au14  1  0.979816  0.704145  0.366888  1
  Au  Au15  1  0.365626  0.977613  0.707726  1
  Au  Au16  1  0.520184  0.133112  0.795855  1
  Au  Au17  1  0.793611  0.521429  0.132452  1
  Au  Au18  1  0.134374  0.792274  0.522387  1
  Au  Au19  1  0.296538  0.637978  0.017623  1
  Au  Au20  1  0.016583  0.296475  0.638319  1
  Au  Au21  1  0.635889  0.020165  0.294956  1
