# generated using pymatgen
data_ErLu7(Si3Pt)4
_symmetry_space_group_name_H-M   'P 1'
_cell_length_a   8.11538300
_cell_length_b   8.11527470
_cell_length_c   7.72314600
_cell_angle_alpha   90.00000000
_cell_angle_beta   90.00000000
_cell_angle_gamma   120.00033956
_symmetry_Int_Tables_number   1
_chemical_formula_structural   ErLu7(Si3Pt)4
_chemical_formula_sum   'Er1 Lu7 Si12 Pt4'
_cell_volume   440.48957710
_cell_formula_units_Z   1
loop_
 _symmetry_equiv_pos_site_id
 _symmetry_equiv_pos_as_xyz
  1  'x, y, z'
loop_
 _atom_site_type_symbol
 _atom_site_label
 _atom_site_symmetry_multiplicity
 _atom_site_fract_x
 _atom_site_fract_y
 _atom_site_fract_z
 _atom_site_occupancy
  Er  Er0  1  0.000044  0.999996  0.250000  1
  Lu  Lu1  1  0.977022  0.488559  0.250000  1
  Lu  Lu2  1  0.511499  0.488520  0.250000  1
  Lu  Lu3  1  0.488521  0.977013  0.750000  1
  Lu  Lu4  1  0.023048  0.511525  0.750000  1
  Lu  Lu5  1  0.488495  0.511552  0.750000  1
  Lu  Lu6  1  0.511452  0.023031  0.250000  1
  Lu  Lu7  1  0.999991  0.999949  0.750000  1
  Si  Si8  1  0.165174  0.834824  0.499225  1
  Si  Si9  1  0.165098  0.330243  0.499225  1
  Si  Si10  1  0.669791  0.834918  0.499218  1
  Si  Si11  1  0.329979  0.164992  0.996995  1
  Si  Si12  1  0.834983  0.669925  0.502990  1
  Si  Si13  1  0.834948  0.165090  0.997008  1
  Si  Si14  1  0.834983  0.669925  0.997010  1
  Si  Si15  1  0.165098  0.330243  0.000775  1
  Si  Si16  1  0.669791  0.834918  0.000782  1
  Si  Si17  1  0.329979  0.164992  0.503005  1
  Si  Si18  1  0.834948  0.165090  0.502992  1
  Si  Si19  1  0.165174  0.834824  0.000775  1
  Pt  Pt20  1  0.333421  0.666637  0.038947  1
  Pt  Pt21  1  0.666570  0.333299  0.961632  1
  Pt  Pt22  1  0.666570  0.333299  0.538368  1
  Pt  Pt23  1  0.333421  0.666637  0.461053  1
