# generated using pymatgen
data_Tb5Y3Hf11Si16Tc
_symmetry_space_group_name_H-M   'P 1'
_cell_length_a   7.25624041
_cell_length_b   7.25599028
_cell_length_c   13.29643500
_cell_angle_alpha   89.95270603
_cell_angle_beta   90.04693388
_cell_angle_gamma   90.03422073
_symmetry_Int_Tables_number   1
_chemical_formula_structural   Tb5Y3Hf11Si16Tc
_chemical_formula_sum   'Tb5 Y3 Hf11 Si16 Tc1'
_cell_volume   700.07279280
_cell_formula_units_Z   1
loop_
 _symmetry_equiv_pos_site_id
 _symmetry_equiv_pos_as_xyz
  1  'x, y, z'
loop_
 _atom_site_type_symbol
 _atom_site_label
 _atom_site_symmetry_multiplicity
 _atom_site_fract_x
 _atom_site_fract_y
 _atom_site_fract_z
 _atom_site_occupancy
  Tb  Tb0  1  0.501184  0.845560  0.033692  1
  Tb  Tb1  1  0.845560  0.501176  0.966316  1
  Tb  Tb2  1  0.495368  0.156582  0.534495  1
  Tb  Tb3  1  0.342520  0.999018  0.787737  1
  Tb  Tb4  1  0.656122  0.004316  0.283086  1
  Y  Y5  1  0.999029  0.342551  0.212269  1
  Y  Y6  1  0.004330  0.656096  0.716906  1
  Y  Y7  1  0.156547  0.495419  0.465487  1
  Hf  Hf8  1  0.825288  0.825291  0.499980  1
  Hf  Hf9  1  0.324344  0.674484  0.248664  1
  Hf  Hf10  1  0.674478  0.324341  0.751325  1
  Hf  Hf11  1  0.148606  0.997041  0.373228  1
  Hf  Hf12  1  0.853169  0.005012  0.877542  1
  Hf  Hf13  1  0.503636  0.648174  0.625040  1
  Hf  Hf14  1  0.349718  0.493944  0.877178  1
  Hf  Hf15  1  0.493893  0.349747  0.122834  1
  Hf  Hf16  1  0.648168  0.503635  0.374986  1
  Hf  Hf17  1  0.997125  0.148551  0.626799  1
  Hf  Hf18  1  0.004986  0.853194  0.122478  1
  Si  Si19  1  0.362136  0.294990  0.316106  1
  Si  Si20  1  0.636979  0.705118  0.817975  1
  Si  Si21  1  0.205318  0.862564  0.567339  1
  Si  Si22  1  0.136654  0.795538  0.932548  1
  Si  Si23  1  0.795599  0.136670  0.067467  1
  Si  Si24  1  0.862579  0.205344  0.432671  1
  Si  Si25  1  0.294930  0.362180  0.683899  1
  Si  Si26  1  0.705121  0.636927  0.182007  1
  Si  Si27  1  0.293743  0.052400  0.182030  1
  Si  Si28  1  0.704222  0.951629  0.685799  1
  Si  Si29  1  0.450284  0.795915  0.435017  1
  Si  Si30  1  0.205207  0.547808  0.064497  1
  Si  Si31  1  0.547851  0.205218  0.935502  1
  Si  Si32  1  0.795958  0.450312  0.564952  1
  Si  Si33  1  0.052392  0.293785  0.817953  1
  Si  Si34  1  0.951678  0.704198  0.314189  1
  Tc  Tc35  1  0.175279  0.175273  0.000007  1
