# generated using pymatgen
data_Y4Er4B24Ru3W
_symmetry_space_group_name_H-M   'P 1'
_cell_length_a   3.63839700
_cell_length_b   9.15892778
_cell_length_c   11.55954200
_cell_angle_alpha   89.85554680
_cell_angle_beta   90.00000000
_cell_angle_gamma   90.00000000
_symmetry_Int_Tables_number   1
_chemical_formula_structural   Y4Er4B24Ru3W
_chemical_formula_sum   'Y4 Er4 B24 Ru3 W1'
_cell_volume   385.20681885
_cell_formula_units_Z   1
loop_
 _symmetry_equiv_pos_site_id
 _symmetry_equiv_pos_as_xyz
  1  'x, y, z'
loop_
 _atom_site_type_symbol
 _atom_site_label
 _atom_site_symmetry_multiplicity
 _atom_site_fract_x
 _atom_site_fract_y
 _atom_site_fract_z
 _atom_site_occupancy
  Y  Y0  1  0.000000  0.321260  0.413696  1
  Y  Y1  1  0.000000  0.677970  0.585409  1
  Y  Y2  1  0.000000  0.820402  0.086781  1
  Y  Y3  1  0.000000  0.176853  0.914611  1
  Er  Er4  1  0.000000  0.946316  0.373145  1
  Er  Er5  1  0.000000  0.057725  0.629007  1
  Er  Er6  1  0.000000  0.442367  0.125920  1
  Er  Er7  1  0.000000  0.556841  0.870822  1
  B  B8  1  0.500000  0.550260  0.436317  1
  B  B9  1  0.500000  0.445537  0.568928  1
  B  B10  1  0.500000  0.054139  0.067117  1
  B  B11  1  0.500000  0.945842  0.932756  1
  B  B12  1  0.500000  0.752484  0.422085  1
  B  B13  1  0.500000  0.251519  0.581796  1
  B  B14  1  0.500000  0.248334  0.080212  1
  B  B15  1  0.500000  0.751179  0.918563  1
  B  B16  1  0.500000  0.795884  0.264220  1
  B  B17  1  0.500000  0.208696  0.734289  1
  B  B18  1  0.500000  0.290451  0.232181  1
  B  B19  1  0.500000  0.709519  0.766023  1
  B  B20  1  0.500000  0.631655  0.181971  1
  B  B21  1  0.500000  0.368196  0.815007  1
  B  B22  1  0.500000  0.131636  0.314027  1
  B  B23  1  0.500000  0.869680  0.685625  1
  B  B24  1  0.500000  0.984281  0.212825  1
  B  B25  1  0.500000  0.016708  0.787991  1
  B  B26  1  0.500000  0.477223  0.285928  1
  B  B27  1  0.500000  0.515975  0.713340  1
  B  B28  1  0.500000  0.605539  0.027255  1
  B  B29  1  0.500000  0.393103  0.969557  1
  B  B30  1  0.500000  0.107091  0.471488  1
  B  B31  1  0.500000  0.896902  0.530570  1
  Ru  Ru32  1  0.000000  0.360872  0.680874  1
  Ru  Ru33  1  0.000000  0.137983  0.178433  1
  Ru  Ru34  1  0.000000  0.861731  0.820158  1
  W  W35  1  0.000000  0.637849  0.321077  1
