# generated using pymatgen
data_NaCl11
_symmetry_space_group_name_H-M   'P 1'
_cell_length_a   7.08989018
_cell_length_b   10.31803954
_cell_length_c   7.08043285
_cell_angle_alpha   94.94647941
_cell_angle_beta   104.82249208
_cell_angle_gamma   120.60230903
_symmetry_Int_Tables_number   1
_chemical_formula_structural   NaCl11
_chemical_formula_sum   'Na1 Cl11'
_cell_volume   416.14533248
_cell_formula_units_Z   1
loop_
 _symmetry_equiv_pos_site_id
 _symmetry_equiv_pos_as_xyz
  1  'x, y, z'
loop_
 _atom_site_type_symbol
 _atom_site_label
 _atom_site_symmetry_multiplicity
 _atom_site_fract_x
 _atom_site_fract_y
 _atom_site_fract_z
 _atom_site_occupancy
  Na  Na0  1  0.000000  0.500000  0.500000  1
  Cl  Cl1  1  0.000000  0.000000  0.000000  1
  Cl  Cl2  1  0.647247  0.813784  0.011984  1
  Cl  Cl3  1  0.620564  0.186463  0.270743  1
  Cl  Cl4  1  0.039980  0.586747  0.117253  1
  Cl  Cl5  1  0.877080  0.190491  0.533862  1
  Cl  Cl6  1  0.659455  0.587782  0.500441  1
  Cl  Cl7  1  0.340546  0.412218  0.499560  1
  Cl  Cl8  1  0.122920  0.809509  0.466138  1
  Cl  Cl9  1  0.960020  0.413254  0.882747  1
  Cl  Cl10  1  0.379436  0.813536  0.729257  1
  Cl  Cl11  1  0.352752  0.186215  0.988016  1
