# generated using pymatgen
data_Ho4Tm5Lu11Bi12
_symmetry_space_group_name_H-M   'P 1'
_cell_length_a   8.16350007
_cell_length_b   9.39253606
_cell_length_c   11.87153317
_cell_angle_alpha   89.98732354
_cell_angle_beta   89.98562911
_cell_angle_gamma   89.99704908
_symmetry_Int_Tables_number   1
_chemical_formula_structural   Ho4Tm5Lu11Bi12
_chemical_formula_sum   'Ho4 Tm5 Lu11 Bi12'
_cell_volume   910.26125404
_cell_formula_units_Z   1
loop_
 _symmetry_equiv_pos_site_id
 _symmetry_equiv_pos_as_xyz
  1  'x, y, z'
loop_
 _atom_site_type_symbol
 _atom_site_label
 _atom_site_symmetry_multiplicity
 _atom_site_fract_x
 _atom_site_fract_y
 _atom_site_fract_z
 _atom_site_occupancy
  Ho  Ho0  1  0.313817  0.249992  0.217647  1
  Ho  Ho1  1  0.813793  0.249993  0.282296  1
  Ho  Ho2  1  0.686181  0.750025  0.782292  1
  Ho  Ho3  1  0.186235  0.750013  0.717666  1
  Tm  Tm4  1  0.353191  0.750048  0.217936  1
  Tm  Tm5  1  0.853303  0.750080  0.282143  1
  Tm  Tm6  1  0.646784  0.250028  0.782132  1
  Tm  Tm7  1  0.146792  0.250003  0.717903  1
  Tm  Tm8  1  0.692425  0.566645  0.059813  1
  Lu  Lu9  1  0.192481  0.933132  0.440157  1
  Lu  Lu10  1  0.307523  0.066886  0.940222  1
  Lu  Lu11  1  0.807541  0.433098  0.559798  1
  Lu  Lu12  1  0.307537  0.433070  0.940189  1
  Lu  Lu13  1  0.807508  0.066886  0.559815  1
  Lu  Lu14  1  0.692428  0.933235  0.059834  1
  Lu  Lu15  1  0.192436  0.566891  0.440214  1
  Lu  Lu16  1  0.477194  0.250042  0.489540  1
  Lu  Lu17  1  0.977287  0.249966  0.010466  1
  Lu  Lu18  1  0.522824  0.750005  0.510468  1
  Lu  Lu19  1  0.022969  0.750061  0.989492  1
  Bi  Bi20  1  0.403282  0.750113  0.958543  1
  Bi  Bi21  1  0.903395  0.749979  0.541417  1
  Bi  Bi22  1  0.596506  0.249694  0.041382  1
  Bi  Bi23  1  0.096632  0.250002  0.458584  1
  Bi  Bi24  1  0.566148  0.995337  0.325998  1
  Bi  Bi25  1  0.066200  0.504674  0.174043  1
  Bi  Bi26  1  0.433815  0.495327  0.673977  1
  Bi  Bi27  1  0.933851  0.004685  0.825982  1
  Bi  Bi28  1  0.433804  0.004680  0.674019  1
  Bi  Bi29  1  0.933804  0.495363  0.825959  1
  Bi  Bi30  1  0.566136  0.504688  0.326033  1
  Bi  Bi31  1  0.066181  0.995357  0.174041  1
