# generated using pymatgen
data_Ca2Er4Al17Si7Os8
_symmetry_space_group_name_H-M   'P 1'
_cell_length_a   8.69131181
_cell_length_b   8.67257106
_cell_length_c   9.53472300
_cell_angle_alpha   90.00000000
_cell_angle_beta   90.00000000
_cell_angle_gamma   120.26835711
_symmetry_Int_Tables_number   1
_chemical_formula_structural   Ca2Er4Al17Si7Os8
_chemical_formula_sum   'Ca2 Er4 Al17 Si7 Os8'
_cell_volume   620.71344470
_cell_formula_units_Z   1
loop_
 _symmetry_equiv_pos_site_id
 _symmetry_equiv_pos_as_xyz
  1  'x, y, z'
loop_
 _atom_site_type_symbol
 _atom_site_label
 _atom_site_symmetry_multiplicity
 _atom_site_fract_x
 _atom_site_fract_y
 _atom_site_fract_z
 _atom_site_occupancy
  Ca  Ca0  1  0.806145  0.612796  0.750000  1
  Ca  Ca1  1  0.388754  0.192329  0.750000  1
  Er  Er2  1  0.194345  0.391269  0.250000  1
  Er  Er3  1  0.607791  0.805636  0.250000  1
  Er  Er4  1  0.196852  0.804022  0.250000  1
  Er  Er5  1  0.801277  0.191291  0.750000  1
  Al  Al6  1  0.164987  0.331754  0.578615  1
  Al  Al7  1  0.833944  0.669375  0.421541  1
  Al  Al8  1  0.669934  0.834833  0.578318  1
  Al  Al9  1  0.833944  0.669375  0.078459  1
  Al  Al10  1  0.331479  0.165897  0.422875  1
  Al  Al11  1  0.164987  0.331754  0.921385  1
  Al  Al12  1  0.164831  0.834084  0.575915  1
  Al  Al13  1  0.331479  0.165897  0.077125  1
  Al  Al14  1  0.834625  0.164259  0.421292  1
  Al  Al15  1  0.669934  0.834833  0.921682  1
  Al  Al16  1  0.834625  0.164259  0.078708  1
  Al  Al17  1  0.164831  0.834084  0.924085  1
  Al  Al18  1  0.125535  0.565926  0.750000  1
  Al  Al19  1  0.564692  0.434579  0.250000  1
  Al  Al20  1  0.439501  0.565548  0.750000  1
  Al  Al21  1  0.999502  0.998929  0.250000  1
  Al  Al22  1  0.998922  0.000793  0.750000  1
  Si  Si23  1  0.333259  0.664922  0.040808  1
  Si  Si24  1  0.666438  0.336018  0.960098  1
  Si  Si25  1  0.666438  0.336018  0.539902  1
  Si  Si26  1  0.333259  0.664922  0.459192  1
  Si  Si27  1  0.564732  0.124938  0.250000  1
  Si  Si28  1  0.435314  0.871884  0.750000  1
  Si  Si29  1  0.873956  0.434536  0.250000  1
  Os  Os30  1  0.501341  0.999529  0.003689  1
  Os  Os31  1  0.000057  0.499361  0.009009  1
  Os  Os32  1  0.501341  0.999529  0.496311  1
  Os  Os33  1  0.499490  0.501635  0.003861  1
  Os  Os34  1  0.000057  0.499361  0.490991  1
  Os  Os35  1  0.499490  0.501635  0.496139  1
  Os  Os36  1  0.000955  0.001098  0.000174  1
  Os  Os37  1  0.000955  0.001098  0.499826  1
