# generated using pymatgen
data_Ho17Lu3(Ir3Rh)3
_symmetry_space_group_name_H-M   'P 1'
_cell_length_a   10.81333304
_cell_length_b   10.81348804
_cell_length_c   6.34809500
_cell_angle_alpha   90.00000000
_cell_angle_beta   90.00000000
_cell_angle_gamma   90.00945268
_symmetry_Int_Tables_number   1
_chemical_formula_structural   Ho17Lu3(Ir3Rh)3
_chemical_formula_sum   'Ho17 Lu3 Ir9 Rh3'
_cell_volume   742.28176973
_cell_formula_units_Z   1
loop_
 _symmetry_equiv_pos_site_id
 _symmetry_equiv_pos_as_xyz
  1  'x, y, z'
loop_
 _atom_site_type_symbol
 _atom_site_label
 _atom_site_symmetry_multiplicity
 _atom_site_fract_x
 _atom_site_fract_y
 _atom_site_fract_z
 _atom_site_occupancy
  Ho  Ho0  1  0.289790  0.088122  0.378989  1
  Ho  Ho1  1  0.289727  0.911502  0.878772  1
  Ho  Ho2  1  0.710273  0.088498  0.878772  1
  Ho  Ho3  1  0.710210  0.911878  0.378989  1
  Ho  Ho4  1  0.588547  0.789966  0.878853  1
  Ho  Ho5  1  0.588361  0.209617  0.378845  1
  Ho  Ho6  1  0.411639  0.790383  0.378845  1
  Ho  Ho7  1  0.411453  0.210034  0.878853  1
  Ho  Ho8  1  0.208990  0.411614  0.620201  1
  Ho  Ho9  1  0.209637  0.588480  0.122251  1
  Ho  Ho10  1  0.790363  0.411520  0.122251  1
  Ho  Ho11  1  0.791010  0.588386  0.620201  1
  Ho  Ho12  1  0.911563  0.709852  0.122327  1
  Ho  Ho13  1  0.911861  0.290449  0.620030  1
  Ho  Ho14  1  0.088139  0.709551  0.620030  1
  Ho  Ho15  1  0.088437  0.290148  0.122327  1
  Ho  Ho16  1  0.500000  0.500000  0.500287  1
  Lu  Lu17  1  0.000000  0.000000  0.500274  1
  Lu  Lu18  1  0.000000  0.000000  0.000128  1
  Lu  Lu19  1  0.500000  0.500000  0.000117  1
  Ir  Ir20  1  0.847332  0.151453  0.249869  1
  Ir  Ir21  1  0.847614  0.848118  0.749903  1
  Ir  Ir22  1  0.152386  0.151882  0.749903  1
  Ir  Ir23  1  0.152668  0.848547  0.249869  1
  Ir  Ir24  1  0.652857  0.346503  0.751394  1
  Ir  Ir25  1  0.652545  0.653626  0.248358  1
  Ir  Ir26  1  0.347455  0.346374  0.248358  1
  Ir  Ir27  1  0.347143  0.653497  0.751394  1
  Ir  Ir28  1  0.000000  0.500000  0.376388  1
  Rh  Rh29  1  0.500000  0.000000  0.122810  1
  Rh  Rh30  1  0.500000  0.000000  0.623010  1
  Rh  Rh31  1  0.000000  0.500000  0.877407  1
