# generated using pymatgen
data_Tb5Dy(GaCo2)8
_symmetry_space_group_name_H-M   'P 1'
_cell_length_a   7.25420000
_cell_length_b   8.49860317
_cell_length_c   8.49421503
_cell_angle_alpha   119.99169722
_cell_angle_beta   89.99669792
_cell_angle_gamma   89.99938906
_symmetry_Int_Tables_number   1
_chemical_formula_structural   Tb5Dy(GaCo2)8
_chemical_formula_sum   'Tb5 Dy1 Ga8 Co16'
_cell_volume   453.55220915
_cell_formula_units_Z   1
loop_
 _symmetry_equiv_pos_site_id
 _symmetry_equiv_pos_as_xyz
  1  'x, y, z'
loop_
 _atom_site_type_symbol
 _atom_site_label
 _atom_site_symmetry_multiplicity
 _atom_site_fract_x
 _atom_site_fract_y
 _atom_site_fract_z
 _atom_site_occupancy
  Tb  Tb0  1  0.784770  0.474872  0.949786  1
  Tb  Tb1  1  0.784789  0.474906  0.525058  1
  Tb  Tb2  1  0.284714  0.525385  0.050702  1
  Tb  Tb3  1  0.784697  0.050303  0.525147  1
  Tb  Tb4  1  0.284727  0.525352  0.474673  1
  Dy  Dy5  1  0.284802  0.950173  0.475063  1
  Ga  Ga6  1  0.962922  0.666900  0.333426  1
  Ga  Ga7  1  0.462719  0.333147  0.666572  1
  Ga  Ga8  1  0.574256  0.830511  0.660449  1
  Ga  Ga9  1  0.574277  0.830501  0.170033  1
  Ga  Ga10  1  0.074712  0.169455  0.339375  1
  Ga  Ga11  1  0.574461  0.339185  0.169561  1
  Ga  Ga12  1  0.074747  0.169490  0.830101  1
  Ga  Ga13  1  0.074622  0.660611  0.830344  1
  Co  Co14  1  0.621680  0.666658  0.333318  1
  Co  Co15  1  0.122128  0.333141  0.666570  1
  Co  Co16  1  0.754576  0.101728  0.203410  1
  Co  Co17  1  0.754608  0.101688  0.898328  1
  Co  Co18  1  0.254610  0.898254  0.796417  1
  Co  Co19  1  0.754602  0.796722  0.898351  1
  Co  Co20  1  0.254623  0.898272  0.101891  1
  Co  Co21  1  0.254666  0.203342  0.101692  1
  Co  Co22  1  0.945775  0.836698  0.673272  1
  Co  Co23  1  0.945718  0.836700  0.163422  1
  Co  Co24  1  0.445471  0.163023  0.326755  1
  Co  Co25  1  0.945831  0.326582  0.163294  1
  Co  Co26  1  0.445438  0.163011  0.836260  1
  Co  Co27  1  0.445732  0.673305  0.836659  1
  Co  Co28  1  0.001898  0.000139  0.000094  1
  Co  Co29  1  0.501626  0.999947  0.999978  1
