# generated using pymatgen
data_Dy20Ir7Pt5
_symmetry_space_group_name_H-M   'P 1'
_cell_length_a   11.01769638
_cell_length_b   11.01769638
_cell_length_c   6.34216102
_cell_angle_alpha   90.00617670
_cell_angle_beta   90.00617670
_cell_angle_gamma   89.80251157
_symmetry_Int_Tables_number   1
_chemical_formula_structural   Dy20Ir7Pt5
_chemical_formula_sum   'Dy20 Ir7 Pt5'
_cell_volume   769.86801931
_cell_formula_units_Z   1
loop_
 _symmetry_equiv_pos_site_id
 _symmetry_equiv_pos_as_xyz
  1  'x, y, z'
loop_
 _atom_site_type_symbol
 _atom_site_label
 _atom_site_symmetry_multiplicity
 _atom_site_fract_x
 _atom_site_fract_y
 _atom_site_fract_z
 _atom_site_occupancy
  Dy  Dy0  1  0.295513  0.090613  0.374008  1
  Dy  Dy1  1  0.295654  0.909313  0.873152  1
  Dy  Dy2  1  0.704452  0.086735  0.873435  1
  Dy  Dy3  1  0.704371  0.908758  0.373454  1
  Dy  Dy4  1  0.586423  0.790227  0.878554  1
  Dy  Dy5  1  0.584605  0.206720  0.374664  1
  Dy  Dy6  1  0.413767  0.791494  0.378090  1
  Dy  Dy7  1  0.410600  0.207583  0.879970  1
  Dy  Dy8  1  0.209773  0.413577  0.621446  1
  Dy  Dy9  1  0.208506  0.586233  0.121910  1
  Dy  Dy10  1  0.793280  0.415395  0.125336  1
  Dy  Dy11  1  0.792417  0.589400  0.620030  1
  Dy  Dy12  1  0.909387  0.704487  0.125992  1
  Dy  Dy13  1  0.913265  0.295548  0.626565  1
  Dy  Dy14  1  0.090687  0.704346  0.626848  1
  Dy  Dy15  1  0.091242  0.295629  0.126546  1
  Dy  Dy16  1  0.999811  0.999863  0.499658  1
  Dy  Dy17  1  0.000137  0.000189  0.000342  1
  Dy  Dy18  1  0.498363  0.501109  0.000580  1
  Dy  Dy19  1  0.498891  0.501637  0.499420  1
  Ir  Ir20  1  0.654048  0.653491  0.250120  1
  Ir  Ir21  1  0.346509  0.345952  0.249880  1
  Ir  Ir22  1  0.344925  0.655075  0.750000  1
  Ir  Ir23  1  0.500262  0.000267  0.122730  1
  Ir  Ir24  1  0.500189  0.000501  0.624030  1
  Ir  Ir25  1  0.999499  0.499811  0.875970  1
  Ir  Ir26  1  0.999733  0.499738  0.377270  1
  Pt  Pt27  1  0.845617  0.154383  0.250000  1
  Pt  Pt28  1  0.846352  0.847142  0.750446  1
  Pt  Pt29  1  0.152858  0.153648  0.749554  1
  Pt  Pt30  1  0.153765  0.846235  0.250000  1
  Pt  Pt31  1  0.655097  0.344903  0.750000  1
