# generated using pymatgen
data_YP6Pd20PbAu
_symmetry_space_group_name_H-M   'P 1'
_cell_length_a   8.65878381
_cell_length_b   8.65874795
_cell_length_c   8.65848703
_cell_angle_alpha   59.99959796
_cell_angle_beta   59.99899769
_cell_angle_gamma   60.00166987
_symmetry_Int_Tables_number   1
_chemical_formula_structural   YP6Pd20PbAu
_chemical_formula_sum   'Y1 P6 Pd20 Pb1 Au1'
_cell_volume   459.02874043
_cell_formula_units_Z   1
loop_
 _symmetry_equiv_pos_site_id
 _symmetry_equiv_pos_as_xyz
  1  'x, y, z'
loop_
 _atom_site_type_symbol
 _atom_site_label
 _atom_site_symmetry_multiplicity
 _atom_site_fract_x
 _atom_site_fract_y
 _atom_site_fract_z
 _atom_site_occupancy
  Y  Y0  1  0.750001  0.750000  0.749980  1
  P  P1  1  0.736142  0.263857  0.263858  1
  P  P2  1  0.263862  0.736146  0.736136  1
  P  P3  1  0.263870  0.736141  0.263855  1
  P  P4  1  0.736132  0.263866  0.736140  1
  P  P5  1  0.263854  0.263844  0.736154  1
  P  P6  1  0.736147  0.736159  0.263844  1
  Pd  Pd7  1  0.383936  0.383950  0.383941  1
  Pd  Pd8  1  0.614258  0.614267  0.614242  1
  Pd  Pd9  1  0.383922  0.383922  0.848228  1
  Pd  Pd10  1  0.383927  0.848219  0.383922  1
  Pd  Pd11  1  0.614279  0.614270  0.157191  1
  Pd  Pd12  1  0.614273  0.157211  0.614252  1
  Pd  Pd13  1  0.848226  0.383927  0.383923  1
  Pd  Pd14  1  0.157216  0.614272  0.614258  1
  Pd  Pd15  1  0.346525  0.996960  0.996968  1
  Pd  Pd16  1  0.659559  0.996962  0.996946  1
  Pd  Pd17  1  0.996961  0.346536  0.659532  1
  Pd  Pd18  1  0.996963  0.659537  0.346540  1
  Pd  Pd19  1  0.996944  0.346540  0.996951  1
  Pd  Pd20  1  0.659567  0.996948  0.346539  1
  Pd  Pd21  1  0.996948  0.659565  0.996939  1
  Pd  Pd22  1  0.346529  0.996955  0.659557  1
  Pd  Pd23  1  0.996952  0.996952  0.346546  1
  Pd  Pd24  1  0.996962  0.996967  0.659537  1
  Pd  Pd25  1  0.659543  0.346530  0.996962  1
  Pd  Pd26  1  0.346521  0.659533  0.996969  1
  Pb  Pb27  1  0.249974  0.249969  0.250092  1
  Au  Au28  1  0.000003  0.999995  0.000000  1
