# generated using pymatgen
data_EuY6CoI12
_symmetry_space_group_name_H-M   'P 1'
_cell_length_a   9.83174881
_cell_length_b   9.83174815
_cell_length_c   9.83174797
_cell_angle_alpha   106.73700404
_cell_angle_beta   106.73699440
_cell_angle_gamma   106.73700043
_symmetry_Int_Tables_number   1
_chemical_formula_structural   EuY6CoI12
_chemical_formula_sum   'Eu1 Y6 Co1 I12'
_cell_volume   797.08655554
_cell_formula_units_Z   1
loop_
 _symmetry_equiv_pos_site_id
 _symmetry_equiv_pos_as_xyz
  1  'x, y, z'
loop_
 _atom_site_type_symbol
 _atom_site_label
 _atom_site_symmetry_multiplicity
 _atom_site_fract_x
 _atom_site_fract_y
 _atom_site_fract_z
 _atom_site_occupancy
  Eu  Eu0  1  0.500000  0.500000  0.500000  1
  Y  Y1  1  0.909099  0.979958  0.710886  1
  Y  Y2  1  0.710886  0.909099  0.979958  1
  Y  Y3  1  0.979958  0.710886  0.909099  1
  Y  Y4  1  0.090901  0.020042  0.289114  1
  Y  Y5  1  0.289114  0.090901  0.020042  1
  Y  Y6  1  0.020042  0.289114  0.090901  1
  Co  Co7  1  0.000000  0.000000  0.000000  1
  I  I8  1  0.925854  0.321085  0.776808  1
  I  I9  1  0.776808  0.925854  0.321085  1
  I  I10  1  0.321085  0.776808  0.925854  1
  I  I11  1  0.074146  0.678915  0.223192  1
  I  I12  1  0.223192  0.074146  0.678915  1
  I  I13  1  0.678915  0.223192  0.074146  1
  I  I14  1  0.550202  0.860385  0.628807  1
  I  I15  1  0.628807  0.550202  0.860385  1
  I  I16  1  0.860385  0.628807  0.550202  1
  I  I17  1  0.449798  0.139615  0.371193  1
  I  I18  1  0.371193  0.449798  0.139615  1
  I  I19  1  0.139615  0.371193  0.449798  1
