# generated using pymatgen
data_DyHo4Pd14Au
_symmetry_space_group_name_H-M   'P 1'
_cell_length_a   4.12926800
_cell_length_b   4.08976100
_cell_length_c   20.56731900
_cell_angle_alpha   90.00000000
_cell_angle_beta   90.00000000
_cell_angle_gamma   90.00000000
_symmetry_Int_Tables_number   1
_chemical_formula_structural   DyHo4Pd14Au
_chemical_formula_sum   'Dy1 Ho4 Pd14 Au1'
_cell_volume   347.33510848
_cell_formula_units_Z   1
loop_
 _symmetry_equiv_pos_site_id
 _symmetry_equiv_pos_as_xyz
  1  'x, y, z'
loop_
 _atom_site_type_symbol
 _atom_site_label
 _atom_site_symmetry_multiplicity
 _atom_site_fract_x
 _atom_site_fract_y
 _atom_site_fract_z
 _atom_site_occupancy
  Dy  Dy0  1  0.000000  0.000000  0.000000  1
  Ho  Ho1  1  0.000000  0.000000  0.198308  1
  Ho  Ho2  1  0.000000  0.000000  0.395165  1
  Ho  Ho3  1  0.000000  0.000000  0.604835  1
  Ho  Ho4  1  0.000000  0.000000  0.801692  1
  Pd  Pd5  1  0.500000  0.500000  0.000000  1
  Pd  Pd6  1  0.500000  0.500000  0.197792  1
  Pd  Pd7  1  0.500000  0.500000  0.398241  1
  Pd  Pd8  1  0.500000  0.500000  0.601759  1
  Pd  Pd9  1  0.500000  0.500000  0.802208  1
  Pd  Pd10  1  0.500000  0.000000  0.099357  1
  Pd  Pd11  1  0.500000  0.000000  0.297939  1
  Pd  Pd12  1  0.500000  0.000000  0.702061  1
  Pd  Pd13  1  0.500000  0.000000  0.900643  1
  Pd  Pd14  1  0.000000  0.500000  0.099447  1
  Pd  Pd15  1  0.000000  0.500000  0.297769  1
  Pd  Pd16  1  0.000000  0.500000  0.500000  1
  Pd  Pd17  1  0.000000  0.500000  0.702231  1
  Pd  Pd18  1  0.000000  0.500000  0.900553  1
  Au  Au19  1  0.500000  0.000000  0.500000  1
