# generated using pymatgen
data_Ta6MnB4Os4Ru5
_symmetry_space_group_name_H-M   'P 1'
_cell_length_a   9.37309998
_cell_length_b   9.45043327
_cell_length_c   3.02267300
_cell_angle_alpha   90.00000000
_cell_angle_beta   90.00000000
_cell_angle_gamma   90.23699187
_symmetry_Int_Tables_number   1
_chemical_formula_structural   Ta6MnB4Os4Ru5
_chemical_formula_sum   'Ta6 Mn1 B4 Os4 Ru5'
_cell_volume   267.74564852
_cell_formula_units_Z   1
loop_
 _symmetry_equiv_pos_site_id
 _symmetry_equiv_pos_as_xyz
  1  'x, y, z'
loop_
 _atom_site_type_symbol
 _atom_site_label
 _atom_site_symmetry_multiplicity
 _atom_site_fract_x
 _atom_site_fract_y
 _atom_site_fract_z
 _atom_site_occupancy
  Ta  Ta0  1  0.822642  0.678753  0.000000  1
  Ta  Ta1  1  0.177358  0.321247  0.000000  1
  Ta  Ta2  1  0.331320  0.831265  0.000000  1
  Ta  Ta3  1  0.668680  0.168735  0.000000  1
  Ta  Ta4  1  0.500000  0.500000  0.000000  1
  Ta  Ta5  1  0.000000  0.000000  0.000000  1
  Mn  Mn6  1  0.500000  0.000000  0.500000  1
  B  B7  1  0.611501  0.888408  0.000000  1
  B  B8  1  0.388499  0.111592  0.000000  1
  B  B9  1  0.122026  0.621623  0.000000  1
  B  B10  1  0.877974  0.378377  0.000000  1
  Os  Os11  1  0.569793  0.722823  0.500000  1
  Os  Os12  1  0.430207  0.277177  0.500000  1
  Os  Os13  1  0.072776  0.781304  0.500000  1
  Os  Os14  1  0.927224  0.218696  0.500000  1
  Ru  Ru15  1  0.282807  0.570844  0.500000  1
  Ru  Ru16  1  0.717193  0.429156  0.500000  1
  Ru  Ru17  1  0.220789  0.068589  0.500000  1
  Ru  Ru18  1  0.779211  0.931411  0.500000  1
  Ru  Ru19  1  0.000000  0.500000  0.500000  1
