# generated using pymatgen
data_Zr6Ta4Al12Fe7
_symmetry_space_group_name_H-M   'P 1'
_cell_length_a   8.63445196
_cell_length_b   8.63601051
_cell_length_c   8.63546403
_cell_angle_alpha   60.00892478
_cell_angle_beta   60.00330299
_cell_angle_gamma   60.00790271
_symmetry_Int_Tables_number   1
_chemical_formula_structural   Zr6Ta4Al12Fe7
_chemical_formula_sum   'Zr6 Ta4 Al12 Fe7'
_cell_volume   455.39125116
_cell_formula_units_Z   1
loop_
 _symmetry_equiv_pos_site_id
 _symmetry_equiv_pos_as_xyz
  1  'x, y, z'
loop_
 _atom_site_type_symbol
 _atom_site_label
 _atom_site_symmetry_multiplicity
 _atom_site_fract_x
 _atom_site_fract_y
 _atom_site_fract_z
 _atom_site_occupancy
  Zr  Zr0  1  0.698530  0.698606  0.301402  1
  Zr  Zr1  1  0.301442  0.698634  0.301381  1
  Zr  Zr2  1  0.698583  0.301421  0.301430  1
  Zr  Zr3  1  0.301448  0.301377  0.698624  1
  Zr  Zr4  1  0.698576  0.301362  0.698632  1
  Zr  Zr5  1  0.301455  0.698557  0.698537  1
  Ta  Ta6  1  0.880679  0.880710  0.357857  1
  Ta  Ta7  1  0.880798  0.357815  0.880687  1
  Ta  Ta8  1  0.357948  0.880815  0.880678  1
  Ta  Ta9  1  0.880569  0.880728  0.880761  1
  Al  Al10  1  0.120191  0.120189  0.639463  1
  Al  Al11  1  0.120099  0.639497  0.120226  1
  Al  Al12  1  0.639435  0.120065  0.120202  1
  Al  Al13  1  0.120288  0.120145  0.120157  1
  Al  Al14  1  0.663379  0.663747  0.009594  1
  Al  Al15  1  0.663353  0.009612  0.663649  1
  Al  Al16  1  0.009583  0.663505  0.663436  1
  Al  Al17  1  0.663495  0.663556  0.663350  1
  Al  Al18  1  0.333715  0.333371  0.999081  1
  Al  Al19  1  0.333793  0.999021  0.333474  1
  Al  Al20  1  0.999069  0.333633  0.333653  1
  Al  Al21  1  0.333633  0.333532  0.333756  1
  Fe  Fe22  1  0.000029  0.999945  0.999988  1
  Fe  Fe23  1  0.996178  0.996191  0.503833  1
  Fe  Fe24  1  0.503763  0.996233  0.503782  1
  Fe  Fe25  1  0.996221  0.503802  0.503761  1
  Fe  Fe26  1  0.503795  0.503840  0.996182  1
  Fe  Fe27  1  0.996189  0.503853  0.996189  1
  Fe  Fe28  1  0.503767  0.996236  0.996234  1
