# generated using pymatgen
data_Tb4Dy(NiTe)2
_symmetry_space_group_name_H-M   'P 1'
_cell_length_a   7.79246428
_cell_length_b   7.79246433
_cell_length_c   14.94845600
_cell_angle_alpha   90.00000000
_cell_angle_beta   90.00000000
_cell_angle_gamma   150.02810275
_symmetry_Int_Tables_number   1
_chemical_formula_structural   Tb4Dy(NiTe)2
_chemical_formula_sum   'Tb8 Dy2 Ni4 Te4'
_cell_volume   453.46818526
_cell_formula_units_Z   2
loop_
 _symmetry_equiv_pos_site_id
 _symmetry_equiv_pos_as_xyz
  1  'x, y, z'
loop_
 _atom_site_type_symbol
 _atom_site_label
 _atom_site_symmetry_multiplicity
 _atom_site_fract_x
 _atom_site_fract_y
 _atom_site_fract_z
 _atom_site_occupancy
  Tb  Tb0  1  0.959844  0.040156  0.124836  1
  Tb  Tb1  1  0.040156  0.959844  0.875164  1
  Tb  Tb2  1  0.040156  0.959844  0.624836  1
  Tb  Tb3  1  0.959844  0.040156  0.375164  1
  Tb  Tb4  1  0.741169  0.258831  0.627676  1
  Tb  Tb5  1  0.258831  0.741169  0.372324  1
  Tb  Tb6  1  0.258831  0.741169  0.127676  1
  Tb  Tb7  1  0.741169  0.258831  0.872324  1
  Dy  Dy8  1  0.605473  0.394527  0.250000  1
  Dy  Dy9  1  0.394527  0.605473  0.750000  1
  Ni  Ni10  1  0.411799  0.588201  0.250000  1
  Ni  Ni11  1  0.588201  0.411799  0.750000  1
  Ni  Ni12  1  0.813897  0.186103  0.250000  1
  Ni  Ni13  1  0.186103  0.813897  0.750000  1
  Te  Te14  1  0.614807  0.385193  0.040475  1
  Te  Te15  1  0.385193  0.614807  0.959525  1
  Te  Te16  1  0.385193  0.614807  0.540475  1
  Te  Te17  1  0.614807  0.385193  0.459525  1
