# generated using pymatgen
data_Sm2Ga9TcPt2
_symmetry_space_group_name_H-M   'P 1'
_cell_length_a   7.70770281
_cell_length_b   7.70770310
_cell_length_c   9.65550491
_cell_angle_alpha   89.76771516
_cell_angle_beta   89.76771152
_cell_angle_gamma   120.34496946
_symmetry_Int_Tables_number   1
_chemical_formula_structural   Sm2Ga9TcPt2
_chemical_formula_sum   'Sm4 Ga18 Tc2 Pt4'
_cell_volume   495.01794543
_cell_formula_units_Z   2
loop_
 _symmetry_equiv_pos_site_id
 _symmetry_equiv_pos_as_xyz
  1  'x, y, z'
loop_
 _atom_site_type_symbol
 _atom_site_label
 _atom_site_symmetry_multiplicity
 _atom_site_fract_x
 _atom_site_fract_y
 _atom_site_fract_z
 _atom_site_occupancy
  Sm  Sm0  1  0.995572  0.666841  0.251418  1
  Sm  Sm1  1  0.004428  0.333159  0.748582  1
  Sm  Sm2  1  0.666841  0.995572  0.251418  1
  Sm  Sm3  1  0.333159  0.004428  0.748582  1
  Ga  Ga4  1  0.133018  0.133018  0.249137  1
  Ga  Ga5  1  0.866982  0.866982  0.750863  1
  Ga  Ga6  1  0.000329  0.333261  0.081787  1
  Ga  Ga7  1  0.999672  0.666739  0.918213  1
  Ga  Ga8  1  0.998000  0.663442  0.577984  1
  Ga  Ga9  1  0.336558  0.002001  0.422016  1
  Ga  Ga10  1  0.002001  0.336558  0.422016  1
  Ga  Ga11  1  0.663442  0.997999  0.577984  1
  Ga  Ga12  1  0.666739  0.999671  0.918213  1
  Ga  Ga13  1  0.333261  0.000329  0.081787  1
  Ga  Ga14  1  0.339870  0.339870  0.559864  1
  Ga  Ga15  1  0.660130  0.660130  0.440136  1
  Ga  Ga16  1  0.664558  0.664558  0.070984  1
  Ga  Ga17  1  0.335442  0.335442  0.929016  1
  Ga  Ga18  1  0.336923  0.545073  0.254264  1
  Ga  Ga19  1  0.663077  0.454927  0.745736  1
  Ga  Ga20  1  0.545073  0.336923  0.254264  1
  Ga  Ga21  1  0.454927  0.663077  0.745736  1
  Tc  Tc22  1  0.326358  0.673642  0.500000  1
  Tc  Tc23  1  0.673642  0.326358  0.500000  1
  Pt  Pt24  1  0.670090  0.329910  0.000000  1
  Pt  Pt25  1  0.329910  0.670090  0.000000  1
  Pt  Pt26  1  0.000000  0.000000  0.000000  1
  Pt  Pt27  1  0.000000  0.000000  0.500000  1
