# generated using pymatgen
data_Sr3V4Si2Pb7O24
_symmetry_space_group_name_H-M   'P 1'
_cell_length_a   7.43076058
_cell_length_b   10.19334848
_cell_length_c   10.23518381
_cell_angle_alpha   60.88127379
_cell_angle_beta   89.74680851
_cell_angle_gamma   89.95108625
_symmetry_Int_Tables_number   1
_chemical_formula_structural   Sr3V4Si2Pb7O24
_chemical_formula_sum   'Sr3 V4 Si2 Pb7 O24'
_cell_volume   677.26755060
_cell_formula_units_Z   1
loop_
 _symmetry_equiv_pos_site_id
 _symmetry_equiv_pos_as_xyz
  1  'x, y, z'
loop_
 _atom_site_type_symbol
 _atom_site_label
 _atom_site_symmetry_multiplicity
 _atom_site_fract_x
 _atom_site_fract_y
 _atom_site_fract_z
 _atom_site_occupancy
  Sr  Sr0  1  0.756567  0.325447  0.338420  1
  Sr  Sr1  1  0.238116  0.666645  0.659193  1
  Sr  Sr2  1  0.761407  0.667288  0.660376  1
  V  V3  1  0.998450  0.599493  0.025395  1
  V  V4  1  0.500173  0.971719  0.629634  1
  V  V5  1  0.501482  0.624326  0.401482  1
  V  V6  1  0.500202  0.396230  0.975373  1
  Si  Si7  1  0.999255  0.020195  0.379744  1
  Si  Si8  1  0.997385  0.387077  0.586422  1
  Pb  Pb9  1  0.003165  0.230530  0.035774  1
  Pb  Pb10  1  0.000694  0.039354  0.725481  1
  Pb  Pb11  1  0.000607  0.736395  0.266975  1
  Pb  Pb12  1  0.498022  0.745017  0.992491  1
  Pb  Pb13  1  0.503218  0.004592  0.264420  1
  Pb  Pb14  1  0.511861  0.265423  0.734939  1
  Pb  Pb15  1  0.247327  0.323075  0.351634  1
  O  O16  1  0.820368  0.087558  0.268421  1
  O  O17  1  0.819635  0.271764  0.636085  1
  O  O18  1  0.810530  0.655674  0.086921  1
  O  O19  1  0.315169  0.911155  0.747369  1
  O  O20  1  0.313846  0.738503  0.351356  1
  O  O21  1  0.313602  0.339328  0.915966  1
  O  O22  1  0.684471  0.910344  0.746671  1
  O  O23  1  0.684262  0.744845  0.347736  1
  O  O24  1  0.682142  0.339814  0.908063  1
  O  O25  1  0.175431  0.084605  0.263881  1
  O  O26  1  0.175816  0.273720  0.628575  1
  O  O27  1  0.185544  0.657685  0.085606  1
  O  O28  1  0.999171  0.838949  0.485301  1
  O  O29  1  0.999840  0.502102  0.652263  1
  O  O30  1  0.999498  0.666918  0.835450  1
  O  O31  1  0.502235  0.165596  0.514570  1
  O  O32  1  0.504805  0.508019  0.322882  1
  O  O33  1  0.507246  0.312862  0.168832  1
  O  O34  1  0.000119  0.111613  0.478700  1
  O  O35  1  0.992361  0.481578  0.398415  1
  O  O36  1  0.993775  0.398933  0.122967  1
  O  O37  1  0.499437  0.875068  0.524301  1
  O  O38  1  0.502515  0.522682  0.601397  1
  O  O39  1  0.500249  0.597877  0.880521  1
