# generated using pymatgen
data_Y2LuMg3AgSn2
_symmetry_space_group_name_H-M   'P 1'
_cell_length_a   7.48491817
_cell_length_b   7.48491774
_cell_length_c   4.51133800
_cell_angle_alpha   90.00000000
_cell_angle_beta   90.00000000
_cell_angle_gamma   119.64874162
_symmetry_Int_Tables_number   1
_chemical_formula_structural   Y2LuMg3AgSn2
_chemical_formula_sum   'Y2 Lu1 Mg3 Ag1 Sn2'
_cell_volume   219.65263691
_cell_formula_units_Z   1
loop_
 _symmetry_equiv_pos_site_id
 _symmetry_equiv_pos_as_xyz
  1  'x, y, z'
loop_
 _atom_site_type_symbol
 _atom_site_label
 _atom_site_symmetry_multiplicity
 _atom_site_fract_x
 _atom_site_fract_y
 _atom_site_fract_z
 _atom_site_occupancy
  Y  Y0  1  0.998999  0.582245  0.500000  1
  Y  Y1  1  0.582245  0.998999  0.500000  1
  Lu  Lu2  1  0.415464  0.415464  0.500000  1
  Mg  Mg3  1  0.763205  0.763205  0.000000  1
  Mg  Mg4  1  0.236610  0.000639  0.000000  1
  Mg  Mg5  1  0.000639  0.236610  0.000000  1
  Ag  Ag6  1  0.003679  0.003679  0.500000  1
  Sn  Sn7  1  0.664412  0.334747  0.000000  1
  Sn  Sn8  1  0.334747  0.664412  0.000000  1
