# generated using pymatgen
data_BaDyIO6
_symmetry_space_group_name_H-M   'P 1'
_cell_length_a   5.67584600
_cell_length_b   5.67584479
_cell_length_c   5.64095100
_cell_angle_alpha   90.00000000
_cell_angle_beta   90.00000000
_cell_angle_gamma   119.99999542
_symmetry_Int_Tables_number   1
_chemical_formula_structural   BaDyIO6
_chemical_formula_sum   'Ba1 Dy1 I1 O6'
_cell_volume   157.37802578
_cell_formula_units_Z   1
loop_
 _symmetry_equiv_pos_site_id
 _symmetry_equiv_pos_as_xyz
  1  'x, y, z'
loop_
 _atom_site_type_symbol
 _atom_site_label
 _atom_site_symmetry_multiplicity
 _atom_site_fract_x
 _atom_site_fract_y
 _atom_site_fract_z
 _atom_site_occupancy
  Ba  Ba0  1  0.000000  0.000000  0.000000  1
  Dy  Dy1  1  0.666666  0.333333  0.500000  1
  I  I2  1  0.333333  0.666666  0.500000  1
  O  O3  1  0.046832  0.402050  0.305082  1
  O  O4  1  0.597949  0.644783  0.305082  1
  O  O5  1  0.355218  0.953167  0.305082  1
  O  O6  1  0.355217  0.402050  0.694919  1
  O  O7  1  0.046833  0.644783  0.694919  1
  O  O8  1  0.597949  0.953167  0.694919  1
