# generated using pymatgen
data_Y6GaCoRu
_symmetry_space_group_name_H-M   'P 1'
_cell_length_a   8.37015471
_cell_length_b   8.37015499
_cell_length_c   8.37015448
_cell_angle_alpha   106.11133378
_cell_angle_beta   109.97436840
_cell_angle_gamma   112.38917822
_symmetry_Int_Tables_number   1
_chemical_formula_structural   Y6GaCoRu
_chemical_formula_sum   'Y12 Ga2 Co2 Ru2'
_cell_volume   450.04906468
_cell_formula_units_Z   2
loop_
 _symmetry_equiv_pos_site_id
 _symmetry_equiv_pos_as_xyz
  1  'x, y, z'
loop_
 _atom_site_type_symbol
 _atom_site_label
 _atom_site_symmetry_multiplicity
 _atom_site_fract_x
 _atom_site_fract_y
 _atom_site_fract_z
 _atom_site_occupancy
  Y  Y0  1  0.692612  0.255682  0.948294  1
  Y  Y1  1  0.307388  0.744318  0.051706  1
  Y  Y2  1  0.692612  0.744318  0.436931  1
  Y  Y3  1  0.307388  0.255682  0.563069  1
  Y  Y4  1  0.815197  0.139468  0.324270  1
  Y  Y5  1  0.815197  0.490927  0.675730  1
  Y  Y6  1  0.184803  0.860532  0.675730  1
  Y  Y7  1  0.184803  0.509073  0.324270  1
  Y  Y8  1  0.599108  0.778956  0.820151  1
  Y  Y9  1  0.958805  0.778956  0.179849  1
  Y  Y10  1  0.041195  0.221044  0.820151  1
  Y  Y11  1  0.400892  0.221044  0.179849  1
  Ga  Ga12  1  0.500000  0.500000  0.000000  1
  Ga  Ga13  1  0.500000  0.000000  0.500000  1
  Co  Co14  1  0.000000  0.111307  0.111307  1
  Co  Co15  1  0.000000  0.888693  0.888693  1
  Ru  Ru16  1  0.829527  0.500000  0.329527  1
  Ru  Ru17  1  0.170473  0.500000  0.670473  1
