# generated using pymatgen
data_Se2BrN6
_symmetry_space_group_name_H-M   'P 1'
_cell_length_a   4.42201864
_cell_length_b   7.88092349
_cell_length_c   9.39925179
_cell_angle_alpha   79.08093163
_cell_angle_beta   84.40140913
_cell_angle_gamma   68.76525806
_symmetry_Int_Tables_number   1
_chemical_formula_structural   Se2BrN6
_chemical_formula_sum   'Se2 Br1 N6'
_cell_volume   299.64254104
_cell_formula_units_Z   1
loop_
 _symmetry_equiv_pos_site_id
 _symmetry_equiv_pos_as_xyz
  1  'x, y, z'
loop_
 _atom_site_type_symbol
 _atom_site_label
 _atom_site_symmetry_multiplicity
 _atom_site_fract_x
 _atom_site_fract_y
 _atom_site_fract_z
 _atom_site_occupancy
  Se  Se0  1  0.151111  0.915584  0.742964  1
  Se  Se1  1  0.646099  0.756844  0.830669  1
  Br  Br2  1  0.643148  0.807181  0.074710  1
  N  N3  1  0.850698  0.521902  0.527202  1
  N  N4  1  0.415442  0.302245  0.802695  1
  N  N5  1  0.397266  0.331563  0.915250  1
  N  N6  1  0.825811  0.419403  0.466531  1
  N  N7  1  0.539639  0.052402  0.384674  1
  N  N8  1  0.801065  0.963276  0.386953  1
