# generated using pymatgen
data_Tb12Si8Ir11Rh
_symmetry_space_group_name_H-M   'P 1'
_cell_length_a   5.54476503
_cell_length_b   7.58047362
_cell_length_c   14.86185000
_cell_angle_alpha   90.03597769
_cell_angle_beta   90.05985055
_cell_angle_gamma   90.04290132
_symmetry_Int_Tables_number   1
_chemical_formula_structural   Tb12Si8Ir11Rh
_chemical_formula_sum   'Tb12 Si8 Ir11 Rh1'
_cell_volume   624.67182271
_cell_formula_units_Z   1
loop_
 _symmetry_equiv_pos_site_id
 _symmetry_equiv_pos_as_xyz
  1  'x, y, z'
loop_
 _atom_site_type_symbol
 _atom_site_label
 _atom_site_symmetry_multiplicity
 _atom_site_fract_x
 _atom_site_fract_y
 _atom_site_fract_z
 _atom_site_occupancy
  Tb  Tb0  1  0.901114  0.828917  0.750055  1
  Tb  Tb1  1  0.870076  0.525325  0.392108  1
  Tb  Tb2  1  0.369922  0.974012  0.608411  1
  Tb  Tb3  1  0.130829  0.474038  0.891510  1
  Tb  Tb4  1  0.630544  0.027259  0.108308  1
  Tb  Tb5  1  0.099231  0.170975  0.249879  1
  Tb  Tb6  1  0.129958  0.474630  0.608589  1
  Tb  Tb7  1  0.629995  0.026316  0.391875  1
  Tb  Tb8  1  0.400490  0.671551  0.250452  1
  Tb  Tb9  1  0.370240  0.974299  0.891458  1
  Tb  Tb10  1  0.599261  0.328442  0.749793  1
  Tb  Tb11  1  0.869703  0.524363  0.107836  1
  Si  Si12  1  0.622748  0.624306  0.897148  1
  Si  Si13  1  0.879623  0.125044  0.602802  1
  Si  Si14  1  0.119738  0.874074  0.103167  1
  Si  Si15  1  0.119575  0.875196  0.396823  1
  Si  Si16  1  0.620274  0.625162  0.602967  1
  Si  Si17  1  0.879000  0.125408  0.897331  1
  Si  Si18  1  0.379157  0.375986  0.102924  1
  Si  Si19  1  0.379508  0.375304  0.397054  1
  Ir  Ir20  1  0.600045  0.332867  0.960584  1
  Ir  Ir21  1  0.102442  0.167519  0.460383  1
  Ir  Ir22  1  0.103055  0.166847  0.039459  1
  Ir  Ir23  1  0.415112  0.680102  0.750471  1
  Ir  Ir24  1  0.899532  0.832397  0.960502  1
  Ir  Ir25  1  0.586396  0.320388  0.249885  1
  Ir  Ir26  1  0.898930  0.832304  0.539792  1
  Ir  Ir27  1  0.911684  0.819203  0.249554  1
  Ir  Ir28  1  0.600946  0.332372  0.539980  1
  Ir  Ir29  1  0.397925  0.667991  0.460157  1
  Ir  Ir30  1  0.085956  0.180170  0.750242  1
  Rh  Rh31  1  0.396993  0.667234  0.038502  1
