# generated using pymatgen
data_Th4Al5Re2Tc
_symmetry_space_group_name_H-M   'P 1'
_cell_length_a   5.53884277
_cell_length_b   5.55971498
_cell_length_c   9.14602170
_cell_angle_alpha   89.99999923
_cell_angle_beta   89.48953172
_cell_angle_gamma   120.12472744
_symmetry_Int_Tables_number   1
_chemical_formula_structural   Th4Al5Re2Tc
_chemical_formula_sum   'Th4 Al5 Re2 Tc1'
_cell_volume   243.59264644
_cell_formula_units_Z   1
loop_
 _symmetry_equiv_pos_site_id
 _symmetry_equiv_pos_as_xyz
  1  'x, y, z'
loop_
 _atom_site_type_symbol
 _atom_site_label
 _atom_site_symmetry_multiplicity
 _atom_site_fract_x
 _atom_site_fract_y
 _atom_site_fract_z
 _atom_site_occupancy
  Th  Th0  1  0.339301  0.669651  0.451063  1
  Th  Th1  1  0.647830  0.323914  0.559242  1
  Th  Th2  1  0.665074  0.332536  0.946983  1
  Th  Th3  1  0.347185  0.673593  0.045063  1
  Al  Al4  1  0.844216  0.166402  0.251353  1
  Al  Al5  1  0.844216  0.677814  0.251353  1
  Al  Al6  1  0.327176  0.163588  0.251160  1
  Al  Al7  1  0.160696  0.836230  0.752990  1
  Al  Al8  1  0.160696  0.324465  0.752990  1
  Re  Re9  1  0.996062  0.998031  0.502393  1
  Re  Re10  1  0.660923  0.830462  0.732933  1
  Tc  Tc11  1  0.006624  0.003312  0.002478  1
