# generated using pymatgen
data_LiCu4O5
_symmetry_space_group_name_H-M   'P 1'
_cell_length_a   2.89949500
_cell_length_b   5.89983364
_cell_length_c   12.80692623
_cell_angle_alpha   83.75920163
_cell_angle_beta   90.00000000
_cell_angle_gamma   90.00000000
_symmetry_Int_Tables_number   1
_chemical_formula_structural   LiCu4O5
_chemical_formula_sum   'Li2 Cu8 O10'
_cell_volume   217.78384918
_cell_formula_units_Z   2
loop_
 _symmetry_equiv_pos_site_id
 _symmetry_equiv_pos_as_xyz
  1  'x, y, z'
loop_
 _atom_site_type_symbol
 _atom_site_label
 _atom_site_symmetry_multiplicity
 _atom_site_fract_x
 _atom_site_fract_y
 _atom_site_fract_z
 _atom_site_occupancy
  Li  Li0  1  0.000000  0.200032  0.699888  1
  Li  Li1  1  0.000000  0.799968  0.300112  1
  Cu  Cu2  1  0.500000  0.701962  0.699538  1
  Cu  Cu3  1  0.500000  0.098328  0.097813  1
  Cu  Cu4  1  0.500000  0.298038  0.300462  1
  Cu  Cu5  1  0.500000  0.901672  0.902187  1
  Cu  Cu6  1  0.500000  0.500000  0.500000  1
  Cu  Cu7  1  0.000000  0.000000  0.500000  1
  Cu  Cu8  1  0.000000  0.604019  0.102085  1
  Cu  Cu9  1  0.000000  0.395981  0.897915  1
  O  O10  1  0.000000  0.892846  0.645565  1
  O  O11  1  0.000000  0.107154  0.354435  1
  O  O12  1  0.000000  0.511548  0.753956  1
  O  O13  1  0.000000  0.701060  0.455057  1
  O  O14  1  0.000000  0.902224  0.145529  1
  O  O15  1  0.000000  0.097776  0.854471  1
  O  O16  1  0.000000  0.298940  0.544943  1
  O  O17  1  0.000000  0.488452  0.246044  1
  O  O18  1  0.000000  0.694149  0.950568  1
  O  O19  1  0.000000  0.305851  0.049432  1
