# generated using pymatgen
data_Cs5K3TiAs4
_symmetry_space_group_name_H-M   'P 1'
_cell_length_a   11.42735638
_cell_length_b   11.52573659
_cell_length_c   11.42735795
_cell_angle_alpha   60.61556487
_cell_angle_beta   60.56750777
_cell_angle_gamma   60.61556120
_symmetry_Int_Tables_number   1
_chemical_formula_structural   Cs5K3TiAs4
_chemical_formula_sum   'Cs10 K6 Ti2 As8'
_cell_volume   1078.66436924
_cell_formula_units_Z   2
loop_
 _symmetry_equiv_pos_site_id
 _symmetry_equiv_pos_as_xyz
  1  'x, y, z'
loop_
 _atom_site_type_symbol
 _atom_site_label
 _atom_site_symmetry_multiplicity
 _atom_site_fract_x
 _atom_site_fract_y
 _atom_site_fract_z
 _atom_site_occupancy
  Cs  Cs0  1  0.025979  0.474783  0.471956  1
  Cs  Cs1  1  0.774440  0.225622  0.222434  1
  Cs  Cs2  1  0.472015  0.026670  0.472015  1
  Cs  Cs3  1  0.471956  0.474783  0.025979  1
  Cs  Cs4  1  0.027878  0.025745  0.474595  1
  Cs  Cs5  1  0.028327  0.474374  0.028327  1
  Cs  Cs6  1  0.474595  0.025745  0.027878  1
  Cs  Cs7  1  0.778129  0.225119  0.778129  1
  Cs  Cs8  1  0.221621  0.775042  0.221621  1
  Cs  Cs9  1  0.222434  0.225622  0.774440  1
  K  K10  1  0.625775  0.626242  0.125245  1
  K  K11  1  0.624267  0.127943  0.624267  1
  K  K12  1  0.125245  0.626242  0.625775  1
  K  K13  1  0.624747  0.627454  0.624747  1
  K  K14  1  0.762306  0.760093  0.240197  1
  K  K15  1  0.240197  0.760093  0.762306  1
  Ti  Ti16  1  0.749965  0.751637  0.749965  1
  Ti  Ti17  1  0.500117  0.503119  0.500117  1
  As  As18  1  0.839581  0.840139  0.476009  1
  As  As19  1  0.839075  0.483649  0.839075  1
  As  As20  1  0.408506  0.411349  0.773082  1
  As  As21  1  0.409098  0.775148  0.409098  1
  As  As22  1  0.773082  0.411349  0.408506  1
  As  As23  1  0.845487  0.841042  0.845487  1
  As  As24  1  0.476009  0.840139  0.839581  1
  As  As25  1  0.409170  0.410856  0.409170  1
