# generated using pymatgen
data_Hf18Mo6PtW2Se
_symmetry_space_group_name_H-M   'P 1'
_cell_length_a   8.73458100
_cell_length_b   8.73457935
_cell_length_c   8.61864200
_cell_angle_alpha   90.00000000
_cell_angle_beta   90.00000000
_cell_angle_gamma   119.99999488
_symmetry_Int_Tables_number   1
_chemical_formula_structural   Hf18Mo6PtW2Se
_chemical_formula_sum   'Hf18 Mo6 Pt1 W2 Se1'
_cell_volume   569.44733757
_cell_formula_units_Z   1
loop_
 _symmetry_equiv_pos_site_id
 _symmetry_equiv_pos_as_xyz
  1  'x, y, z'
loop_
 _atom_site_type_symbol
 _atom_site_label
 _atom_site_symmetry_multiplicity
 _atom_site_fract_x
 _atom_site_fract_y
 _atom_site_fract_z
 _atom_site_occupancy
  Hf  Hf0  1  0.542306  0.084611  0.250000  1
  Hf  Hf1  1  0.455562  0.911124  0.750000  1
  Hf  Hf2  1  0.915389  0.457694  0.250000  1
  Hf  Hf3  1  0.088876  0.544438  0.750000  1
  Hf  Hf4  1  0.542306  0.457694  0.250000  1
  Hf  Hf5  1  0.455562  0.544438  0.750000  1
  Hf  Hf6  1  0.196629  0.393257  0.050793  1
  Hf  Hf7  1  0.805971  0.611944  0.954236  1
  Hf  Hf8  1  0.606743  0.803371  0.050793  1
  Hf  Hf9  1  0.805971  0.611944  0.545764  1
  Hf  Hf10  1  0.388056  0.194029  0.954236  1
  Hf  Hf11  1  0.196629  0.393257  0.449207  1
  Hf  Hf12  1  0.196629  0.803371  0.050793  1
  Hf  Hf13  1  0.388056  0.194029  0.545764  1
  Hf  Hf14  1  0.805971  0.194029  0.954236  1
  Hf  Hf15  1  0.606743  0.803371  0.449207  1
  Hf  Hf16  1  0.805971  0.194029  0.545764  1
  Hf  Hf17  1  0.196629  0.803371  0.449207  1
  Mo  Mo18  1  0.888249  0.776497  0.250000  1
  Mo  Mo19  1  0.110567  0.221131  0.750000  1
  Mo  Mo20  1  0.223503  0.111751  0.250000  1
  Mo  Mo21  1  0.778869  0.889433  0.750000  1
  Mo  Mo22  1  0.888249  0.111751  0.250000  1
  Mo  Mo23  1  0.110567  0.889433  0.750000  1
  Pt  Pt24  1  0.333333  0.666667  0.250000  1
  W  W25  1  0.000000  0.000000  0.001193  1
  W  W26  1  0.000000  0.000000  0.498807  1
  Se  Se27  1  0.666667  0.333333  0.750000  1
