# generated using pymatgen
data_LiYb11Sb9
_symmetry_space_group_name_H-M   'P 1'
_cell_length_a   11.96136000
_cell_length_b   11.96136000
_cell_length_c   17.29740000
_cell_angle_alpha   90.00000000
_cell_angle_beta   90.00000000
_cell_angle_gamma   90.00000000
_symmetry_Int_Tables_number   1
_chemical_formula_structural   LiYb11Sb9
_chemical_formula_sum   'Li4 Yb44 Sb36'
_cell_volume   2474.81050901
_cell_formula_units_Z   4
loop_
 _symmetry_equiv_pos_site_id
 _symmetry_equiv_pos_as_xyz
  1  'x, y, z'
loop_
 _atom_site_type_symbol
 _atom_site_label
 _atom_site_symmetry_multiplicity
 _atom_site_fract_x
 _atom_site_fract_y
 _atom_site_fract_z
 _atom_site_occupancy
  Li  Li0  1  0.096466  0.096466  0.000000  1
  Li  Li1  1  0.903534  0.903534  0.000000  1
  Li  Li2  1  0.403534  0.596466  0.500000  1
  Li  Li3  1  0.596466  0.403534  0.500000  1
  Yb  Yb4  1  0.293198  0.293198  0.000000  1
  Yb  Yb5  1  0.706802  0.706802  0.000000  1
  Yb  Yb6  1  0.206802  0.793198  0.500000  1
  Yb  Yb7  1  0.793198  0.206802  0.500000  1
  Yb  Yb8  1  0.175044  0.824956  0.000000  1
  Yb  Yb9  1  0.824956  0.175044  0.000000  1
  Yb  Yb10  1  0.675044  0.675044  0.500000  1
  Yb  Yb11  1  0.324956  0.324956  0.500000  1
  Yb  Yb12  1  0.014952  0.249788  0.186745  1
  Yb  Yb13  1  0.985048  0.750212  0.813255  1
  Yb  Yb14  1  0.985048  0.750212  0.186745  1
  Yb  Yb15  1  0.250212  0.514952  0.686745  1
  Yb  Yb16  1  0.485048  0.749788  0.313255  1
  Yb  Yb17  1  0.014952  0.249788  0.813255  1
  Yb  Yb18  1  0.749788  0.485048  0.313255  1
  Yb  Yb19  1  0.514952  0.250212  0.686745  1
  Yb  Yb20  1  0.749788  0.485048  0.686745  1
  Yb  Yb21  1  0.514952  0.250212  0.313255  1
  Yb  Yb22  1  0.250212  0.514952  0.313255  1
  Yb  Yb23  1  0.485048  0.749788  0.686745  1
  Yb  Yb24  1  0.249788  0.014952  0.813255  1
  Yb  Yb25  1  0.750212  0.985048  0.186745  1
  Yb  Yb26  1  0.750212  0.985048  0.813255  1
  Yb  Yb27  1  0.249788  0.014952  0.186745  1
  Yb  Yb28  1  0.000000  0.000000  0.343535  1
  Yb  Yb29  1  0.000000  0.000000  0.656465  1
  Yb  Yb30  1  0.500000  0.500000  0.843535  1
  Yb  Yb31  1  0.500000  0.500000  0.156465  1
  Yb  Yb32  1  0.018961  0.342980  0.396184  1
  Yb  Yb33  1  0.981039  0.657020  0.603816  1
  Yb  Yb34  1  0.981039  0.657020  0.396184  1
  Yb  Yb35  1  0.157020  0.518961  0.896184  1
  Yb  Yb36  1  0.481039  0.842980  0.103816  1
  Yb  Yb37  1  0.018961  0.342980  0.603816  1
  Yb  Yb38  1  0.842980  0.481039  0.103816  1
  Yb  Yb39  1  0.518961  0.157020  0.896184  1
  Yb  Yb40  1  0.842980  0.481039  0.896184  1
  Yb  Yb41  1  0.518961  0.157020  0.103816  1
  Yb  Yb42  1  0.157020  0.518961  0.103816  1
  Yb  Yb43  1  0.481039  0.842980  0.896184  1
  Yb  Yb44  1  0.342980  0.018961  0.603816  1
  Yb  Yb45  1  0.657020  0.981039  0.396184  1
  Yb  Yb46  1  0.657020  0.981039  0.603816  1
  Yb  Yb47  1  0.342980  0.018961  0.396184  1
  Sb  Sb48  1  0.031838  0.333230  0.000000  1
  Sb  Sb49  1  0.968162  0.666770  0.000000  1
  Sb  Sb50  1  0.166770  0.531838  0.500000  1
  Sb  Sb51  1  0.468162  0.833230  0.500000  1
  Sb  Sb52  1  0.833230  0.468162  0.500000  1
  Sb  Sb53  1  0.531838  0.166770  0.500000  1
  Sb  Sb54  1  0.333230  0.031838  0.000000  1
  Sb  Sb55  1  0.666770  0.968162  0.000000  1
  Sb  Sb56  1  0.314764  0.314764  0.177193  1
  Sb  Sb57  1  0.685236  0.685236  0.822807  1
  Sb  Sb58  1  0.685236  0.685236  0.177193  1
  Sb  Sb59  1  0.185236  0.814764  0.677193  1
  Sb  Sb60  1  0.185236  0.814764  0.322807  1
  Sb  Sb61  1  0.314764  0.314764  0.822807  1
  Sb  Sb62  1  0.814764  0.185236  0.322807  1
  Sb  Sb63  1  0.814764  0.185236  0.677193  1
  Sb  Sb64  1  0.223513  0.223513  0.321927  1
  Sb  Sb65  1  0.776487  0.776487  0.678073  1
  Sb  Sb66  1  0.776487  0.776487  0.321927  1
  Sb  Sb67  1  0.276487  0.723513  0.821927  1
  Sb  Sb68  1  0.276487  0.723513  0.178073  1
  Sb  Sb69  1  0.223513  0.223513  0.678073  1
  Sb  Sb70  1  0.723513  0.276487  0.178073  1
  Sb  Sb71  1  0.723513  0.276487  0.821927  1
  Sb  Sb72  1  0.000000  0.500000  0.250000  1
  Sb  Sb73  1  0.000000  0.500000  0.750000  1
  Sb  Sb74  1  0.500000  0.000000  0.250000  1
  Sb  Sb75  1  0.500000  0.000000  0.750000  1
  Sb  Sb76  1  0.000000  0.000000  0.133481  1
  Sb  Sb77  1  0.000000  0.000000  0.866519  1
  Sb  Sb78  1  0.500000  0.500000  0.633481  1
  Sb  Sb79  1  0.500000  0.500000  0.366519  1
  Sb  Sb80  1  0.375588  0.624412  0.000000  1
  Sb  Sb81  1  0.624412  0.375588  0.000000  1
  Sb  Sb82  1  0.875588  0.875588  0.500000  1
  Sb  Sb83  1  0.124412  0.124412  0.500000  1
