# generated using pymatgen
data_Pr5Si2Rh
_symmetry_space_group_name_H-M   'P 1'
_cell_length_a   7.98070000
_cell_length_b   8.92402900
_cell_length_c   12.45929000
_cell_angle_alpha   90.00000000
_cell_angle_beta   90.00000000
_cell_angle_gamma   90.00000000
_symmetry_Int_Tables_number   1
_chemical_formula_structural   Pr5Si2Rh
_chemical_formula_sum   'Pr20 Si8 Rh4'
_cell_volume   887.35061188
_cell_formula_units_Z   4
loop_
 _symmetry_equiv_pos_site_id
 _symmetry_equiv_pos_as_xyz
  1  'x, y, z'
loop_
 _atom_site_type_symbol
 _atom_site_label
 _atom_site_symmetry_multiplicity
 _atom_site_fract_x
 _atom_site_fract_y
 _atom_site_fract_z
 _atom_site_occupancy
  Pr  Pr0  1  0.681505  0.465558  0.076593  1
  Pr  Pr1  1  0.181505  0.534442  0.423407  1
  Pr  Pr2  1  0.318495  0.965558  0.923407  1
  Pr  Pr3  1  0.818495  0.034442  0.576593  1
  Pr  Pr4  1  0.318495  0.534442  0.923407  1
  Pr  Pr5  1  0.818495  0.465558  0.576593  1
  Pr  Pr6  1  0.681505  0.034442  0.076593  1
  Pr  Pr7  1  0.181505  0.965558  0.423407  1
  Pr  Pr8  1  0.963599  0.750000  0.999731  1
  Pr  Pr9  1  0.463599  0.250000  0.500269  1
  Pr  Pr10  1  0.036401  0.250000  0.000269  1
  Pr  Pr11  1  0.536401  0.750000  0.499731  1
  Pr  Pr12  1  0.348579  0.750000  0.205155  1
  Pr  Pr13  1  0.848579  0.250000  0.294845  1
  Pr  Pr14  1  0.651421  0.250000  0.794845  1
  Pr  Pr15  1  0.151421  0.750000  0.705155  1
  Pr  Pr16  1  0.828687  0.750000  0.281328  1
  Pr  Pr17  1  0.328687  0.250000  0.218672  1
  Pr  Pr18  1  0.171313  0.250000  0.718672  1
  Pr  Pr19  1  0.671313  0.750000  0.781328  1
  Si  Si20  1  0.557939  0.495424  0.328838  1
  Si  Si21  1  0.057939  0.504576  0.171162  1
  Si  Si22  1  0.442061  0.995424  0.671162  1
  Si  Si23  1  0.942061  0.004576  0.828838  1
  Si  Si24  1  0.442061  0.504576  0.671162  1
  Si  Si25  1  0.942061  0.495424  0.828838  1
  Si  Si26  1  0.557939  0.004576  0.328838  1
  Si  Si27  1  0.057939  0.995424  0.171162  1
  Rh  Rh28  1  0.573396  0.750000  0.014126  1
  Rh  Rh29  1  0.073396  0.250000  0.485874  1
  Rh  Rh30  1  0.426604  0.250000  0.985874  1
  Rh  Rh31  1  0.926604  0.750000  0.514126  1
