# generated using pymatgen
data_Dy4Sn5SbRh7
_symmetry_space_group_name_H-M   'P 1'
_cell_length_a   7.61380367
_cell_length_b   7.61380487
_cell_length_c   7.61380484
_cell_angle_alpha   109.41204859
_cell_angle_beta   109.41206401
_cell_angle_gamma   109.58962016
_symmetry_Int_Tables_number   1
_chemical_formula_structural   Dy4Sn5SbRh7
_chemical_formula_sum   'Dy4 Sn5 Sb1 Rh7'
_cell_volume   339.76750641
_cell_formula_units_Z   1
loop_
 _symmetry_equiv_pos_site_id
 _symmetry_equiv_pos_as_xyz
  1  'x, y, z'
loop_
 _atom_site_type_symbol
 _atom_site_label
 _atom_site_symmetry_multiplicity
 _atom_site_fract_x
 _atom_site_fract_y
 _atom_site_fract_z
 _atom_site_occupancy
  Dy  Dy0  1  0.494872  0.998636  0.000000  1
  Dy  Dy1  1  0.998636  0.494872  0.000000  1
  Dy  Dy2  1  0.998636  0.998636  0.503764  1
  Dy  Dy3  1  0.494872  0.494872  0.496236  1
  Sn  Sn4  1  0.312789  0.996371  0.316418  1
  Sn  Sn5  1  0.996371  0.679952  0.683582  1
  Sn  Sn6  1  0.692231  0.692231  0.000000  1
  Sn  Sn7  1  0.679952  0.996371  0.683582  1
  Sn  Sn8  1  0.996371  0.312789  0.316418  1
  Sb  Sb9  1  0.322208  0.322208  0.000000  1
  Rh  Rh10  1  0.253378  0.502190  0.751188  1
  Rh  Rh11  1  0.502190  0.253378  0.751188  1
  Rh  Rh12  1  0.747525  0.247525  0.500000  1
  Rh  Rh13  1  0.502190  0.751003  0.248812  1
  Rh  Rh14  1  0.009251  0.009251  0.000000  1
  Rh  Rh15  1  0.247525  0.747525  0.500000  1
  Rh  Rh16  1  0.751003  0.502190  0.248812  1
