# generated using pymatgen
data_DyEr4Si9P3Ir19
_symmetry_space_group_name_H-M   'P 1'
_cell_length_a   12.81635700
_cell_length_b   12.81635747
_cell_length_c   3.94044700
_cell_angle_alpha   90.00000000
_cell_angle_beta   90.00000000
_cell_angle_gamma   120.00000137
_symmetry_Int_Tables_number   1
_chemical_formula_structural   DyEr4Si9P3Ir19
_chemical_formula_sum   'Dy1 Er4 Si9 P3 Ir19'
_cell_volume   560.53834191
_cell_formula_units_Z   1
loop_
 _symmetry_equiv_pos_site_id
 _symmetry_equiv_pos_as_xyz
  1  'x, y, z'
loop_
 _atom_site_type_symbol
 _atom_site_label
 _atom_site_symmetry_multiplicity
 _atom_site_fract_x
 _atom_site_fract_y
 _atom_site_fract_z
 _atom_site_occupancy
  Dy  Dy0  1  0.666667  0.333333  0.000000  1
  Er  Er1  1  0.333333  0.666667  0.000000  1
  Er  Er2  1  0.814543  0.814549  0.500000  1
  Er  Er3  1  0.185451  0.999994  0.500000  1
  Er  Er4  1  0.000006  0.185457  0.500000  1
  Si  Si5  1  0.686272  0.167261  0.500000  1
  Si  Si6  1  0.832739  0.519011  0.500000  1
  Si  Si7  1  0.480989  0.313728  0.500000  1
  Si  Si8  1  0.167531  0.686236  0.500000  1
  Si  Si9  1  0.518704  0.832469  0.500000  1
  Si  Si10  1  0.313764  0.481296  0.500000  1
  Si  Si11  1  0.633379  0.633361  0.000000  1
  Si  Si12  1  0.366639  0.000019  0.000000  1
  Si  Si13  1  0.999981  0.366621  0.000000  1
  P  P14  1  0.178056  0.178086  0.000000  1
  P  P15  1  0.821914  0.999970  0.000000  1
  P  P16  1  0.000030  0.821944  0.000000  1
  Ir  Ir17  1  0.807278  0.179548  0.000000  1
  Ir  Ir18  1  0.820452  0.627730  0.000000  1
  Ir  Ir19  1  0.372270  0.192722  0.000000  1
  Ir  Ir20  1  0.179640  0.807203  0.000000  1
  Ir  Ir21  1  0.627563  0.820360  0.000000  1
  Ir  Ir22  1  0.192797  0.372437  0.000000  1
  Ir  Ir23  1  0.447139  0.447109  0.000000  1
  Ir  Ir24  1  0.552891  0.000030  0.000000  1
  Ir  Ir25  1  0.999970  0.552861  0.000000  1
  Ir  Ir26  1  0.277737  0.277776  0.500000  1
  Ir  Ir27  1  0.722224  0.999961  0.500000  1
  Ir  Ir28  1  0.000039  0.722263  0.500000  1
  Ir  Ir29  1  0.872470  0.359600  0.500000  1
  Ir  Ir30  1  0.640400  0.512871  0.500000  1
  Ir  Ir31  1  0.487129  0.127530  0.500000  1
  Ir  Ir32  1  0.359590  0.872113  0.500000  1
  Ir  Ir33  1  0.512524  0.640410  0.500000  1
  Ir  Ir34  1  0.127887  0.487476  0.500000  1
  Ir  Ir35  1  0.000000  0.000000  0.000000  1
