# generated using pymatgen
data_Tb2Nd(Co3P2)3
_symmetry_space_group_name_H-M   'P 1'
_cell_length_a   10.54707800
_cell_length_b   3.72100100
_cell_length_c   12.23072100
_cell_angle_alpha   90.00000000
_cell_angle_beta   90.00000000
_cell_angle_gamma   90.00000000
_symmetry_Int_Tables_number   1
_chemical_formula_structural   Tb2Nd(Co3P2)3
_chemical_formula_sum   'Tb4 Nd2 Co18 P12'
_cell_volume   480.00305775
_cell_formula_units_Z   2
loop_
 _symmetry_equiv_pos_site_id
 _symmetry_equiv_pos_as_xyz
  1  'x, y, z'
loop_
 _atom_site_type_symbol
 _atom_site_label
 _atom_site_symmetry_multiplicity
 _atom_site_fract_x
 _atom_site_fract_y
 _atom_site_fract_z
 _atom_site_occupancy
  Tb  Tb0  1  0.067655  0.749999  0.205170  1
  Tb  Tb1  1  0.432344  0.749999  0.205170  1
  Tb  Tb2  1  0.567656  0.249999  0.794829  1
  Tb  Tb3  1  0.932344  0.249999  0.794829  1
  Nd  Nd4  1  0.250000  0.749999  0.478136  1
  Nd  Nd5  1  0.750000  0.249999  0.521864  1
  Co  Co6  1  0.083390  0.249999  0.004531  1
  Co  Co7  1  0.416611  0.249999  0.004531  1
  Co  Co8  1  0.250000  0.749999  0.012707  1
  Co  Co9  1  0.750000  0.749999  0.156898  1
  Co  Co10  1  0.629886  0.249999  0.287827  1
  Co  Co11  1  0.870114  0.249999  0.287827  1
  Co  Co12  1  0.250000  0.249999  0.293528  1
  Co  Co13  1  0.546861  0.749999  0.429209  1
  Co  Co14  1  0.953139  0.749999  0.429209  1
  Co  Co15  1  0.046861  0.249999  0.570790  1
  Co  Co16  1  0.453139  0.249999  0.570790  1
  Co  Co17  1  0.750000  0.749999  0.706473  1
  Co  Co18  1  0.129886  0.749999  0.712173  1
  Co  Co19  1  0.370114  0.749999  0.712173  1
  Co  Co20  1  0.250000  0.249999  0.843102  1
  Co  Co21  1  0.750000  0.249999  0.987294  1
  Co  Co22  1  0.583389  0.749999  0.995469  1
  Co  Co23  1  0.916610  0.749999  0.995469  1
  P  P24  1  0.596808  0.249999  0.105743  1
  P  P25  1  0.903191  0.249999  0.105743  1
  P  P26  1  0.250000  0.249999  0.115229  1
  P  P27  1  0.750000  0.749999  0.339703  1
  P  P28  1  0.057304  0.249999  0.383207  1
  P  P29  1  0.442696  0.249999  0.383207  1
  P  P30  1  0.557305  0.749999  0.616793  1
  P  P31  1  0.942695  0.749999  0.616793  1
  P  P32  1  0.250000  0.249999  0.660298  1
  P  P33  1  0.750000  0.749999  0.884772  1
  P  P34  1  0.096809  0.749999  0.894257  1
  P  P35  1  0.403192  0.749999  0.894257  1
