# generated using pymatgen
data_Tb9HoIn8(PdAu)2
_symmetry_space_group_name_H-M   'P 1'
_cell_length_a   3.67461100
_cell_length_b   8.20431127
_cell_length_c   18.41919642
_cell_angle_alpha   89.95597216
_cell_angle_beta   90.00000000
_cell_angle_gamma   90.00000000
_symmetry_Int_Tables_number   1
_chemical_formula_structural   Tb9HoIn8(PdAu)2
_chemical_formula_sum   'Tb9 Ho1 In8 Pd2 Au2'
_cell_volume   555.29536781
_cell_formula_units_Z   1
loop_
 _symmetry_equiv_pos_site_id
 _symmetry_equiv_pos_as_xyz
  1  'x, y, z'
loop_
 _atom_site_type_symbol
 _atom_site_label
 _atom_site_symmetry_multiplicity
 _atom_site_fract_x
 _atom_site_fract_y
 _atom_site_fract_z
 _atom_site_occupancy
  Tb  Tb0  1  0.000000  0.499907  0.499899  1
  Tb  Tb1  1  0.000000  0.000024  0.000062  1
  Tb  Tb2  1  0.000000  0.746345  0.283373  1
  Tb  Tb3  1  0.000000  0.253612  0.716787  1
  Tb  Tb4  1  0.000000  0.768473  0.779748  1
  Tb  Tb5  1  0.000000  0.231730  0.220408  1
  Tb  Tb6  1  0.000000  0.618652  0.080071  1
  Tb  Tb7  1  0.000000  0.381225  0.919979  1
  Tb  Tb8  1  0.000000  0.885362  0.582250  1
  Ho  Ho9  1  0.000000  0.114417  0.416856  1
  In  In10  1  0.500000  0.712475  0.931906  1
  In  In11  1  0.500000  0.287530  0.068190  1
  In  In12  1  0.500000  0.791133  0.432420  1
  In  In13  1  0.500000  0.210027  0.567014  1
  In  In14  1  0.500000  0.582708  0.647493  1
  In  In15  1  0.500000  0.415997  0.352738  1
  In  In16  1  0.500000  0.921541  0.148925  1
  In  In17  1  0.500000  0.078537  0.851157  1
  Pd  Pd18  1  0.500000  0.974782  0.695850  1
  Pd  Pd19  1  0.500000  0.025788  0.304767  1
  Au  Au20  1  0.500000  0.526674  0.197548  1
  Au  Au21  1  0.500000  0.473061  0.802559  1
