# generated using pymatgen
data_TbEr2(Ni3As2)3
_symmetry_space_group_name_H-M   'P 1'
_cell_length_a   3.88362600
_cell_length_b   10.82140800
_cell_length_c   12.70151400
_cell_angle_alpha   90.00000000
_cell_angle_beta   90.00000000
_cell_angle_gamma   90.00000000
_symmetry_Int_Tables_number   1
_chemical_formula_structural   TbEr2(Ni3As2)3
_chemical_formula_sum   'Tb2 Er4 Ni18 As12'
_cell_volume   533.79765643
_cell_formula_units_Z   2
loop_
 _symmetry_equiv_pos_site_id
 _symmetry_equiv_pos_as_xyz
  1  'x, y, z'
loop_
 _atom_site_type_symbol
 _atom_site_label
 _atom_site_symmetry_multiplicity
 _atom_site_fract_x
 _atom_site_fract_y
 _atom_site_fract_z
 _atom_site_occupancy
  Tb  Tb0  1  0.000000  0.500000  0.523650  1
  Tb  Tb1  1  0.500000  0.000000  0.476350  1
  Er  Er2  1  0.500000  0.816132  0.206548  1
  Er  Er3  1  0.500000  0.183868  0.206548  1
  Er  Er4  1  0.000000  0.683868  0.793452  1
  Er  Er5  1  0.000000  0.316132  0.793452  1
  Ni  Ni6  1  0.500000  0.500000  0.156416  1
  Ni  Ni7  1  0.000000  0.000000  0.843584  1
  Ni  Ni8  1  0.500000  0.500000  0.699686  1
  Ni  Ni9  1  0.000000  0.000000  0.300314  1
  Ni  Ni10  1  0.000000  0.500000  0.981938  1
  Ni  Ni11  1  0.500000  0.000000  0.018062  1
  Ni  Ni12  1  0.500000  0.332872  0.997635  1
  Ni  Ni13  1  0.500000  0.667128  0.997635  1
  Ni  Ni14  1  0.000000  0.167128  0.002365  1
  Ni  Ni15  1  0.000000  0.832872  0.002365  1
  Ni  Ni16  1  0.500000  0.303032  0.426027  1
  Ni  Ni17  1  0.500000  0.696968  0.426027  1
  Ni  Ni18  1  0.000000  0.196968  0.573973  1
  Ni  Ni19  1  0.000000  0.803032  0.573973  1
  Ni  Ni20  1  0.500000  0.879540  0.707674  1
  Ni  Ni21  1  0.500000  0.120460  0.707674  1
  Ni  Ni22  1  0.000000  0.620460  0.292326  1
  Ni  Ni23  1  0.000000  0.379540  0.292326  1
  As  As24  1  0.500000  0.500000  0.875956  1
  As  As25  1  0.000000  0.000000  0.124044  1
  As  As26  1  0.500000  0.500000  0.344929  1
  As  As27  1  0.000000  0.000000  0.655071  1
  As  As28  1  0.500000  0.314089  0.613846  1
  As  As29  1  0.500000  0.685911  0.613846  1
  As  As30  1  0.000000  0.185911  0.386154  1
  As  As31  1  0.000000  0.814089  0.386154  1
  As  As32  1  0.500000  0.847131  0.890160  1
  As  As33  1  0.500000  0.152869  0.890160  1
  As  As34  1  0.000000  0.652869  0.109840  1
  As  As35  1  0.000000  0.347131  0.109840  1
