# generated using pymatgen
data_TbHo2Er(Mo2O7)2
_symmetry_space_group_name_H-M   'P 1'
_cell_length_a   7.28746087
_cell_length_b   7.31014057
_cell_length_c   7.40320444
_cell_angle_alpha   60.28385742
_cell_angle_beta   60.51584537
_cell_angle_gamma   60.10257590
_symmetry_Int_Tables_number   1
_chemical_formula_structural   TbHo2Er(Mo2O7)2
_chemical_formula_sum   'Tb1 Ho2 Er1 Mo4 O14'
_cell_volume   280.76386513
_cell_formula_units_Z   1
loop_
 _symmetry_equiv_pos_site_id
 _symmetry_equiv_pos_as_xyz
  1  'x, y, z'
loop_
 _atom_site_type_symbol
 _atom_site_label
 _atom_site_symmetry_multiplicity
 _atom_site_fract_x
 _atom_site_fract_y
 _atom_site_fract_z
 _atom_site_occupancy
  Tb  Tb0  1  0.125000  0.125000  0.625000  1
  Ho  Ho1  1  0.125000  0.125000  0.125000  1
  Ho  Ho2  1  0.625000  0.125000  0.125000  1
  Er  Er3  1  0.125000  0.625000  0.125000  1
  Mo  Mo4  1  0.625000  0.625000  0.625000  1
  Mo  Mo5  1  0.125000  0.625000  0.625000  1
  Mo  Mo6  1  0.625000  0.625000  0.125000  1
  Mo  Mo7  1  0.625000  0.125000  0.625000  1
  O  O8  1  0.001586  0.997878  0.998949  1
  O  O9  1  0.248414  0.252122  0.251051  1
  O  O10  1  0.285767  0.287839  0.715105  1
  O  O11  1  0.537321  0.533474  0.965320  1
  O  O12  1  0.711290  0.287839  0.715105  1
  O  O13  1  0.720028  0.277190  0.282753  1
  O  O14  1  0.283903  0.707468  0.724726  1
  O  O15  1  0.286114  0.716526  0.284680  1
  O  O16  1  0.712679  0.716526  0.284680  1
  O  O17  1  0.966097  0.542532  0.525274  1
  O  O18  1  0.529972  0.972810  0.967247  1
  O  O19  1  0.964233  0.962161  0.534895  1
  O  O20  1  0.963886  0.533474  0.965320  1
  O  O21  1  0.538710  0.962161  0.534895  1
