# generated using pymatgen
data_Nd6Hg4Pd12Au
_symmetry_space_group_name_H-M   'P 1'
_cell_length_a   8.60870941
_cell_length_b   8.60871020
_cell_length_c   8.60871000
_cell_angle_alpha   109.47122015
_cell_angle_beta   109.47122202
_cell_angle_gamma   109.47121406
_symmetry_Int_Tables_number   1
_chemical_formula_structural   Nd6Hg4Pd12Au
_chemical_formula_sum   'Nd6 Hg4 Pd12 Au1'
_cell_volume   491.12535355
_cell_formula_units_Z   1
loop_
 _symmetry_equiv_pos_site_id
 _symmetry_equiv_pos_as_xyz
  1  'x, y, z'
loop_
 _atom_site_type_symbol
 _atom_site_label
 _atom_site_symmetry_multiplicity
 _atom_site_fract_x
 _atom_site_fract_y
 _atom_site_fract_z
 _atom_site_occupancy
  Nd  Nd0  1  0.304194  0.000000  0.304194  1
  Nd  Nd1  1  0.695806  0.000000  0.695806  1
  Nd  Nd2  1  0.304194  0.304194  0.000000  1
  Nd  Nd3  1  0.695806  0.695806  0.000000  1
  Nd  Nd4  1  0.000000  0.304194  0.304194  1
  Nd  Nd5  1  0.000000  0.695806  0.695806  1
  Hg  Hg6  1  0.500000  0.000000  0.000000  1
  Hg  Hg7  1  0.000000  0.000000  0.500000  1
  Hg  Hg8  1  0.000000  0.500000  0.000000  1
  Hg  Hg9  1  0.500000  0.500000  0.500000  1
  Pd  Pd10  1  0.344957  0.000000  0.655043  1
  Pd  Pd11  1  0.655043  0.000000  0.344957  1
  Pd  Pd12  1  0.344957  0.689914  0.344957  1
  Pd  Pd13  1  0.655043  0.310086  0.655043  1
  Pd  Pd14  1  0.655043  0.344957  0.000000  1
  Pd  Pd15  1  0.344957  0.655043  0.000000  1
  Pd  Pd16  1  0.344957  0.344957  0.689914  1
  Pd  Pd17  1  0.655043  0.655043  0.310086  1
  Pd  Pd18  1  0.000000  0.655043  0.344957  1
  Pd  Pd19  1  0.000000  0.344957  0.655043  1
  Pd  Pd20  1  0.689914  0.344957  0.344957  1
  Pd  Pd21  1  0.310086  0.655043  0.655043  1
  Au  Au22  1  0.000000  0.000000  0.000000  1
