# generated using pymatgen
data_Gd2Zn3Ru
_symmetry_space_group_name_H-M   'P 1'
_cell_length_a   5.49174794
_cell_length_b   5.36001834
_cell_length_c   5.36001800
_cell_angle_alpha   59.99998975
_cell_angle_beta   60.79034576
_cell_angle_gamma   60.79035481
_symmetry_Int_Tables_number   1
_chemical_formula_structural   Gd2Zn3Ru
_chemical_formula_sum   'Gd2 Zn3 Ru1'
_cell_volume   112.87927809
_cell_formula_units_Z   1
loop_
 _symmetry_equiv_pos_site_id
 _symmetry_equiv_pos_as_xyz
  1  'x, y, z'
loop_
 _atom_site_type_symbol
 _atom_site_label
 _atom_site_symmetry_multiplicity
 _atom_site_fract_x
 _atom_site_fract_y
 _atom_site_fract_z
 _atom_site_occupancy
  Gd  Gd0  1  0.240525  0.253158  0.253158  1
  Gd  Gd1  1  0.009475  0.996842  0.996842  1
  Zn  Zn2  1  0.625000  0.125000  0.625000  1
  Zn  Zn3  1  0.625000  0.625000  0.125000  1
  Zn  Zn4  1  0.625000  0.625000  0.625000  1
  Ru  Ru5  1  0.125000  0.625000  0.625000  1
