# generated using pymatgen
data_DyHo11(BBr3)4
_symmetry_space_group_name_H-M   'P 1'
_cell_length_a   9.70305778
_cell_length_b   9.70292673
_cell_length_c   9.70279303
_cell_angle_alpha   109.46205895
_cell_angle_beta   109.47473873
_cell_angle_gamma   109.47547301
_symmetry_Int_Tables_number   1
_chemical_formula_structural   DyHo11(BBr3)4
_chemical_formula_sum   'Dy1 Ho11 B4 Br12'
_cell_volume   703.22402065
_cell_formula_units_Z   1
loop_
 _symmetry_equiv_pos_site_id
 _symmetry_equiv_pos_as_xyz
  1  'x, y, z'
loop_
 _atom_site_type_symbol
 _atom_site_label
 _atom_site_symmetry_multiplicity
 _atom_site_fract_x
 _atom_site_fract_y
 _atom_site_fract_z
 _atom_site_occupancy
  Dy  Dy0  1  0.460026  0.480017  0.230016  1
  Ho  Ho1  1  0.749962  0.229419  0.270541  1
  Ho  Ho2  1  0.749965  0.020543  0.479422  1
  Ho  Ho3  1  0.229403  0.458907  0.479380  1
  Ho  Ho4  1  0.270540  0.750006  0.229455  1
  Ho  Ho5  1  0.040747  0.270372  0.020377  1
  Ho  Ho6  1  0.020343  0.040914  0.270532  1
  Ho  Ho7  1  0.479502  0.750147  0.020590  1
  Ho  Ho8  1  0.479507  0.229348  0.458913  1
  Ho  Ho9  1  0.020349  0.479436  0.749806  1
  Ho  Ho10  1  0.270533  0.020531  0.041080  1
  Ho  Ho11  1  0.229411  0.270500  0.750028  1
  B  B12  1  0.249618  0.249607  0.250022  1
  B  B13  1  0.499930  0.999966  0.249965  1
  B  B14  1  0.000065  0.250033  0.500032  1
  B  B15  1  0.249617  0.500010  0.999596  1
  Br  Br16  1  0.250010  0.758061  0.741916  1
  Br  Br17  1  0.516225  0.508111  0.758111  1
  Br  Br18  1  0.983726  0.741866  0.991865  1
  Br  Br19  1  0.741969  0.249972  0.758052  1
  Br  Br20  1  0.991849  0.983760  0.741834  1
  Br  Br21  1  0.250003  0.991946  0.508094  1
  Br  Br22  1  0.758357  0.516078  0.508352  1
  Br  Br23  1  0.508089  0.249547  0.991469  1
  Br  Br24  1  0.758350  0.742284  0.250002  1
  Br  Br25  1  0.741968  0.992003  0.983926  1
  Br  Br26  1  0.991848  0.508083  0.250009  1
  Br  Br27  1  0.508087  0.758534  0.516613  1
