# generated using pymatgen
data_Y4C2SBr
_symmetry_space_group_name_H-M   'P 1'
_cell_length_a   3.72075100
_cell_length_b   3.72062795
_cell_length_c   13.49668500
_cell_angle_alpha   90.00000000
_cell_angle_beta   90.00000000
_cell_angle_gamma   120.00054881
_symmetry_Int_Tables_number   1
_chemical_formula_structural   Y4C2SBr
_chemical_formula_sum   'Y4 C2 S1 Br1'
_cell_volume   161.80882107
_cell_formula_units_Z   1
loop_
 _symmetry_equiv_pos_site_id
 _symmetry_equiv_pos_as_xyz
  1  'x, y, z'
loop_
 _atom_site_type_symbol
 _atom_site_label
 _atom_site_symmetry_multiplicity
 _atom_site_fract_x
 _atom_site_fract_y
 _atom_site_fract_z
 _atom_site_occupancy
  Y  Y0  1  0.333317  0.666676  0.081179  1
  Y  Y1  1  0.666617  0.333249  0.612233  1
  Y  Y2  1  0.666617  0.333249  0.887767  1
  Y  Y3  1  0.333317  0.666676  0.418821  1
  C  C4  1  0.000000  0.999997  0.993733  1
  C  C5  1  0.000000  0.999997  0.506267  1
  S  S6  1  0.333247  0.666515  0.750000  1
  Br  Br7  1  0.666884  0.333640  0.250000  1
