# generated using pymatgen
data_Y2Sn2Ru2C
_symmetry_space_group_name_H-M   'P 1'
_cell_length_a   6.10432432
_cell_length_b   6.10432361
_cell_length_c   7.26717233
_cell_angle_alpha   123.57908603
_cell_angle_beta   123.57907833
_cell_angle_gamma   40.50747415
_symmetry_Int_Tables_number   1
_chemical_formula_structural   Y2Sn2Ru2C
_chemical_formula_sum   'Y2 Sn2 Ru2 C1'
_cell_volume   142.07666102
_cell_formula_units_Z   1
loop_
 _symmetry_equiv_pos_site_id
 _symmetry_equiv_pos_as_xyz
  1  'x, y, z'
loop_
 _atom_site_type_symbol
 _atom_site_label
 _atom_site_symmetry_multiplicity
 _atom_site_fract_x
 _atom_site_fract_y
 _atom_site_fract_z
 _atom_site_occupancy
  Y  Y0  1  0.547176  0.547176  0.268692  1
  Y  Y1  1  0.452824  0.452824  0.731308  1
  Sn  Sn2  1  0.839783  0.839783  0.315692  1
  Sn  Sn3  1  0.160218  0.160218  0.684308  1
  Ru  Ru4  1  0.186851  0.186851  0.077535  1
  Ru  Ru5  1  0.813149  0.813149  0.922465  1
  C  C6  1  0.000000  0.000000  0.000000  1
