# generated using pymatgen
data_YbNi(PO3)4
_symmetry_space_group_name_H-M   'P 1'
_cell_length_a   7.47285875
_cell_length_b   7.47285841
_cell_length_c   10.02614691
_cell_angle_alpha   67.65683870
_cell_angle_beta   67.65683979
_cell_angle_gamma   71.31987975
_symmetry_Int_Tables_number   1
_chemical_formula_structural   YbNi(PO3)4
_chemical_formula_sum   'Yb2 Ni2 P8 O24'
_cell_volume   468.76326806
_cell_formula_units_Z   2
loop_
 _symmetry_equiv_pos_site_id
 _symmetry_equiv_pos_as_xyz
  1  'x, y, z'
loop_
 _atom_site_type_symbol
 _atom_site_label
 _atom_site_symmetry_multiplicity
 _atom_site_fract_x
 _atom_site_fract_y
 _atom_site_fract_z
 _atom_site_occupancy
  Yb  Yb0  1  0.447273  0.552727  0.250000  1
  Yb  Yb1  1  0.552727  0.447273  0.750000  1
  Ni  Ni2  1  0.500000  0.000000  0.000000  1
  Ni  Ni3  1  0.000000  0.500000  0.500000  1
  P  P4  1  0.771318  0.218418  0.473068  1
  P  P5  1  0.228682  0.781582  0.526932  1
  P  P6  1  0.781582  0.228682  0.026932  1
  P  P7  1  0.218418  0.771318  0.973068  1
  P  P8  1  0.813521  0.804837  0.197166  1
  P  P9  1  0.186479  0.195163  0.802834  1
  P  P10  1  0.195163  0.186479  0.302834  1
  P  P11  1  0.804837  0.813521  0.697166  1
  O  O12  1  0.599975  0.327569  0.414409  1
  O  O13  1  0.400025  0.672431  0.585591  1
  O  O14  1  0.672431  0.400025  0.085591  1
  O  O15  1  0.327569  0.599975  0.914409  1
  O  O16  1  0.310425  0.153051  0.153967  1
  O  O17  1  0.689575  0.846949  0.846033  1
  O  O18  1  0.846949  0.689575  0.346033  1
  O  O19  1  0.153051  0.310425  0.653967  1
  O  O20  1  0.628866  0.796127  0.171584  1
  O  O21  1  0.371134  0.203873  0.828416  1
  O  O22  1  0.203873  0.371134  0.328416  1
  O  O23  1  0.796127  0.628866  0.671584  1
  O  O24  1  0.300397  0.815571  0.072405  1
  O  O25  1  0.699603  0.184429  0.927595  1
  O  O26  1  0.184429  0.699603  0.427595  1
  O  O27  1  0.815571  0.300397  0.572405  1
  O  O28  1  0.811880  0.033346  0.166374  1
  O  O29  1  0.188120  0.966654  0.833626  1
  O  O30  1  0.966654  0.188120  0.333626  1
  O  O31  1  0.033346  0.811880  0.666374  1
  O  O32  1  0.740926  0.995446  0.561446  1
  O  O33  1  0.259074  0.004554  0.438554  1
  O  O34  1  0.004554  0.259074  0.938554  1
  O  O35  1  0.995446  0.740926  0.061446  1
