# generated using pymatgen
data_Er4Mg3ZnIr4
_symmetry_space_group_name_H-M   'P 1'
_cell_length_a   4.05570100
_cell_length_b   7.00750883
_cell_length_c   8.42535801
_cell_angle_alpha   90.12452045
_cell_angle_beta   90.00000000
_cell_angle_gamma   90.00000000
_symmetry_Int_Tables_number   1
_chemical_formula_structural   Er4Mg3ZnIr4
_chemical_formula_sum   'Er4 Mg3 Zn1 Ir4'
_cell_volume   239.45114708
_cell_formula_units_Z   1
loop_
 _symmetry_equiv_pos_site_id
 _symmetry_equiv_pos_as_xyz
  1  'x, y, z'
loop_
 _atom_site_type_symbol
 _atom_site_label
 _atom_site_symmetry_multiplicity
 _atom_site_fract_x
 _atom_site_fract_y
 _atom_site_fract_z
 _atom_site_occupancy
  Er  Er0  1  0.250000  0.537002  0.173142  1
  Er  Er1  1  0.750000  0.453340  0.829229  1
  Er  Er2  1  0.750000  0.964268  0.680197  1
  Er  Er3  1  0.250000  0.041491  0.323119  1
  Mg  Mg4  1  0.250000  0.636629  0.560385  1
  Mg  Mg5  1  0.750000  0.364019  0.438645  1
  Mg  Mg6  1  0.750000  0.868275  0.057004  1
  Zn  Zn7  1  0.250000  0.134067  0.938049  1
  Ir  Ir8  1  0.250000  0.752491  0.871243  1
  Ir  Ir9  1  0.750000  0.245713  0.126610  1
  Ir  Ir10  1  0.750000  0.751075  0.368993  1
  Ir  Ir11  1  0.250000  0.251630  0.633384  1
