# generated using pymatgen
data_La2YIn5
_symmetry_space_group_name_H-M   'P 1'
_cell_length_a   6.79633700
_cell_length_b   10.70526800
_cell_length_c   12.42757300
_cell_angle_alpha   90.00000000
_cell_angle_beta   90.00000000
_cell_angle_gamma   90.00000000
_symmetry_Int_Tables_number   1
_chemical_formula_structural   La2YIn5
_chemical_formula_sum   'La8 Y4 In20'
_cell_volume   904.18806962
_cell_formula_units_Z   4
loop_
 _symmetry_equiv_pos_site_id
 _symmetry_equiv_pos_as_xyz
  1  'x, y, z'
loop_
 _atom_site_type_symbol
 _atom_site_label
 _atom_site_symmetry_multiplicity
 _atom_site_fract_x
 _atom_site_fract_y
 _atom_site_fract_z
 _atom_site_occupancy
  La  La0  1  0.888632  0.486761  0.143655  1
  La  La1  1  0.611368  0.013239  0.643655  1
  La  La2  1  0.111368  0.986761  0.856345  1
  La  La3  1  0.388632  0.513239  0.356345  1
  La  La4  1  0.111368  0.513239  0.856345  1
  La  La5  1  0.388632  0.986761  0.356345  1
  La  La6  1  0.888632  0.013239  0.143655  1
  La  La7  1  0.611368  0.486761  0.643655  1
  Y  Y8  1  0.348742  0.750000  0.060378  1
  Y  Y9  1  0.151258  0.750000  0.560378  1
  Y  Y10  1  0.651258  0.250000  0.939622  1
  Y  Y11  1  0.848742  0.250000  0.439622  1
  In  In12  1  0.618700  0.750000  0.502710  1
  In  In13  1  0.881300  0.750000  0.002710  1
  In  In14  1  0.381300  0.250000  0.497290  1
  In  In15  1  0.118700  0.250000  0.997290  1
  In  In16  1  0.657952  0.750000  0.240675  1
  In  In17  1  0.842048  0.750000  0.740675  1
  In  In18  1  0.342048  0.250000  0.759325  1
  In  In19  1  0.157952  0.250000  0.259325  1
  In  In20  1  0.103048  0.750000  0.284338  1
  In  In21  1  0.396952  0.750000  0.784338  1
  In  In22  1  0.896952  0.250000  0.715662  1
  In  In23  1  0.603048  0.250000  0.215662  1
  In  In24  1  0.874581  0.545436  0.405844  1
  In  In25  1  0.625419  0.954564  0.905844  1
  In  In26  1  0.125419  0.045436  0.594156  1
  In  In27  1  0.374581  0.454564  0.094156  1
  In  In28  1  0.125419  0.454564  0.594156  1
  In  In29  1  0.374581  0.045436  0.094156  1
  In  In30  1  0.874581  0.954564  0.405844  1
  In  In31  1  0.625419  0.545436  0.905844  1
