# generated using pymatgen
data_Ba4Tm(FeO4)3
_symmetry_space_group_name_H-M   'P 1'
_cell_length_a   10.29148728
_cell_length_b   10.29148817
_cell_length_c   10.29148908
_cell_angle_alpha   33.28493035
_cell_angle_beta   33.28492467
_cell_angle_gamma   33.28492061
_symmetry_Int_Tables_number   1
_chemical_formula_structural   Ba4Tm(FeO4)3
_chemical_formula_sum   'Ba4 Tm1 Fe3 O12'
_cell_volume   292.29167282
_cell_formula_units_Z   1
loop_
 _symmetry_equiv_pos_site_id
 _symmetry_equiv_pos_as_xyz
  1  'x, y, z'
loop_
 _atom_site_type_symbol
 _atom_site_label
 _atom_site_symmetry_multiplicity
 _atom_site_fract_x
 _atom_site_fract_y
 _atom_site_fract_z
 _atom_site_occupancy
  Ba  Ba0  1  0.714707  0.714707  0.714707  1
  Ba  Ba1  1  0.285293  0.285293  0.285293  1
  Ba  Ba2  1  0.870653  0.870653  0.870653  1
  Ba  Ba3  1  0.129347  0.129347  0.129347  1
  Tm  Tm4  1  0.000000  0.000000  0.000000  1
  Fe  Fe5  1  0.409525  0.409525  0.409525  1
  Fe  Fe6  1  0.500000  0.500000  0.500000  1
  Fe  Fe7  1  0.590475  0.590475  0.590475  1
  O  O8  1  0.217016  0.217016  0.696973  1
  O  O9  1  0.696973  0.217016  0.217016  1
  O  O10  1  0.217016  0.696973  0.217016  1
  O  O11  1  0.782984  0.303027  0.782984  1
  O  O12  1  0.782984  0.782984  0.303027  1
  O  O13  1  0.303027  0.782984  0.782984  1
  O  O14  1  0.392870  0.392870  0.833795  1
  O  O15  1  0.833795  0.392870  0.392870  1
  O  O16  1  0.166205  0.607130  0.607130  1
  O  O17  1  0.607130  0.607130  0.166205  1
  O  O18  1  0.607130  0.166205  0.607130  1
  O  O19  1  0.392870  0.833795  0.392870  1
