# generated using pymatgen
data_Nb8Fe7Si14Tc
_symmetry_space_group_name_H-M   'P 1'
_cell_length_a   9.31798309
_cell_length_b   9.31059134
_cell_length_c   9.27397050
_cell_angle_alpha   94.22048055
_cell_angle_beta   94.26290403
_cell_angle_gamma   148.50793272
_symmetry_Int_Tables_number   1
_chemical_formula_structural   Nb8Fe7Si14Tc
_chemical_formula_sum   'Nb8 Fe7 Si14 Tc1'
_cell_volume   404.38066048
_cell_formula_units_Z   1
loop_
 _symmetry_equiv_pos_site_id
 _symmetry_equiv_pos_as_xyz
  1  'x, y, z'
loop_
 _atom_site_type_symbol
 _atom_site_label
 _atom_site_symmetry_multiplicity
 _atom_site_fract_x
 _atom_site_fract_y
 _atom_site_fract_z
 _atom_site_occupancy
  Nb  Nb0  1  0.135266  0.135266  0.270531  1
  Nb  Nb1  1  0.865310  0.865310  0.730622  1
  Nb  Nb2  1  0.864963  0.133103  0.001279  1
  Nb  Nb3  1  0.136316  0.868176  0.001279  1
  Nb  Nb4  1  0.502440  0.692374  0.193593  1
  Nb  Nb5  1  0.498120  0.309326  0.808520  1
  Nb  Nb6  1  0.310400  0.499194  0.808520  1
  Nb  Nb7  1  0.691153  0.501219  0.193593  1
  Fe  Fe8  1  0.104203  0.604203  0.208405  1
  Fe  Fe9  1  0.100777  0.897642  0.500473  1
  Fe  Fe10  1  0.399695  0.602831  0.500473  1
  Fe  Fe11  1  0.595787  0.398925  0.496774  1
  Fe  Fe12  1  0.900987  0.097849  0.496774  1
  Fe  Fe13  1  0.899710  0.399710  0.799421  1
  Fe  Fe14  1  0.599413  0.099413  0.198827  1
  Si  Si15  1  0.290129  0.290129  0.580260  1
  Si  Si16  1  0.709381  0.709381  0.418761  1
  Si  Si17  1  0.722444  0.307914  0.006330  1
  Si  Si18  1  0.283886  0.698416  0.006330  1
  Si  Si19  1  0.998946  0.295231  0.297234  1
  Si  Si20  1  0.981342  0.693593  0.701734  1
  Si  Si21  1  0.720392  0.008141  0.701734  1
  Si  Si22  1  0.298287  0.002003  0.297234  1
  Si  Si23  1  0.510375  0.912813  0.406365  1
  Si  Si24  1  0.513082  0.112722  0.585990  1
  Si  Si25  1  0.072908  0.473267  0.585990  1
  Si  Si26  1  0.895991  0.493552  0.406365  1
  Si  Si27  1  0.751667  0.751921  0.000994  1
  Si  Si28  1  0.249327  0.249072  0.000994  1
  Tc  Tc29  1  0.397301  0.897301  0.794602  1
