# generated using pymatgen
data_YTm3Co5(Ni3B2)3
_symmetry_space_group_name_H-M   'P 1'
_cell_length_a   4.96188495
_cell_length_b   4.96188468
_cell_length_c   13.03596800
_cell_angle_alpha   90.00000000
_cell_angle_beta   90.00000000
_cell_angle_gamma   119.79339176
_symmetry_Int_Tables_number   1
_chemical_formula_structural   YTm3Co5(Ni3B2)3
_chemical_formula_sum   'Y1 Tm3 Co5 Ni9 B6'
_cell_volume   278.52724395
_cell_formula_units_Z   1
loop_
 _symmetry_equiv_pos_site_id
 _symmetry_equiv_pos_as_xyz
  1  'x, y, z'
loop_
 _atom_site_type_symbol
 _atom_site_label
 _atom_site_symmetry_multiplicity
 _atom_site_fract_x
 _atom_site_fract_y
 _atom_site_fract_z
 _atom_site_occupancy
  Y  Y0  1  0.000000  0.000000  0.000989  1
  Tm  Tm1  1  0.000000  0.000000  0.498544  1
  Tm  Tm2  1  0.000000  0.000000  0.738058  1
  Tm  Tm3  1  0.000000  0.000000  0.262973  1
  Co  Co4  1  0.500000  0.000000  0.616387  1
  Co  Co5  1  0.000000  0.500000  0.616387  1
  Co  Co6  1  0.500000  0.500000  0.382735  1
  Co  Co7  1  0.500000  0.000000  0.383200  1
  Co  Co8  1  0.000000  0.500000  0.383200  1
  Ni  Ni9  1  0.666229  0.333771  0.000241  1
  Ni  Ni10  1  0.333771  0.666229  0.000241  1
  Ni  Ni11  1  0.500000  0.500000  0.843240  1
  Ni  Ni12  1  0.500000  0.000000  0.843797  1
  Ni  Ni13  1  0.000000  0.500000  0.843797  1
  Ni  Ni14  1  0.500000  0.500000  0.157288  1
  Ni  Ni15  1  0.500000  0.000000  0.156903  1
  Ni  Ni16  1  0.000000  0.500000  0.156903  1
  Ni  Ni17  1  0.500000  0.500000  0.616482  1
  B  B18  1  0.669170  0.330830  0.498529  1
  B  B19  1  0.330830  0.669170  0.498529  1
  B  B20  1  0.669961  0.330039  0.731288  1
  B  B21  1  0.330039  0.669961  0.731288  1
  B  B22  1  0.332858  0.667142  0.269501  1
  B  B23  1  0.667142  0.332858  0.269501  1
