# generated using pymatgen
data_TbDy4MoRuO12
_symmetry_space_group_name_H-M   'P 1'
_cell_length_a   6.83452160
_cell_length_b   6.83497126
_cell_length_c   7.52919516
_cell_angle_alpha   73.79924829
_cell_angle_beta   73.79100292
_cell_angle_gamma   49.64623525
_symmetry_Int_Tables_number   1
_chemical_formula_structural   TbDy4MoRuO12
_chemical_formula_sum   'Tb1 Dy4 Mo1 Ru1 O12'
_cell_volume   255.04486707
_cell_formula_units_Z   1
loop_
 _symmetry_equiv_pos_site_id
 _symmetry_equiv_pos_as_xyz
  1  'x, y, z'
loop_
 _atom_site_type_symbol
 _atom_site_label
 _atom_site_symmetry_multiplicity
 _atom_site_fract_x
 _atom_site_fract_y
 _atom_site_fract_z
 _atom_site_occupancy
  Tb  Tb0  1  0.315939  0.292381  0.358774  1
  Dy  Dy1  1  0.707732  0.684120  0.641260  1
  Dy  Dy2  1  0.319482  0.307956  0.825210  1
  Dy  Dy3  1  0.692016  0.680550  0.174772  1
  Dy  Dy4  1  0.007381  0.992512  0.500091  1
  Mo  Mo5  1  0.201615  0.798518  0.999938  1
  Ru  Ru6  1  0.763316  0.236787  0.999834  1
  O  O7  1  0.913192  0.427895  0.914762  1
  O  O8  1  0.412757  0.906923  0.917093  1
  O  O9  1  0.092856  0.587572  0.082485  1
  O  O10  1  0.572592  0.086402  0.084640  1
  O  O11  1  0.106484  0.589989  0.572201  1
  O  O12  1  0.599653  0.087991  0.577346  1
  O  O13  1  0.910439  0.401244  0.423477  1
  O  O14  1  0.410867  0.892009  0.428536  1
  O  O15  1  0.993754  0.004186  0.797008  1
  O  O16  1  0.995932  0.006170  0.203052  1
  O  O17  1  0.492522  0.508935  0.820475  1
  O  O18  1  0.491471  0.507861  0.179044  1
