# generated using pymatgen
data_Y12TcIrRu2
_symmetry_space_group_name_H-M   'P 1'
_cell_length_a   6.36985869
_cell_length_b   7.38187717
_cell_length_c   9.22265400
_cell_angle_alpha   90.00000000
_cell_angle_beta   90.00000000
_cell_angle_gamma   90.05895579
_symmetry_Int_Tables_number   1
_chemical_formula_structural   Y12TcIrRu2
_chemical_formula_sum   'Y12 Tc1 Ir1 Ru2'
_cell_volume   433.66292879
_cell_formula_units_Z   1
loop_
 _symmetry_equiv_pos_site_id
 _symmetry_equiv_pos_as_xyz
  1  'x, y, z'
loop_
 _atom_site_type_symbol
 _atom_site_label
 _atom_site_symmetry_multiplicity
 _atom_site_fract_x
 _atom_site_fract_y
 _atom_site_fract_z
 _atom_site_occupancy
  Y  Y0  1  0.634895  0.040150  0.250000  1
  Y  Y1  1  0.367424  0.959529  0.750000  1
  Y  Y2  1  0.128566  0.457638  0.750000  1
  Y  Y3  1  0.867570  0.542660  0.250000  1
  Y  Y4  1  0.168713  0.175990  0.064121  1
  Y  Y5  1  0.831258  0.823613  0.934768  1
  Y  Y6  1  0.669132  0.323667  0.934537  1
  Y  Y7  1  0.831258  0.823613  0.565232  1
  Y  Y8  1  0.333193  0.676865  0.061686  1
  Y  Y9  1  0.168713  0.175990  0.435879  1
  Y  Y10  1  0.333193  0.676865  0.438314  1
  Y  Y11  1  0.669132  0.323667  0.565463  1
  Tc  Tc12  1  0.535719  0.613810  0.750000  1
  Ir  Ir13  1  0.459183  0.384083  0.250000  1
  Ru  Ru14  1  0.962789  0.115562  0.750000  1
  Ru  Ru15  1  0.039260  0.886299  0.250000  1
