# generated using pymatgen
data_CeU3(AgAs2)4
_symmetry_space_group_name_H-M   'P 1'
_cell_length_a   4.04458967
_cell_length_b   4.04479328
_cell_length_c   20.10835143
_cell_angle_alpha   90.10818325
_cell_angle_beta   90.11059330
_cell_angle_gamma   90.12906752
_symmetry_Int_Tables_number   1
_chemical_formula_structural   CeU3(AgAs2)4
_chemical_formula_sum   'Ce1 U3 Ag4 As8'
_cell_volume   328.96112422
_cell_formula_units_Z   1
loop_
 _symmetry_equiv_pos_site_id
 _symmetry_equiv_pos_as_xyz
  1  'x, y, z'
loop_
 _atom_site_type_symbol
 _atom_site_label
 _atom_site_symmetry_multiplicity
 _atom_site_fract_x
 _atom_site_fract_y
 _atom_site_fract_z
 _atom_site_occupancy
  Ce  Ce0  1  0.245211  0.245234  0.890422  1
  U  U1  1  0.254105  0.254066  0.389983  1
  U  U2  1  0.746307  0.746286  0.609541  1
  U  U3  1  0.754528  0.754518  0.112214  1
  Ag  Ag4  1  0.241733  0.742228  0.747978  1
  Ag  Ag5  1  0.258258  0.758809  0.250670  1
  Ag  Ag6  1  0.758830  0.258266  0.250666  1
  Ag  Ag7  1  0.742230  0.241731  0.747983  1
  As  As8  1  0.743844  0.743871  0.842324  1
  As  As9  1  0.255123  0.255118  0.152466  1
  As  As10  1  0.245212  0.245193  0.649408  1
  As  As11  1  0.754960  0.755011  0.348967  1
  As  As12  1  0.250739  0.748908  0.003955  1
  As  As13  1  0.249724  0.750264  0.499728  1
  As  As14  1  0.748880  0.250769  0.003963  1
  As  As15  1  0.750314  0.249728  0.499734  1
