# generated using pymatgen
data_Y4Al21Pt10
_symmetry_space_group_name_H-M   'P 1'
_cell_length_a   11.01925491
_cell_length_b   11.01925591
_cell_length_c   16.01430520
_cell_angle_alpha   55.93323191
_cell_angle_beta   55.93322893
_cell_angle_gamma   22.07213228
_symmetry_Int_Tables_number   1
_chemical_formula_structural   Y4Al21Pt10
_chemical_formula_sum   'Y4 Al21 Pt10'
_cell_volume   600.01368274
_cell_formula_units_Z   1
loop_
 _symmetry_equiv_pos_site_id
 _symmetry_equiv_pos_as_xyz
  1  'x, y, z'
loop_
 _atom_site_type_symbol
 _atom_site_label
 _atom_site_symmetry_multiplicity
 _atom_site_fract_x
 _atom_site_fract_y
 _atom_site_fract_z
 _atom_site_occupancy
  Y  Y0  1  0.877893  0.877893  0.334871  1
  Y  Y1  1  0.122107  0.122107  0.665129  1
  Y  Y2  1  0.228609  0.228609  0.177673  1
  Y  Y3  1  0.771391  0.771391  0.822327  1
  Al  Al4  1  0.459991  0.459991  0.368142  1
  Al  Al5  1  0.540009  0.540009  0.631858  1
  Al  Al6  1  0.800565  0.800565  0.001438  1
  Al  Al7  1  0.199435  0.199435  0.998562  1
  Al  Al8  1  0.701448  0.701448  0.497061  1
  Al  Al9  1  0.298552  0.298552  0.502939  1
  Al  Al10  1  0.884547  0.884547  0.550076  1
  Al  Al11  1  0.115453  0.115453  0.449924  1
  Al  Al12  1  0.614477  0.614477  0.296827  1
  Al  Al13  1  0.385523  0.385523  0.703173  1
  Al  Al14  1  0.751221  0.751221  0.293651  1
  Al  Al15  1  0.248779  0.248779  0.706349  1
  Al  Al16  1  0.602287  0.602287  0.002697  1
  Al  Al17  1  0.397713  0.397713  0.997303  1
  Al  Al18  1  0.992887  0.992887  0.091873  1
  Al  Al19  1  0.007113  0.007113  0.908127  1
  Al  Al20  1  0.935660  0.935660  0.796854  1
  Al  Al21  1  0.064340  0.064340  0.203146  1
  Al  Al22  1  0.500000  0.500000  0.500000  1
  Al  Al23  1  0.371393  0.371393  0.195316  1
  Al  Al24  1  0.628607  0.628607  0.804684  1
  Pt  Pt25  1  0.494272  0.494272  0.185850  1
  Pt  Pt26  1  0.505728  0.505728  0.814150  1
  Pt  Pt27  1  0.867677  0.867677  0.103198  1
  Pt  Pt28  1  0.132323  0.132323  0.896802  1
  Pt  Pt29  1  0.750224  0.750224  0.614138  1
  Pt  Pt30  1  0.249776  0.249776  0.385862  1
  Pt  Pt31  1  0.656280  0.656280  0.110783  1
  Pt  Pt32  1  0.343720  0.343720  0.889217  1
  Pt  Pt33  1  0.973818  0.973818  0.611970  1
  Pt  Pt34  1  0.026182  0.026182  0.388030  1
