# generated using pymatgen
data_Dy12Ir2PtRh
_symmetry_space_group_name_H-M   'P 1'
_cell_length_a   6.39487382
_cell_length_b   7.19353180
_cell_length_c   9.39317100
_cell_angle_alpha   90.00000000
_cell_angle_beta   90.00000000
_cell_angle_gamma   90.08374176
_symmetry_Int_Tables_number   1
_chemical_formula_structural   Dy12Ir2PtRh
_chemical_formula_sum   'Dy12 Ir2 Pt1 Rh1'
_cell_volume   432.10163749
_cell_formula_units_Z   1
loop_
 _symmetry_equiv_pos_site_id
 _symmetry_equiv_pos_as_xyz
  1  'x, y, z'
loop_
 _atom_site_type_symbol
 _atom_site_label
 _atom_site_symmetry_multiplicity
 _atom_site_fract_x
 _atom_site_fract_y
 _atom_site_fract_z
 _atom_site_occupancy
  Dy  Dy0  1  0.330722  0.676175  0.060850  1
  Dy  Dy1  1  0.174048  0.181384  0.438895  1
  Dy  Dy2  1  0.672544  0.322211  0.562598  1
  Dy  Dy3  1  0.825584  0.821980  0.935247  1
  Dy  Dy4  1  0.672544  0.322211  0.937402  1
  Dy  Dy5  1  0.825584  0.821980  0.564753  1
  Dy  Dy6  1  0.330722  0.676175  0.439150  1
  Dy  Dy7  1  0.174048  0.181384  0.061105  1
  Dy  Dy8  1  0.866285  0.528252  0.250000  1
  Dy  Dy9  1  0.628234  0.035540  0.250000  1
  Dy  Dy10  1  0.131610  0.466761  0.750000  1
  Dy  Dy11  1  0.368607  0.964923  0.750000  1
  Ir  Ir12  1  0.449130  0.383923  0.250000  1
  Ir  Ir13  1  0.547637  0.616034  0.750000  1
  Pt  Pt14  1  0.050816  0.884517  0.250000  1
  Rh  Rh15  1  0.951885  0.116554  0.750000  1
