# generated using pymatgen
data_Nd(TmTe2)2
_symmetry_space_group_name_H-M   'P 1'
_cell_length_a   4.33720300
_cell_length_b   7.51217250
_cell_length_c   7.64381914
_cell_angle_alpha   71.84653565
_cell_angle_beta   90.00000000
_cell_angle_gamma   90.00000000
_symmetry_Int_Tables_number   1
_chemical_formula_structural   Nd(TmTe2)2
_chemical_formula_sum   'Nd1 Tm2 Te4'
_cell_volume   236.65318114
_cell_formula_units_Z   1
loop_
 _symmetry_equiv_pos_site_id
 _symmetry_equiv_pos_as_xyz
  1  'x, y, z'
loop_
 _atom_site_type_symbol
 _atom_site_label
 _atom_site_symmetry_multiplicity
 _atom_site_fract_x
 _atom_site_fract_y
 _atom_site_fract_z
 _atom_site_occupancy
  Nd  Nd0  1  0.000000  0.500000  0.500000  1
  Tm  Tm1  1  0.000000  0.000000  0.000000  1
  Tm  Tm2  1  0.500000  0.500000  0.000000  1
  Te  Te3  1  0.500000  0.763227  0.243640  1
  Te  Te4  1  0.000000  0.250215  0.239410  1
  Te  Te5  1  0.500000  0.236773  0.756360  1
  Te  Te6  1  0.000000  0.749785  0.760590  1
