# generated using pymatgen
data_Ba4TbDy(AlSe5)2
_symmetry_space_group_name_H-M   'P 1'
_cell_length_a   7.41274934
_cell_length_b   8.80058522
_cell_length_c   9.56068702
_cell_angle_alpha   103.55891968
_cell_angle_beta   102.92216964
_cell_angle_gamma   107.44717028
_symmetry_Int_Tables_number   1
_chemical_formula_structural   Ba4TbDy(AlSe5)2
_chemical_formula_sum   'Ba4 Tb1 Dy1 Al2 Se10'
_cell_volume   548.61028142
_cell_formula_units_Z   1
loop_
 _symmetry_equiv_pos_site_id
 _symmetry_equiv_pos_as_xyz
  1  'x, y, z'
loop_
 _atom_site_type_symbol
 _atom_site_label
 _atom_site_symmetry_multiplicity
 _atom_site_fract_x
 _atom_site_fract_y
 _atom_site_fract_z
 _atom_site_occupancy
  Ba  Ba0  1  0.632329  0.977135  0.289719  1
  Ba  Ba1  1  0.367706  0.022892  0.710297  1
  Ba  Ba2  1  0.340764  0.510135  0.706031  1
  Ba  Ba3  1  0.659192  0.489832  0.293940  1
  Tb  Tb4  1  0.997815  0.729055  0.998178  1
  Dy  Dy5  1  0.002161  0.271006  0.001790  1
  Al  Al6  1  0.807129  0.872984  0.691391  1
  Al  Al7  1  0.192870  0.127065  0.308589  1
  Se  Se8  1  0.988643  0.687622  0.686757  1
  Se  Se9  1  0.011333  0.312324  0.312661  1
  Se  Se10  1  0.984693  0.150217  0.690651  1
  Se  Se11  1  0.015348  0.850071  0.309979  1
  Se  Se12  1  0.713824  0.908377  0.924265  1
  Se  Se13  1  0.286146  0.092234  0.075729  1
  Se  Se14  1  0.707278  0.411217  0.946751  1
  Se  Se15  1  0.292770  0.587838  0.053267  1
  Se  Se16  1  0.496520  0.744098  0.495809  1
  Se  Se17  1  0.503478  0.255898  0.504195  1
