# generated using pymatgen
data_Y4Cd2Cu3Rh
_symmetry_space_group_name_H-M   'P 1'
_cell_length_a   7.54308815
_cell_length_b   7.54308815
_cell_length_c   3.77482400
_cell_angle_alpha   90.00000000
_cell_angle_beta   90.00000000
_cell_angle_gamma   89.44600586
_symmetry_Int_Tables_number   1
_chemical_formula_structural   Y4Cd2Cu3Rh
_chemical_formula_sum   'Y4 Cd2 Cu3 Rh1'
_cell_volume   214.77057121
_cell_formula_units_Z   1
loop_
 _symmetry_equiv_pos_site_id
 _symmetry_equiv_pos_as_xyz
  1  'x, y, z'
loop_
 _atom_site_type_symbol
 _atom_site_label
 _atom_site_symmetry_multiplicity
 _atom_site_fract_x
 _atom_site_fract_y
 _atom_site_fract_z
 _atom_site_occupancy
  Y  Y0  1  0.672962  0.172962  0.500000  1
  Y  Y1  1  0.317536  0.817536  0.500000  1
  Y  Y2  1  0.179372  0.335234  0.500000  1
  Y  Y3  1  0.835234  0.679372  0.500000  1
  Cd  Cd4  1  0.999043  0.004176  0.000000  1
  Cd  Cd5  1  0.504176  0.499043  0.000000  1
  Cu  Cu6  1  0.875068  0.375068  0.000000  1
  Cu  Cu7  1  0.617112  0.879865  0.000000  1
  Cu  Cu8  1  0.379865  0.117112  0.000000  1
  Rh  Rh9  1  0.119632  0.619632  0.000000  1
