# generated using pymatgen
data_MnAlB4Mo3W
_symmetry_space_group_name_H-M   'P 1'
_cell_length_a   5.84164857
_cell_length_b   5.85464239
_cell_length_c   3.16987400
_cell_angle_alpha   90.00000000
_cell_angle_beta   90.00000000
_cell_angle_gamma   90.13842057
_symmetry_Int_Tables_number   1
_chemical_formula_structural   MnAlB4Mo3W
_chemical_formula_sum   'Mn1 Al1 B4 Mo3 W1'
_cell_volume   108.41179416
_cell_formula_units_Z   1
loop_
 _symmetry_equiv_pos_site_id
 _symmetry_equiv_pos_as_xyz
  1  'x, y, z'
loop_
 _atom_site_type_symbol
 _atom_site_label
 _atom_site_symmetry_multiplicity
 _atom_site_fract_x
 _atom_site_fract_y
 _atom_site_fract_z
 _atom_site_occupancy
  Mn  Mn0  1  0.999981  0.999808  0.000000  1
  Al  Al1  1  0.499061  0.501963  0.000000  1
  B  B2  1  0.111516  0.611209  0.000000  1
  B  B3  1  0.886796  0.387670  0.000000  1
  B  B4  1  0.612337  0.888322  0.000000  1
  B  B5  1  0.388918  0.112802  0.000000  1
  Mo  Mo6  1  0.318623  0.827248  0.500000  1
  Mo  Mo7  1  0.173470  0.319248  0.500000  1
  Mo  Mo8  1  0.827263  0.679908  0.500000  1
  W  W9  1  0.682038  0.171821  0.500000  1
