# generated using pymatgen
data_Hf3Re3Ge2B
_symmetry_space_group_name_H-M   'P 1'
_cell_length_a   6.94614400
_cell_length_b   6.94614473
_cell_length_c   3.33369800
_cell_angle_alpha   90.00000000
_cell_angle_beta   90.00000000
_cell_angle_gamma   119.99999655
_symmetry_Int_Tables_number   1
_chemical_formula_structural   Hf3Re3Ge2B
_chemical_formula_sum   'Hf3 Re3 Ge2 B1'
_cell_volume   139.29788147
_cell_formula_units_Z   1
loop_
 _symmetry_equiv_pos_site_id
 _symmetry_equiv_pos_as_xyz
  1  'x, y, z'
loop_
 _atom_site_type_symbol
 _atom_site_label
 _atom_site_symmetry_multiplicity
 _atom_site_fract_x
 _atom_site_fract_y
 _atom_site_fract_z
 _atom_site_occupancy
  Hf  Hf0  1  0.383711  0.383711  0.500000  1
  Hf  Hf1  1  0.616289  0.000000  0.500000  1
  Hf  Hf2  1  0.000000  0.616289  0.500000  1
  Re  Re3  1  0.761172  0.761172  0.000000  1
  Re  Re4  1  0.238828  0.000000  0.000000  1
  Re  Re5  1  0.000000  0.238828  0.000000  1
  Ge  Ge6  1  0.666667  0.333333  0.000000  1
  Ge  Ge7  1  0.333333  0.666667  0.000000  1
  B  B8  1  0.000000  0.000000  0.500000  1
