# generated using pymatgen
data_RbNa3(SiP)12
_symmetry_space_group_name_H-M   'P 1'
_cell_length_a   3.52392200
_cell_length_b   9.88874886
_cell_length_c   18.48302914
_cell_angle_alpha   91.82120318
_cell_angle_beta   90.00000000
_cell_angle_gamma   90.00000000
_symmetry_Int_Tables_number   1
_chemical_formula_structural   RbNa3(SiP)12
_chemical_formula_sum   'Rb1 Na3 Si12 P12'
_cell_volume   643.75609105
_cell_formula_units_Z   1
loop_
 _symmetry_equiv_pos_site_id
 _symmetry_equiv_pos_as_xyz
  1  'x, y, z'
loop_
 _atom_site_type_symbol
 _atom_site_label
 _atom_site_symmetry_multiplicity
 _atom_site_fract_x
 _atom_site_fract_y
 _atom_site_fract_z
 _atom_site_occupancy
  Rb  Rb0  1  0.000000  0.817941  0.197008  1
  Na  Na1  1  0.000000  0.324031  0.303839  1
  Na  Na2  1  0.000000  0.672629  0.699640  1
  Na  Na3  1  0.000000  0.174577  0.797756  1
  Si  Si4  1  0.500000  0.411087  0.030154  1
  Si  Si5  1  0.500000  0.599022  0.955398  1
  Si  Si6  1  0.500000  0.095203  0.539344  1
  Si  Si7  1  0.500000  0.895746  0.467504  1
  Si  Si8  1  0.000000  0.120264  0.013897  1
  Si  Si9  1  0.000000  0.891017  0.979860  1
  Si  Si10  1  0.000000  0.381764  0.520272  1
  Si  Si11  1  0.000000  0.609006  0.491983  1
  Si  Si12  1  0.000000  0.198490  0.136256  1
  Si  Si13  1  0.000000  0.823714  0.856732  1
  Si  Si14  1  0.000000  0.322038  0.642239  1
  Si  Si15  1  0.000000  0.659656  0.369298  1
  P  P16  1  0.500000  0.138454  0.202902  1
  P  P17  1  0.500000  0.886893  0.790502  1
  P  P18  1  0.500000  0.389365  0.709613  1
  P  P19  1  0.500000  0.587402  0.304187  1
  P  P20  1  0.500000  0.277242  0.463129  1
  P  P21  1  0.500000  0.717531  0.546681  1
  P  P22  1  0.500000  0.217378  0.956375  1
  P  P23  1  0.500000  0.786981  0.032919  1
  P  P24  1  0.000000  0.425437  0.107965  1
  P  P25  1  0.000000  0.592993  0.877815  1
  P  P26  1  0.000000  0.091263  0.616907  1
  P  P27  1  0.000000  0.892875  0.389824  1
