# generated using pymatgen
data_HoCoRe2C
_symmetry_space_group_name_H-M   'P 1'
_cell_length_a   5.66384615
_cell_length_b   5.66384724
_cell_length_c   7.46574300
_cell_angle_alpha   90.00000000
_cell_angle_beta   90.00000000
_cell_angle_gamma   140.47903979
_symmetry_Int_Tables_number   1
_chemical_formula_structural   HoCoRe2C
_chemical_formula_sum   'Ho2 Co2 Re4 C2'
_cell_volume   152.40499451
_cell_formula_units_Z   2
loop_
 _symmetry_equiv_pos_site_id
 _symmetry_equiv_pos_as_xyz
  1  'x, y, z'
loop_
 _atom_site_type_symbol
 _atom_site_label
 _atom_site_symmetry_multiplicity
 _atom_site_fract_x
 _atom_site_fract_y
 _atom_site_fract_z
 _atom_site_occupancy
  Ho  Ho0  1  0.534074  0.465926  0.250000  1
  Ho  Ho1  1  0.465926  0.534074  0.750000  1
  Co  Co2  1  0.259027  0.740973  0.250000  1
  Co  Co3  1  0.740973  0.259027  0.750000  1
  Re  Re4  1  0.822382  0.177618  0.065773  1
  Re  Re5  1  0.177618  0.822382  0.934227  1
  Re  Re6  1  0.177618  0.822382  0.565773  1
  Re  Re7  1  0.822382  0.177618  0.434227  1
  C  C8  1  0.000000  0.000000  0.000000  1
  C  C9  1  0.000000  0.000000  0.500000  1
