# generated using pymatgen
data_Ta2P6PbO21
_symmetry_space_group_name_H-M   'P 1'
_cell_length_a   8.60885201
_cell_length_b   8.60883568
_cell_length_c   12.58579100
_cell_angle_alpha   85.20835392
_cell_angle_beta   85.20799570
_cell_angle_gamma   77.16493635
_symmetry_Int_Tables_number   1
_chemical_formula_structural   Ta2P6PbO21
_chemical_formula_sum   'Ta4 P12 Pb2 O42'
_cell_volume   904.24651106
_cell_formula_units_Z   2
loop_
 _symmetry_equiv_pos_site_id
 _symmetry_equiv_pos_as_xyz
  1  'x, y, z'
loop_
 _atom_site_type_symbol
 _atom_site_label
 _atom_site_symmetry_multiplicity
 _atom_site_fract_x
 _atom_site_fract_y
 _atom_site_fract_z
 _atom_site_occupancy
  Ta  Ta0  1  0.282236  0.282245  0.183969  1
  Ta  Ta1  1  0.244438  0.755568  0.499999  1
  Ta  Ta2  1  0.755566  0.244442  0.499999  1
  Ta  Ta3  1  0.717762  0.717776  0.816028  1
  P  P4  1  0.665999  0.210727  0.099106  1
  P  P5  1  0.137358  0.137326  0.582857  1
  P  P6  1  0.342847  0.342864  0.459848  1
  P  P7  1  0.210747  0.666006  0.099103  1
  P  P8  1  0.340755  0.865057  0.233149  1
  P  P9  1  0.659229  0.134961  0.766867  1
  P  P10  1  0.333991  0.789234  0.900897  1
  P  P11  1  0.657144  0.657164  0.540131  1
  P  P12  1  0.134944  0.659229  0.766847  1
  P  P13  1  0.865046  0.340746  0.233129  1
  P  P14  1  0.862695  0.862663  0.417159  1
  P  P15  1  0.789252  0.333996  0.900897  1
  Pb  Pb16  1  0.222014  0.222000  0.864718  1
  Pb  Pb17  1  0.777987  0.777972  0.135315  1
  O  O18  1  0.281030  0.813367  0.348452  1
  O  O19  1  0.186681  0.718921  0.651545  1
  O  O20  1  0.823041  0.214645  0.157791  1
  O  O21  1  0.176956  0.785284  0.842217  1
  O  O22  1  0.014858  0.781719  0.476327  1
  O  O23  1  0.723457  0.723454  0.955469  1
  O  O24  1  0.267441  0.523406  0.177927  1
  O  O25  1  0.316391  0.947994  0.943239  1
  O  O26  1  0.985117  0.218273  0.523748  1
  O  O27  1  0.218280  0.985144  0.523698  1
  O  O28  1  0.813386  0.281076  0.348459  1
  O  O29  1  0.523398  0.267442  0.177928  1
  O  O30  1  0.477473  0.714350  0.523130  1
  O  O31  1  0.718868  0.186673  0.651538  1
  O  O32  1  0.214703  0.823049  0.157773  1
  O  O33  1  0.948008  0.316418  0.943244  1
  O  O34  1  0.777148  0.505383  0.205030  1
  O  O35  1  0.298787  0.298820  0.355794  1
  O  O36  1  0.732555  0.476617  0.822092  1
  O  O37  1  0.494596  0.222830  0.794998  1
  O  O38  1  0.112399  0.112323  0.700187  1
  O  O39  1  0.952145  0.689602  0.776803  1
  O  O40  1  0.683563  0.051965  0.056772  1
  O  O41  1  0.476608  0.732552  0.822085  1
  O  O42  1  0.222779  0.494573  0.794933  1
  O  O43  1  0.522544  0.285677  0.476811  1
  O  O44  1  0.714339  0.477470  0.523151  1
  O  O45  1  0.689572  0.952169  0.776826  1
  O  O46  1  0.781736  0.014882  0.476284  1
  O  O47  1  0.654940  0.345029  0.999999  1
  O  O48  1  0.785339  0.176963  0.842198  1
  O  O49  1  0.257573  0.257566  0.558454  1
  O  O50  1  0.505411  0.777188  0.205089  1
  O  O51  1  0.310402  0.047854  0.223165  1
  O  O52  1  0.276595  0.276579  0.044525  1
  O  O53  1  0.285673  0.522538  0.476837  1
  O  O54  1  0.051980  0.683597  0.056774  1
  O  O55  1  0.887713  0.887640  0.299826  1
  O  O56  1  0.742453  0.742452  0.441540  1
  O  O57  1  0.701170  0.701200  0.644193  1
  O  O58  1  0.047837  0.310422  0.223136  1
  O  O59  1  0.345050  0.654918  0.999997  1
