# generated using pymatgen
data_Dy2Ho2Ni13C4
_symmetry_space_group_name_H-M   'P 1'
_cell_length_a   8.36881237
_cell_length_b   8.36881257
_cell_length_c   3.84102400
_cell_angle_alpha   90.00000000
_cell_angle_beta   90.00000000
_cell_angle_gamma   91.09488738
_symmetry_Int_Tables_number   1
_chemical_formula_structural   Dy2Ho2Ni13C4
_chemical_formula_sum   'Dy2 Ho2 Ni13 C4'
_cell_volume   268.96476685
_cell_formula_units_Z   1
loop_
 _symmetry_equiv_pos_site_id
 _symmetry_equiv_pos_as_xyz
  1  'x, y, z'
loop_
 _atom_site_type_symbol
 _atom_site_label
 _atom_site_symmetry_multiplicity
 _atom_site_fract_x
 _atom_site_fract_y
 _atom_site_fract_z
 _atom_site_occupancy
  Dy  Dy0  1  0.348690  0.348690  0.500000  1
  Dy  Dy1  1  0.651310  0.651310  0.500000  1
  Ho  Ho2  1  0.812948  0.187052  0.500000  1
  Ho  Ho3  1  0.187052  0.812948  0.500000  1
  Ni  Ni4  1  0.000000  0.000000  0.000000  1
  Ni  Ni5  1  0.215399  0.570005  0.000000  1
  Ni  Ni6  1  0.784601  0.429995  0.000000  1
  Ni  Ni7  1  0.429995  0.784601  0.000000  1
  Ni  Ni8  1  0.570005  0.215399  0.000000  1
  Ni  Ni9  1  0.000000  0.500000  0.500000  1
  Ni  Ni10  1  0.500000  0.000000  0.500000  1
  Ni  Ni11  1  0.073801  0.290905  0.000000  1
  Ni  Ni12  1  0.926199  0.709095  0.000000  1
  Ni  Ni13  1  0.709095  0.926199  0.000000  1
  Ni  Ni14  1  0.290905  0.073801  0.000000  1
  Ni  Ni15  1  0.123435  0.123435  0.500000  1
  Ni  Ni16  1  0.876565  0.876565  0.500000  1
  C  C17  1  0.442935  0.557065  0.000000  1
  C  C18  1  0.557065  0.442935  0.000000  1
  C  C19  1  0.000000  0.500000  0.000000  1
  C  C20  1  0.500000  0.000000  0.000000  1
