# generated using pymatgen
data_CaPrMnNbO6
_symmetry_space_group_name_H-M   'P 1'
_cell_length_a   8.08735931
_cell_length_b   8.08738912
_cell_length_c   9.77213981
_cell_angle_alpha   66.83690795
_cell_angle_beta   66.83704361
_cell_angle_gamma   92.46691152
_symmetry_Int_Tables_number   1
_chemical_formula_structural   CaPrMnNbO6
_chemical_formula_sum   'Ca4 Pr4 Mn4 Nb4 O24'
_cell_volume   525.26612020
_cell_formula_units_Z   4
loop_
 _symmetry_equiv_pos_site_id
 _symmetry_equiv_pos_as_xyz
  1  'x, y, z'
loop_
 _atom_site_type_symbol
 _atom_site_label
 _atom_site_symmetry_multiplicity
 _atom_site_fract_x
 _atom_site_fract_y
 _atom_site_fract_z
 _atom_site_occupancy
  Ca  Ca0  1  0.407999  0.854633  0.249976  1
  Ca  Ca1  1  0.907988  0.354644  0.249982  1
  Ca  Ca2  1  0.104639  0.157991  0.749978  1
  Ca  Ca3  1  0.604633  0.657983  0.749983  1
  Pr  Pr4  1  0.084393  0.646410  0.753201  1
  Pr  Pr5  1  0.584378  0.146411  0.753210  1
  Pr  Pr6  1  0.396414  0.334389  0.253203  1
  Pr  Pr7  1  0.896407  0.834377  0.253211  1
  Mn  Mn8  1  0.500219  0.996821  0.500397  1
  Mn  Mn9  1  0.746830  0.750226  0.000407  1
  Mn  Mn10  1  0.000238  0.496810  0.500411  1
  Mn  Mn11  1  0.246784  0.250205  0.000421  1
  Nb  Nb12  1  0.752700  0.245228  0.001352  1
  Nb  Nb13  1  0.252709  0.745228  0.001355  1
  Nb  Nb14  1  0.495233  0.502701  0.501355  1
  Nb  Nb15  1  0.995229  0.002705  0.501355  1
  O  O16  1  0.265158  0.982065  0.439163  1
  O  O17  1  0.765159  0.482067  0.439166  1
  O  O18  1  0.732066  0.515160  0.939162  1
  O  O19  1  0.232063  0.015155  0.939165  1
  O  O20  1  0.232673  0.527595  0.558291  1
  O  O21  1  0.732670  0.027597  0.558292  1
  O  O22  1  0.777595  0.982672  0.058292  1
  O  O23  1  0.277588  0.482667  0.058293  1
  O  O24  1  0.578545  0.768654  0.446604  1
  O  O25  1  0.078553  0.268657  0.446601  1
  O  O26  1  0.018652  0.328553  0.946599  1
  O  O27  1  0.518657  0.828544  0.946607  1
  O  O28  1  0.921956  0.735608  0.551318  1
  O  O29  1  0.421958  0.235609  0.551319  1
  O  O30  1  0.485602  0.171957  0.051320  1
  O  O31  1  0.985610  0.671957  0.051322  1
  O  O32  1  0.952896  0.914860  0.739102  1
  O  O33  1  0.452885  0.414853  0.739108  1
  O  O34  1  0.164859  0.702896  0.239104  1
  O  O35  1  0.664859  0.202895  0.239101  1
  O  O36  1  0.543544  0.588063  0.260569  1
  O  O37  1  0.043530  0.088062  0.260575  1
  O  O38  1  0.338064  0.793546  0.760568  1
  O  O39  1  0.838064  0.293541  0.760566  1
