# generated using pymatgen
data_Ce2Nd3Lu3(CdIr)2
_symmetry_space_group_name_H-M   'P 1'
_cell_length_a   9.70346372
_cell_length_b   9.70346473
_cell_length_c   9.70346400
_cell_angle_alpha   60.00000251
_cell_angle_beta   59.99999903
_cell_angle_gamma   60.00000086
_symmetry_Int_Tables_number   1
_chemical_formula_structural   Ce2Nd3Lu3(CdIr)2
_chemical_formula_sum   'Ce4 Nd6 Lu6 Cd4 Ir4'
_cell_volume   646.04895309
_cell_formula_units_Z   2
loop_
 _symmetry_equiv_pos_site_id
 _symmetry_equiv_pos_as_xyz
  1  'x, y, z'
loop_
 _atom_site_type_symbol
 _atom_site_label
 _atom_site_symmetry_multiplicity
 _atom_site_fract_x
 _atom_site_fract_y
 _atom_site_fract_z
 _atom_site_occupancy
  Ce  Ce0  1  0.349067  0.349067  0.349067  1
  Ce  Ce1  1  0.349067  0.349067  0.952798  1
  Ce  Ce2  1  0.349067  0.952798  0.349067  1
  Ce  Ce3  1  0.952798  0.349067  0.349067  1
  Nd  Nd4  1  0.941444  0.558556  0.558556  1
  Nd  Nd5  1  0.558556  0.941444  0.941444  1
  Nd  Nd6  1  0.558556  0.941444  0.558556  1
  Nd  Nd7  1  0.941444  0.558556  0.941444  1
  Nd  Nd8  1  0.558556  0.558556  0.941444  1
  Nd  Nd9  1  0.941444  0.941444  0.558556  1
  Lu  Lu10  1  0.815552  0.184448  0.184448  1
  Lu  Lu11  1  0.184448  0.815552  0.815552  1
  Lu  Lu12  1  0.184448  0.815552  0.184448  1
  Lu  Lu13  1  0.815552  0.184448  0.815552  1
  Lu  Lu14  1  0.184448  0.184448  0.815552  1
  Lu  Lu15  1  0.815552  0.815552  0.184448  1
  Cd  Cd16  1  0.579578  0.579578  0.579578  1
  Cd  Cd17  1  0.579578  0.579578  0.261266  1
  Cd  Cd18  1  0.579578  0.261266  0.579578  1
  Cd  Cd19  1  0.261266  0.579578  0.579578  1
  Ir  Ir20  1  0.141896  0.141896  0.141896  1
  Ir  Ir21  1  0.141896  0.141896  0.574310  1
  Ir  Ir22  1  0.141896  0.574310  0.141896  1
  Ir  Ir23  1  0.574310  0.141896  0.141896  1
