# generated using pymatgen
data_Er4Hf3ZnPt4
_symmetry_space_group_name_H-M   'P 1'
_cell_length_a   4.54226200
_cell_length_b   6.98183413
_cell_length_c   8.21207716
_cell_angle_alpha   86.84342628
_cell_angle_beta   90.00000000
_cell_angle_gamma   90.00000000
_symmetry_Int_Tables_number   1
_chemical_formula_structural   Er4Hf3ZnPt4
_chemical_formula_sum   'Er4 Hf3 Zn1 Pt4'
_cell_volume   260.03709837
_cell_formula_units_Z   1
loop_
 _symmetry_equiv_pos_site_id
 _symmetry_equiv_pos_as_xyz
  1  'x, y, z'
loop_
 _atom_site_type_symbol
 _atom_site_label
 _atom_site_symmetry_multiplicity
 _atom_site_fract_x
 _atom_site_fract_y
 _atom_site_fract_z
 _atom_site_occupancy
  Er  Er0  1  0.250000  0.509989  0.163602  1
  Er  Er1  1  0.750000  0.456256  0.831970  1
  Er  Er2  1  0.750000  0.984151  0.684447  1
  Er  Er3  1  0.250000  0.032535  0.308703  1
  Hf  Hf4  1  0.250000  0.647833  0.574289  1
  Hf  Hf5  1  0.750000  0.365849  0.431184  1
  Hf  Hf6  1  0.750000  0.857018  0.062215  1
  Zn  Zn7  1  0.250000  0.142610  0.930125  1
  Pt  Pt8  1  0.250000  0.759940  0.888269  1
  Pt  Pt9  1  0.750000  0.232881  0.127649  1
  Pt  Pt10  1  0.750000  0.743451  0.395507  1
  Pt  Pt11  1  0.250000  0.267487  0.602042  1
