# generated using pymatgen
data_Hf5MnPt2
_symmetry_space_group_name_H-M   'P 1'
_cell_length_a   5.58688915
_cell_length_b   7.93018192
_cell_length_c   7.93018304
_cell_angle_alpha   82.47293976
_cell_angle_beta   69.28320376
_cell_angle_gamma   69.28319768
_symmetry_Int_Tables_number   1
_chemical_formula_structural   Hf5MnPt2
_chemical_formula_sum   'Hf10 Mn2 Pt4'
_cell_volume   307.37322057
_cell_formula_units_Z   2
loop_
 _symmetry_equiv_pos_site_id
 _symmetry_equiv_pos_as_xyz
  1  'x, y, z'
loop_
 _atom_site_type_symbol
 _atom_site_label
 _atom_site_symmetry_multiplicity
 _atom_site_fract_x
 _atom_site_fract_y
 _atom_site_fract_z
 _atom_site_occupancy
  Hf  Hf0  1  0.079196  0.119192  0.722266  1
  Hf  Hf1  1  0.920804  0.880808  0.277734  1
  Hf  Hf2  1  0.801516  0.278246  0.118707  1
  Hf  Hf3  1  0.420804  0.277734  0.880808  1
  Hf  Hf4  1  0.198484  0.721754  0.881293  1
  Hf  Hf5  1  0.579196  0.722266  0.119192  1
  Hf  Hf6  1  0.698484  0.881293  0.721754  1
  Hf  Hf7  1  0.301516  0.118707  0.278246  1
  Hf  Hf8  1  0.250000  0.499663  0.500337  1
  Hf  Hf9  1  0.750000  0.500337  0.499663  1
  Mn  Mn10  1  0.250000  0.000025  0.999975  1
  Mn  Mn11  1  0.750000  0.999975  0.000025  1
  Pt  Pt12  1  0.159181  0.499661  0.182881  1
  Pt  Pt13  1  0.840819  0.500339  0.817119  1
  Pt  Pt14  1  0.340819  0.817119  0.500339  1
  Pt  Pt15  1  0.659181  0.182881  0.499661  1
