# generated using pymatgen
data_Dy2Y3Zr3(Co4As3)4
_symmetry_space_group_name_H-M   'P 1'
_cell_length_a   12.73638502
_cell_length_b   12.73751029
_cell_length_c   3.83566000
_cell_angle_alpha   90.00000000
_cell_angle_beta   90.00000000
_cell_angle_gamma   120.00292852
_symmetry_Int_Tables_number   1
_chemical_formula_structural   Dy2Y3Zr3(Co4As3)4
_chemical_formula_sum   'Dy2 Y3 Zr3 Co16 As12'
_cell_volume   538.87575662
_cell_formula_units_Z   1
loop_
 _symmetry_equiv_pos_site_id
 _symmetry_equiv_pos_as_xyz
  1  'x, y, z'
loop_
 _atom_site_type_symbol
 _atom_site_label
 _atom_site_symmetry_multiplicity
 _atom_site_fract_x
 _atom_site_fract_y
 _atom_site_fract_z
 _atom_site_occupancy
  Dy  Dy0  1  0.182308  0.182404  0.500000  1
  Dy  Dy1  1  0.817692  0.000096  0.500000  1
  Y  Y2  1  0.000000  0.817692  0.500000  1
  Y  Y3  1  0.333336  0.666617  0.000000  1
  Y  Y4  1  0.666664  0.333281  0.000000  1
  Zr  Zr5  1  0.560495  0.560552  0.000000  1
  Zr  Zr6  1  0.439505  0.000057  0.000000  1
  Zr  Zr7  1  0.000000  0.439270  0.000000  1
  Co  Co8  1  0.719501  0.719596  0.500000  1
  Co  Co9  1  0.280499  0.000095  0.500000  1
  Co  Co10  1  0.000000  0.280356  0.500000  1
  Co  Co11  1  0.177338  0.373582  0.000000  1
  Co  Co12  1  0.626346  0.803767  0.000000  1
  Co  Co13  1  0.196363  0.822627  0.000000  1
  Co  Co14  1  0.803637  0.626264  0.000000  1
  Co  Co15  1  0.822662  0.196244  0.000000  1
  Co  Co16  1  0.373654  0.177420  0.000000  1
  Co  Co17  1  0.356610  0.479091  0.500000  1
  Co  Co18  1  0.520932  0.877567  0.500000  1
  Co  Co19  1  0.122473  0.643264  0.500000  1
  Co  Co20  1  0.877527  0.520790  0.500000  1
  Co  Co21  1  0.643390  0.122481  0.500000  1
  Co  Co22  1  0.479068  0.356634  0.500000  1
  Co  Co23  1  0.000000  0.000190  0.000000  1
  As  As24  1  0.822450  0.822586  0.000000  1
  As  As25  1  0.177550  0.000136  0.000000  1
  As  As26  1  0.000000  0.177566  0.000000  1
  As  As27  1  0.173071  0.481692  0.500000  1
  As  As28  1  0.518315  0.691444  0.500000  1
  As  As29  1  0.308614  0.826869  0.500000  1
  As  As30  1  0.691386  0.518256  0.500000  1
  As  As31  1  0.826929  0.308621  0.500000  1
  As  As32  1  0.481685  0.173129  0.500000  1
  As  As33  1  0.351481  0.351451  0.000000  1
  As  As34  1  0.648519  0.999971  0.000000  1
  As  As35  1  0.000000  0.648342  0.000000  1
