# generated using pymatgen
data_Yb3NbFeC6
_symmetry_space_group_name_H-M   'P 1'
_cell_length_a   8.21914200
_cell_length_b   8.21914120
_cell_length_c   5.17596400
_cell_angle_alpha   90.00000000
_cell_angle_beta   90.00000000
_cell_angle_gamma   119.99998712
_symmetry_Int_Tables_number   1
_chemical_formula_structural   Yb3NbFeC6
_chemical_formula_sum   'Yb6 Nb2 Fe2 C12'
_cell_volume   302.81324014
_cell_formula_units_Z   2
loop_
 _symmetry_equiv_pos_site_id
 _symmetry_equiv_pos_as_xyz
  1  'x, y, z'
loop_
 _atom_site_type_symbol
 _atom_site_label
 _atom_site_symmetry_multiplicity
 _atom_site_fract_x
 _atom_site_fract_y
 _atom_site_fract_z
 _atom_site_occupancy
  Yb  Yb0  1  0.606582  0.674604  0.750000  1
  Yb  Yb1  1  0.931979  0.606582  0.250000  1
  Yb  Yb2  1  0.674604  0.068021  0.250000  1
  Yb  Yb3  1  0.325396  0.931979  0.750000  1
  Yb  Yb4  1  0.068021  0.393418  0.750000  1
  Yb  Yb5  1  0.393418  0.325396  0.250000  1
  Nb  Nb6  1  0.000000  0.000000  0.500000  1
  Nb  Nb7  1  0.000000  0.000000  0.000000  1
  Fe  Fe8  1  0.666667  0.333333  0.750000  1
  Fe  Fe9  1  0.333333  0.666667  0.250000  1
  C  C10  1  0.953948  0.754747  0.750000  1
  C  C11  1  0.199201  0.953948  0.250000  1
  C  C12  1  0.754747  0.800799  0.250000  1
  C  C13  1  0.245253  0.199201  0.750000  1
  C  C14  1  0.800799  0.046052  0.750000  1
  C  C15  1  0.046052  0.245253  0.250000  1
  C  C16  1  0.856412  0.566901  0.750000  1
  C  C17  1  0.289509  0.856412  0.250000  1
  C  C18  1  0.566901  0.710491  0.250000  1
  C  C19  1  0.433099  0.289509  0.750000  1
  C  C20  1  0.143588  0.433099  0.250000  1
  C  C21  1  0.710491  0.143588  0.750000  1
