# generated using pymatgen
data_Hf3AlGa2Cu2Ni
_symmetry_space_group_name_H-M   'P 1'
_cell_length_a   6.50564330
_cell_length_b   6.47889728
_cell_length_c   3.92687300
_cell_angle_alpha   90.00000000
_cell_angle_beta   90.00000000
_cell_angle_gamma   119.86408235
_symmetry_Int_Tables_number   1
_chemical_formula_structural   Hf3AlGa2Cu2Ni
_chemical_formula_sum   'Hf3 Al1 Ga2 Cu2 Ni1'
_cell_volume   143.53638689
_cell_formula_units_Z   1
loop_
 _symmetry_equiv_pos_site_id
 _symmetry_equiv_pos_as_xyz
  1  'x, y, z'
loop_
 _atom_site_type_symbol
 _atom_site_label
 _atom_site_symmetry_multiplicity
 _atom_site_fract_x
 _atom_site_fract_y
 _atom_site_fract_z
 _atom_site_occupancy
  Hf  Hf0  1  0.412851  0.412864  0.500000  1
  Hf  Hf1  1  0.587149  0.000013  0.500000  1
  Hf  Hf2  1  0.000000  0.588629  0.500000  1
  Al  Al3  1  0.000000  0.242669  0.000000  1
  Ga  Ga4  1  0.750609  0.752387  0.000000  1
  Ga  Ga5  1  0.249391  0.001778  0.000000  1
  Cu  Cu6  1  0.670064  0.333684  0.000000  1
  Cu  Cu7  1  0.329936  0.663621  0.000000  1
  Ni  Ni8  1  0.000000  0.004356  0.500000  1
