# generated using pymatgen
data_TbZn10Ag
_symmetry_space_group_name_H-M   'P 1'
_cell_length_a   8.26515442
_cell_length_b   8.26515378
_cell_length_c   8.26515407
_cell_angle_alpha   99.95247760
_cell_angle_beta   99.95246461
_cell_angle_gamma   130.86943742
_symmetry_Int_Tables_number   1
_chemical_formula_structural   TbZn10Ag
_chemical_formula_sum   'Tb2 Zn20 Ag2'
_cell_volume   388.31854021
_cell_formula_units_Z   2
loop_
 _symmetry_equiv_pos_site_id
 _symmetry_equiv_pos_as_xyz
  1  'x, y, z'
loop_
 _atom_site_type_symbol
 _atom_site_label
 _atom_site_symmetry_multiplicity
 _atom_site_fract_x
 _atom_site_fract_y
 _atom_site_fract_z
 _atom_site_occupancy
  Tb  Tb0  1  0.000000  0.000000  0.000000  1
  Tb  Tb1  1  0.250000  0.750000  0.500000  1
  Zn  Zn2  1  0.125000  0.375000  0.750000  1
  Zn  Zn3  1  0.625000  0.875000  0.250000  1
  Zn  Zn4  1  0.625000  0.375000  0.750000  1
  Zn  Zn5  1  0.625000  0.375000  0.250000  1
  Zn  Zn6  1  0.180020  0.508051  0.086190  1
  Zn  Zn7  1  0.180020  0.093829  0.671969  1
  Zn  Zn8  1  0.758051  0.930020  0.586190  1
  Zn  Zn9  1  0.758051  0.171860  0.828031  1
  Zn  Zn10  1  0.421860  0.508051  0.328031  1
  Zn  Zn11  1  0.421860  0.093829  0.913810  1
  Zn  Zn12  1  0.343829  0.930020  0.171969  1
  Zn  Zn13  1  0.343829  0.171860  0.413810  1
  Zn  Zn14  1  0.069980  0.241949  0.413810  1
  Zn  Zn15  1  0.069980  0.656171  0.828031  1
  Zn  Zn16  1  0.491949  0.819980  0.913810  1
  Zn  Zn17  1  0.491949  0.578140  0.671969  1
  Zn  Zn18  1  0.828140  0.241949  0.171969  1
  Zn  Zn19  1  0.828140  0.656171  0.586190  1
  Zn  Zn20  1  0.906171  0.819980  0.328031  1
  Zn  Zn21  1  0.906171  0.578140  0.086190  1
  Ag  Ag22  1  0.750000  0.250000  0.500000  1
  Ag  Ag23  1  0.500000  0.500000  0.000000  1
