# generated using pymatgen
data_YHoSi2BOs2
_symmetry_space_group_name_H-M   'P 1'
_cell_length_a   5.85341872
_cell_length_b   5.85341767
_cell_length_c   6.97985400
_cell_angle_alpha   52.31650368
_cell_angle_beta   52.31651161
_cell_angle_gamma   41.17515400
_symmetry_Int_Tables_number   1
_chemical_formula_structural   YHoSi2BOs2
_chemical_formula_sum   'Y1 Ho1 Si2 B1 Os2'
_cell_volume   119.24243814
_cell_formula_units_Z   1
loop_
 _symmetry_equiv_pos_site_id
 _symmetry_equiv_pos_as_xyz
  1  'x, y, z'
loop_
 _atom_site_type_symbol
 _atom_site_label
 _atom_site_symmetry_multiplicity
 _atom_site_fract_x
 _atom_site_fract_y
 _atom_site_fract_z
 _atom_site_occupancy
  Y  Y0  1  0.568830  0.568830  0.698150  1
  Ho  Ho1  1  0.432133  0.432133  0.301220  1
  Si  Si2  1  0.851517  0.851517  0.698588  1
  Si  Si3  1  0.148786  0.148786  0.300224  1
  B  B4  1  0.999144  0.999144  0.002084  1
  Os  Os5  1  0.784711  0.784711  0.107522  1
  Os  Os6  1  0.214879  0.214879  0.892212  1
