# generated using pymatgen
data_CuSb2F12
_symmetry_space_group_name_H-M   'P 1'
_cell_length_a   5.27252697
_cell_length_b   5.57430892
_cell_length_c   9.11961245
_cell_angle_alpha   76.76124158
_cell_angle_beta   90.69578370
_cell_angle_gamma   59.99604900
_symmetry_Int_Tables_number   1
_chemical_formula_structural   CuSb2F12
_chemical_formula_sum   'Cu1 Sb2 F12'
_cell_volume   223.37936612
_cell_formula_units_Z   1
loop_
 _symmetry_equiv_pos_site_id
 _symmetry_equiv_pos_as_xyz
  1  'x, y, z'
loop_
 _atom_site_type_symbol
 _atom_site_label
 _atom_site_symmetry_multiplicity
 _atom_site_fract_x
 _atom_site_fract_y
 _atom_site_fract_z
 _atom_site_occupancy
  Cu  Cu0  1  0.500000  0.500000  0.500000  1
  Sb  Sb1  1  0.776544  0.005003  0.240547  1
  Sb  Sb2  1  0.223456  0.994997  0.759453  1
  F  F3  1  0.952340  0.231943  0.216401  1
  F  F4  1  0.047660  0.768057  0.783599  1
  F  F5  1  0.040445  0.746389  0.137650  1
  F  F6  1  0.467720  0.763239  0.621320  1
  F  F7  1  0.532280  0.236761  0.378680  1
  F  F8  1  0.925586  0.250623  0.568221  1
  F  F9  1  0.074414  0.749377  0.431779  1
  F  F10  1  0.396555  0.226234  0.687289  1
  F  F11  1  0.603445  0.773766  0.312711  1
  F  F12  1  0.528881  0.761872  0.925438  1
  F  F13  1  0.471119  0.238128  0.074562  1
  F  F14  1  0.959555  0.253611  0.862350  1
