# generated using pymatgen
data_V2Cd(PO4)3
_symmetry_space_group_name_H-M   'P 1'
_cell_length_a   8.64946784
_cell_length_b   8.64946788
_cell_length_c   8.77080141
_cell_angle_alpha   60.64350683
_cell_angle_beta   60.64351132
_cell_angle_gamma   60.16356758
_symmetry_Int_Tables_number   1
_chemical_formula_structural   V2Cd(PO4)3
_chemical_formula_sum   'V4 Cd2 P6 O24'
_cell_volume   469.03332251
_cell_formula_units_Z   2
loop_
 _symmetry_equiv_pos_site_id
 _symmetry_equiv_pos_as_xyz
  1  'x, y, z'
loop_
 _atom_site_type_symbol
 _atom_site_label
 _atom_site_symmetry_multiplicity
 _atom_site_fract_x
 _atom_site_fract_y
 _atom_site_fract_z
 _atom_site_occupancy
  V  V0  1  0.351625  0.851861  0.933196  1
  V  V1  1  0.851861  0.351625  0.433196  1
  V  V2  1  0.143564  0.641685  0.562206  1
  V  V3  1  0.641685  0.143564  0.062206  1
  Cd  Cd4  1  0.999622  0.496571  0.991861  1
  Cd  Cd5  1  0.496571  0.999622  0.491861  1
  P  P6  1  0.037694  0.959493  0.746226  1
  P  P7  1  0.744173  0.538756  0.746818  1
  P  P8  1  0.538756  0.744173  0.246818  1
  P  P9  1  0.959493  0.037694  0.246226  1
  P  P10  1  0.459897  0.243653  0.747434  1
  P  P11  1  0.243653  0.459897  0.247434  1
  O  O12  1  0.941909  0.228523  0.243561  1
  O  O13  1  0.690627  0.382554  0.921929  1
  O  O14  1  0.503996  0.794687  0.066785  1
  O  O15  1  0.382554  0.690627  0.421929  1
  O  O16  1  0.228523  0.941909  0.743561  1
  O  O17  1  0.910652  0.561100  0.747542  1
  O  O18  1  0.561100  0.910652  0.247542  1
  O  O19  1  0.729015  0.574246  0.242978  1
  O  O20  1  0.123205  0.004561  0.065808  1
  O  O21  1  0.992436  0.879992  0.420322  1
  O  O22  1  0.574246  0.729015  0.742978  1
  O  O23  1  0.191094  0.493969  0.423349  1
  O  O24  1  0.794687  0.503996  0.566785  1
  O  O25  1  0.063286  0.769505  0.744305  1
  O  O26  1  0.004561  0.123205  0.565808  1
  O  O27  1  0.270930  0.408966  0.748729  1
  O  O28  1  0.879992  0.992436  0.920322  1
  O  O29  1  0.769505  0.063286  0.244305  1
  O  O30  1  0.073379  0.442975  0.243734  1
  O  O31  1  0.623069  0.294150  0.567132  1
  O  O32  1  0.493969  0.191094  0.923349  1
  O  O33  1  0.294150  0.623069  0.067132  1
  O  O34  1  0.408966  0.270930  0.248729  1
  O  O35  1  0.442975  0.073379  0.743734  1
