# generated using pymatgen
data_Lu5BTe4
_symmetry_space_group_name_H-M   'P 1'
_cell_length_a   7.35567320
_cell_length_b   7.35567481
_cell_length_c   10.41998151
_cell_angle_alpha   61.13841077
_cell_angle_beta   61.13840317
_cell_angle_gamma   32.13371291
_symmetry_Int_Tables_number   1
_chemical_formula_structural   Lu5BTe4
_chemical_formula_sum   'Lu5 B1 Te4'
_cell_volume   259.29659426
_cell_formula_units_Z   1
loop_
 _symmetry_equiv_pos_site_id
 _symmetry_equiv_pos_as_xyz
  1  'x, y, z'
loop_
 _atom_site_type_symbol
 _atom_site_label
 _atom_site_symmetry_multiplicity
 _atom_site_fract_x
 _atom_site_fract_y
 _atom_site_fract_z
 _atom_site_occupancy
  Lu  Lu0  1  0.000000  0.000000  0.500000  1
  Lu  Lu1  1  0.574688  0.574688  0.079583  1
  Lu  Lu2  1  0.169373  0.169373  0.753447  1
  Lu  Lu3  1  0.830627  0.830627  0.246553  1
  Lu  Lu4  1  0.425312  0.425312  0.920417  1
  B  B5  1  0.000000  0.000000  0.000000  1
  Te  Te6  1  0.612214  0.612214  0.586388  1
  Te  Te7  1  0.192882  0.192882  0.192477  1
  Te  Te8  1  0.807118  0.807118  0.807523  1
  Te  Te9  1  0.387786  0.387786  0.413612  1
