# generated using pymatgen
data_Tb4DyIn3Cl
_symmetry_space_group_name_H-M   'P 1'
_cell_length_a   9.19349200
_cell_length_b   9.19349369
_cell_length_c   6.65754600
_cell_angle_alpha   90.00000000
_cell_angle_beta   90.00000000
_cell_angle_gamma   120.00000110
_symmetry_Int_Tables_number   1
_chemical_formula_structural   Tb4DyIn3Cl
_chemical_formula_sum   'Tb8 Dy2 In6 Cl2'
_cell_volume   487.31063306
_cell_formula_units_Z   2
loop_
 _symmetry_equiv_pos_site_id
 _symmetry_equiv_pos_as_xyz
  1  'x, y, z'
loop_
 _atom_site_type_symbol
 _atom_site_label
 _atom_site_symmetry_multiplicity
 _atom_site_fract_x
 _atom_site_fract_y
 _atom_site_fract_z
 _atom_site_occupancy
  Tb  Tb0  1  0.742204  0.742204  0.250173  1
  Tb  Tb1  1  0.000000  0.742204  0.749827  1
  Tb  Tb2  1  0.742204  0.000000  0.749827  1
  Tb  Tb3  1  0.257796  0.257796  0.749827  1
  Tb  Tb4  1  0.000000  0.257796  0.250173  1
  Tb  Tb5  1  0.257796  0.000000  0.250173  1
  Tb  Tb6  1  0.333333  0.666667  0.000000  1
  Tb  Tb7  1  0.666667  0.333333  0.000000  1
  Dy  Dy8  1  0.333333  0.666667  0.500000  1
  Dy  Dy9  1  0.666667  0.333333  0.500000  1
  In  In10  1  0.394604  0.000000  0.749751  1
  In  In11  1  0.000000  0.605396  0.250249  1
  In  In12  1  0.605396  0.000000  0.250249  1
  In  In13  1  0.000000  0.394604  0.749751  1
  In  In14  1  0.394604  0.394604  0.250249  1
  In  In15  1  0.605396  0.605396  0.749751  1
  Cl  Cl16  1  0.000000  0.000000  0.500000  1
  Cl  Cl17  1  0.000000  0.000000  0.000000  1
