# generated using pymatgen
data_ErTa(CoSb)2
_symmetry_space_group_name_H-M   'P 1'
_cell_length_a   6.12447400
_cell_length_b   4.30693700
_cell_length_c   8.69075100
_cell_angle_alpha   90.00000000
_cell_angle_beta   90.00000000
_cell_angle_gamma   90.00000000
_symmetry_Int_Tables_number   1
_chemical_formula_structural   ErTa(CoSb)2
_chemical_formula_sum   'Er2 Ta2 Co4 Sb4'
_cell_volume   229.24222842
_cell_formula_units_Z   2
loop_
 _symmetry_equiv_pos_site_id
 _symmetry_equiv_pos_as_xyz
  1  'x, y, z'
loop_
 _atom_site_type_symbol
 _atom_site_label
 _atom_site_symmetry_multiplicity
 _atom_site_fract_x
 _atom_site_fract_y
 _atom_site_fract_z
 _atom_site_occupancy
  Er  Er0  1  0.005973  0.000000  0.376842  1
  Er  Er1  1  0.505974  0.500000  0.623158  1
  Ta  Ta2  1  0.493024  0.500000  0.121980  1
  Ta  Ta3  1  0.993025  0.000000  0.878021  1
  Co  Co4  1  0.734436  0.000000  0.110723  1
  Co  Co5  1  0.271089  0.500000  0.350787  1
  Co  Co6  1  0.771090  0.000000  0.649213  1
  Co  Co7  1  0.234435  0.500000  0.889276  1
  Sb  Sb8  1  0.988119  0.500000  0.122251  1
  Sb  Sb9  1  0.507359  0.000000  0.367133  1
  Sb  Sb10  1  0.007360  0.500000  0.632866  1
  Sb  Sb11  1  0.488118  0.000000  0.877749  1
