# generated using pymatgen
data_Nd2Er6Si12Ir3Rh
_symmetry_space_group_name_H-M   'P 1'
_cell_length_a   8.17793900
_cell_length_b   8.17793882
_cell_length_c   7.96610600
_cell_angle_alpha   90.00000000
_cell_angle_beta   90.00000000
_cell_angle_gamma   119.99999670
_symmetry_Int_Tables_number   1
_chemical_formula_structural   Nd2Er6Si12Ir3Rh
_chemical_formula_sum   'Nd2 Er6 Si12 Ir3 Rh1'
_cell_volume   461.38604086
_cell_formula_units_Z   1
loop_
 _symmetry_equiv_pos_site_id
 _symmetry_equiv_pos_as_xyz
  1  'x, y, z'
loop_
 _atom_site_type_symbol
 _atom_site_label
 _atom_site_symmetry_multiplicity
 _atom_site_fract_x
 _atom_site_fract_y
 _atom_site_fract_z
 _atom_site_occupancy
  Nd  Nd0  1  0.000000  0.000000  0.250018  1
  Nd  Nd1  1  0.000000  0.000000  0.749197  1
  Er  Er2  1  0.491467  0.508533  0.249906  1
  Er  Er3  1  0.491467  0.982933  0.249906  1
  Er  Er4  1  0.017067  0.508533  0.249906  1
  Er  Er5  1  0.509024  0.490976  0.750341  1
  Er  Er6  1  0.981950  0.490976  0.750341  1
  Er  Er7  1  0.509024  0.018050  0.750341  1
  Si  Si8  1  0.831892  0.168108  0.501934  1
  Si  Si9  1  0.831892  0.663785  0.501934  1
  Si  Si10  1  0.336215  0.168108  0.501934  1
  Si  Si11  1  0.831768  0.168232  0.998059  1
  Si  Si12  1  0.831768  0.663538  0.998059  1
  Si  Si13  1  0.336462  0.168232  0.998059  1
  Si  Si14  1  0.168299  0.831701  0.001516  1
  Si  Si15  1  0.663404  0.831701  0.001516  1
  Si  Si16  1  0.168299  0.336596  0.001516  1
  Si  Si17  1  0.168819  0.831181  0.497602  1
  Si  Si18  1  0.662363  0.831181  0.497602  1
  Si  Si19  1  0.168819  0.337637  0.497602  1
  Ir  Ir20  1  0.666667  0.333333  0.464573  1
  Ir  Ir21  1  0.666667  0.333333  0.034911  1
  Ir  Ir22  1  0.333333  0.666667  0.966427  1
  Rh  Rh23  1  0.333333  0.666667  0.536801  1
