# generated using pymatgen
data_Nd3Th7(Pb3C)2
_symmetry_space_group_name_H-M   'P 1'
_cell_length_a   9.49810400
_cell_length_b   9.49810420
_cell_length_c   6.57295800
_cell_angle_alpha   90.00000000
_cell_angle_beta   90.00000000
_cell_angle_gamma   120.00000629
_symmetry_Int_Tables_number   1
_chemical_formula_structural   Nd3Th7(Pb3C)2
_chemical_formula_sum   'Nd3 Th7 Pb6 C2'
_cell_volume   513.52939903
_cell_formula_units_Z   1
loop_
 _symmetry_equiv_pos_site_id
 _symmetry_equiv_pos_as_xyz
  1  'x, y, z'
loop_
 _atom_site_type_symbol
 _atom_site_label
 _atom_site_symmetry_multiplicity
 _atom_site_fract_x
 _atom_site_fract_y
 _atom_site_fract_z
 _atom_site_occupancy
  Nd  Nd0  1  0.333333  0.666667  0.000000  1
  Nd  Nd1  1  0.333333  0.666667  0.500000  1
  Nd  Nd2  1  0.666667  0.333333  0.500000  1
  Th  Th3  1  0.666667  0.333333  0.000000  1
  Th  Th4  1  0.782688  0.782207  0.749974  1
  Th  Th5  1  0.217793  0.000481  0.749974  1
  Th  Th6  1  0.999519  0.217312  0.749974  1
  Th  Th7  1  0.217793  0.217312  0.250026  1
  Th  Th8  1  0.782688  0.000481  0.250026  1
  Th  Th9  1  0.999519  0.782207  0.250026  1
  Pb  Pb10  1  0.399511  0.400101  0.750078  1
  Pb  Pb11  1  0.599899  0.999411  0.750078  1
  Pb  Pb12  1  0.000589  0.600489  0.750078  1
  Pb  Pb13  1  0.599899  0.600489  0.249922  1
  Pb  Pb14  1  0.399511  0.999411  0.249922  1
  Pb  Pb15  1  0.000589  0.400101  0.249922  1
  C  C16  1  0.000000  0.000000  0.000000  1
  C  C17  1  0.000000  0.000000  0.500000  1
