# generated using pymatgen
data_Dy3ErAl4(Ga7Ir3)2
_symmetry_space_group_name_H-M   'P 1'
_cell_length_a   7.57298801
_cell_length_b   7.57035364
_cell_length_c   9.51548900
_cell_angle_alpha   90.00000000
_cell_angle_beta   90.00000000
_cell_angle_gamma   119.76070568
_symmetry_Int_Tables_number   1
_chemical_formula_structural   Dy3ErAl4(Ga7Ir3)2
_chemical_formula_sum   'Dy3 Er1 Al4 Ga14 Ir6'
_cell_volume   473.57345042
_cell_formula_units_Z   1
loop_
 _symmetry_equiv_pos_site_id
 _symmetry_equiv_pos_as_xyz
  1  'x, y, z'
loop_
 _atom_site_type_symbol
 _atom_site_label
 _atom_site_symmetry_multiplicity
 _atom_site_fract_x
 _atom_site_fract_y
 _atom_site_fract_z
 _atom_site_occupancy
  Dy  Dy0  1  0.999449  0.330495  0.250000  1
  Dy  Dy1  1  0.669513  0.000501  0.750000  1
  Dy  Dy2  1  0.330549  0.999487  0.250000  1
  Er  Er3  1  0.000242  0.669369  0.750000  1
  Al  Al4  1  0.332093  0.332081  0.053620  1
  Al  Al5  1  0.668268  0.667924  0.946149  1
  Al  Al6  1  0.668268  0.667924  0.553851  1
  Al  Al7  1  0.332093  0.332081  0.446380  1
  Ga  Ga8  1  0.126947  0.126709  0.750000  1
  Ga  Ga9  1  0.872905  0.872907  0.250000  1
  Ga  Ga10  1  0.000465  0.335663  0.579573  1
  Ga  Ga11  1  0.999629  0.664840  0.420988  1
  Ga  Ga12  1  0.999629  0.664840  0.079012  1
  Ga  Ga13  1  0.334696  0.999974  0.920443  1
  Ga  Ga14  1  0.000465  0.335663  0.920427  1
  Ga  Ga15  1  0.664844  0.999557  0.079332  1
  Ga  Ga16  1  0.664844  0.999557  0.420668  1
  Ga  Ga17  1  0.334696  0.999974  0.579557  1
  Ga  Ga18  1  0.345552  0.549127  0.750000  1
  Ga  Ga19  1  0.654246  0.451011  0.250000  1
  Ga  Ga20  1  0.549493  0.346128  0.750000  1
  Ga  Ga21  1  0.451001  0.654225  0.250000  1
  Ir  Ir22  1  0.669748  0.330529  0.500137  1
  Ir  Ir23  1  0.330330  0.669647  0.500128  1
  Ir  Ir24  1  0.330330  0.669647  0.999872  1
  Ir  Ir25  1  0.669748  0.330529  0.999863  1
  Ir  Ir26  1  0.999978  0.999806  0.500149  1
  Ir  Ir27  1  0.999978  0.999806  0.999851  1
