# generated using pymatgen
data_Be8FeCo3(Mo6C)2
_symmetry_space_group_name_H-M   'P 1'
_cell_length_a   7.54941771
_cell_length_b   7.54941818
_cell_length_c   7.54941859
_cell_angle_alpha   60.03710585
_cell_angle_beta   60.03710291
_cell_angle_gamma   60.03710335
_symmetry_Int_Tables_number   1
_chemical_formula_structural   Be8FeCo3(Mo6C)2
_chemical_formula_sum   'Be8 Fe1 Co3 Mo12 C2'
_cell_volume   304.50228353
_cell_formula_units_Z   1
loop_
 _symmetry_equiv_pos_site_id
 _symmetry_equiv_pos_as_xyz
  1  'x, y, z'
loop_
 _atom_site_type_symbol
 _atom_site_label
 _atom_site_symmetry_multiplicity
 _atom_site_fract_x
 _atom_site_fract_y
 _atom_site_fract_z
 _atom_site_occupancy
  Be  Be0  1  0.421218  0.421218  0.734444  1
  Be  Be1  1  0.421218  0.734444  0.421218  1
  Be  Be2  1  0.734444  0.421218  0.421218  1
  Be  Be3  1  0.421538  0.421538  0.421538  1
  Be  Be4  1  0.828782  0.828782  0.515556  1
  Be  Be5  1  0.828782  0.515556  0.828782  1
  Be  Be6  1  0.515556  0.828782  0.828782  1
  Be  Be7  1  0.828462  0.828462  0.828462  1
  Fe  Fe8  1  0.625000  0.625000  0.625000  1
  Co  Co9  1  0.625000  0.625000  0.125000  1
  Co  Co10  1  0.625000  0.125000  0.625000  1
  Co  Co11  1  0.125000  0.625000  0.625000  1
  Mo  Mo12  1  0.049677  0.049677  0.450676  1
  Mo  Mo13  1  0.451010  0.048342  0.451010  1
  Mo  Mo14  1  0.048342  0.451010  0.451010  1
  Mo  Mo15  1  0.451010  0.451010  0.048342  1
  Mo  Mo16  1  0.049677  0.450676  0.049677  1
  Mo  Mo17  1  0.450676  0.049677  0.049677  1
  Mo  Mo18  1  0.200323  0.200323  0.799324  1
  Mo  Mo19  1  0.798990  0.201658  0.798990  1
  Mo  Mo20  1  0.201658  0.798990  0.798990  1
  Mo  Mo21  1  0.798990  0.798990  0.201658  1
  Mo  Mo22  1  0.200323  0.799324  0.200323  1
  Mo  Mo23  1  0.799324  0.200323  0.200323  1
  C  C24  1  0.249939  0.249939  0.249939  1
  C  C25  1  0.000061  0.000061  0.000061  1
