# generated using pymatgen
data_Lu3VFe4(Co2P3)2
_symmetry_space_group_name_H-M   'P 1'
_cell_length_a   3.69005300
_cell_length_b   10.49165200
_cell_length_c   12.13267600
_cell_angle_alpha   90.00000000
_cell_angle_beta   90.00000000
_cell_angle_gamma   90.00000000
_symmetry_Int_Tables_number   1
_chemical_formula_structural   Lu3VFe4(Co2P3)2
_chemical_formula_sum   'Lu6 V2 Fe8 Co8 P12'
_cell_volume   469.71354168
_cell_formula_units_Z   2
loop_
 _symmetry_equiv_pos_site_id
 _symmetry_equiv_pos_as_xyz
  1  'x, y, z'
loop_
 _atom_site_type_symbol
 _atom_site_label
 _atom_site_symmetry_multiplicity
 _atom_site_fract_x
 _atom_site_fract_y
 _atom_site_fract_z
 _atom_site_occupancy
  Lu  Lu0  1  0.000000  0.500000  0.525061  1
  Lu  Lu1  1  0.500000  0.000000  0.474498  1
  Lu  Lu2  1  0.500000  0.822530  0.205894  1
  Lu  Lu3  1  0.500000  0.177470  0.205894  1
  Lu  Lu4  1  0.000000  0.677613  0.794237  1
  Lu  Lu5  1  0.000000  0.322387  0.794237  1
  V  V6  1  0.500000  0.500000  0.153699  1
  V  V7  1  0.000000  0.000000  0.845555  1
  Fe  Fe8  1  0.000000  0.500000  0.989591  1
  Fe  Fe9  1  0.500000  0.000000  0.010289  1
  Fe  Fe10  1  0.500000  0.327506  0.997404  1
  Fe  Fe11  1  0.500000  0.672494  0.997404  1
  Fe  Fe12  1  0.000000  0.172871  0.002547  1
  Fe  Fe13  1  0.000000  0.827129  0.002547  1
  Fe  Fe14  1  0.500000  0.296407  0.431568  1
  Fe  Fe15  1  0.500000  0.703593  0.431568  1
  Co  Co16  1  0.500000  0.500000  0.702271  1
  Co  Co17  1  0.000000  0.000000  0.298216  1
  Co  Co18  1  0.000000  0.202995  0.569510  1
  Co  Co19  1  0.000000  0.797005  0.569510  1
  Co  Co20  1  0.500000  0.878655  0.704962  1
  Co  Co21  1  0.500000  0.121345  0.704962  1
  Co  Co22  1  0.000000  0.620919  0.294645  1
  Co  Co23  1  0.000000  0.379081  0.294645  1
  P  P24  1  0.500000  0.500000  0.885691  1
  P  P25  1  0.000000  0.000000  0.114390  1
  P  P26  1  0.500000  0.500000  0.350639  1
  P  P27  1  0.000000  0.000000  0.649766  1
  P  P28  1  0.500000  0.311286  0.614928  1
  P  P29  1  0.500000  0.688714  0.614928  1
  P  P30  1  0.000000  0.190352  0.384292  1
  P  P31  1  0.000000  0.809648  0.384292  1
  P  P32  1  0.500000  0.846004  0.887583  1
  P  P33  1  0.500000  0.153996  0.887583  1
  P  P34  1  0.000000  0.653822  0.112596  1
  P  P35  1  0.000000  0.346178  0.112596  1
