# generated using pymatgen
data_U8TaNb11Si15P
_symmetry_space_group_name_H-M   'P 1'
_cell_length_a   7.03946609
_cell_length_b   7.04300209
_cell_length_c   12.97781788
_cell_angle_alpha   89.98753855
_cell_angle_beta   90.04842875
_cell_angle_gamma   89.98107800
_symmetry_Int_Tables_number   1
_chemical_formula_structural   U8TaNb11Si15P
_chemical_formula_sum   'U8 Ta1 Nb11 Si15 P1'
_cell_volume   643.42661962
_cell_formula_units_Z   1
loop_
 _symmetry_equiv_pos_site_id
 _symmetry_equiv_pos_as_xyz
  1  'x, y, z'
loop_
 _atom_site_type_symbol
 _atom_site_label
 _atom_site_symmetry_multiplicity
 _atom_site_fract_x
 _atom_site_fract_y
 _atom_site_fract_z
 _atom_site_occupancy
  U  U0  1  0.998393  0.330125  0.218895  1
  U  U1  1  0.006542  0.669452  0.718754  1
  U  U2  1  0.167182  0.495660  0.469047  1
  U  U3  1  0.502268  0.834483  0.033316  1
  U  U4  1  0.831801  0.504401  0.969475  1
  U  U5  1  0.494728  0.169035  0.530608  1
  U  U6  1  0.330331  0.993017  0.781449  1
  U  U7  1  0.663702  0.004851  0.279304  1
  Ta  Ta8  1  0.169482  0.166886  0.001150  1
  Nb  Nb9  1  0.831772  0.831761  0.499497  1
  Nb  Nb10  1  0.331584  0.670021  0.249084  1
  Nb  Nb11  1  0.668625  0.331501  0.750242  1
  Nb  Nb12  1  0.157810  0.001358  0.371204  1
  Nb  Nb13  1  0.844691  0.001402  0.874475  1
  Nb  Nb14  1  0.499885  0.656359  0.624457  1
  Nb  Nb15  1  0.344202  0.499373  0.875983  1
  Nb  Nb16  1  0.497236  0.338413  0.125798  1
  Nb  Nb17  1  0.658040  0.501962  0.375773  1
  Nb  Nb18  1  0.999105  0.155685  0.625503  1
  Nb  Nb19  1  0.002989  0.845308  0.126282  1
  Si  Si20  1  0.702687  0.959697  0.684815  1
  Si  Si21  1  0.459564  0.796786  0.434788  1
  Si  Si22  1  0.203526  0.539365  0.064791  1
  Si  Si23  1  0.539877  0.202612  0.934982  1
  Si  Si24  1  0.796716  0.459921  0.565453  1
  Si  Si25  1  0.040679  0.297128  0.815742  1
  Si  Si26  1  0.959196  0.703332  0.314731  1
  Si  Si27  1  0.373015  0.298321  0.318328  1
  Si  Si28  1  0.629749  0.706941  0.816626  1
  Si  Si29  1  0.206533  0.871598  0.564719  1
  Si  Si30  1  0.128240  0.792108  0.934446  1
  Si  Si31  1  0.794162  0.129181  0.065782  1
  Si  Si32  1  0.870818  0.205770  0.432917  1
  Si  Si33  1  0.292714  0.370585  0.684171  1
  Si  Si34  1  0.707823  0.626832  0.183168  1
  P  P35  1  0.294332  0.038766  0.184244  1
