# generated using pymatgen
data_LiPr3SiS7
_symmetry_space_group_name_H-M   'P 1'
_cell_length_a   10.30815500
_cell_length_b   10.30811249
_cell_length_c   5.73536700
_cell_angle_alpha   90.00000000
_cell_angle_beta   90.00000000
_cell_angle_gamma   120.00053675
_symmetry_Int_Tables_number   1
_chemical_formula_structural   LiPr3SiS7
_chemical_formula_sum   'Li2 Pr6 Si2 S14'
_cell_volume   527.77593709
_cell_formula_units_Z   2
loop_
 _symmetry_equiv_pos_site_id
 _symmetry_equiv_pos_as_xyz
  1  'x, y, z'
loop_
 _atom_site_type_symbol
 _atom_site_label
 _atom_site_symmetry_multiplicity
 _atom_site_fract_x
 _atom_site_fract_y
 _atom_site_fract_z
 _atom_site_occupancy
  Li  Li0  1  0.999964  0.999967  0.492370  1
  Li  Li1  1  0.000036  0.000033  0.992368  1
  Pr  Pr2  1  0.643124  0.765405  0.235717  1
  Pr  Pr3  1  0.122283  0.356875  0.235738  1
  Pr  Pr4  1  0.234587  0.877711  0.235735  1
  Pr  Pr5  1  0.356877  0.234595  0.735718  1
  Pr  Pr6  1  0.765413  0.122289  0.735736  1
  Pr  Pr7  1  0.877718  0.643126  0.735739  1
  Si  Si8  1  0.666672  0.333344  0.150039  1
  Si  Si9  1  0.333328  0.666657  0.650037  1
  S  S10  1  0.885211  0.408333  0.006848  1
  S  S11  1  0.523112  0.114780  0.006837  1
  S  S12  1  0.591666  0.476877  0.006841  1
  S  S13  1  0.333330  0.666665  0.017298  1
  S  S14  1  0.917578  0.756449  0.248527  1
  S  S15  1  0.838866  0.082416  0.248529  1
  S  S16  1  0.243543  0.161125  0.248522  1
  S  S17  1  0.114789  0.591667  0.506848  1
  S  S18  1  0.476888  0.885221  0.506838  1
  S  S19  1  0.408334  0.523123  0.506839  1
  S  S20  1  0.666671  0.333336  0.517298  1
  S  S21  1  0.082422  0.243552  0.748528  1
  S  S22  1  0.161134  0.917584  0.748528  1
  S  S23  1  0.756457  0.838876  0.748522  1
