# generated using pymatgen
data_Hf2Th2TaSi4
_symmetry_space_group_name_H-M   'P 1'
_cell_length_a   7.32125000
_cell_length_b   7.32125000
_cell_length_c   13.54514600
_cell_angle_alpha   90.00000000
_cell_angle_beta   90.00000000
_cell_angle_gamma   90.00000000
_symmetry_Int_Tables_number   1
_chemical_formula_structural   Hf2Th2TaSi4
_chemical_formula_sum   'Hf8 Th8 Ta4 Si16'
_cell_volume   726.02932837
_cell_formula_units_Z   4
loop_
 _symmetry_equiv_pos_site_id
 _symmetry_equiv_pos_as_xyz
  1  'x, y, z'
loop_
 _atom_site_type_symbol
 _atom_site_label
 _atom_site_symmetry_multiplicity
 _atom_site_fract_x
 _atom_site_fract_y
 _atom_site_fract_z
 _atom_site_occupancy
  Hf  Hf0  1  0.155459  0.994812  0.373763  1
  Hf  Hf1  1  0.844541  0.005188  0.873763  1
  Hf  Hf2  1  0.505188  0.655459  0.623763  1
  Hf  Hf3  1  0.344541  0.494812  0.876237  1
  Hf  Hf4  1  0.494812  0.344541  0.123763  1
  Hf  Hf5  1  0.655459  0.505188  0.376237  1
  Hf  Hf6  1  0.994812  0.155459  0.626237  1
  Hf  Hf7  1  0.005188  0.844541  0.126237  1
  Th  Th8  1  0.999588  0.339827  0.216680  1
  Th  Th9  1  0.000412  0.660173  0.716680  1
  Th  Th10  1  0.160173  0.499588  0.466680  1
  Th  Th11  1  0.500412  0.839827  0.033320  1
  Th  Th12  1  0.839827  0.500412  0.966680  1
  Th  Th13  1  0.499588  0.160173  0.533320  1
  Th  Th14  1  0.339827  0.999588  0.783320  1
  Th  Th15  1  0.660173  0.000412  0.283320  1
  Ta  Ta16  1  0.170872  0.170872  0.000000  1
  Ta  Ta17  1  0.829128  0.829128  0.500000  1
  Ta  Ta18  1  0.329128  0.670872  0.250000  1
  Ta  Ta19  1  0.670872  0.329128  0.750000  1
  Si  Si20  1  0.293040  0.042698  0.184217  1
  Si  Si21  1  0.706960  0.957302  0.684217  1
  Si  Si22  1  0.457302  0.793040  0.434217  1
  Si  Si23  1  0.206960  0.542698  0.065783  1
  Si  Si24  1  0.542698  0.206960  0.934217  1
  Si  Si25  1  0.793040  0.457302  0.565783  1
  Si  Si26  1  0.042698  0.293040  0.815783  1
  Si  Si27  1  0.957302  0.706960  0.315783  1
  Si  Si28  1  0.369621  0.300235  0.315411  1
  Si  Si29  1  0.630379  0.699765  0.815411  1
  Si  Si30  1  0.199765  0.869621  0.565411  1
  Si  Si31  1  0.130379  0.800235  0.934589  1
  Si  Si32  1  0.800235  0.130379  0.065411  1
  Si  Si33  1  0.869621  0.199765  0.434589  1
  Si  Si34  1  0.300235  0.369621  0.684589  1
  Si  Si35  1  0.699765  0.630379  0.184589  1
