# generated using pymatgen
data_Nd8CoNiAg2
_symmetry_space_group_name_H-M   'P 1'
_cell_length_a   9.70038132
_cell_length_b   9.70131858
_cell_length_c   9.70246979
_cell_angle_alpha   60.38524518
_cell_angle_beta   60.40511388
_cell_angle_gamma   60.56186325
_symmetry_Int_Tables_number   1
_chemical_formula_structural   Nd8CoNiAg2
_chemical_formula_sum   'Nd16 Co2 Ni2 Ag4'
_cell_volume   652.21003774
_cell_formula_units_Z   2
loop_
 _symmetry_equiv_pos_site_id
 _symmetry_equiv_pos_as_xyz
  1  'x, y, z'
loop_
 _atom_site_type_symbol
 _atom_site_label
 _atom_site_symmetry_multiplicity
 _atom_site_fract_x
 _atom_site_fract_y
 _atom_site_fract_z
 _atom_site_occupancy
  Nd  Nd0  1  0.598499  0.598299  0.596202  1
  Nd  Nd1  1  0.600319  0.600099  0.202608  1
  Nd  Nd2  1  0.603702  0.198546  0.599131  1
  Nd  Nd3  1  0.198602  0.603516  0.599200  1
  Nd  Nd4  1  0.186989  0.814461  0.811731  1
  Nd  Nd5  1  0.813889  0.187666  0.186604  1
  Nd  Nd6  1  0.814338  0.187003  0.811780  1
  Nd  Nd7  1  0.187803  0.813955  0.186611  1
  Nd  Nd8  1  0.813060  0.813370  0.187110  1
  Nd  Nd9  1  0.187809  0.187685  0.812098  1
  Nd  Nd10  1  0.056644  0.440266  0.439639  1
  Nd  Nd11  1  0.440410  0.055765  0.062702  1
  Nd  Nd12  1  0.440098  0.056844  0.439782  1
  Nd  Nd13  1  0.055430  0.440634  0.062715  1
  Nd  Nd14  1  0.441032  0.441248  0.058844  1
  Nd  Nd15  1  0.059809  0.060165  0.439192  1
  Co  Co16  1  0.392102  0.824692  0.393154  1
  Co  Co17  1  0.824557  0.392066  0.393313  1
  Ni  Ni18  1  0.391191  0.391053  0.392875  1
  Ni  Ni19  1  0.392020  0.391891  0.823679  1
  Ag  Ag20  1  0.831123  0.831005  0.831242  1
  Ag  Ag21  1  0.830397  0.830244  0.509048  1
  Ag  Ag22  1  0.830532  0.509234  0.830405  1
  Ag  Ag23  1  0.509644  0.830289  0.830333  1
