# generated using pymatgen
data_Si16Mo(Pt4W)3
_symmetry_space_group_name_H-M   'P 1'
_cell_length_a   3.53870300
_cell_length_b   5.56319501
_cell_length_c   24.55071204
_cell_angle_alpha   89.99382270
_cell_angle_beta   90.00000233
_cell_angle_gamma   89.99996321
_symmetry_Int_Tables_number   1
_chemical_formula_structural   Si16Mo(Pt4W)3
_chemical_formula_sum   'Si16 Mo1 Pt12 W3'
_cell_volume   483.31746361
_cell_formula_units_Z   1
loop_
 _symmetry_equiv_pos_site_id
 _symmetry_equiv_pos_as_xyz
  1  'x, y, z'
loop_
 _atom_site_type_symbol
 _atom_site_label
 _atom_site_symmetry_multiplicity
 _atom_site_fract_x
 _atom_site_fract_y
 _atom_site_fract_z
 _atom_site_occupancy
  Si  Si0  1  0.250000  0.179138  0.519615  1
  Si  Si1  1  0.749999  0.320531  0.019766  1
  Si  Si2  1  0.250000  0.679321  0.980314  1
  Si  Si3  1  0.750000  0.820656  0.480257  1
  Si  Si4  1  0.750000  0.320276  0.645374  1
  Si  Si5  1  0.250000  0.180015  0.145544  1
  Si  Si6  1  0.750000  0.820171  0.854648  1
  Si  Si7  1  0.250000  0.680781  0.354287  1
  Si  Si8  1  0.249999  0.661046  0.609326  1
  Si  Si9  1  0.750000  0.839133  0.109369  1
  Si  Si10  1  0.250001  0.161036  0.890681  1
  Si  Si11  1  0.750000  0.338731  0.390493  1
  Si  Si12  1  0.750000  0.829955  0.725711  1
  Si  Si13  1  0.250000  0.668547  0.225994  1
  Si  Si14  1  0.750000  0.329839  0.774307  1
  Si  Si15  1  0.250000  0.170751  0.274322  1
  Mo  Mo16  1  0.750000  0.496054  0.289598  1
  Pt  Pt17  1  0.750000  0.001507  0.574718  1
  Pt  Pt18  1  0.249999  0.498499  0.074672  1
  Pt  Pt19  1  0.750001  0.501563  0.925274  1
  Pt  Pt20  1  0.249999  0.998395  0.425372  1
  Pt  Pt21  1  0.250000  0.004585  0.669965  1
  Pt  Pt22  1  0.750000  0.495947  0.169923  1
  Pt  Pt23  1  0.250000  0.504370  0.830016  1
  Pt  Pt24  1  0.750000  0.995908  0.330127  1
  Pt  Pt25  1  0.750000  0.502260  0.548417  1
  Pt  Pt26  1  0.250000  0.997740  0.048393  1
  Pt  Pt27  1  0.750001  0.002269  0.951552  1
  Pt  Pt28  1  0.250001  0.497844  0.451631  1
  W  W29  1  0.249999  0.503651  0.710367  1
  W  W30  1  0.750001  0.996125  0.210363  1
  W  W31  1  0.250000  0.003355  0.789606  1
