# generated using pymatgen
data_LiCe6ZrBi9Sb
_symmetry_space_group_name_H-M   'P 1'
_cell_length_a   9.62745800
_cell_length_b   9.62745733
_cell_length_c   6.50373200
_cell_angle_alpha   90.00000000
_cell_angle_beta   90.00000000
_cell_angle_gamma   119.99999545
_symmetry_Int_Tables_number   1
_chemical_formula_structural   LiCe6ZrBi9Sb
_chemical_formula_sum   'Li1 Ce6 Zr1 Bi9 Sb1'
_cell_volume   522.05531721
_cell_formula_units_Z   1
loop_
 _symmetry_equiv_pos_site_id
 _symmetry_equiv_pos_as_xyz
  1  'x, y, z'
loop_
 _atom_site_type_symbol
 _atom_site_label
 _atom_site_symmetry_multiplicity
 _atom_site_fract_x
 _atom_site_fract_y
 _atom_site_fract_z
 _atom_site_occupancy
  Li  Li0  1  0.000000  0.000000  0.000000  1
  Ce  Ce1  1  0.613731  0.996166  0.251522  1
  Ce  Ce2  1  0.382435  0.996166  0.748478  1
  Ce  Ce3  1  0.003834  0.617565  0.251522  1
  Ce  Ce4  1  0.003834  0.386269  0.748478  1
  Ce  Ce5  1  0.382435  0.386269  0.251522  1
  Ce  Ce6  1  0.613731  0.617565  0.748478  1
  Zr  Zr7  1  0.000000  0.000000  0.500000  1
  Bi  Bi8  1  0.263468  0.001554  0.245341  1
  Bi  Bi9  1  0.738086  0.001554  0.754659  1
  Bi  Bi10  1  0.998446  0.261914  0.245341  1
  Bi  Bi11  1  0.998446  0.736532  0.754659  1
  Bi  Bi12  1  0.738086  0.736532  0.245341  1
  Bi  Bi13  1  0.263468  0.261914  0.754659  1
  Bi  Bi14  1  0.333333  0.666667  0.000000  1
  Bi  Bi15  1  0.666667  0.333333  0.000000  1
  Bi  Bi16  1  0.666667  0.333333  0.500000  1
  Sb  Sb17  1  0.333333  0.666667  0.500000  1
