# generated using pymatgen
data_LaNd19(Ir3Pt)3
_symmetry_space_group_name_H-M   'P 1'
_cell_length_a   11.36263248
_cell_length_b   11.35126723
_cell_length_c   6.55494656
_cell_angle_alpha   90.02353885
_cell_angle_beta   89.95411076
_cell_angle_gamma   90.05928125
_symmetry_Int_Tables_number   1
_chemical_formula_structural   LaNd19(Ir3Pt)3
_chemical_formula_sum   'La1 Nd19 Ir9 Pt3'
_cell_volume   845.45803278
_cell_formula_units_Z   1
loop_
 _symmetry_equiv_pos_site_id
 _symmetry_equiv_pos_as_xyz
  1  'x, y, z'
loop_
 _atom_site_type_symbol
 _atom_site_label
 _atom_site_symmetry_multiplicity
 _atom_site_fract_x
 _atom_site_fract_y
 _atom_site_fract_z
 _atom_site_occupancy
  La  La0  1  0.086972  0.290203  0.116077  1
  Nd  Nd1  1  0.791802  0.406470  0.117153  1
  Nd  Nd2  1  0.207956  0.590378  0.116929  1
  Nd  Nd3  1  0.909793  0.707017  0.116605  1
  Nd  Nd4  1  0.410599  0.792520  0.383281  1
  Nd  Nd5  1  0.593896  0.207249  0.382890  1
  Nd  Nd6  1  0.293664  0.089731  0.383833  1
  Nd  Nd7  1  0.709221  0.913242  0.382861  1
  Nd  Nd8  1  0.411536  0.205388  0.876883  1
  Nd  Nd9  1  0.707422  0.091675  0.882535  1
  Nd  Nd10  1  0.294135  0.910229  0.878497  1
  Nd  Nd11  1  0.590061  0.795325  0.876717  1
  Nd  Nd12  1  0.089585  0.705786  0.621632  1
  Nd  Nd13  1  0.907418  0.292570  0.617142  1
  Nd  Nd14  1  0.205247  0.410559  0.623217  1
  Nd  Nd15  1  0.794658  0.588858  0.622857  1
  Nd  Nd16  1  0.997642  0.000074  0.998098  1
  Nd  Nd17  1  0.500557  0.500539  0.998744  1
  Nd  Nd18  1  0.499630  0.499543  0.501280  1
  Nd  Nd19  1  0.999095  0.001728  0.502092  1
  Ir  Ir20  1  0.845927  0.153437  0.250527  1
  Ir  Ir21  1  0.347495  0.652689  0.749943  1
  Ir  Ir22  1  0.154408  0.153667  0.750795  1
  Ir  Ir23  1  0.846817  0.845452  0.749669  1
  Ir  Ir24  1  0.651893  0.348048  0.749980  1
  Ir  Ir25  1  0.000296  0.500483  0.376668  1
  Ir  Ir26  1  0.499244  0.999720  0.123012  1
  Ir  Ir27  1  0.499557  0.999591  0.618264  1
  Ir  Ir28  1  0.000157  0.500438  0.881611  1
  Pt  Pt29  1  0.153993  0.845928  0.250011  1
  Pt  Pt30  1  0.345186  0.346082  0.249617  1
  Pt  Pt31  1  0.654137  0.655384  0.250582  1
