# generated using pymatgen
data_Cu4Mo12Pt3RhN4
_symmetry_space_group_name_H-M   'P 1'
_cell_length_a   6.81159135
_cell_length_b   6.81159135
_cell_length_c   6.81159135
_cell_angle_alpha   90.02580361
_cell_angle_beta   89.97419639
_cell_angle_gamma   89.97419639
_symmetry_Int_Tables_number   1
_chemical_formula_structural   Cu4Mo12Pt3RhN4
_chemical_formula_sum   'Cu4 Mo12 Pt3 Rh1 N4'
_cell_volume   316.04259775
_cell_formula_units_Z   1
loop_
 _symmetry_equiv_pos_site_id
 _symmetry_equiv_pos_as_xyz
  1  'x, y, z'
loop_
 _atom_site_type_symbol
 _atom_site_label
 _atom_site_symmetry_multiplicity
 _atom_site_fract_x
 _atom_site_fract_y
 _atom_site_fract_z
 _atom_site_occupancy
  Cu  Cu0  1  0.185116  0.814884  0.314884  1
  Cu  Cu1  1  0.315900  0.185898  0.815757  1
  Cu  Cu2  1  0.814102  0.315757  0.184100  1
  Cu  Cu3  1  0.684243  0.684100  0.685898  1
  Mo  Mo4  1  0.803118  0.960950  0.373399  1
  Mo  Mo5  1  0.696576  0.041684  0.874384  1
  Mo  Mo6  1  0.198863  0.460264  0.125559  1
  Mo  Mo7  1  0.305114  0.538759  0.627914  1
  Mo  Mo8  1  0.958316  0.374384  0.803424  1
  Mo  Mo9  1  0.039050  0.873399  0.696882  1
  Mo  Mo10  1  0.461241  0.127914  0.194886  1
  Mo  Mo11  1  0.539736  0.625559  0.301137  1
  Mo  Mo12  1  0.374441  0.801137  0.960264  1
  Mo  Mo13  1  0.872086  0.694886  0.038759  1
  Mo  Mo14  1  0.126601  0.196882  0.460950  1
  Mo  Mo15  1  0.625616  0.303424  0.541684  1
  Pt  Pt16  1  0.433989  0.934247  0.566315  1
  Pt  Pt17  1  0.933685  0.566011  0.434247  1
  Pt  Pt18  1  0.065753  0.066315  0.066011  1
  Rh  Rh19  1  0.566007  0.433993  0.933993  1
  N  N20  1  0.873475  0.126525  0.626525  1
  N  N21  1  0.626611  0.873580  0.126060  1
  N  N22  1  0.126420  0.626060  0.873389  1
  N  N23  1  0.373940  0.373389  0.373580  1
