# generated using pymatgen
data_Dy2Tc(Ni3P2)3
_symmetry_space_group_name_H-M   'P 1'
_cell_length_a   3.70772100
_cell_length_b   10.44597700
_cell_length_c   11.86780100
_cell_angle_alpha   90.00000000
_cell_angle_beta   90.00000000
_cell_angle_gamma   90.00000000
_symmetry_Int_Tables_number   1
_chemical_formula_structural   Dy2Tc(Ni3P2)3
_chemical_formula_sum   'Dy4 Tc2 Ni18 P12'
_cell_volume   459.64905062
_cell_formula_units_Z   2
loop_
 _symmetry_equiv_pos_site_id
 _symmetry_equiv_pos_as_xyz
  1  'x, y, z'
loop_
 _atom_site_type_symbol
 _atom_site_label
 _atom_site_symmetry_multiplicity
 _atom_site_fract_x
 _atom_site_fract_y
 _atom_site_fract_z
 _atom_site_occupancy
  Dy  Dy0  1  0.250000  0.583077  0.704496  1
  Dy  Dy1  1  0.250000  0.916923  0.204496  1
  Dy  Dy2  1  0.750000  0.412529  0.295611  1
  Dy  Dy3  1  0.750000  0.087471  0.795611  1
  Tc  Tc4  1  0.250000  0.708286  0.988150  1
  Tc  Tc5  1  0.250000  0.791714  0.488150  1
  Ni  Ni6  1  0.750000  0.286441  0.010704  1
  Ni  Ni7  1  0.750000  0.213559  0.510704  1
  Ni  Ni8  1  0.250000  0.406806  0.487188  1
  Ni  Ni9  1  0.250000  0.093194  0.987188  1
  Ni  Ni10  1  0.750000  0.590872  0.511313  1
  Ni  Ni11  1  0.750000  0.909128  0.011313  1
  Ni  Ni12  1  0.250000  0.219102  0.176658  1
  Ni  Ni13  1  0.250000  0.280898  0.676658  1
  Ni  Ni14  1  0.750000  0.779116  0.820954  1
  Ni  Ni15  1  0.750000  0.720884  0.320954  1
  Ni  Ni16  1  0.250000  0.887453  0.703733  1
  Ni  Ni17  1  0.250000  0.612547  0.203733  1
  Ni  Ni18  1  0.750000  0.118077  0.300117  1
  Ni  Ni19  1  0.750000  0.381923  0.800117  1
  Ni  Ni20  1  0.250000  0.462639  0.931875  1
  Ni  Ni21  1  0.250000  0.037361  0.431875  1
  Ni  Ni22  1  0.750000  0.529920  0.069458  1
  Ni  Ni23  1  0.750000  0.970080  0.569458  1
  P  P24  1  0.250000  0.417099  0.114026  1
  P  P25  1  0.250000  0.082901  0.614026  1
  P  P26  1  0.750000  0.582204  0.887413  1
  P  P27  1  0.750000  0.917796  0.387413  1
  P  P28  1  0.250000  0.269070  0.869088  1
  P  P29  1  0.250000  0.230930  0.369088  1
  P  P30  1  0.750000  0.730763  0.129544  1
  P  P31  1  0.750000  0.769237  0.629544  1
  P  P32  1  0.250000  0.597134  0.391270  1
  P  P33  1  0.250000  0.902866  0.891270  1
  P  P34  1  0.750000  0.398242  0.608401  1
  P  P35  1  0.750000  0.101758  0.108401  1
