# generated using pymatgen
data_Y2Tm3IrRu
_symmetry_space_group_name_H-M   'P 1'
_cell_length_a   6.31692842
_cell_length_b   7.27919449
_cell_length_c   8.43741446
_cell_angle_alpha   97.15248422
_cell_angle_beta   111.98354764
_cell_angle_gamma   90.00000509
_symmetry_Int_Tables_number   1
_chemical_formula_structural   Y2Tm3IrRu
_chemical_formula_sum   'Y4 Tm6 Ir2 Ru2'
_cell_volume   356.50378751
_cell_formula_units_Z   2
loop_
 _symmetry_equiv_pos_site_id
 _symmetry_equiv_pos_as_xyz
  1  'x, y, z'
loop_
 _atom_site_type_symbol
 _atom_site_label
 _atom_site_symmetry_multiplicity
 _atom_site_fract_x
 _atom_site_fract_y
 _atom_site_fract_z
 _atom_site_occupancy
  Y  Y0  1  0.789272  0.081459  0.810205  1
  Y  Y1  1  0.979066  0.418541  0.189795  1
  Y  Y2  1  0.212439  0.916096  0.188610  1
  Y  Y3  1  0.023829  0.583904  0.811390  1
  Tm  Tm4  1  0.203121  0.183608  0.565657  1
  Tm  Tm5  1  0.637464  0.316392  0.434343  1
  Tm  Tm6  1  0.796103  0.814218  0.435512  1
  Tm  Tm7  1  0.360591  0.685782  0.564488  1
  Tm  Tm8  1  0.421535  0.250000  0.000000  1
  Tm  Tm9  1  0.577385  0.750000  0.000000  1
  Ir  Ir10  1  0.594176  0.422962  0.776965  1
  Ir  Ir11  1  0.817210  0.077038  0.223035  1
  Ru  Ru12  1  0.405153  0.575113  0.222495  1
  Ru  Ru13  1  0.182658  0.924887  0.777505  1
