# generated using pymatgen
data_Nd5Th(ScBi5)2
_symmetry_space_group_name_H-M   'P 1'
_cell_length_a   9.71501440
_cell_length_b   9.72730631
_cell_length_c   6.58985100
_cell_angle_alpha   90.00000000
_cell_angle_beta   90.00000000
_cell_angle_gamma   120.04185951
_symmetry_Int_Tables_number   1
_chemical_formula_structural   Nd5Th(ScBi5)2
_chemical_formula_sum   'Nd5 Th1 Sc2 Bi10'
_cell_volume   539.08708261
_cell_formula_units_Z   1
loop_
 _symmetry_equiv_pos_site_id
 _symmetry_equiv_pos_as_xyz
  1  'x, y, z'
loop_
 _atom_site_type_symbol
 _atom_site_label
 _atom_site_symmetry_multiplicity
 _atom_site_fract_x
 _atom_site_fract_y
 _atom_site_fract_z
 _atom_site_occupancy
  Nd  Nd0  1  0.378581  0.379873  0.250000  1
  Nd  Nd1  1  0.381756  0.000556  0.750000  1
  Nd  Nd2  1  0.618244  0.618799  0.750000  1
  Nd  Nd3  1  0.621419  0.001291  0.250000  1
  Nd  Nd4  1  0.000000  0.378312  0.750000  1
  Th  Th5  1  0.000000  0.618040  0.250000  1
  Sc  Sc6  1  0.000000  0.000530  0.998513  1
  Sc  Sc7  1  0.000000  0.000530  0.501487  1
  Bi  Bi8  1  0.000000  0.264239  0.250000  1
  Bi  Bi9  1  0.332681  0.667331  0.499646  1
  Bi  Bi10  1  0.667319  0.334649  0.000354  1
  Bi  Bi11  1  0.332681  0.667331  0.000354  1
  Bi  Bi12  1  0.263945  0.263033  0.750000  1
  Bi  Bi13  1  0.736055  0.999088  0.750000  1
  Bi  Bi14  1  0.000000  0.734487  0.750000  1
  Bi  Bi15  1  0.737158  0.737210  0.250000  1
  Bi  Bi16  1  0.262842  0.000050  0.250000  1
  Bi  Bi17  1  0.667319  0.334649  0.499646  1
