# generated using pymatgen
data_Hf2Ga2NiPt3
_symmetry_space_group_name_H-M   'P 1'
_cell_length_a   4.26429700
_cell_length_b   4.26429766
_cell_length_c   8.50120800
_cell_angle_alpha   90.00000000
_cell_angle_beta   90.00000000
_cell_angle_gamma   120.00000267
_symmetry_Int_Tables_number   1
_chemical_formula_structural   Hf2Ga2NiPt3
_chemical_formula_sum   'Hf2 Ga2 Ni1 Pt3'
_cell_volume   133.87707610
_cell_formula_units_Z   1
loop_
 _symmetry_equiv_pos_site_id
 _symmetry_equiv_pos_as_xyz
  1  'x, y, z'
loop_
 _atom_site_type_symbol
 _atom_site_label
 _atom_site_symmetry_multiplicity
 _atom_site_fract_x
 _atom_site_fract_y
 _atom_site_fract_z
 _atom_site_occupancy
  Hf  Hf0  1  0.666666  0.333333  0.246202  1
  Hf  Hf1  1  0.333334  0.666668  0.755110  1
  Ga  Ga2  1  0.000000  0.000000  0.011020  1
  Ga  Ga3  1  0.000000  0.000000  0.498079  1
  Ni  Ni4  1  0.333334  0.666668  0.081688  1
  Pt  Pt5  1  0.333334  0.666668  0.397560  1
  Pt  Pt6  1  0.666666  0.333333  0.590891  1
  Pt  Pt7  1  0.666666  0.333333  0.919449  1
