# generated using pymatgen
data_Li3Ac16YbSi16
_symmetry_space_group_name_H-M   'P 1'
_cell_length_a   7.92067539
_cell_length_b   8.34987338
_cell_length_c   16.03508600
_cell_angle_alpha   90.00000000
_cell_angle_beta   90.00000000
_cell_angle_gamma   89.96490000
_symmetry_Int_Tables_number   1
_chemical_formula_structural   Li3Ac16YbSi16
_chemical_formula_sum   'Li3 Ac16 Yb1 Si16'
_cell_volume   1060.50645554
_cell_formula_units_Z   1
loop_
 _symmetry_equiv_pos_site_id
 _symmetry_equiv_pos_as_xyz
  1  'x, y, z'
loop_
 _atom_site_type_symbol
 _atom_site_label
 _atom_site_symmetry_multiplicity
 _atom_site_fract_x
 _atom_site_fract_y
 _atom_site_fract_z
 _atom_site_occupancy
  Li  Li0  1  0.346315  0.034911  0.750000  1
  Li  Li1  1  0.844029  0.466551  0.750000  1
  Li  Li2  1  0.154263  0.534349  0.250000  1
  Ac  Ac3  1  0.307810  0.188222  0.125408  1
  Ac  Ac4  1  0.819368  0.321107  0.374298  1
  Ac  Ac5  1  0.186252  0.683990  0.870433  1
  Ac  Ac6  1  0.684376  0.819360  0.627742  1
  Ac  Ac7  1  0.307810  0.188222  0.374592  1
  Ac  Ac8  1  0.819368  0.321107  0.125702  1
  Ac  Ac9  1  0.186252  0.683990  0.629567  1
  Ac  Ac10  1  0.684376  0.819360  0.872258  1
  Ac  Ac11  1  0.961053  0.804497  0.396957  1
  Ac  Ac12  1  0.454757  0.686277  0.103039  1
  Ac  Ac13  1  0.545056  0.303947  0.605021  1
  Ac  Ac14  1  0.046031  0.195460  0.893043  1
  Ac  Ac15  1  0.046031  0.195460  0.606957  1
  Ac  Ac16  1  0.545056  0.303947  0.894979  1
  Ac  Ac17  1  0.454757  0.686277  0.396961  1
  Ac  Ac18  1  0.961053  0.804497  0.103043  1
  Yb  Yb19  1  0.638591  0.982343  0.250000  1
  Si  Si20  1  0.862458  0.527517  0.537727  1
  Si  Si21  1  0.362035  0.970746  0.966662  1
  Si  Si22  1  0.633009  0.022586  0.459943  1
  Si  Si23  1  0.135404  0.473716  0.031121  1
  Si  Si24  1  0.135404  0.473716  0.468879  1
  Si  Si25  1  0.633009  0.022586  0.040057  1
  Si  Si26  1  0.362035  0.970746  0.533338  1
  Si  Si27  1  0.862458  0.527517  0.962273  1
  Si  Si28  1  0.988504  0.927835  0.750000  1
  Si  Si29  1  0.491563  0.571517  0.750000  1
  Si  Si30  1  0.515629  0.417559  0.250000  1
  Si  Si31  1  0.013862  0.071895  0.250000  1
  Si  Si32  1  0.264439  0.373395  0.750000  1
  Si  Si33  1  0.760914  0.125291  0.750000  1
  Si  Si34  1  0.245889  0.876398  0.250000  1
  Si  Si35  1  0.740786  0.623110  0.250000  1
