# generated using pymatgen
data_Tb3(PrSb4)5
_symmetry_space_group_name_H-M   'P 1'
_cell_length_a   4.27430000
_cell_length_b   13.50415099
_cell_length_c   15.15375550
_cell_angle_alpha   78.22587173
_cell_angle_beta   90.00000000
_cell_angle_gamma   90.00000000
_symmetry_Int_Tables_number   1
_chemical_formula_structural   Tb3(PrSb4)5
_chemical_formula_sum   'Tb3 Pr5 Sb20'
_cell_volume   856.28304334
_cell_formula_units_Z   1
loop_
 _symmetry_equiv_pos_site_id
 _symmetry_equiv_pos_as_xyz
  1  'x, y, z'
loop_
 _atom_site_type_symbol
 _atom_site_label
 _atom_site_symmetry_multiplicity
 _atom_site_fract_x
 _atom_site_fract_y
 _atom_site_fract_z
 _atom_site_occupancy
  Tb  Tb0  1  0.750000  0.332998  0.423712  1
  Tb  Tb1  1  0.250000  0.396785  0.770735  1
  Tb  Tb2  1  0.750000  0.600889  0.228566  1
  Pr  Pr3  1  0.750000  0.334150  0.143616  1
  Pr  Pr4  1  0.250000  0.949842  0.362418  1
  Pr  Pr5  1  0.250000  0.665795  0.857275  1
  Pr  Pr6  1  0.250000  0.666735  0.575525  1
  Pr  Pr7  1  0.750000  0.051859  0.637357  1
  Sb  Sb8  1  0.750000  0.853701  0.818212  1
  Sb  Sb9  1  0.250000  0.862784  0.673825  1
  Sb  Sb10  1  0.250000  0.150381  0.477647  1
  Sb  Sb11  1  0.750000  0.284822  0.933270  1
  Sb  Sb12  1  0.250000  0.148625  0.779378  1
  Sb  Sb13  1  0.750000  0.571928  0.441326  1
  Sb  Sb14  1  0.750000  0.140197  0.327935  1
  Sb  Sb15  1  0.250000  0.703742  0.350119  1
  Sb  Sb16  1  0.750000  0.294652  0.646867  1
  Sb  Sb17  1  0.750000  0.851535  0.220302  1
  Sb  Sb18  1  0.250000  0.419950  0.972157  1
  Sb  Sb19  1  0.250000  0.424165  0.555674  1
  Sb  Sb20  1  0.750000  0.572500  0.736127  1
  Sb  Sb21  1  0.250000  0.423548  0.268471  1
  Sb  Sb22  1  0.750000  0.856352  0.521867  1
  Sb  Sb23  1  0.750000  0.034051  0.889604  1
  Sb  Sb24  1  0.250000  0.714465  0.066826  1
  Sb  Sb25  1  0.250000  0.967293  0.110611  1
  Sb  Sb26  1  0.250000  0.147000  0.183088  1
  Sb  Sb27  1  0.750000  0.579258  0.027490  1
