# generated using pymatgen
data_Na7Ca(PPd3)4
_symmetry_space_group_name_H-M   'P 1'
_cell_length_a   7.38712167
_cell_length_b   7.38712234
_cell_length_c   7.38712200
_cell_angle_alpha   89.94286804
_cell_angle_beta   89.94286803
_cell_angle_gamma   89.94287315
_symmetry_Int_Tables_number   1
_chemical_formula_structural   Na7Ca(PPd3)4
_chemical_formula_sum   'Na7 Ca1 P4 Pd12'
_cell_volume   403.11148147
_cell_formula_units_Z   1
loop_
 _symmetry_equiv_pos_site_id
 _symmetry_equiv_pos_as_xyz
  1  'x, y, z'
loop_
 _atom_site_type_symbol
 _atom_site_label
 _atom_site_symmetry_multiplicity
 _atom_site_fract_x
 _atom_site_fract_y
 _atom_site_fract_z
 _atom_site_occupancy
  Na  Na0  1  0.030430  0.465558  0.551979  1
  Na  Na1  1  0.551979  0.030430  0.465558  1
  Na  Na2  1  0.465558  0.551979  0.030430  1
  Na  Na3  1  0.208214  0.710543  0.791255  1
  Na  Na4  1  0.958944  0.958944  0.958944  1
  Na  Na5  1  0.791255  0.208214  0.710543  1
  Na  Na6  1  0.710543  0.791255  0.208214  1
  Ca  Ca7  1  0.290303  0.290303  0.290303  1
  P  P8  1  0.874452  0.374291  0.124038  1
  P  P9  1  0.374291  0.124038  0.874452  1
  P  P10  1  0.625235  0.625235  0.625235  1
  P  P11  1  0.124038  0.874452  0.374291  1
  Pd  Pd12  1  0.181302  0.072141  0.621137  1
  Pd  Pd13  1  0.429072  0.372881  0.676991  1
  Pd  Pd14  1  0.072141  0.621137  0.181302  1
  Pd  Pd15  1  0.926484  0.125275  0.321851  1
  Pd  Pd16  1  0.321851  0.926484  0.125275  1
  Pd  Pd17  1  0.676991  0.429072  0.372881  1
  Pd  Pd18  1  0.571419  0.874953  0.821254  1
  Pd  Pd19  1  0.621137  0.181302  0.072141  1
  Pd  Pd20  1  0.372881  0.676991  0.429072  1
  Pd  Pd21  1  0.874953  0.821254  0.571419  1
  Pd  Pd22  1  0.125275  0.321851  0.926484  1
  Pd  Pd23  1  0.821254  0.571419  0.874953  1
