# generated using pymatgen
data_Tb4InOs
_symmetry_space_group_name_H-M   'P 1'
_cell_length_a   9.70292875
_cell_length_b   9.70292836
_cell_length_c   9.70292900
_cell_angle_alpha   60.00000124
_cell_angle_beta   60.00000254
_cell_angle_gamma   60.00000236
_symmetry_Int_Tables_number   1
_chemical_formula_structural   Tb4InOs
_chemical_formula_sum   'Tb16 In4 Os4'
_cell_volume   645.94202848
_cell_formula_units_Z   4
loop_
 _symmetry_equiv_pos_site_id
 _symmetry_equiv_pos_as_xyz
  1  'x, y, z'
loop_
 _atom_site_type_symbol
 _atom_site_label
 _atom_site_symmetry_multiplicity
 _atom_site_fract_x
 _atom_site_fract_y
 _atom_site_fract_z
 _atom_site_occupancy
  Tb  Tb0  1  0.692225  0.307775  0.307775  1
  Tb  Tb1  1  0.692225  0.692225  0.307775  1
  Tb  Tb2  1  0.307775  0.692225  0.307775  1
  Tb  Tb3  1  0.944246  0.944246  0.555754  1
  Tb  Tb4  1  0.152379  0.152379  0.542861  1
  Tb  Tb5  1  0.555754  0.944246  0.555754  1
  Tb  Tb6  1  0.152379  0.152379  0.152379  1
  Tb  Tb7  1  0.307775  0.307775  0.692225  1
  Tb  Tb8  1  0.944246  0.555754  0.555754  1
  Tb  Tb9  1  0.555754  0.555754  0.944246  1
  Tb  Tb10  1  0.555754  0.944246  0.944246  1
  Tb  Tb11  1  0.944246  0.555754  0.944246  1
  Tb  Tb12  1  0.152379  0.542861  0.152379  1
  Tb  Tb13  1  0.307775  0.692225  0.692225  1
  Tb  Tb14  1  0.692225  0.307775  0.692225  1
  Tb  Tb15  1  0.542861  0.152379  0.152379  1
  In  In16  1  0.917662  0.917662  0.247013  1
  In  In17  1  0.247013  0.917662  0.917662  1
  In  In18  1  0.917662  0.247013  0.917662  1
  In  In19  1  0.917662  0.917662  0.917662  1
  Os  Os20  1  0.361220  0.361220  0.361220  1
  Os  Os21  1  0.916340  0.361220  0.361220  1
  Os  Os22  1  0.361220  0.361220  0.916340  1
  Os  Os23  1  0.361220  0.916340  0.361220  1
