# generated using pymatgen
data_YErPa2(InPd2)2
_symmetry_space_group_name_H-M   'P 1'
_cell_length_a   7.88607708
_cell_length_b   7.74151683
_cell_length_c   3.64646200
_cell_angle_alpha   90.00000000
_cell_angle_beta   90.00000000
_cell_angle_gamma   90.21654068
_symmetry_Int_Tables_number   1
_chemical_formula_structural   YErPa2(InPd2)2
_chemical_formula_sum   'Y1 Er1 Pa2 In2 Pd4'
_cell_volume   222.61563859
_cell_formula_units_Z   1
loop_
 _symmetry_equiv_pos_site_id
 _symmetry_equiv_pos_as_xyz
  1  'x, y, z'
loop_
 _atom_site_type_symbol
 _atom_site_label
 _atom_site_symmetry_multiplicity
 _atom_site_fract_x
 _atom_site_fract_y
 _atom_site_fract_z
 _atom_site_occupancy
  Y  Y0  1  0.173388  0.325634  0.500000  1
  Er  Er1  1  0.673327  0.174159  0.500000  1
  Pa  Pa2  1  0.329132  0.832392  0.500000  1
  Pa  Pa3  1  0.828736  0.667738  0.500000  1
  In  In4  1  0.996101  0.007201  0.000000  1
  In  In5  1  0.497263  0.492595  0.000000  1
  Pd  Pd6  1  0.373470  0.114401  0.000000  1
  Pd  Pd7  1  0.870405  0.384661  0.000000  1
  Pd  Pd8  1  0.128760  0.643227  0.000000  1
  Pd  Pd9  1  0.629417  0.857993  0.000000  1
