# generated using pymatgen
data_CaZrTaFeO7
_symmetry_space_group_name_H-M   'P 1'
_cell_length_a   7.42044861
_cell_length_b   7.43147916
_cell_length_c   11.58246414
_cell_angle_alpha   80.79092813
_cell_angle_beta   80.69392248
_cell_angle_gamma   60.43522811
_symmetry_Int_Tables_number   1
_chemical_formula_structural   CaZrTaFeO7
_chemical_formula_sum   'Ca4 Zr4 Ta4 Fe4 O28'
_cell_volume   545.83923076
_cell_formula_units_Z   4
loop_
 _symmetry_equiv_pos_site_id
 _symmetry_equiv_pos_as_xyz
  1  'x, y, z'
loop_
 _atom_site_type_symbol
 _atom_site_label
 _atom_site_symmetry_multiplicity
 _atom_site_fract_x
 _atom_site_fract_y
 _atom_site_fract_z
 _atom_site_occupancy
  Ca  Ca0  1  0.252293  0.500049  0.001048  1
  Ca  Ca1  1  0.500340  0.747397  0.497215  1
  Ca  Ca2  1  0.747707  0.499951  0.998952  1
  Ca  Ca3  1  0.499660  0.252603  0.502785  1
  Zr  Zr4  1  0.986438  0.236812  0.527128  1
  Zr  Zr5  1  0.762926  0.012421  0.973528  1
  Zr  Zr6  1  0.013562  0.763188  0.472872  1
  Zr  Zr7  1  0.237074  0.987579  0.026472  1
  Ta  Ta8  1  0.122436  0.373157  0.753245  1
  Ta  Ta9  1  0.627922  0.877401  0.746090  1
  Ta  Ta10  1  0.877564  0.626843  0.246755  1
  Ta  Ta11  1  0.372078  0.122599  0.253910  1
  Fe  Fe12  1  0.867250  0.132568  0.250481  1
  Fe  Fe13  1  0.132750  0.867432  0.749519  1
  Fe  Fe14  1  0.451046  0.538534  0.248786  1
  Fe  Fe15  1  0.548954  0.461466  0.751214  1
  O  O16  1  0.527688  0.886280  0.915399  1
  O  O17  1  0.113554  0.474350  0.584723  1
  O  O18  1  0.472312  0.113720  0.084601  1
  O  O19  1  0.886446  0.525650  0.415277  1
  O  O20  1  0.242643  0.551691  0.781171  1
  O  O21  1  0.444127  0.764126  0.717217  1
  O  O22  1  0.757357  0.448309  0.218829  1
  O  O23  1  0.555873  0.235874  0.282783  1
  O  O24  1  0.057210  0.168090  0.707296  1
  O  O25  1  0.833889  0.938907  0.792700  1
  O  O26  1  0.942790  0.831910  0.292704  1
  O  O27  1  0.166111  0.061093  0.207300  1
  O  O28  1  0.335960  0.607276  0.402286  1
  O  O29  1  0.391481  0.666392  0.096138  1
  O  O30  1  0.664040  0.392724  0.597714  1
  O  O31  1  0.608519  0.333608  0.903862  1
  O  O32  1  0.882084  0.123610  0.077839  1
  O  O33  1  0.875149  0.117887  0.423151  1
  O  O34  1  0.117916  0.876390  0.922161  1
  O  O35  1  0.124851  0.882113  0.576849  1
  O  O36  1  0.128436  0.284999  0.927373  1
  O  O37  1  0.717569  0.869616  0.572431  1
  O  O38  1  0.871564  0.715001  0.072627  1
  O  O39  1  0.282431  0.130384  0.427569  1
  O  O40  1  0.173064  0.431780  0.213645  1
  O  O41  1  0.574296  0.834465  0.287992  1
  O  O42  1  0.826936  0.568220  0.786355  1
  O  O43  1  0.425704  0.165535  0.712008  1
