# generated using pymatgen
data_Fe3CoP4
_symmetry_space_group_name_H-M   'P 1'
_cell_length_a   3.14913200
_cell_length_b   5.08987332
_cell_length_c   5.69350939
_cell_angle_alpha   90.37474724
_cell_angle_beta   90.00000000
_cell_angle_gamma   90.00000000
_symmetry_Int_Tables_number   1
_chemical_formula_structural   Fe3CoP4
_chemical_formula_sum   'Fe3 Co1 P4'
_cell_volume   91.25750490
_cell_formula_units_Z   1
loop_
 _symmetry_equiv_pos_site_id
 _symmetry_equiv_pos_as_xyz
  1  'x, y, z'
loop_
 _atom_site_type_symbol
 _atom_site_label
 _atom_site_symmetry_multiplicity
 _atom_site_fract_x
 _atom_site_fract_y
 _atom_site_fract_z
 _atom_site_occupancy
  Fe  Fe0  1  0.750000  0.000359  0.797835  1
  Fe  Fe1  1  0.250000  0.501669  0.298232  1
  Fe  Fe2  1  0.250000  0.001175  0.199906  1
  Co  Co3  1  0.750000  0.500562  0.702827  1
  P  P4  1  0.750000  0.307687  0.076002  1
  P  P5  1  0.750000  0.808831  0.426773  1
  P  P6  1  0.250000  0.689859  0.928742  1
  P  P7  1  0.250000  0.189857  0.569681  1
