# generated using pymatgen
data_Be3Ga2GeRh6
_symmetry_space_group_name_H-M   'P 1'
_cell_length_a   4.14087900
_cell_length_b   5.85136200
_cell_length_c   12.42053300
_cell_angle_alpha   90.00003804
_cell_angle_beta   89.99913744
_cell_angle_gamma   90.00019478
_symmetry_Int_Tables_number   1
_chemical_formula_structural   Be3Ga2GeRh6
_chemical_formula_sum   'Be6 Ga4 Ge2 Rh12'
_cell_volume   300.94680723
_cell_formula_units_Z   2
loop_
 _symmetry_equiv_pos_site_id
 _symmetry_equiv_pos_as_xyz
  1  'x, y, z'
loop_
 _atom_site_type_symbol
 _atom_site_label
 _atom_site_symmetry_multiplicity
 _atom_site_fract_x
 _atom_site_fract_y
 _atom_site_fract_z
 _atom_site_occupancy
  Be  Be0  1  0.000009  0.500000  0.995366  1
  Be  Be1  1  0.499790  0.000002  0.171297  1
  Be  Be2  1  0.999805  0.500000  0.339712  1
  Be  Be3  1  0.500003  0.000000  0.501733  1
  Be  Be4  1  0.000201  0.500002  0.664936  1
  Be  Be5  1  0.500191  0.000000  0.826952  1
  Ga  Ga6  1  0.999860  0.000000  0.333062  1
  Ga  Ga7  1  0.500003  0.500001  0.499781  1
  Ga  Ga8  1  0.000135  0.000000  0.666875  1
  Ga  Ga9  1  0.500120  0.499999  0.833602  1
  Ge  Ge10  1  0.999978  0.999999  0.999675  1
  Ge  Ge11  1  0.499895  0.500001  0.167002  1
  Rh  Rh12  1  0.499990  0.248311  0.002308  1
  Rh  Rh13  1  0.499990  0.751686  0.002310  1
  Rh  Rh14  1  0.999885  0.251692  0.164363  1
  Rh  Rh15  1  0.999897  0.748305  0.164367  1
  Rh  Rh16  1  0.499879  0.252122  0.330626  1
  Rh  Rh17  1  0.499880  0.747882  0.330625  1
  Rh  Rh18  1  0.999991  0.249063  0.499525  1
  Rh  Rh19  1  0.999997  0.750936  0.499524  1
  Rh  Rh20  1  0.500147  0.250926  0.667136  1
  Rh  Rh21  1  0.500128  0.749062  0.667137  1
  Rh  Rh22  1  0.000110  0.247902  0.836044  1
  Rh  Rh23  1  0.000106  0.752105  0.836043  1
