# generated using pymatgen
data_Tb20GaCo4Bi6Sb
_symmetry_space_group_name_H-M   'P 1'
_cell_length_a   8.02039821
_cell_length_b   8.87572155
_cell_length_c   12.33755121
_cell_angle_alpha   90.11003749
_cell_angle_beta   90.10298496
_cell_angle_gamma   90.12539105
_symmetry_Int_Tables_number   1
_chemical_formula_structural   Tb20GaCo4Bi6Sb
_chemical_formula_sum   'Tb20 Ga1 Co4 Bi6 Sb1'
_cell_volume   878.26590455
_cell_formula_units_Z   1
loop_
 _symmetry_equiv_pos_site_id
 _symmetry_equiv_pos_as_xyz
  1  'x, y, z'
loop_
 _atom_site_type_symbol
 _atom_site_label
 _atom_site_symmetry_multiplicity
 _atom_site_fract_x
 _atom_site_fract_y
 _atom_site_fract_z
 _atom_site_occupancy
  Tb  Tb0  1  0.839674  0.741315  0.798888  1
  Tb  Tb1  1  0.153700  0.252567  0.195820  1
  Tb  Tb2  1  0.354882  0.258305  0.703683  1
  Tb  Tb3  1  0.648298  0.749172  0.299727  1
  Tb  Tb4  1  0.389431  0.740117  0.696533  1
  Tb  Tb5  1  0.616824  0.252290  0.309108  1
  Tb  Tb6  1  0.868146  0.257500  0.811373  1
  Tb  Tb7  1  0.121896  0.748153  0.189821  1
  Tb  Tb8  1  0.954695  0.751738  0.502866  1
  Tb  Tb9  1  0.048557  0.248780  0.497790  1
  Tb  Tb10  1  0.463235  0.263756  0.991511  1
  Tb  Tb11  1  0.545819  0.736710  0.997247  1
  Tb  Tb12  1  0.678193  0.034312  0.563966  1
  Tb  Tb13  1  0.323201  0.964332  0.437541  1
  Tb  Tb14  1  0.177288  0.967861  0.935174  1
  Tb  Tb15  1  0.324137  0.532731  0.434447  1
  Tb  Tb16  1  0.819811  0.030358  0.063399  1
  Tb  Tb17  1  0.674370  0.468085  0.571496  1
  Tb  Tb18  1  0.821164  0.465615  0.062140  1
  Tb  Tb19  1  0.182235  0.534321  0.934770  1
  Ga  Ga20  1  0.569642  0.495204  0.829501  1
  Co  Co21  1  0.562739  0.749025  0.509382  1
  Co  Co22  1  0.437707  0.249942  0.492711  1
  Co  Co23  1  0.057324  0.249974  0.990855  1
  Co  Co24  1  0.938804  0.749215  0.007185  1
  Bi  Bi25  1  0.073188  0.507094  0.673475  1
  Bi  Bi26  1  0.427371  0.992739  0.169361  1
  Bi  Bi27  1  0.927309  0.492131  0.326773  1
  Bi  Bi28  1  0.572208  0.006942  0.827311  1
  Bi  Bi29  1  0.928093  0.008465  0.324718  1
  Bi  Bi30  1  0.072608  0.993732  0.677096  1
  Sb  Sb31  1  0.427451  0.507515  0.174334  1
