# generated using pymatgen
data_PrNd5(CCl5)2
_symmetry_space_group_name_H-M   'P 1'
_cell_length_a   7.46156824
_cell_length_b   8.85450266
_cell_length_c   8.94718837
_cell_angle_alpha   108.53553710
_cell_angle_beta   97.29494563
_cell_angle_gamma   106.22481081
_symmetry_Int_Tables_number   1
_chemical_formula_structural   PrNd5(CCl5)2
_chemical_formula_sum   'Pr1 Nd5 C2 Cl10'
_cell_volume   522.80377764
_cell_formula_units_Z   1
loop_
 _symmetry_equiv_pos_site_id
 _symmetry_equiv_pos_as_xyz
  1  'x, y, z'
loop_
 _atom_site_type_symbol
 _atom_site_label
 _atom_site_symmetry_multiplicity
 _atom_site_fract_x
 _atom_site_fract_y
 _atom_site_fract_z
 _atom_site_occupancy
  Pr  Pr0  1  0.879074  0.950584  0.234310  1
  Nd  Nd1  1  0.119881  0.048920  0.766534  1
  Nd  Nd2  1  0.026386  0.712079  0.910921  1
  Nd  Nd3  1  0.973645  0.287890  0.088911  1
  Nd  Nd4  1  0.602801  0.839092  0.787004  1
  Nd  Nd5  1  0.397271  0.161020  0.212905  1
  C  C6  1  0.905983  0.964998  0.950203  1
  C  C7  1  0.094803  0.035197  0.048167  1
  Cl  Cl8  1  0.756814  0.915617  0.539014  1
  Cl  Cl9  1  0.244767  0.084986  0.462849  1
  Cl  Cl10  1  0.456425  0.827276  0.077351  1
  Cl  Cl11  1  0.542119  0.172261  0.921988  1
  Cl  Cl12  1  0.820645  0.264892  0.354591  1
  Cl  Cl13  1  0.178983  0.737269  0.645917  1
  Cl  Cl14  1  0.910472  0.625396  0.167286  1
  Cl  Cl15  1  0.089918  0.372466  0.832001  1
  Cl  Cl16  1  0.652491  0.532523  0.718301  1
  Cl  Cl17  1  0.347520  0.467533  0.281747  1
