# generated using pymatgen
data_Tm2UAl3IrRu2
_symmetry_space_group_name_H-M   'P 1'
_cell_length_a   6.77184949
_cell_length_b   6.77185068
_cell_length_c   4.05673600
_cell_angle_alpha   90.00000000
_cell_angle_beta   90.00000000
_cell_angle_gamma   115.19094680
_symmetry_Int_Tables_number   1
_chemical_formula_structural   Tm2UAl3IrRu2
_chemical_formula_sum   'Tm2 U1 Al3 Ir1 Ru2'
_cell_volume   168.34075774
_cell_formula_units_Z   1
loop_
 _symmetry_equiv_pos_site_id
 _symmetry_equiv_pos_as_xyz
  1  'x, y, z'
loop_
 _atom_site_type_symbol
 _atom_site_label
 _atom_site_symmetry_multiplicity
 _atom_site_fract_x
 _atom_site_fract_y
 _atom_site_fract_z
 _atom_site_occupancy
  Tm  Tm0  1  0.417197  0.002291  0.500000  1
  Tm  Tm1  1  0.002291  0.417197  0.500000  1
  U  U2  1  0.586778  0.586778  0.500000  1
  Al  Al3  1  0.755398  0.014999  0.000000  1
  Al  Al4  1  0.014999  0.755398  0.000000  1
  Al  Al5  1  0.217417  0.217417  0.000000  1
  Ir  Ir6  1  0.982847  0.982847  0.500000  1
  Ru  Ru7  1  0.377012  0.646061  0.000000  1
  Ru  Ru8  1  0.646061  0.377012  0.000000  1
