# generated using pymatgen
data_Hg3Ru2F12
_symmetry_space_group_name_H-M   'P 1'
_cell_length_a   8.96002300
_cell_length_b   6.03747139
_cell_length_c   11.82063601
_cell_angle_alpha   85.60133326
_cell_angle_beta   90.00000000
_cell_angle_gamma   90.00000000
_symmetry_Int_Tables_number   1
_chemical_formula_structural   Hg3Ru2F12
_chemical_formula_sum   'Hg6 Ru4 F24'
_cell_volume   637.56426680
_cell_formula_units_Z   2
loop_
 _symmetry_equiv_pos_site_id
 _symmetry_equiv_pos_as_xyz
  1  'x, y, z'
loop_
 _atom_site_type_symbol
 _atom_site_label
 _atom_site_symmetry_multiplicity
 _atom_site_fract_x
 _atom_site_fract_y
 _atom_site_fract_z
 _atom_site_occupancy
  Hg  Hg0  1  0.733437  0.757966  0.568091  1
  Hg  Hg1  1  0.233437  0.242034  0.931909  1
  Hg  Hg2  1  0.266563  0.242034  0.431909  1
  Hg  Hg3  1  0.766563  0.757966  0.068091  1
  Hg  Hg4  1  0.500000  0.000000  0.500000  1
  Hg  Hg5  1  0.000000  0.000000  0.000000  1
  Ru  Ru6  1  0.142088  0.700230  0.671565  1
  Ru  Ru7  1  0.642088  0.299770  0.828435  1
  Ru  Ru8  1  0.857912  0.299770  0.328435  1
  Ru  Ru9  1  0.357912  0.700230  0.171565  1
  F  F10  1  0.958183  0.573663  0.618136  1
  F  F11  1  0.458183  0.426337  0.881864  1
  F  F12  1  0.041817  0.426337  0.381864  1
  F  F13  1  0.541817  0.573663  0.118136  1
  F  F14  1  0.216284  0.408827  0.711006  1
  F  F15  1  0.716284  0.591173  0.788994  1
  F  F16  1  0.783716  0.591173  0.288994  1
  F  F17  1  0.283716  0.408827  0.211006  1
  F  F18  1  0.060197  0.703639  0.819686  1
  F  F19  1  0.560197  0.296361  0.680314  1
  F  F20  1  0.180655  0.829615  0.220499  1
  F  F21  1  0.680655  0.170385  0.279501  1
  F  F22  1  0.819345  0.170385  0.779501  1
  F  F23  1  0.319345  0.829615  0.720499  1
  F  F24  1  0.271632  0.686082  0.024984  1
  F  F25  1  0.771632  0.313918  0.475016  1
  F  F26  1  0.728368  0.313918  0.975016  1
  F  F27  1  0.228368  0.686082  0.524984  1
  F  F28  1  0.438424  0.982815  0.128113  1
  F  F29  1  0.938424  0.017185  0.371887  1
  F  F30  1  0.561576  0.017185  0.871887  1
  F  F31  1  0.061576  0.982815  0.628113  1
  F  F32  1  0.439803  0.703639  0.319686  1
  F  F33  1  0.939803  0.296361  0.180314  1
