# generated using pymatgen
data_Dy5Lu3Au4
_symmetry_space_group_name_H-M   'P 1'
_cell_length_a   4.90135500
_cell_length_b   7.08640724
_cell_length_c   8.88415608
_cell_angle_alpha   90.16377847
_cell_angle_beta   90.00000000
_cell_angle_gamma   90.00000000
_symmetry_Int_Tables_number   1
_chemical_formula_structural   Dy5Lu3Au4
_chemical_formula_sum   'Dy5 Lu3 Au4'
_cell_volume   308.57211047
_cell_formula_units_Z   1
loop_
 _symmetry_equiv_pos_site_id
 _symmetry_equiv_pos_as_xyz
  1  'x, y, z'
loop_
 _atom_site_type_symbol
 _atom_site_label
 _atom_site_symmetry_multiplicity
 _atom_site_fract_x
 _atom_site_fract_y
 _atom_site_fract_z
 _atom_site_occupancy
  Dy  Dy0  1  0.750000  0.648546  0.420518  1
  Dy  Dy1  1  0.250000  0.484347  0.177254  1
  Dy  Dy2  1  0.250000  0.985736  0.322405  1
  Dy  Dy3  1  0.750000  0.515104  0.822862  1
  Dy  Dy4  1  0.750000  0.015795  0.677753  1
  Lu  Lu5  1  0.250000  0.851830  0.920911  1
  Lu  Lu6  1  0.250000  0.351492  0.579806  1
  Lu  Lu7  1  0.750000  0.148295  0.078768  1
  Au  Au8  1  0.250000  0.255001  0.899809  1
  Au  Au9  1  0.250000  0.755757  0.601543  1
  Au  Au10  1  0.750000  0.745119  0.098700  1
  Au  Au11  1  0.750000  0.242977  0.399671  1
