# generated using pymatgen
data_DyTm3Al2(ZnRh2)2
_symmetry_space_group_name_H-M   'P 1'
_cell_length_a   4.05440600
_cell_length_b   6.90166246
_cell_length_c   8.06013733
_cell_angle_alpha   89.66400181
_cell_angle_beta   90.00000000
_cell_angle_gamma   90.00000000
_symmetry_Int_Tables_number   1
_chemical_formula_structural   DyTm3Al2(ZnRh2)2
_chemical_formula_sum   'Dy1 Tm3 Al2 Zn2 Rh4'
_cell_volume   225.53602659
_cell_formula_units_Z   1
loop_
 _symmetry_equiv_pos_site_id
 _symmetry_equiv_pos_as_xyz
  1  'x, y, z'
loop_
 _atom_site_type_symbol
 _atom_site_label
 _atom_site_symmetry_multiplicity
 _atom_site_fract_x
 _atom_site_fract_y
 _atom_site_fract_z
 _atom_site_occupancy
  Dy  Dy0  1  0.250000  0.538423  0.178582  1
  Tm  Tm1  1  0.750000  0.461389  0.820081  1
  Tm  Tm2  1  0.750000  0.961810  0.685565  1
  Tm  Tm3  1  0.250000  0.038641  0.315718  1
  Al  Al4  1  0.250000  0.637751  0.562455  1
  Al  Al5  1  0.750000  0.361891  0.438836  1
  Zn  Zn6  1  0.750000  0.862722  0.063424  1
  Zn  Zn7  1  0.250000  0.137651  0.935075  1
  Rh  Rh8  1  0.250000  0.753502  0.868093  1
  Rh  Rh9  1  0.750000  0.243776  0.129891  1
  Rh  Rh10  1  0.750000  0.738212  0.389656  1
  Rh  Rh11  1  0.250000  0.264232  0.612625  1
