# generated using pymatgen
data_Ho3Er(MgRh)4
_symmetry_space_group_name_H-M   'P 1'
_cell_length_a   4.10320300
_cell_length_b   7.08679392
_cell_length_c   8.49614675
_cell_angle_alpha   89.98474709
_cell_angle_beta   90.00000000
_cell_angle_gamma   90.00000000
_symmetry_Int_Tables_number   1
_chemical_formula_structural   Ho3Er(MgRh)4
_chemical_formula_sum   'Ho3 Er1 Mg4 Rh4'
_cell_volume   247.05565399
_cell_formula_units_Z   1
loop_
 _symmetry_equiv_pos_site_id
 _symmetry_equiv_pos_as_xyz
  1  'x, y, z'
loop_
 _atom_site_type_symbol
 _atom_site_label
 _atom_site_symmetry_multiplicity
 _atom_site_fract_x
 _atom_site_fract_y
 _atom_site_fract_z
 _atom_site_occupancy
  Ho  Ho0  1  0.750000  0.463525  0.823983  1
  Ho  Ho1  1  0.250000  0.036410  0.323815  1
  Ho  Ho2  1  0.750000  0.964291  0.676386  1
  Er  Er3  1  0.250000  0.535698  0.175788  1
  Mg  Mg4  1  0.250000  0.136940  0.938971  1
  Mg  Mg5  1  0.750000  0.861550  0.061733  1
  Mg  Mg6  1  0.250000  0.637482  0.561009  1
  Mg  Mg7  1  0.750000  0.363645  0.437817  1
  Rh  Rh8  1  0.750000  0.748893  0.373119  1
  Rh  Rh9  1  0.250000  0.252091  0.626789  1
  Rh  Rh10  1  0.750000  0.248625  0.127105  1
  Rh  Rh11  1  0.250000  0.750851  0.873484  1
