# generated using pymatgen
data_Nd6ZnGaRh6
_symmetry_space_group_name_H-M   'P 1'
_cell_length_a   5.68085392
_cell_length_b   5.68085443
_cell_length_c   14.14006772
_cell_angle_alpha   89.52493484
_cell_angle_beta   90.47506675
_cell_angle_gamma   136.99455834
_symmetry_Int_Tables_number   1
_chemical_formula_structural   Nd6ZnGaRh6
_chemical_formula_sum   'Nd6 Zn1 Ga1 Rh6'
_cell_volume   311.23546905
_cell_formula_units_Z   1
loop_
 _symmetry_equiv_pos_site_id
 _symmetry_equiv_pos_as_xyz
  1  'x, y, z'
loop_
 _atom_site_type_symbol
 _atom_site_label
 _atom_site_symmetry_multiplicity
 _atom_site_fract_x
 _atom_site_fract_y
 _atom_site_fract_z
 _atom_site_occupancy
  Nd  Nd0  1  0.794390  0.205610  0.395342  1
  Nd  Nd1  1  0.205610  0.794390  0.604658  1
  Nd  Nd2  1  0.792740  0.207260  0.106600  1
  Nd  Nd3  1  0.207260  0.792740  0.893400  1
  Nd  Nd4  1  0.515464  0.484536  0.251196  1
  Nd  Nd5  1  0.484536  0.515464  0.748804  1
  Zn  Zn6  1  0.500000  0.500000  0.500000  1
  Ga  Ga7  1  0.500000  0.500000  0.000000  1
  Rh  Rh8  1  0.080289  0.919711  0.410650  1
  Rh  Rh9  1  0.919711  0.080289  0.589350  1
  Rh  Rh10  1  0.078234  0.921766  0.087829  1
  Rh  Rh11  1  0.921766  0.078234  0.912171  1
  Rh  Rh12  1  0.237194  0.762806  0.249438  1
  Rh  Rh13  1  0.762806  0.237194  0.750562  1
