# generated using pymatgen
data_Ac2InSi2
_symmetry_space_group_name_H-M   'P 1'
_cell_length_a   7.84158700
_cell_length_b   7.84158700
_cell_length_c   4.59427400
_cell_angle_alpha   90.00000000
_cell_angle_beta   90.00000000
_cell_angle_gamma   90.00000000
_symmetry_Int_Tables_number   1
_chemical_formula_structural   Ac2InSi2
_chemical_formula_sum   'Ac4 In2 Si4'
_cell_volume   282.50414419
_cell_formula_units_Z   2
loop_
 _symmetry_equiv_pos_site_id
 _symmetry_equiv_pos_as_xyz
  1  'x, y, z'
loop_
 _atom_site_type_symbol
 _atom_site_label
 _atom_site_symmetry_multiplicity
 _atom_site_fract_x
 _atom_site_fract_y
 _atom_site_fract_z
 _atom_site_occupancy
  Ac  Ac0  1  0.683369  0.183369  0.500000  1
  Ac  Ac1  1  0.316631  0.816631  0.500000  1
  Ac  Ac2  1  0.183369  0.316631  0.500000  1
  Ac  Ac3  1  0.816631  0.683369  0.500000  1
  In  In4  1  0.500000  0.500000  0.000000  1
  In  In5  1  0.000000  0.000000  0.000000  1
  Si  Si6  1  0.108200  0.608200  0.000000  1
  Si  Si7  1  0.891800  0.391800  0.000000  1
  Si  Si8  1  0.608200  0.891800  0.000000  1
  Si  Si9  1  0.391800  0.108200  0.000000  1
