# generated using pymatgen
data_BaLi2DySi4
_symmetry_space_group_name_H-M   'P 1'
_cell_length_a   3.88505000
_cell_length_b   8.07766400
_cell_length_c   10.85346377
_cell_angle_alpha   89.81456749
_cell_angle_beta   90.00000000
_cell_angle_gamma   90.00000000
_symmetry_Int_Tables_number   1
_chemical_formula_structural   BaLi2DySi4
_chemical_formula_sum   'Ba2 Li4 Dy2 Si8'
_cell_volume   340.60301145
_cell_formula_units_Z   2
loop_
 _symmetry_equiv_pos_site_id
 _symmetry_equiv_pos_as_xyz
  1  'x, y, z'
loop_
 _atom_site_type_symbol
 _atom_site_label
 _atom_site_symmetry_multiplicity
 _atom_site_fract_x
 _atom_site_fract_y
 _atom_site_fract_z
 _atom_site_occupancy
  Ba  Ba0  1  0.250000  0.638201  0.633715  1
  Ba  Ba1  1  0.750000  0.361799  0.366285  1
  Li  Li2  1  0.250000  0.005944  0.384246  1
  Li  Li3  1  0.750000  0.994056  0.615754  1
  Li  Li4  1  0.250000  0.491033  0.103620  1
  Li  Li5  1  0.750000  0.508967  0.896380  1
  Dy  Dy6  1  0.250000  0.119595  0.870357  1
  Dy  Dy7  1  0.750000  0.880405  0.129643  1
  Si  Si8  1  0.750000  0.257389  0.055789  1
  Si  Si9  1  0.250000  0.742611  0.944211  1
  Si  Si10  1  0.750000  0.791529  0.407858  1
  Si  Si11  1  0.250000  0.208471  0.592142  1
  Si  Si12  1  0.750000  0.844284  0.838433  1
  Si  Si13  1  0.250000  0.155716  0.161567  1
  Si  Si14  1  0.750000  0.310337  0.696732  1
  Si  Si15  1  0.250000  0.689663  0.303268  1
