# generated using pymatgen
data_Pr4Ho15ScBi12
_symmetry_space_group_name_H-M   'P 1'
_cell_length_a   8.33216885
_cell_length_b   9.50325900
_cell_length_c   12.17534025
_cell_angle_alpha   90.00000000
_cell_angle_beta   89.94812497
_cell_angle_gamma   90.00000000
_symmetry_Int_Tables_number   1
_chemical_formula_structural   Pr4Ho15ScBi12
_chemical_formula_sum   'Pr4 Ho15 Sc1 Bi12'
_cell_volume   964.07663315
_cell_formula_units_Z   1
loop_
 _symmetry_equiv_pos_site_id
 _symmetry_equiv_pos_as_xyz
  1  'x, y, z'
loop_
 _atom_site_type_symbol
 _atom_site_label
 _atom_site_symmetry_multiplicity
 _atom_site_fract_x
 _atom_site_fract_y
 _atom_site_fract_z
 _atom_site_occupancy
  Pr  Pr0  1  0.170413  0.750000  0.223804  1
  Pr  Pr1  1  0.330593  0.750000  0.725945  1
  Pr  Pr2  1  0.829151  0.250000  0.775706  1
  Pr  Pr3  1  0.668552  0.250000  0.274646  1
  Ho  Ho4  1  0.808097  0.564723  0.062564  1
  Ho  Ho5  1  0.689038  0.936575  0.564427  1
  Ho  Ho6  1  0.189606  0.062598  0.936583  1
  Ho  Ho7  1  0.311445  0.436525  0.435575  1
  Ho  Ho8  1  0.189606  0.437402  0.936583  1
  Ho  Ho9  1  0.311445  0.063475  0.435575  1
  Ho  Ho10  1  0.808097  0.935277  0.062564  1
  Ho  Ho11  1  0.689038  0.563425  0.564427  1
  Ho  Ho12  1  0.022565  0.750000  0.502768  1
  Ho  Ho13  1  0.522759  0.250000  0.996989  1
  Ho  Ho14  1  0.977688  0.250000  0.496935  1
  Ho  Ho15  1  0.664524  0.750000  0.287575  1
  Ho  Ho16  1  0.835482  0.750000  0.789316  1
  Ho  Ho17  1  0.334187  0.250000  0.712092  1
  Ho  Ho18  1  0.166400  0.250000  0.211201  1
  Sc  Sc19  1  0.478610  0.750000  0.003226  1
  Bi  Bi20  1  0.402962  0.750000  0.465358  1
  Bi  Bi21  1  0.101506  0.750000  0.965226  1
  Bi  Bi22  1  0.597111  0.250000  0.535543  1
  Bi  Bi23  1  0.903253  0.250000  0.035168  1
  Bi  Bi24  1  0.934383  0.506462  0.328373  1
  Bi  Bi25  1  0.564063  0.990311  0.831746  1
  Bi  Bi26  1  0.065054  0.006315  0.671555  1
  Bi  Bi27  1  0.435437  0.497010  0.168429  1
  Bi  Bi28  1  0.065054  0.493685  0.671555  1
  Bi  Bi29  1  0.435437  0.002990  0.168429  1
  Bi  Bi30  1  0.934383  0.993538  0.328373  1
  Bi  Bi31  1  0.564063  0.509689  0.831746  1
