# generated using pymatgen
data_Ho3Lu13(In3Os)2
_symmetry_space_group_name_H-M   'P 1'
_cell_length_a   10.19731600
_cell_length_b   10.19731489
_cell_length_c   6.97739900
_cell_angle_alpha   90.00000000
_cell_angle_beta   90.00000000
_cell_angle_gamma   119.99999712
_symmetry_Int_Tables_number   1
_chemical_formula_structural   Ho3Lu13(In3Os)2
_chemical_formula_sum   'Ho3 Lu13 In6 Os2'
_cell_volume   628.34174087
_cell_formula_units_Z   1
loop_
 _symmetry_equiv_pos_site_id
 _symmetry_equiv_pos_as_xyz
  1  'x, y, z'
loop_
 _atom_site_type_symbol
 _atom_site_label
 _atom_site_symmetry_multiplicity
 _atom_site_fract_x
 _atom_site_fract_y
 _atom_site_fract_z
 _atom_site_occupancy
  Ho  Ho0  1  0.530948  0.061895  0.522405  1
  Ho  Ho1  1  0.938105  0.469052  0.522405  1
  Ho  Ho2  1  0.530948  0.469052  0.522405  1
  Lu  Lu3  1  0.467406  0.934813  0.023209  1
  Lu  Lu4  1  0.065187  0.532594  0.023209  1
  Lu  Lu5  1  0.467406  0.532594  0.023209  1
  Lu  Lu6  1  0.177519  0.355037  0.730658  1
  Lu  Lu7  1  0.644963  0.822481  0.730658  1
  Lu  Lu8  1  0.177519  0.822481  0.730658  1
  Lu  Lu9  1  0.822544  0.645090  0.226792  1
  Lu  Lu10  1  0.354910  0.177456  0.226792  1
  Lu  Lu11  1  0.822544  0.177456  0.226792  1
  Lu  Lu12  1  0.666667  0.333333  0.901690  1
  Lu  Lu13  1  0.333333  0.666667  0.401477  1
  Lu  Lu14  1  0.000000  0.000000  0.507181  1
  Lu  Lu15  1  0.000000  0.000000  0.007332  1
  In  In16  1  0.837281  0.674561  0.772780  1
  In  In17  1  0.325439  0.162719  0.772780  1
  In  In18  1  0.837281  0.162719  0.772780  1
  In  In19  1  0.163231  0.326463  0.271436  1
  In  In20  1  0.673537  0.836769  0.271436  1
  In  In21  1  0.163231  0.836769  0.271436  1
  Os  Os22  1  0.666667  0.333333  0.297057  1
  Os  Os23  1  0.333333  0.666667  0.799096  1
