# generated using pymatgen
data_Ta3TiNbN6
_symmetry_space_group_name_H-M   'P 1'
_cell_length_a   5.21427029
_cell_length_b   5.22210965
_cell_length_c   10.29465459
_cell_angle_alpha   90.08130265
_cell_angle_beta   89.95928825
_cell_angle_gamma   120.04974969
_symmetry_Int_Tables_number   1
_chemical_formula_structural   Ta3TiNbN6
_chemical_formula_sum   'Ta6 Ti2 Nb2 N12'
_cell_volume   242.64065288
_cell_formula_units_Z   2
loop_
 _symmetry_equiv_pos_site_id
 _symmetry_equiv_pos_as_xyz
  1  'x, y, z'
loop_
 _atom_site_type_symbol
 _atom_site_label
 _atom_site_symmetry_multiplicity
 _atom_site_fract_x
 _atom_site_fract_y
 _atom_site_fract_z
 _atom_site_occupancy
  Ta  Ta0  1  0.664232  0.332116  0.500000  1
  Ta  Ta1  1  0.333719  0.666860  0.000000  1
  Ta  Ta2  1  0.677686  0.999980  0.749979  1
  Ta  Ta3  1  0.677686  0.677706  0.250021  1
  Ta  Ta4  1  0.999990  0.322679  0.249975  1
  Ta  Ta5  1  0.999990  0.677312  0.750025  1
  Ti  Ti6  1  0.333818  0.666910  0.500000  1
  Ti  Ti7  1  0.665245  0.332622  0.000000  1
  Nb  Nb8  1  0.323572  0.323383  0.749989  1
  Nb  Nb9  1  0.323572  0.000189  0.250011  1
  N  N10  1  0.342557  0.348252  0.379833  1
  N  N11  1  0.659851  0.998600  0.380163  1
  N  N12  1  0.997624  0.652735  0.379567  1
  N  N13  1  0.994606  0.343615  0.879686  1
  N  N14  1  0.661373  0.001407  0.119830  1
  N  N15  1  0.661373  0.659964  0.880170  1
  N  N16  1  0.344235  0.997998  0.879691  1
  N  N17  1  0.659851  0.661252  0.619837  1
  N  N18  1  0.997624  0.344890  0.620433  1
  N  N19  1  0.994606  0.650990  0.120314  1
  N  N20  1  0.342557  0.994306  0.620167  1
  N  N21  1  0.344235  0.346237  0.120309  1
