# generated using pymatgen
data_Sm4MgMn2NiO12
_symmetry_space_group_name_H-M   'P 1'
_cell_length_a   5.38343048
_cell_length_b   5.60905484
_cell_length_c   7.69390573
_cell_angle_alpha   90.22454276
_cell_angle_beta   89.94666181
_cell_angle_gamma   89.97998246
_symmetry_Int_Tables_number   1
_chemical_formula_structural   Sm4MgMn2NiO12
_chemical_formula_sum   'Sm4 Mg1 Mn2 Ni1 O12'
_cell_volume   232.32294559
_cell_formula_units_Z   1
loop_
 _symmetry_equiv_pos_site_id
 _symmetry_equiv_pos_as_xyz
  1  'x, y, z'
loop_
 _atom_site_type_symbol
 _atom_site_label
 _atom_site_symmetry_multiplicity
 _atom_site_fract_x
 _atom_site_fract_y
 _atom_site_fract_z
 _atom_site_occupancy
  Sm  Sm0  1  0.983089  0.059783  0.250021  1
  Sm  Sm1  1  0.513231  0.561375  0.251834  1
  Sm  Sm2  1  0.486631  0.438801  0.748174  1
  Sm  Sm3  1  0.016957  0.940031  0.749892  1
  Mg  Mg4  1  0.999864  0.499966  0.999903  1
  Mn  Mn5  1  0.500017  0.000116  0.000061  1
  Mn  Mn6  1  0.000018  0.499902  0.499917  1
  Ni  Ni7  1  0.500131  0.999943  0.500617  1
  O  O8  1  0.788128  0.805724  0.047711  1
  O  O9  1  0.691340  0.286717  0.051382  1
  O  O10  1  0.404335  0.971585  0.242042  1
  O  O11  1  0.092530  0.471432  0.258871  1
  O  O12  1  0.808214  0.787565  0.448842  1
  O  O13  1  0.709484  0.305879  0.452598  1
  O  O14  1  0.290736  0.694134  0.547295  1
  O  O15  1  0.191915  0.212346  0.551111  1
  O  O16  1  0.907374  0.528492  0.740906  1
  O  O17  1  0.595867  0.028529  0.758169  1
  O  O18  1  0.308455  0.713432  0.948487  1
  O  O19  1  0.211683  0.194241  0.952163  1
