# generated using pymatgen
data_YPa3(InIr2)2
_symmetry_space_group_name_H-M   'P 1'
_cell_length_a   7.75676945
_cell_length_b   7.75677028
_cell_length_c   3.61915100
_cell_angle_alpha   90.00000000
_cell_angle_beta   90.00000000
_cell_angle_gamma   92.06159210
_symmetry_Int_Tables_number   1
_chemical_formula_structural   YPa3(InIr2)2
_chemical_formula_sum   'Y1 Pa3 In2 Ir4'
_cell_volume   217.61424499
_cell_formula_units_Z   1
loop_
 _symmetry_equiv_pos_site_id
 _symmetry_equiv_pos_as_xyz
  1  'x, y, z'
loop_
 _atom_site_type_symbol
 _atom_site_label
 _atom_site_symmetry_multiplicity
 _atom_site_fract_x
 _atom_site_fract_y
 _atom_site_fract_z
 _atom_site_occupancy
  Y  Y0  1  0.829577  0.670423  0.500000  1
  Pa  Pa1  1  0.671388  0.167493  0.500000  1
  Pa  Pa2  1  0.332507  0.828612  0.500000  1
  Pa  Pa3  1  0.167212  0.332788  0.500000  1
  In  In4  1  0.508694  0.500452  0.000000  1
  In  In5  1  0.999548  0.991306  0.000000  1
  Ir  Ir6  1  0.148380  0.627561  0.000000  1
  Ir  Ir7  1  0.872439  0.351620  0.000000  1
  Ir  Ir8  1  0.614060  0.885940  0.000000  1
  Ir  Ir9  1  0.356193  0.143807  0.000000  1
