# generated using pymatgen
data_Pr12Ir3PtCl12
_symmetry_space_group_name_H-M   'P 1'
_cell_length_a   10.33394088
_cell_length_b   10.33394082
_cell_length_c   10.33393985
_cell_angle_alpha   109.62095443
_cell_angle_beta   109.62095596
_cell_angle_gamma   109.62094875
_symmetry_Int_Tables_number   1
_chemical_formula_structural   Pr12Ir3PtCl12
_chemical_formula_sum   'Pr12 Ir3 Pt1 Cl12'
_cell_volume   844.78232198
_cell_formula_units_Z   1
loop_
 _symmetry_equiv_pos_site_id
 _symmetry_equiv_pos_as_xyz
  1  'x, y, z'
loop_
 _atom_site_type_symbol
 _atom_site_label
 _atom_site_symmetry_multiplicity
 _atom_site_fract_x
 _atom_site_fract_y
 _atom_site_fract_z
 _atom_site_occupancy
  Pr  Pr0  1  0.479429  0.493141  0.237418  1
  Pr  Pr1  1  0.750000  0.239158  0.260842  1
  Pr  Pr2  1  0.750000  0.009706  0.490294  1
  Pr  Pr3  1  0.237418  0.479429  0.493141  1
  Pr  Pr4  1  0.260842  0.750000  0.239158  1
  Pr  Pr5  1  0.020571  0.262582  0.006859  1
  Pr  Pr6  1  0.006859  0.020571  0.262582  1
  Pr  Pr7  1  0.490294  0.750000  0.009706  1
  Pr  Pr8  1  0.493141  0.237418  0.479429  1
  Pr  Pr9  1  0.009706  0.490294  0.750000  1
  Pr  Pr10  1  0.262582  0.006859  0.020571  1
  Pr  Pr11  1  0.239158  0.260842  0.750000  1
  Ir  Ir12  1  0.500670  0.999330  0.250000  1
  Ir  Ir13  1  0.999330  0.250000  0.500670  1
  Ir  Ir14  1  0.250000  0.500670  0.999330  1
  Pt  Pt15  1  0.250000  0.250000  0.250000  1
  Cl  Cl16  1  0.250000  0.752996  0.747004  1
  Cl  Cl17  1  0.502015  0.501160  0.750905  1
  Cl  Cl18  1  0.997985  0.749095  0.998840  1
  Cl  Cl19  1  0.747004  0.250000  0.752996  1
  Cl  Cl20  1  0.998840  0.997985  0.749095  1
  Cl  Cl21  1  0.250000  0.999452  0.500548  1
  Cl  Cl22  1  0.750905  0.502015  0.501160  1
  Cl  Cl23  1  0.500548  0.250000  0.999452  1
  Cl  Cl24  1  0.752996  0.747004  0.250000  1
  Cl  Cl25  1  0.749095  0.998840  0.997985  1
  Cl  Cl26  1  0.999452  0.500548  0.250000  1
  Cl  Cl27  1  0.501160  0.750905  0.502015  1
