# generated using pymatgen
data_Ho8ZnCu(Si6Pt)2
_symmetry_space_group_name_H-M   'P 1'
_cell_length_a   8.08547700
_cell_length_b   8.08547770
_cell_length_c   8.10676800
_cell_angle_alpha   90.00000000
_cell_angle_beta   90.00000000
_cell_angle_gamma   120.00000124
_symmetry_Int_Tables_number   1
_chemical_formula_structural   Ho8ZnCu(Si6Pt)2
_chemical_formula_sum   'Ho8 Zn1 Cu1 Si12 Pt2'
_cell_volume   458.97570791
_cell_formula_units_Z   1
loop_
 _symmetry_equiv_pos_site_id
 _symmetry_equiv_pos_as_xyz
  1  'x, y, z'
loop_
 _atom_site_type_symbol
 _atom_site_label
 _atom_site_symmetry_multiplicity
 _atom_site_fract_x
 _atom_site_fract_y
 _atom_site_fract_z
 _atom_site_occupancy
  Ho  Ho0  1  0.501628  0.003254  0.249658  1
  Ho  Ho1  1  0.500519  0.001040  0.750460  1
  Ho  Ho2  1  0.996746  0.498372  0.249658  1
  Ho  Ho3  1  0.998960  0.499481  0.750460  1
  Ho  Ho4  1  0.501628  0.498372  0.249658  1
  Ho  Ho5  1  0.500519  0.499481  0.750460  1
  Ho  Ho6  1  0.000000  0.000000  0.248182  1
  Ho  Ho7  1  0.000000  0.000000  0.751501  1
  Zn  Zn8  1  0.333333  0.666667  0.004482  1
  Cu  Cu9  1  0.666667  0.333333  0.996989  1
  Si  Si10  1  0.165512  0.331022  0.998757  1
  Si  Si11  1  0.829312  0.658625  0.000873  1
  Si  Si12  1  0.668978  0.834488  0.998757  1
  Si  Si13  1  0.834409  0.668816  0.500958  1
  Si  Si14  1  0.341375  0.170688  0.000873  1
  Si  Si15  1  0.165677  0.331351  0.499104  1
  Si  Si16  1  0.165512  0.834488  0.998757  1
  Si  Si17  1  0.331184  0.165591  0.500958  1
  Si  Si18  1  0.829312  0.170688  0.000873  1
  Si  Si19  1  0.668649  0.834323  0.499104  1
  Si  Si20  1  0.834409  0.165591  0.500958  1
  Si  Si21  1  0.165677  0.834323  0.499104  1
  Pt  Pt22  1  0.666667  0.333333  0.500679  1
  Pt  Pt23  1  0.333333  0.666667  0.498737  1
