# generated using pymatgen
data_DyHo9TlPb5
_symmetry_space_group_name_H-M   'P 1'
_cell_length_a   9.00947400
_cell_length_b   9.01472388
_cell_length_c   6.64997300
_cell_angle_alpha   90.00000000
_cell_angle_beta   90.00000000
_cell_angle_gamma   119.99946469
_symmetry_Int_Tables_number   1
_chemical_formula_structural   DyHo9TlPb5
_chemical_formula_sum   'Dy1 Ho9 Tl1 Pb5'
_cell_volume   467.74022638
_cell_formula_units_Z   1
loop_
 _symmetry_equiv_pos_site_id
 _symmetry_equiv_pos_as_xyz
  1  'x, y, z'
loop_
 _atom_site_type_symbol
 _atom_site_label
 _atom_site_symmetry_multiplicity
 _atom_site_fract_x
 _atom_site_fract_y
 _atom_site_fract_z
 _atom_site_occupancy
  Dy  Dy0  1  0.237339  0.236967  0.750000  1
  Ho  Ho1  1  0.336147  0.669905  0.001689  1
  Ho  Ho2  1  0.666312  0.330197  0.498323  1
  Ho  Ho3  1  0.666312  0.330197  0.001677  1
  Ho  Ho4  1  0.336147  0.669905  0.498311  1
  Ho  Ho5  1  0.238790  0.999899  0.250000  1
  Ho  Ho6  1  0.000412  0.762964  0.750000  1
  Ho  Ho7  1  0.995561  0.234244  0.250000  1
  Ho  Ho8  1  0.761626  0.765983  0.250000  1
  Ho  Ho9  1  0.762828  0.999951  0.750000  1
  Tl  Tl10  1  0.603501  0.999953  0.250000  1
  Pb  Pb11  1  0.605510  0.603594  0.750000  1
  Pb  Pb12  1  0.001570  0.396785  0.750000  1
  Pb  Pb13  1  0.999240  0.605290  0.250000  1
  Pb  Pb14  1  0.393825  0.394575  0.250000  1
  Pb  Pb15  1  0.394882  0.999591  0.750000  1
