# generated using pymatgen
data_Li4Cu3PbF12
_symmetry_space_group_name_H-M   'P 1'
_cell_length_a   6.55051838
_cell_length_b   6.55051846
_cell_length_c   6.55051800
_cell_angle_alpha   109.47121921
_cell_angle_beta   109.47121946
_cell_angle_gamma   109.47122155
_symmetry_Int_Tables_number   1
_chemical_formula_structural   Li4Cu3PbF12
_chemical_formula_sum   'Li4 Cu3 Pb1 F12'
_cell_volume   216.37401665
_cell_formula_units_Z   1
loop_
 _symmetry_equiv_pos_site_id
 _symmetry_equiv_pos_as_xyz
  1  'x, y, z'
loop_
 _atom_site_type_symbol
 _atom_site_label
 _atom_site_symmetry_multiplicity
 _atom_site_fract_x
 _atom_site_fract_y
 _atom_site_fract_z
 _atom_site_occupancy
  Li  Li0  1  0.500000  0.500000  0.500000  1
  Li  Li1  1  0.500000  0.000000  0.000000  1
  Li  Li2  1  0.000000  0.000000  0.500000  1
  Li  Li3  1  0.000000  0.500000  0.000000  1
  Cu  Cu4  1  0.000000  0.500000  0.500000  1
  Cu  Cu5  1  0.500000  0.500000  0.000000  1
  Cu  Cu6  1  0.500000  0.000000  0.500000  1
  Pb  Pb7  1  0.000000  0.000000  0.000000  1
  F  F8  1  0.686744  0.173286  0.860031  1
  F  F9  1  0.313256  0.173286  0.486541  1
  F  F10  1  0.860031  0.686744  0.173286  1
  F  F11  1  0.513459  0.686744  0.826714  1
  F  F12  1  0.173286  0.860031  0.686744  1
  F  F13  1  0.139969  0.313256  0.826714  1
  F  F14  1  0.686744  0.826714  0.513459  1
  F  F15  1  0.173286  0.486541  0.313256  1
  F  F16  1  0.826714  0.513459  0.686744  1
  F  F17  1  0.313256  0.826714  0.139969  1
  F  F18  1  0.486541  0.313256  0.173286  1
  F  F19  1  0.826714  0.139969  0.313256  1
