# generated using pymatgen
data_U(PaS2)3
_symmetry_space_group_name_H-M   'P 1'
_cell_length_a   3.81822900
_cell_length_b   10.39878714
_cell_length_c   10.54165713
_cell_angle_alpha   90.23026741
_cell_angle_beta   90.00000000
_cell_angle_gamma   90.00000000
_symmetry_Int_Tables_number   1
_chemical_formula_structural   U(PaS2)3
_chemical_formula_sum   'U2 Pa6 S12'
_cell_volume   418.55259589
_cell_formula_units_Z   2
loop_
 _symmetry_equiv_pos_site_id
 _symmetry_equiv_pos_as_xyz
  1  'x, y, z'
loop_
 _atom_site_type_symbol
 _atom_site_label
 _atom_site_symmetry_multiplicity
 _atom_site_fract_x
 _atom_site_fract_y
 _atom_site_fract_z
 _atom_site_occupancy
  U  U0  1  0.750000  0.009341  0.188815  1
  U  U1  1  0.250000  0.990659  0.811185  1
  Pa  Pa2  1  0.250000  0.317074  0.990668  1
  Pa  Pa3  1  0.750000  0.682926  0.009332  1
  Pa  Pa4  1  0.750000  0.815133  0.511620  1
  Pa  Pa5  1  0.250000  0.184867  0.488380  1
  Pa  Pa6  1  0.250000  0.507186  0.309597  1
  Pa  Pa7  1  0.750000  0.492814  0.690403  1
  S  S8  1  0.250000  0.869692  0.052542  1
  S  S9  1  0.750000  0.130308  0.947458  1
  S  S10  1  0.750000  0.370965  0.446400  1
  S  S11  1  0.250000  0.629035  0.553600  1
  S  S12  1  0.250000  0.556037  0.872153  1
  S  S13  1  0.750000  0.443963  0.127847  1
  S  S14  1  0.750000  0.055713  0.625645  1
  S  S15  1  0.250000  0.944287  0.374355  1
  S  S16  1  0.250000  0.208391  0.228357  1
  S  S17  1  0.750000  0.791609  0.771643  1
  S  S18  1  0.750000  0.706206  0.272523  1
  S  S19  1  0.250000  0.293794  0.727477  1
