# generated using pymatgen
data_Y4Al17Si(PdRh2)2
_symmetry_space_group_name_H-M   'P 1'
_cell_length_a   7.58522146
_cell_length_b   7.58522276
_cell_length_c   9.40829850
_cell_angle_alpha   89.97629749
_cell_angle_beta   89.97629870
_cell_angle_gamma   119.61454917
_symmetry_Int_Tables_number   1
_chemical_formula_structural   Y4Al17Si(PdRh2)2
_chemical_formula_sum   'Y4 Al17 Si1 Pd2 Rh4'
_cell_volume   470.60001096
_cell_formula_units_Z   1
loop_
 _symmetry_equiv_pos_site_id
 _symmetry_equiv_pos_as_xyz
  1  'x, y, z'
loop_
 _atom_site_type_symbol
 _atom_site_label
 _atom_site_symmetry_multiplicity
 _atom_site_fract_x
 _atom_site_fract_y
 _atom_site_fract_z
 _atom_site_occupancy
  Y  Y0  1  0.993777  0.674028  0.250371  1
  Y  Y1  1  0.004591  0.330613  0.749844  1
  Y  Y2  1  0.674028  0.993777  0.250371  1
  Y  Y3  1  0.330613  0.004591  0.749844  1
  Al  Al4  1  0.875727  0.875727  0.748378  1
  Al  Al5  1  0.002133  0.332677  0.078136  1
  Al  Al6  1  0.998286  0.669340  0.923160  1
  Al  Al7  1  0.000534  0.665419  0.573816  1
  Al  Al8  1  0.336636  0.999582  0.425290  1
  Al  Al9  1  0.999582  0.336636  0.425290  1
  Al  Al10  1  0.665419  0.000534  0.573816  1
  Al  Al11  1  0.669340  0.998286  0.923160  1
  Al  Al12  1  0.332677  0.002133  0.078136  1
  Al  Al13  1  0.331345  0.331345  0.552163  1
  Al  Al14  1  0.665756  0.665756  0.452158  1
  Al  Al15  1  0.666292  0.666292  0.055186  1
  Al  Al16  1  0.330829  0.330829  0.940045  1
  Al  Al17  1  0.336745  0.547222  0.253902  1
  Al  Al18  1  0.660666  0.452496  0.746019  1
  Al  Al19  1  0.547222  0.336745  0.253902  1
  Al  Al20  1  0.452496  0.660666  0.746019  1
  Si  Si21  1  0.129225  0.129225  0.251198  1
  Pd  Pd22  1  0.670956  0.326376  0.000630  1
  Pd  Pd23  1  0.326376  0.670956  0.000630  1
  Rh  Rh24  1  0.326946  0.670650  0.499478  1
  Rh  Rh25  1  0.670650  0.326946  0.499478  1
  Rh  Rh26  1  0.000628  0.000628  0.006281  1
  Rh  Rh27  1  0.000524  0.000524  0.493300  1
