# generated using pymatgen
data_Sc4Al5Tc3
_symmetry_space_group_name_H-M   'P 1'
_cell_length_a   5.34525443
_cell_length_b   5.34896698
_cell_length_c   8.54628000
_cell_angle_alpha   90.00000000
_cell_angle_beta   90.00000000
_cell_angle_gamma   120.02297709
_symmetry_Int_Tables_number   1
_chemical_formula_structural   Sc4Al5Tc3
_chemical_formula_sum   'Sc4 Al5 Tc3'
_cell_volume   211.56579229
_cell_formula_units_Z   1
loop_
 _symmetry_equiv_pos_site_id
 _symmetry_equiv_pos_as_xyz
  1  'x, y, z'
loop_
 _atom_site_type_symbol
 _atom_site_label
 _atom_site_symmetry_multiplicity
 _atom_site_fract_x
 _atom_site_fract_y
 _atom_site_fract_z
 _atom_site_occupancy
  Sc  Sc0  1  0.334326  0.667164  0.443952  1
  Sc  Sc1  1  0.661831  0.330915  0.554232  1
  Sc  Sc2  1  0.661831  0.330915  0.945768  1
  Sc  Sc3  1  0.334326  0.667164  0.056048  1
  Al  Al4  1  0.832965  0.164540  0.250000  1
  Al  Al5  1  0.832965  0.668426  0.250000  1
  Al  Al6  1  0.327452  0.163726  0.250000  1
  Al  Al7  1  0.190226  0.844132  0.750000  1
  Al  Al8  1  0.190226  0.346092  0.750000  1
  Tc  Tc9  1  0.979017  0.989508  0.508557  1
  Tc  Tc10  1  0.979017  0.989508  0.991443  1
  Tc  Tc11  1  0.675819  0.837909  0.750000  1
