# generated using pymatgen
data_Ti8Al10Ga5Fe7
_symmetry_space_group_name_H-M   'P 1'
_cell_length_a   8.44198857
_cell_length_b   8.44198771
_cell_length_c   8.44198718
_cell_angle_alpha   120.16541147
_cell_angle_beta   119.88557444
_cell_angle_gamma   89.95602016
_symmetry_Int_Tables_number   1
_chemical_formula_structural   Ti8Al10Ga5Fe7
_chemical_formula_sum   'Ti8 Al10 Ga5 Fe7'
_cell_volume   425.25400783
_cell_formula_units_Z   1
loop_
 _symmetry_equiv_pos_site_id
 _symmetry_equiv_pos_as_xyz
  1  'x, y, z'
loop_
 _atom_site_type_symbol
 _atom_site_label
 _atom_site_symmetry_multiplicity
 _atom_site_fract_x
 _atom_site_fract_y
 _atom_site_fract_z
 _atom_site_occupancy
  Ti  Ti0  1  0.790499  0.279605  0.063395  1
  Ti  Ti1  1  0.216210  0.279605  0.489105  1
  Ti  Ti2  1  0.215387  0.715387  0.500000  1
  Ti  Ti3  1  0.216210  0.727105  0.936605  1
  Ti  Ti4  1  0.790499  0.727105  0.510895  1
  Ti  Ti5  1  0.779276  0.279276  0.500000  1
  Ti  Ti6  1  0.378820  0.123570  0.744750  1
  Ti  Ti7  1  0.378820  0.634071  0.255250  1
  Al  Al8  1  0.840450  0.657566  0.817118  1
  Al  Al9  1  0.840450  0.023333  0.182882  1
  Al  Al10  1  0.839642  0.657449  0.182193  1
  Al  Al11  1  0.475257  0.657449  0.817807  1
  Al  Al12  1  0.381942  0.122147  0.259795  1
  Al  Al13  1  0.862351  0.122147  0.740205  1
  Al  Al14  1  0.618104  0.876647  0.258543  1
  Al  Al15  1  0.618104  0.359561  0.741457  1
  Al  Al16  1  0.616958  0.877943  0.739014  1
  Al  Al17  1  0.138928  0.877943  0.260986  1
  Ga  Ga18  1  0.996743  0.496743  0.500000  1
  Ga  Ga19  1  0.157810  0.345831  0.188020  1
  Ga  Ga20  1  0.157810  0.969790  0.811980  1
  Ga  Ga21  1  0.154631  0.348267  0.806365  1
  Ga  Ga22  1  0.541900  0.348267  0.193635  1
  Fe  Fe23  1  0.999747  0.999225  0.500611  1
  Fe  Fe24  1  0.498613  0.999225  0.999478  1
  Fe  Fe25  1  0.498946  0.498946  0.000000  1
  Fe  Fe26  1  0.498613  0.499135  0.499389  1
  Fe  Fe27  1  0.999747  0.499135  0.000522  1
  Fe  Fe28  1  0.000395  0.000395  0.000000  1
  Fe  Fe29  1  0.497136  0.997136  0.500000  1
