# generated using pymatgen
data_Y4Tc3Os3Ru2
_symmetry_space_group_name_H-M   'P 1'
_cell_length_a   5.26018980
_cell_length_b   5.26522919
_cell_length_c   9.15962100
_cell_angle_alpha   90.00000000
_cell_angle_beta   90.00000000
_cell_angle_gamma   120.03170181
_symmetry_Int_Tables_number   1
_chemical_formula_structural   Y4Tc3Os3Ru2
_chemical_formula_sum   'Y4 Tc3 Os3 Ru2'
_cell_volume   219.62815228
_cell_formula_units_Z   1
loop_
 _symmetry_equiv_pos_site_id
 _symmetry_equiv_pos_as_xyz
  1  'x, y, z'
loop_
 _atom_site_type_symbol
 _atom_site_label
 _atom_site_symmetry_multiplicity
 _atom_site_fract_x
 _atom_site_fract_y
 _atom_site_fract_z
 _atom_site_occupancy
  Y  Y0  1  0.335057  0.667529  0.433758  1
  Y  Y1  1  0.667865  0.333932  0.565137  1
  Y  Y2  1  0.667865  0.333932  0.934863  1
  Y  Y3  1  0.335057  0.667529  0.066242  1
  Tc  Tc4  1  0.168199  0.338300  0.750000  1
  Tc  Tc5  1  0.168199  0.829900  0.750000  1
  Tc  Tc6  1  0.335303  0.167652  0.250000  1
  Os  Os7  1  0.827301  0.656288  0.250000  1
  Os  Os8  1  0.655191  0.827596  0.750000  1
  Os  Os9  1  0.827301  0.171013  0.250000  1
  Ru  Ru10  1  0.006330  0.003165  0.001219  1
  Ru  Ru11  1  0.006330  0.003165  0.498781  1
