# generated using pymatgen
data_YThTlPd2
_symmetry_space_group_name_H-M   'P 1'
_cell_length_a   7.88997900
_cell_length_b   7.83745600
_cell_length_c   3.78446100
_cell_angle_alpha   90.00000000
_cell_angle_beta   90.00000000
_cell_angle_gamma   90.00000000
_symmetry_Int_Tables_number   1
_chemical_formula_structural   YThTlPd2
_chemical_formula_sum   'Y2 Th2 Tl2 Pd4'
_cell_volume   234.02108958
_cell_formula_units_Z   2
loop_
 _symmetry_equiv_pos_site_id
 _symmetry_equiv_pos_as_xyz
  1  'x, y, z'
loop_
 _atom_site_type_symbol
 _atom_site_label
 _atom_site_symmetry_multiplicity
 _atom_site_fract_x
 _atom_site_fract_y
 _atom_site_fract_z
 _atom_site_occupancy
  Y  Y0  1  0.172864  0.323998  0.500000  1
  Y  Y1  1  0.672864  0.176002  0.500000  1
  Th  Th2  1  0.326063  0.832106  0.500000  1
  Th  Th3  1  0.826063  0.667894  0.500000  1
  Tl  Tl4  1  0.996908  0.009419  0.000000  1
  Tl  Tl5  1  0.496908  0.490581  0.000000  1
  Pd  Pd6  1  0.374862  0.121068  0.000000  1
  Pd  Pd7  1  0.874862  0.378932  0.000000  1
  Pd  Pd8  1  0.129302  0.631857  0.000000  1
  Pd  Pd9  1  0.629302  0.868143  0.000000  1
