# generated using pymatgen
data_Zr2Sc(GaNi)3
_symmetry_space_group_name_H-M   'P 1'
_cell_length_a   6.96510600
_cell_length_b   6.94934793
_cell_length_c   3.39950500
_cell_angle_alpha   90.00000000
_cell_angle_beta   90.00000000
_cell_angle_gamma   120.07503871
_symmetry_Int_Tables_number   1
_chemical_formula_structural   Zr2Sc(GaNi)3
_chemical_formula_sum   'Zr2 Sc1 Ga3 Ni3'
_cell_volume   142.39318940
_cell_formula_units_Z   1
loop_
 _symmetry_equiv_pos_site_id
 _symmetry_equiv_pos_as_xyz
  1  'x, y, z'
loop_
 _atom_site_type_symbol
 _atom_site_label
 _atom_site_symmetry_multiplicity
 _atom_site_fract_x
 _atom_site_fract_y
 _atom_site_fract_z
 _atom_site_occupancy
  Zr  Zr0  1  0.000528  0.404845  0.500000  1
  Zr  Zr1  1  0.595683  0.595155  0.500000  1
  Sc  Sc2  1  0.403488  0.000000  0.500000  1
  Ga  Ga3  1  0.735877  0.000000  0.000000  1
  Ga  Ga4  1  0.002739  0.741199  0.000000  1
  Ga  Ga5  1  0.261540  0.258801  0.000000  1
  Ni  Ni6  1  0.333638  0.664096  0.000000  1
  Ni  Ni7  1  0.669543  0.335904  0.000000  1
  Ni  Ni8  1  0.996964  0.000000  0.500000  1
