# generated using pymatgen
data_Ti2P5W3
_symmetry_space_group_name_H-M   'P 1'
_cell_length_a   3.27057222
_cell_length_b   6.46798131
_cell_length_c   14.51984830
_cell_angle_alpha   77.13063758
_cell_angle_beta   83.53339482
_cell_angle_gamma   90.00000428
_symmetry_Int_Tables_number   1
_chemical_formula_structural   Ti2P5W3
_chemical_formula_sum   'Ti4 P10 W6'
_cell_volume   297.43242563
_cell_formula_units_Z   2
loop_
 _symmetry_equiv_pos_site_id
 _symmetry_equiv_pos_as_xyz
  1  'x, y, z'
loop_
 _atom_site_type_symbol
 _atom_site_label
 _atom_site_symmetry_multiplicity
 _atom_site_fract_x
 _atom_site_fract_y
 _atom_site_fract_z
 _atom_site_occupancy
  Ti  Ti0  1  0.010847  0.510847  0.978307  1
  Ti  Ti1  1  0.410451  0.910451  0.179098  1
  Ti  Ti2  1  0.810443  0.310443  0.379113  1
  Ti  Ti3  1  0.209802  0.709802  0.580395  1
  P  P4  1  0.944523  0.196125  0.110953  1
  P  P5  1  0.344529  0.596145  0.310942  1
  P  P6  1  0.744214  0.995807  0.511571  1
  P  P7  1  0.143811  0.393614  0.712378  1
  P  P8  1  0.543538  0.794954  0.912924  1
  P  P9  1  0.944523  0.692921  0.110953  1
  P  P10  1  0.344529  0.092915  0.310942  1
  P  P11  1  0.744214  0.492621  0.511571  1
  P  P12  1  0.143811  0.894008  0.712378  1
  P  P13  1  0.543538  0.292122  0.912924  1
  W  W14  1  0.210370  0.210370  0.579261  1
  W  W15  1  0.610720  0.610720  0.778560  1
  W  W16  1  0.012246  0.012246  0.975508  1
  W  W17  1  0.412164  0.412164  0.175670  1
  W  W18  1  0.811648  0.811648  0.376703  1
  W  W19  1  0.610076  0.110076  0.779849  1
