# generated using pymatgen
data_Lu10Tl5Sn
_symmetry_space_group_name_H-M   'P 1'
_cell_length_a   8.86646000
_cell_length_b   8.81351148
_cell_length_c   6.48291300
_cell_angle_alpha   90.00000000
_cell_angle_beta   90.00000000
_cell_angle_gamma   120.19893885
_symmetry_Int_Tables_number   1
_chemical_formula_structural   Lu10Tl5Sn
_chemical_formula_sum   'Lu10 Tl5 Sn1'
_cell_volume   437.85061080
_cell_formula_units_Z   1
loop_
 _symmetry_equiv_pos_site_id
 _symmetry_equiv_pos_as_xyz
  1  'x, y, z'
loop_
 _atom_site_type_symbol
 _atom_site_label
 _atom_site_symmetry_multiplicity
 _atom_site_fract_x
 _atom_site_fract_y
 _atom_site_fract_z
 _atom_site_occupancy
  Lu  Lu0  1  0.667040  0.332646  0.001291  1
  Lu  Lu1  1  0.334392  0.667354  0.498709  1
  Lu  Lu2  1  0.334392  0.667354  0.001291  1
  Lu  Lu3  1  0.667040  0.332646  0.498709  1
  Lu  Lu4  1  0.762706  0.000000  0.750000  1
  Lu  Lu5  1  0.763745  0.765225  0.250000  1
  Lu  Lu6  1  0.998519  0.234775  0.250000  1
  Lu  Lu7  1  0.999514  0.764337  0.750000  1
  Lu  Lu8  1  0.235176  0.235663  0.750000  1
  Lu  Lu9  1  0.238850  0.000000  0.250000  1
  Tl  Tl10  1  0.400084  0.399464  0.250000  1
  Tl  Tl11  1  0.000620  0.600536  0.250000  1
  Tl  Tl12  1  0.000196  0.401214  0.750000  1
  Tl  Tl13  1  0.598983  0.598786  0.750000  1
  Tl  Tl14  1  0.602244  0.000000  0.250000  1
  Sn  Sn15  1  0.396500  0.000000  0.750000  1
