# generated using pymatgen
data_Dy2Y3Si6P6Ir19
_symmetry_space_group_name_H-M   'P 1'
_cell_length_a   12.80218100
_cell_length_b   12.80253287
_cell_length_c   3.95324700
_cell_angle_alpha   90.00000000
_cell_angle_beta   90.00000000
_cell_angle_gamma   119.99856513
_symmetry_Int_Tables_number   1
_chemical_formula_structural   Dy2Y3Si6P6Ir19
_chemical_formula_sum   'Dy2 Y3 Si6 P6 Ir19'
_cell_volume   561.13934819
_cell_formula_units_Z   1
loop_
 _symmetry_equiv_pos_site_id
 _symmetry_equiv_pos_as_xyz
  1  'x, y, z'
loop_
 _atom_site_type_symbol
 _atom_site_label
 _atom_site_symmetry_multiplicity
 _atom_site_fract_x
 _atom_site_fract_y
 _atom_site_fract_z
 _atom_site_occupancy
  Dy  Dy0  1  0.666669  0.333313  0.500000  1
  Dy  Dy1  1  0.814508  0.998449  0.000000  1
  Y  Y2  1  0.333343  0.666669  0.500000  1
  Y  Y3  1  0.001507  0.815986  0.000000  1
  Y  Y4  1  0.184016  0.185519  0.000000  1
  Si  Si5  1  0.000793  0.635754  0.500000  1
  Si  Si6  1  0.364220  0.365017  0.500000  1
  Si  Si7  1  0.635070  0.999224  0.500000  1
  Si  Si8  1  0.519670  0.682236  0.000000  1
  Si  Si9  1  0.317762  0.837453  0.000000  1
  Si  Si10  1  0.162557  0.480318  0.000000  1
  P  P11  1  0.483623  0.177648  0.000000  1
  P  P12  1  0.694003  0.516381  0.000000  1
  P  P13  1  0.822349  0.305984  0.000000  1
  P  P14  1  0.996216  0.176370  0.500000  1
  P  P15  1  0.823523  0.819956  0.500000  1
  P  P16  1  0.180148  0.003668  0.500000  1
  Ir  Ir17  1  0.515501  0.869137  0.000000  1
  Ir  Ir18  1  0.130883  0.646340  0.000000  1
  Ir  Ir19  1  0.353667  0.484542  0.000000  1
  Ir  Ir20  1  0.494457  0.368369  0.000000  1
  Ir  Ir21  1  0.873894  0.505541  0.000000  1
  Ir  Ir22  1  0.631653  0.126091  0.000000  1
  Ir  Ir23  1  0.014602  0.457613  0.500000  1
  Ir  Ir24  1  0.542458  0.557036  0.500000  1
  Ir  Ir25  1  0.442996  0.985382  0.500000  1
  Ir  Ir26  1  0.993606  0.277788  0.000000  1
  Ir  Ir27  1  0.722110  0.715820  0.000000  1
  Ir  Ir28  1  0.284214  0.006344  0.000000  1
  Ir  Ir29  1  0.632716  0.808822  0.500000  1
  Ir  Ir30  1  0.191331  0.823897  0.500000  1
  Ir  Ir31  1  0.176083  0.367415  0.500000  1
  Ir  Ir32  1  0.381952  0.182730  0.500000  1
  Ir  Ir33  1  0.800758  0.618046  0.500000  1
  Ir  Ir34  1  0.817290  0.199133  0.500000  1
  Ir  Ir35  1  0.999852  0.000012  0.500000  1
