# generated using pymatgen
data_Ba2TbDy(LuTe4)2
_symmetry_space_group_name_H-M   'P 1'
_cell_length_a   4.46267200
_cell_length_b   13.79261509
_cell_length_c   16.17794310
_cell_angle_alpha   89.98726106
_cell_angle_beta   90.00000000
_cell_angle_gamma   90.00000000
_symmetry_Int_Tables_number   1
_chemical_formula_structural   Ba2TbDy(LuTe4)2
_chemical_formula_sum   'Ba4 Tb2 Dy2 Lu4 Te16'
_cell_volume   995.78338870
_cell_formula_units_Z   2
loop_
 _symmetry_equiv_pos_site_id
 _symmetry_equiv_pos_as_xyz
  1  'x, y, z'
loop_
 _atom_site_type_symbol
 _atom_site_label
 _atom_site_symmetry_multiplicity
 _atom_site_fract_x
 _atom_site_fract_y
 _atom_site_fract_z
 _atom_site_occupancy
  Ba  Ba0  1  0.750000  0.260948  0.831073  1
  Ba  Ba1  1  0.250000  0.739052  0.168927  1
  Ba  Ba2  1  0.750000  0.760860  0.668867  1
  Ba  Ba3  1  0.250000  0.239140  0.331133  1
  Tb  Tb4  1  0.750000  0.940098  0.889811  1
  Tb  Tb5  1  0.250000  0.059902  0.110189  1
  Dy  Dy6  1  0.750000  0.440248  0.610209  1
  Dy  Dy7  1  0.250000  0.559752  0.389791  1
  Lu  Lu8  1  0.250000  0.079931  0.596076  1
  Lu  Lu9  1  0.750000  0.920069  0.403924  1
  Lu  Lu10  1  0.250000  0.579873  0.903854  1
  Lu  Lu11  1  0.750000  0.420127  0.096146  1
  Te  Te12  1  0.250000  0.471920  0.213928  1
  Te  Te13  1  0.750000  0.528080  0.786072  1
  Te  Te14  1  0.250000  0.971762  0.286333  1
  Te  Te15  1  0.750000  0.028238  0.713667  1
  Te  Te16  1  0.250000  0.375208  0.973001  1
  Te  Te17  1  0.750000  0.624792  0.026999  1
  Te  Te18  1  0.250000  0.875197  0.527038  1
  Te  Te19  1  0.750000  0.124803  0.472962  1
  Te  Te20  1  0.250000  0.292672  0.660339  1
  Te  Te21  1  0.750000  0.707328  0.339661  1
  Te  Te22  1  0.250000  0.792213  0.839458  1
  Te  Te23  1  0.750000  0.207787  0.160542  1
  Te  Te24  1  0.750000  0.410007  0.423194  1
  Te  Te25  1  0.250000  0.589993  0.576806  1
  Te  Te26  1  0.750000  0.909534  0.077102  1
  Te  Te27  1  0.250000  0.090466  0.922898  1
