# generated using pymatgen
data_Ho8Ti3Si16Mo9
_symmetry_space_group_name_H-M   'P 1'
_cell_length_a   6.90511477
_cell_length_b   6.90511477
_cell_length_c   12.79362234
_cell_angle_alpha   89.98094667
_cell_angle_beta   90.01905333
_cell_angle_gamma   89.77198387
_symmetry_Int_Tables_number   1
_chemical_formula_structural   Ho8Ti3Si16Mo9
_chemical_formula_sum   'Ho8 Ti3 Si16 Mo9'
_cell_volume   610.00281886
_cell_formula_units_Z   1
loop_
 _symmetry_equiv_pos_site_id
 _symmetry_equiv_pos_as_xyz
  1  'x, y, z'
loop_
 _atom_site_type_symbol
 _atom_site_label
 _atom_site_symmetry_multiplicity
 _atom_site_fract_x
 _atom_site_fract_y
 _atom_site_fract_z
 _atom_site_occupancy
  Ho  Ho0  1  0.340849  0.002564  0.468464  1
  Ho  Ho1  1  0.496193  0.840614  0.719219  1
  Ho  Ho2  1  0.500431  0.160243  0.217504  1
  Ho  Ho3  1  0.840614  0.496193  0.280781  1
  Ho  Ho4  1  0.160243  0.500431  0.782496  1
  Ho  Ho5  1  0.658216  0.999057  0.968618  1
  Ho  Ho6  1  0.002564  0.340849  0.531536  1
  Ho  Ho7  1  0.999057  0.658216  0.031382  1
  Ti  Ti8  1  0.171276  0.830036  0.248760  1
  Ti  Ti9  1  0.830036  0.171276  0.751240  1
  Ti  Ti10  1  0.670009  0.670009  0.500000  1
  Si  Si11  1  0.199692  0.130209  0.683915  1
  Si  Si12  1  0.372651  0.696160  0.934560  1
  Si  Si13  1  0.629864  0.299986  0.433771  1
  Si  Si14  1  0.696160  0.372651  0.065440  1
  Si  Si15  1  0.299986  0.629864  0.566229  1
  Si  Si16  1  0.798094  0.870595  0.184300  1
  Si  Si17  1  0.130209  0.199692  0.316085  1
  Si  Si18  1  0.870595  0.798094  0.815700  1
  Si  Si19  1  0.287055  0.962321  0.061762  1
  Si  Si20  1  0.540577  0.790204  0.313514  1
  Si  Si21  1  0.457009  0.212032  0.815221  1
  Si  Si22  1  0.790204  0.540577  0.686486  1
  Si  Si23  1  0.212032  0.457009  0.184779  1
  Si  Si24  1  0.710796  0.042152  0.563879  1
  Si  Si25  1  0.962321  0.287055  0.938238  1
  Si  Si26  1  0.042152  0.710796  0.436121  1
  Mo  Mo27  1  0.330534  0.330534  0.000000  1
  Mo  Mo28  1  0.154908  0.001633  0.873280  1
  Mo  Mo29  1  0.496668  0.665474  0.124536  1
  Mo  Mo30  1  0.505557  0.341276  0.624703  1
  Mo  Mo31  1  0.665474  0.496668  0.875464  1
  Mo  Mo32  1  0.341276  0.505557  0.375297  1
  Mo  Mo33  1  0.841526  0.993540  0.374273  1
  Mo  Mo34  1  0.001633  0.154908  0.126720  1
  Mo  Mo35  1  0.993540  0.841526  0.625727  1
