# generated using pymatgen
data_Th3Nb(Ga3Pd)8
_symmetry_space_group_name_H-M   'P 1'
_cell_length_a   8.57390018
_cell_length_b   8.57389957
_cell_length_c   8.57389922
_cell_angle_alpha   89.64032207
_cell_angle_beta   89.64033495
_cell_angle_gamma   89.64033302
_symmetry_Int_Tables_number   1
_chemical_formula_structural   Th3Nb(Ga3Pd)8
_chemical_formula_sum   'Th3 Nb1 Ga24 Pd8'
_cell_volume   630.24531406
_cell_formula_units_Z   1
loop_
 _symmetry_equiv_pos_site_id
 _symmetry_equiv_pos_as_xyz
  1  'x, y, z'
loop_
 _atom_site_type_symbol
 _atom_site_label
 _atom_site_symmetry_multiplicity
 _atom_site_fract_x
 _atom_site_fract_y
 _atom_site_fract_z
 _atom_site_occupancy
  Th  Th0  1  0.000000  0.500000  0.000000  1
  Th  Th1  1  0.500000  0.000000  0.000000  1
  Th  Th2  1  0.000000  0.000000  0.500000  1
  Nb  Nb3  1  0.500000  0.500000  0.500000  1
  Ga  Ga4  1  0.988463  0.643502  0.643502  1
  Ga  Ga5  1  0.643502  0.643502  0.988463  1
  Ga  Ga6  1  0.643502  0.988463  0.643502  1
  Ga  Ga7  1  0.011537  0.356498  0.356498  1
  Ga  Ga8  1  0.356498  0.356498  0.011537  1
  Ga  Ga9  1  0.356498  0.011537  0.356498  1
  Ga  Ga10  1  0.734648  0.500000  0.265352  1
  Ga  Ga11  1  0.265352  0.500000  0.734648  1
  Ga  Ga12  1  0.500000  0.265352  0.734648  1
  Ga  Ga13  1  0.500000  0.734648  0.265352  1
  Ga  Ga14  1  0.265352  0.734648  0.500000  1
  Ga  Ga15  1  0.734648  0.265352  0.500000  1
  Ga  Ga16  1  0.837883  0.143503  0.837883  1
  Ga  Ga17  1  0.143503  0.837883  0.837883  1
  Ga  Ga18  1  0.837883  0.837883  0.143503  1
  Ga  Ga19  1  0.162117  0.856497  0.162117  1
  Ga  Ga20  1  0.856497  0.162117  0.162117  1
  Ga  Ga21  1  0.162117  0.162117  0.856497  1
  Ga  Ga22  1  0.728635  0.489797  0.728635  1
  Ga  Ga23  1  0.489797  0.728635  0.728635  1
  Ga  Ga24  1  0.728635  0.728635  0.489797  1
  Ga  Ga25  1  0.271365  0.510203  0.271365  1
  Ga  Ga26  1  0.510203  0.271365  0.271365  1
  Ga  Ga27  1  0.271365  0.271365  0.510203  1
  Pd  Pd28  1  0.839331  0.839331  0.839331  1
  Pd  Pd29  1  0.160669  0.160669  0.160669  1
  Pd  Pd30  1  0.665619  0.334381  0.000000  1
  Pd  Pd31  1  0.000000  0.334381  0.665619  1
  Pd  Pd32  1  0.334381  0.000000  0.665619  1
  Pd  Pd33  1  0.334381  0.665619  0.000000  1
  Pd  Pd34  1  0.000000  0.665619  0.334381  1
  Pd  Pd35  1  0.665619  0.000000  0.334381  1
