# generated using pymatgen
data_Ho5Tl2Te
_symmetry_space_group_name_H-M   'P 1'
_cell_length_a   8.93667904
_cell_length_b   8.95667193
_cell_length_c   6.53450000
_cell_angle_alpha   90.00000000
_cell_angle_beta   90.00000000
_cell_angle_gamma   120.07403299
_symmetry_Int_Tables_number   1
_chemical_formula_structural   Ho5Tl2Te
_chemical_formula_sum   'Ho10 Tl4 Te2'
_cell_volume   452.62793256
_cell_formula_units_Z   2
loop_
 _symmetry_equiv_pos_site_id
 _symmetry_equiv_pos_as_xyz
  1  'x, y, z'
loop_
 _atom_site_type_symbol
 _atom_site_label
 _atom_site_symmetry_multiplicity
 _atom_site_fract_x
 _atom_site_fract_y
 _atom_site_fract_z
 _atom_site_occupancy
  Ho  Ho0  1  0.667781  0.336227  0.003189  1
  Ho  Ho1  1  0.332219  0.668447  0.003189  1
  Ho  Ho2  1  0.332219  0.668447  0.496811  1
  Ho  Ho3  1  0.667781  0.336227  0.496811  1
  Ho  Ho4  1  0.765654  0.759024  0.750000  1
  Ho  Ho5  1  0.234346  0.993369  0.750000  1
  Ho  Ho6  1  0.000000  0.236480  0.750000  1
  Ho  Ho7  1  0.234859  0.236182  0.250000  1
  Ho  Ho8  1  0.765141  0.001324  0.250000  1
  Ho  Ho9  1  0.000000  0.764083  0.250000  1
  Tl  Tl10  1  0.000000  0.599318  0.750000  1
  Tl  Tl11  1  0.603859  0.607915  0.250000  1
  Tl  Tl12  1  0.396141  0.004056  0.250000  1
  Tl  Tl13  1  0.000000  0.395730  0.250000  1
  Te  Te14  1  0.389274  0.391223  0.750000  1
  Te  Te15  1  0.610726  0.001950  0.750000  1
