# generated using pymatgen
data_La7Pr3CoRu3
_symmetry_space_group_name_H-M   'P 1'
_cell_length_a   9.16292664
_cell_length_b   9.15440872
_cell_length_c   7.30338129
_cell_angle_alpha   85.93237959
_cell_angle_beta   85.82388401
_cell_angle_gamma   42.61993578
_symmetry_Int_Tables_number   1
_chemical_formula_structural   La7Pr3CoRu3
_chemical_formula_sum   'La7 Pr3 Co1 Ru3'
_cell_volume   413.58418200
_cell_formula_units_Z   1
loop_
 _symmetry_equiv_pos_site_id
 _symmetry_equiv_pos_as_xyz
  1  'x, y, z'
loop_
 _atom_site_type_symbol
 _atom_site_label
 _atom_site_symmetry_multiplicity
 _atom_site_fract_x
 _atom_site_fract_y
 _atom_site_fract_z
 _atom_site_occupancy
  La  La0  1  0.018231  0.794678  0.896100  1
  La  La1  1  0.196964  0.988934  0.591684  1
  La  La2  1  0.987241  0.196102  0.090641  1
  La  La3  1  0.805615  0.008885  0.404668  1
  La  La4  1  0.359425  0.216800  0.821700  1
  La  La5  1  0.781575  0.641678  0.679446  1
  La  La6  1  0.640485  0.789040  0.180300  1
  Pr  Pr7  1  0.211320  0.361065  0.326604  1
  Pr  Pr8  1  0.569329  0.429107  0.748595  1
  Pr  Pr9  1  0.424533  0.571550  0.252674  1
  Co  Co10  1  0.170038  0.607298  0.591356  1
  Ru  Ru11  1  0.393494  0.833506  0.918053  1
  Ru  Ru12  1  0.831287  0.396518  0.419883  1
  Ru  Ru13  1  0.610463  0.164838  0.078297  1
