# generated using pymatgen
data_PrHoMnIr3
_symmetry_space_group_name_H-M   'P 1'
_cell_length_a   5.25088545
_cell_length_b   5.25088611
_cell_length_c   5.25088490
_cell_angle_alpha   63.66889208
_cell_angle_beta   63.66888828
_cell_angle_gamma   63.66889552
_symmetry_Int_Tables_number   1
_chemical_formula_structural   PrHoMnIr3
_chemical_formula_sum   'Pr1 Ho1 Mn1 Ir3'
_cell_volume   110.66668941
_cell_formula_units_Z   1
loop_
 _symmetry_equiv_pos_site_id
 _symmetry_equiv_pos_as_xyz
  1  'x, y, z'
loop_
 _atom_site_type_symbol
 _atom_site_label
 _atom_site_symmetry_multiplicity
 _atom_site_fract_x
 _atom_site_fract_y
 _atom_site_fract_z
 _atom_site_occupancy
  Pr  Pr0  1  0.250110  0.250110  0.250110  1
  Ho  Ho1  1  0.998344  0.998344  0.998344  1
  Mn  Mn2  1  0.625364  0.625364  0.625364  1
  Ir  Ir3  1  0.626021  0.626021  0.124137  1
  Ir  Ir4  1  0.626021  0.124137  0.626021  1
  Ir  Ir5  1  0.124137  0.626021  0.626021  1
