# generated using pymatgen
data_Dy3Y5(Er3Pb4)4
_symmetry_space_group_name_H-M   'P 1'
_cell_length_a   8.17623701
_cell_length_b   8.24815901
_cell_length_c   15.57276801
_cell_angle_alpha   90.00072186
_cell_angle_beta   89.99660802
_cell_angle_gamma   90.00497455
_symmetry_Int_Tables_number   1
_chemical_formula_structural   Dy3Y5(Er3Pb4)4
_chemical_formula_sum   'Dy3 Y5 Er12 Pb16'
_cell_volume   1050.21038450
_cell_formula_units_Z   1
loop_
 _symmetry_equiv_pos_site_id
 _symmetry_equiv_pos_as_xyz
  1  'x, y, z'
loop_
 _atom_site_type_symbol
 _atom_site_label
 _atom_site_symmetry_multiplicity
 _atom_site_fract_x
 _atom_site_fract_y
 _atom_site_fract_z
 _atom_site_occupancy
  Dy  Dy0  1  0.963525  0.823286  0.399956  1
  Dy  Dy1  1  0.536474  0.323285  0.600032  1
  Dy  Dy2  1  0.036478  0.176710  0.899962  1
  Y  Y3  1  0.536522  0.323339  0.899985  1
  Y  Y4  1  0.036525  0.176670  0.600019  1
  Y  Y5  1  0.463468  0.676662  0.399973  1
  Y  Y6  1  0.963472  0.823308  0.100030  1
  Y  Y7  1  0.463485  0.676696  0.100015  1
  Er  Er8  1  0.376404  0.841257  0.879007  1
  Er  Er9  1  0.876464  0.658775  0.620942  1
  Er  Er10  1  0.623535  0.158774  0.379048  1
  Er  Er11  1  0.123499  0.341229  0.120946  1
  Er  Er12  1  0.623548  0.158742  0.121010  1
  Er  Er13  1  0.123541  0.341285  0.378997  1
  Er  Er14  1  0.376450  0.841304  0.621010  1
  Er  Er15  1  0.876428  0.658717  0.879006  1
  Er  Er16  1  0.208243  0.504577  0.750012  1
  Er  Er17  1  0.708249  0.995413  0.749965  1
  Er  Er18  1  0.791815  0.495410  0.250043  1
  Er  Er19  1  0.291749  0.004610  0.250014  1
  Pb  Pb20  1  0.281802  0.033528  0.042890  1
  Pb  Pb21  1  0.781855  0.466559  0.457087  1
  Pb  Pb22  1  0.718159  0.966573  0.542893  1
  Pb  Pb23  1  0.218089  0.533392  0.957032  1
  Pb  Pb24  1  0.718319  0.966622  0.957050  1
  Pb  Pb25  1  0.218296  0.533394  0.542940  1
  Pb  Pb26  1  0.281714  0.033409  0.457043  1
  Pb  Pb27  1  0.781889  0.466500  0.042930  1
  Pb  Pb28  1  0.571116  0.627141  0.749948  1
  Pb  Pb29  1  0.071106  0.872866  0.750050  1
  Pb  Pb30  1  0.428880  0.372740  0.249997  1
  Pb  Pb31  1  0.928913  0.127144  0.250057  1
  Pb  Pb32  1  0.347503  0.153358  0.749963  1
  Pb  Pb33  1  0.847499  0.346649  0.750039  1
  Pb  Pb34  1  0.652572  0.846721  0.250037  1
  Pb  Pb35  1  0.152414  0.653356  0.250070  1
