# generated using pymatgen
data_CePrB8Ir7Rh
_symmetry_space_group_name_H-M   'P 1'
_cell_length_a   3.97687692
_cell_length_b   7.69146252
_cell_length_c   7.69751274
_cell_angle_alpha   90.16868979
_cell_angle_beta   89.90915289
_cell_angle_gamma   89.98377216
_symmetry_Int_Tables_number   1
_chemical_formula_structural   CePrB8Ir7Rh
_chemical_formula_sum   'Ce1 Pr1 B8 Ir7 Rh1'
_cell_volume   235.45019176
_cell_formula_units_Z   1
loop_
 _symmetry_equiv_pos_site_id
 _symmetry_equiv_pos_as_xyz
  1  'x, y, z'
loop_
 _atom_site_type_symbol
 _atom_site_label
 _atom_site_symmetry_multiplicity
 _atom_site_fract_x
 _atom_site_fract_y
 _atom_site_fract_z
 _atom_site_occupancy
  Ce  Ce0  1  0.249452  0.249884  0.251083  1
  Pr  Pr1  1  0.752390  0.749771  0.749926  1
  B  B2  1  0.358493  0.908970  0.029957  1
  B  B3  1  0.359812  0.589683  0.467911  1
  B  B4  1  0.856870  0.529330  0.091816  1
  B  B5  1  0.858130  0.971514  0.409241  1
  B  B6  1  0.642000  0.091618  0.969548  1
  B  B7  1  0.642850  0.406540  0.527022  1
  B  B8  1  0.140356  0.466995  0.911051  1
  B  B9  1  0.139949  0.032631  0.590871  1
  Ir  Ir10  1  0.143283  0.090730  0.859885  1
  Ir  Ir11  1  0.637027  0.142730  0.590109  1
  Ir  Ir12  1  0.639079  0.358977  0.910024  1
  Ir  Ir13  1  0.861559  0.588413  0.359278  1
  Ir  Ir14  1  0.859280  0.912749  0.142114  1
  Ir  Ir15  1  0.357654  0.859234  0.409540  1
  Ir  Ir16  1  0.357360  0.640637  0.091113  1
  Rh  Rh17  1  0.144458  0.409593  0.639511  1
