# generated using pymatgen
data_Lu6Hg7Ir
_symmetry_space_group_name_H-M   'P 1'
_cell_length_a   8.08569363
_cell_length_b   8.01584230
_cell_length_c   8.25632136
_cell_angle_alpha   113.97384562
_cell_angle_beta   115.76629791
_cell_angle_gamma   111.58334190
_symmetry_Int_Tables_number   1
_chemical_formula_structural   Lu6Hg7Ir
_chemical_formula_sum   'Lu6 Hg7 Ir1'
_cell_volume   330.16473566
_cell_formula_units_Z   1
loop_
 _symmetry_equiv_pos_site_id
 _symmetry_equiv_pos_as_xyz
  1  'x, y, z'
loop_
 _atom_site_type_symbol
 _atom_site_label
 _atom_site_symmetry_multiplicity
 _atom_site_fract_x
 _atom_site_fract_y
 _atom_site_fract_z
 _atom_site_occupancy
  Lu  Lu0  1  0.998029  0.637214  0.713731  1
  Lu  Lu1  1  0.759923  0.969016  0.590382  1
  Lu  Lu2  1  0.641566  0.759638  0.059616  1
  Lu  Lu3  1  0.967973  0.400486  0.247337  1
  Lu  Lu4  1  0.238689  0.961433  0.385835  1
  Lu  Lu5  1  0.413338  0.274756  0.010550  1
  Hg  Hg6  1  0.001637  0.013194  0.023114  1
  Hg  Hg7  1  0.485523  0.496642  0.515890  1
  Hg  Hg8  1  0.448256  0.900429  0.754416  1
  Hg  Hg9  1  0.741096  0.426659  0.869677  1
  Hg  Hg10  1  0.112880  0.278939  0.579588  1
  Hg  Hg11  1  0.552511  0.087752  0.260986  1
  Hg  Hg12  1  0.226246  0.549578  0.075515  1
  Ir  Ir13  1  0.912333  0.744264  0.413363  1
