# generated using pymatgen
data_Nb8V3Si10W
_symmetry_space_group_name_H-M   'P 1'
_cell_length_a   5.05024549
_cell_length_b   7.90862679
_cell_length_c   9.49451746
_cell_angle_alpha   114.64787044
_cell_angle_beta   105.47554920
_cell_angle_gamma   89.88013426
_symmetry_Int_Tables_number   1
_chemical_formula_structural   Nb8V3Si10W
_chemical_formula_sum   'Nb8 V3 Si10 W1'
_cell_volume   329.57802907
_cell_formula_units_Z   1
loop_
 _symmetry_equiv_pos_site_id
 _symmetry_equiv_pos_as_xyz
  1  'x, y, z'
loop_
 _atom_site_type_symbol
 _atom_site_label
 _atom_site_symmetry_multiplicity
 _atom_site_fract_x
 _atom_site_fract_y
 _atom_site_fract_z
 _atom_site_occupancy
  Nb  Nb0  1  0.643518  0.028690  0.287175  1
  Nb  Nb1  1  0.355689  0.971224  0.711978  1
  Nb  Nb2  1  0.856288  0.740753  0.711978  1
  Nb  Nb3  1  0.143658  0.258485  0.287175  1
  Nb  Nb4  1  0.936338  0.191362  0.873003  1
  Nb  Nb5  1  0.063766  0.808797  0.127543  1
  Nb  Nb6  1  0.563777  0.318746  0.127543  1
  Nb  Nb7  1  0.436665  0.681642  0.873003  1
  V  V8  1  0.940890  0.690890  0.381781  1
  V  V9  1  0.441032  0.691032  0.382064  1
  V  V10  1  0.058334  0.308334  0.616666  1
  Si  Si11  1  0.784937  0.984631  0.565939  1
  Si  Si12  1  0.211294  0.008655  0.432159  1
  Si  Si13  1  0.720867  0.423506  0.432159  1
  Si  Si14  1  0.281001  0.581306  0.565939  1
  Si  Si15  1  0.568254  0.651797  0.135835  1
  Si  Si16  1  0.426014  0.350017  0.867849  1
  Si  Si17  1  0.941835  0.517832  0.867849  1
  Si  Si18  1  0.067581  0.484037  0.135835  1
  Si  Si19  1  0.250225  0.000225  0.000450  1
  Si  Si20  1  0.749784  0.999784  0.999569  1
  W  W21  1  0.558254  0.308254  0.616507  1
