# generated using pymatgen
data_Nd7PCl12
_symmetry_space_group_name_H-M   'P 1'
_cell_length_a   9.11994659
_cell_length_b   9.11994556
_cell_length_c   9.11994700
_cell_angle_alpha   107.57156250
_cell_angle_beta   107.57155385
_cell_angle_gamma   107.57154963
_symmetry_Int_Tables_number   1
_chemical_formula_structural   Nd7PCl12
_chemical_formula_sum   'Nd7 P1 Cl12'
_cell_volume   621.60468753
_cell_formula_units_Z   1
loop_
 _symmetry_equiv_pos_site_id
 _symmetry_equiv_pos_as_xyz
  1  'x, y, z'
loop_
 _atom_site_type_symbol
 _atom_site_label
 _atom_site_symmetry_multiplicity
 _atom_site_fract_x
 _atom_site_fract_y
 _atom_site_fract_z
 _atom_site_occupancy
  Nd  Nd0  1  0.532907  0.612723  0.824307  1
  Nd  Nd1  1  0.824307  0.532907  0.612723  1
  Nd  Nd2  1  0.612723  0.824307  0.532907  1
  Nd  Nd3  1  0.474915  0.393170  0.175791  1
  Nd  Nd4  1  0.175791  0.474915  0.393170  1
  Nd  Nd5  1  0.393170  0.175791  0.474915  1
  Nd  Nd6  1  0.978118  0.978118  0.978118  1
  P  P7  1  0.497414  0.497414  0.497414  1
  Cl  Cl8  1  0.280410  0.813316  0.424409  1
  Cl  Cl9  1  0.424409  0.280410  0.813316  1
  Cl  Cl10  1  0.813316  0.424409  0.280410  1
  Cl  Cl11  1  0.720711  0.186578  0.572267  1
  Cl  Cl12  1  0.572267  0.720711  0.186578  1
  Cl  Cl13  1  0.186578  0.572267  0.720711  1
  Cl  Cl14  1  0.039935  0.116638  0.326421  1
  Cl  Cl15  1  0.326421  0.039935  0.116638  1
  Cl  Cl16  1  0.116638  0.326421  0.039935  1
  Cl  Cl17  1  0.967259  0.883445  0.654636  1
  Cl  Cl18  1  0.654636  0.967259  0.883445  1
  Cl  Cl19  1  0.883445  0.654636  0.967259  1
