# generated using pymatgen
data_EuFe3P12Rh
_symmetry_space_group_name_H-M   'P 1'
_cell_length_a   6.83158950
_cell_length_b   6.83158964
_cell_length_c   6.83159059
_cell_angle_alpha   109.52987822
_cell_angle_beta   109.52987267
_cell_angle_gamma   109.52985561
_symmetry_Int_Tables_number   1
_chemical_formula_structural   EuFe3P12Rh
_chemical_formula_sum   'Eu1 Fe3 P12 Rh1'
_cell_volume   244.90455079
_cell_formula_units_Z   1
loop_
 _symmetry_equiv_pos_site_id
 _symmetry_equiv_pos_as_xyz
  1  'x, y, z'
loop_
 _atom_site_type_symbol
 _atom_site_label
 _atom_site_symmetry_multiplicity
 _atom_site_fract_x
 _atom_site_fract_y
 _atom_site_fract_z
 _atom_site_occupancy
  Eu  Eu0  1  0.000000  0.000000  0.000000  1
  Fe  Fe1  1  0.500000  0.000000  0.000000  1
  Fe  Fe2  1  0.000000  0.000000  0.500000  1
  Fe  Fe3  1  0.000000  0.500000  0.000000  1
  P  P4  1  0.497202  0.864972  0.653391  1
  P  P5  1  0.200852  0.848927  0.350793  1
  P  P6  1  0.799148  0.151073  0.649207  1
  P  P7  1  0.135028  0.346609  0.502798  1
  P  P8  1  0.346609  0.502798  0.135028  1
  P  P9  1  0.502798  0.135028  0.346609  1
  P  P10  1  0.151073  0.649207  0.799148  1
  P  P11  1  0.350793  0.200852  0.848927  1
  P  P12  1  0.864972  0.653391  0.497202  1
  P  P13  1  0.649207  0.799148  0.151073  1
  P  P14  1  0.848927  0.350793  0.200852  1
  P  P15  1  0.653391  0.497202  0.864972  1
  Rh  Rh16  1  0.500000  0.500000  0.500000  1
