# generated using pymatgen
data_BaSmCu(H6Ir)2
_symmetry_space_group_name_H-M   'P 1'
_cell_length_a   4.92266200
_cell_length_b   4.92266170
_cell_length_c   8.33796900
_cell_angle_alpha   90.00000000
_cell_angle_beta   90.00000000
_cell_angle_gamma   120.00000202
_symmetry_Int_Tables_number   1
_chemical_formula_structural   BaSmCu(H6Ir)2
_chemical_formula_sum   'Ba1 Sm1 Cu1 H12 Ir2'
_cell_volume   174.98100519
_cell_formula_units_Z   1
loop_
 _symmetry_equiv_pos_site_id
 _symmetry_equiv_pos_as_xyz
  1  'x, y, z'
loop_
 _atom_site_type_symbol
 _atom_site_label
 _atom_site_symmetry_multiplicity
 _atom_site_fract_x
 _atom_site_fract_y
 _atom_site_fract_z
 _atom_site_occupancy
  Ba  Ba0  1  0.000000  0.000000  0.026266  1
  Sm  Sm1  1  0.333333  0.666667  0.621061  1
  Cu  Cu2  1  0.666667  0.333333  0.279720  1
  H  H3  1  0.167862  0.832138  0.379701  1
  H  H4  1  0.664278  0.832138  0.379701  1
  H  H5  1  0.167862  0.335722  0.379701  1
  H  H6  1  0.828387  0.171613  0.626185  1
  H  H7  1  0.343227  0.171613  0.626185  1
  H  H8  1  0.828387  0.656773  0.626185  1
  H  H9  1  0.507188  0.014376  0.858768  1
  H  H10  1  0.507188  0.492812  0.858768  1
  H  H11  1  0.985624  0.492812  0.858768  1
  H  H12  1  0.495911  0.991822  0.154010  1
  H  H13  1  0.495911  0.504089  0.154010  1
  H  H14  1  0.008178  0.504089  0.154010  1
  Ir  Ir15  1  0.666667  0.333333  0.741300  1
  Ir  Ir16  1  0.333333  0.666667  0.275665  1
