# generated using pymatgen
data_Zr6Al16Co2CuPt4
_symmetry_space_group_name_H-M   'P 1'
_cell_length_a   8.69619852
_cell_length_b   8.66407382
_cell_length_c   8.69595972
_cell_angle_alpha   60.12524246
_cell_angle_beta   60.45766767
_cell_angle_gamma   60.06868532
_symmetry_Int_Tables_number   1
_chemical_formula_structural   Zr6Al16Co2CuPt4
_chemical_formula_sum   'Zr6 Al16 Co2 Cu1 Pt4'
_cell_volume   465.55709207
_cell_formula_units_Z   1
loop_
 _symmetry_equiv_pos_site_id
 _symmetry_equiv_pos_as_xyz
  1  'x, y, z'
loop_
 _atom_site_type_symbol
 _atom_site_label
 _atom_site_symmetry_multiplicity
 _atom_site_fract_x
 _atom_site_fract_y
 _atom_site_fract_z
 _atom_site_occupancy
  Zr  Zr0  1  0.688482  0.310792  0.311399  1
  Zr  Zr1  1  0.689161  0.312510  0.687626  1
  Zr  Zr2  1  0.688412  0.687492  0.313196  1
  Zr  Zr3  1  0.311518  0.689208  0.688601  1
  Zr  Zr4  1  0.310839  0.687490  0.312374  1
  Zr  Zr5  1  0.311588  0.312508  0.686804  1
  Al  Al6  1  0.652300  0.117493  0.115936  1
  Al  Al7  1  0.112835  0.648568  0.125917  1
  Al  Al8  1  0.110780  0.125500  0.650749  1
  Al  Al9  1  0.114644  0.117466  0.117756  1
  Al  Al10  1  0.347700  0.882507  0.884064  1
  Al  Al11  1  0.887165  0.351432  0.874083  1
  Al  Al12  1  0.889220  0.874500  0.349251  1
  Al  Al13  1  0.885356  0.882534  0.882244  1
  Al  Al14  1  0.996743  0.339741  0.339792  1
  Al  Al15  1  0.335872  0.998954  0.336412  1
  Al  Al16  1  0.334274  0.334785  0.996715  1
  Al  Al17  1  0.325407  0.335361  0.340724  1
  Al  Al18  1  0.003257  0.660259  0.660208  1
  Al  Al19  1  0.664128  0.001046  0.663588  1
  Al  Al20  1  0.665726  0.665215  0.003285  1
  Al  Al21  1  0.674593  0.664639  0.659276  1
  Co  Co22  1  0.000000  0.000000  0.000000  1
  Co  Co23  1  0.000000  0.500000  0.500000  1
  Cu  Cu24  1  0.500000  0.000000  0.500000  1
  Pt  Pt25  1  0.500000  0.000000  0.000000  1
  Pt  Pt26  1  0.500000  0.500000  0.000000  1
  Pt  Pt27  1  0.000000  0.500000  0.000000  1
  Pt  Pt28  1  0.000000  0.000000  0.500000  1
