# generated using pymatgen
data_Hf4(AlC2)3
_symmetry_space_group_name_H-M   'P 1'
_cell_length_a   3.32469100
_cell_length_b   3.32469137
_cell_length_c   32.83050000
_cell_angle_alpha   90.00000000
_cell_angle_beta   90.00000000
_cell_angle_gamma   120.00000631
_symmetry_Int_Tables_number   1
_chemical_formula_structural   Hf4(AlC2)3
_chemical_formula_sum   'Hf8 Al6 C12'
_cell_volume   314.27564360
_cell_formula_units_Z   2
loop_
 _symmetry_equiv_pos_site_id
 _symmetry_equiv_pos_as_xyz
  1  'x, y, z'
loop_
 _atom_site_type_symbol
 _atom_site_label
 _atom_site_symmetry_multiplicity
 _atom_site_fract_x
 _atom_site_fract_y
 _atom_site_fract_z
 _atom_site_occupancy
  Hf  Hf0  1  0.666667  0.333333  0.539774  1
  Hf  Hf1  1  0.000000  0.000000  0.380611  1
  Hf  Hf2  1  0.000000  0.000000  0.619389  1
  Hf  Hf3  1  0.333333  0.666667  0.039774  1
  Hf  Hf4  1  0.333333  0.666667  0.460226  1
  Hf  Hf5  1  0.000000  0.000000  0.119389  1
  Hf  Hf6  1  0.000000  0.000000  0.880611  1
  Hf  Hf7  1  0.666667  0.333333  0.960226  1
  Al  Al8  1  0.333333  0.666667  0.811803  1
  Al  Al9  1  0.666667  0.333333  0.188197  1
  Al  Al10  1  0.666667  0.333333  0.311803  1
  Al  Al11  1  0.333333  0.666667  0.688197  1
  Al  Al12  1  0.666667  0.333333  0.750000  1
  Al  Al13  1  0.333333  0.666667  0.250000  1
  C  C14  1  0.333333  0.666667  0.917584  1
  C  C15  1  0.666667  0.333333  0.666662  1
  C  C16  1  0.666667  0.333333  0.082416  1
  C  C17  1  0.333333  0.666667  0.333338  1
  C  C18  1  0.666667  0.333333  0.250000  1
  C  C19  1  0.666667  0.333333  0.417584  1
  C  C20  1  0.000000  0.000000  0.000000  1
  C  C21  1  0.666667  0.333333  0.833338  1
  C  C22  1  0.333333  0.666667  0.750000  1
  C  C23  1  0.333333  0.666667  0.582416  1
  C  C24  1  0.333333  0.666667  0.166662  1
  C  C25  1  0.000000  0.000000  0.500000  1
