# generated using pymatgen
data_Hf5CuSnSb2
_symmetry_space_group_name_H-M   'P 1'
_cell_length_a   8.57509957
_cell_length_b   8.58054054
_cell_length_c   5.76058800
_cell_angle_alpha   90.00000000
_cell_angle_beta   90.00000000
_cell_angle_gamma   120.02099410
_symmetry_Int_Tables_number   1
_chemical_formula_structural   Hf5CuSnSb2
_chemical_formula_sum   'Hf10 Cu2 Sn2 Sb4'
_cell_volume   366.99432828
_cell_formula_units_Z   2
loop_
 _symmetry_equiv_pos_site_id
 _symmetry_equiv_pos_as_xyz
  1  'x, y, z'
loop_
 _atom_site_type_symbol
 _atom_site_label
 _atom_site_symmetry_multiplicity
 _atom_site_fract_x
 _atom_site_fract_y
 _atom_site_fract_z
 _atom_site_occupancy
  Hf  Hf0  1  0.667243  0.333729  0.499444  1
  Hf  Hf1  1  0.332757  0.666487  0.499444  1
  Hf  Hf2  1  0.332757  0.666487  0.000556  1
  Hf  Hf3  1  0.667243  0.333729  0.000556  1
  Hf  Hf4  1  0.734511  0.734172  0.250000  1
  Hf  Hf5  1  0.265489  0.999661  0.250000  1
  Hf  Hf6  1  0.000000  0.266970  0.250000  1
  Hf  Hf7  1  0.263399  0.263026  0.750000  1
  Hf  Hf8  1  0.736601  0.999628  0.750000  1
  Hf  Hf9  1  0.000000  0.735877  0.750000  1
  Cu  Cu10  1  0.000000  0.001135  0.003958  1
  Cu  Cu11  1  0.000000  0.001135  0.496042  1
  Sn  Sn12  1  0.385100  0.384811  0.250000  1
  Sn  Sn13  1  0.614900  0.999710  0.250000  1
  Sb  Sb14  1  0.000000  0.614408  0.250000  1
  Sb  Sb15  1  0.612726  0.613105  0.750000  1
  Sb  Sb16  1  0.387274  0.000379  0.750000  1
  Sb  Sb17  1  0.000000  0.385555  0.750000  1
