# generated using pymatgen
data_Ho3Er9(BCl3)4
_symmetry_space_group_name_H-M   'P 1'
_cell_length_a   9.36263654
_cell_length_b   9.36259324
_cell_length_c   9.36214411
_cell_angle_alpha   109.48798105
_cell_angle_beta   109.46128147
_cell_angle_gamma   109.46323430
_symmetry_Int_Tables_number   1
_chemical_formula_structural   Ho3Er9(BCl3)4
_chemical_formula_sum   'Ho3 Er9 B4 Cl12'
_cell_volume   631.76268889
_cell_formula_units_Z   1
loop_
 _symmetry_equiv_pos_site_id
 _symmetry_equiv_pos_as_xyz
  1  'x, y, z'
loop_
 _atom_site_type_symbol
 _atom_site_label
 _atom_site_symmetry_multiplicity
 _atom_site_fract_x
 _atom_site_fract_y
 _atom_site_fract_z
 _atom_site_occupancy
  Ho  Ho0  1  0.468442  0.484221  0.234221  1
  Ho  Ho1  1  0.750024  0.234383  0.265653  1
  Ho  Ho2  1  0.750024  0.015641  0.484371  1
  Er  Er3  1  0.233927  0.467858  0.483848  1
  Er  Er4  1  0.266002  0.749847  0.233818  1
  Er  Er5  1  0.032115  0.266058  0.016058  1
  Er  Er6  1  0.016040  0.032208  0.266120  1
  Er  Er7  1  0.483843  0.749984  0.016142  1
  Er  Er8  1  0.483843  0.233859  0.467702  1
  Er  Er9  1  0.016040  0.483833  0.749920  1
  Er  Er10  1  0.266002  0.016156  0.032184  1
  Er  Er11  1  0.233927  0.266069  0.750078  1
  B  B12  1  0.249679  0.249656  0.250005  1
  B  B13  1  0.499362  0.999681  0.249681  1
  B  B14  1  0.000641  0.250321  0.500321  1
  B  B15  1  0.249679  0.500023  0.999675  1
  Cl  Cl16  1  0.249986  0.755538  0.744431  1
  Cl  Cl17  1  0.511135  0.505567  0.755567  1
  Cl  Cl18  1  0.988812  0.744406  0.994406  1
  Cl  Cl19  1  0.744443  0.250364  0.755903  1
  Cl  Cl20  1  0.994700  0.988834  0.744707  1
  Cl  Cl21  1  0.249986  0.994447  0.505555  1
  Cl  Cl22  1  0.755850  0.511453  0.506239  1
  Cl  Cl23  1  0.505252  0.249656  0.993766  1
  Cl  Cl24  1  0.755850  0.744398  0.249612  1
  Cl  Cl25  1  0.744443  0.994079  0.988539  1
  Cl  Cl26  1  0.994700  0.505865  0.249993  1
  Cl  Cl27  1  0.505252  0.755596  0.511487  1
