# generated using pymatgen
data_Ce2Ho(ZnPt)3
_symmetry_space_group_name_H-M   'P 1'
_cell_length_a   7.39230207
_cell_length_b   7.38563568
_cell_length_c   3.86711400
_cell_angle_alpha   90.00000000
_cell_angle_beta   90.00000000
_cell_angle_gamma   119.97017642
_symmetry_Int_Tables_number   1
_chemical_formula_structural   Ce2Ho(ZnPt)3
_chemical_formula_sum   'Ce2 Ho1 Zn3 Pt3'
_cell_volume   182.90081041
_cell_formula_units_Z   1
loop_
 _symmetry_equiv_pos_site_id
 _symmetry_equiv_pos_as_xyz
  1  'x, y, z'
loop_
 _atom_site_type_symbol
 _atom_site_label
 _atom_site_symmetry_multiplicity
 _atom_site_fract_x
 _atom_site_fract_y
 _atom_site_fract_z
 _atom_site_occupancy
  Ce  Ce0  1  0.589434  0.590531  0.500000  1
  Ce  Ce1  1  0.410566  0.001098  0.500000  1
  Ho  Ho2  1  0.000000  0.405748  0.500000  1
  Zn  Zn3  1  0.000000  0.745823  0.000000  1
  Zn  Zn4  1  0.241012  0.248270  0.000000  1
  Zn  Zn5  1  0.758988  0.007258  0.000000  1
  Pt  Pt6  1  0.337860  0.670780  0.000000  1
  Pt  Pt7  1  0.662140  0.332919  0.000000  1
  Pt  Pt8  1  0.000000  0.997575  0.500000  1
