# generated using pymatgen
data_Yb4Cu4Si3
_symmetry_space_group_name_H-M   'P 1'
_cell_length_a   10.28727905
_cell_length_b   10.28728032
_cell_length_c   7.86090831
_cell_angle_alpha   71.78926359
_cell_angle_beta   71.78926190
_cell_angle_gamma   30.98386232
_symmetry_Int_Tables_number   1
_chemical_formula_structural   Yb4Cu4Si3
_chemical_formula_sum   'Yb8 Cu8 Si6'
_cell_volume   405.11695802
_cell_formula_units_Z   2
loop_
 _symmetry_equiv_pos_site_id
 _symmetry_equiv_pos_as_xyz
  1  'x, y, z'
loop_
 _atom_site_type_symbol
 _atom_site_label
 _atom_site_symmetry_multiplicity
 _atom_site_fract_x
 _atom_site_fract_y
 _atom_site_fract_z
 _atom_site_occupancy
  Yb  Yb0  1  0.933163  0.202618  0.333824  1
  Yb  Yb1  1  0.066837  0.797382  0.666176  1
  Yb  Yb2  1  0.797382  0.066837  0.166176  1
  Yb  Yb3  1  0.457344  0.202135  0.890405  1
  Yb  Yb4  1  0.797865  0.542656  0.609595  1
  Yb  Yb5  1  0.202135  0.457344  0.390405  1
  Yb  Yb6  1  0.202618  0.933163  0.833824  1
  Yb  Yb7  1  0.542656  0.797865  0.109595  1
  Cu  Cu8  1  0.566224  0.306457  0.514392  1
  Cu  Cu9  1  0.693543  0.433776  0.985608  1
  Cu  Cu10  1  0.306457  0.566224  0.014392  1
  Cu  Cu11  1  0.433776  0.693543  0.485608  1
  Cu  Cu12  1  0.654126  0.901051  0.291382  1
  Cu  Cu13  1  0.901051  0.654126  0.791382  1
  Cu  Cu14  1  0.345874  0.098949  0.708618  1
  Cu  Cu15  1  0.098949  0.345874  0.208618  1
  Si  Si16  1  0.315349  0.034407  0.454989  1
  Si  Si17  1  0.369093  0.630907  0.250000  1
  Si  Si18  1  0.034407  0.315349  0.954989  1
  Si  Si19  1  0.684651  0.965593  0.545011  1
  Si  Si20  1  0.965593  0.684651  0.045011  1
  Si  Si21  1  0.630907  0.369093  0.750000  1
