# generated using pymatgen
data_Sr12Zn12TeIr3(WO12)4
_symmetry_space_group_name_H-M   'P 1'
_cell_length_a   11.24886255
_cell_length_b   11.24886114
_cell_length_c   11.27458600
_cell_angle_alpha   109.51755117
_cell_angle_beta   109.51754863
_cell_angle_gamma   109.42485037
_symmetry_Int_Tables_number   1
_chemical_formula_structural   Sr12Zn12TeIr3(WO12)4
_chemical_formula_sum   'Sr12 Zn12 Te1 Ir3 W4 O48'
_cell_volume   1097.60796978
_cell_formula_units_Z   1
loop_
 _symmetry_equiv_pos_site_id
 _symmetry_equiv_pos_as_xyz
  1  'x, y, z'
loop_
 _atom_site_type_symbol
 _atom_site_label
 _atom_site_symmetry_multiplicity
 _atom_site_fract_x
 _atom_site_fract_y
 _atom_site_fract_z
 _atom_site_occupancy
  Sr  Sr0  1  0.376315  0.749367  0.124711  1
  Sr  Sr1  1  0.248524  0.373238  0.122013  1
  Sr  Sr2  1  0.874258  0.624018  0.250292  1
  Sr  Sr3  1  0.372157  0.121970  0.247031  1
  Sr  Sr4  1  0.122272  0.248355  0.372835  1
  Sr  Sr5  1  0.750707  0.126837  0.375535  1
  Sr  Sr6  1  0.877730  0.751645  0.627166  1
  Sr  Sr7  1  0.249292  0.873162  0.624464  1
  Sr  Sr8  1  0.125741  0.375981  0.749707  1
  Sr  Sr9  1  0.627844  0.878031  0.752969  1
  Sr  Sr10  1  0.623684  0.250632  0.875288  1
  Sr  Sr11  1  0.751476  0.626763  0.877988  1
  Zn  Zn12  1  0.750176  0.874960  0.125168  1
  Zn  Zn13  1  0.875362  0.250576  0.125255  1
  Zn  Zn14  1  0.625919  0.376793  0.252638  1
  Zn  Zn15  1  0.123721  0.874383  0.248544  1
  Zn  Zn16  1  0.624162  0.746785  0.373030  1
  Zn  Zn17  1  0.251836  0.624565  0.376817  1
  Zn  Zn18  1  0.375839  0.253214  0.626970  1
  Zn  Zn19  1  0.748164  0.375434  0.623184  1
  Zn  Zn20  1  0.876279  0.125618  0.751455  1
  Zn  Zn21  1  0.374082  0.623208  0.747361  1
  Zn  Zn22  1  0.124638  0.749423  0.874746  1
  Zn  Zn23  1  0.249824  0.125041  0.874832  1
  Te  Te24  1  0.500000  0.500000  0.500000  1
  Ir  Ir25  1  0.000000  0.000000  0.000000  1
  Ir  Ir26  1  0.500000  0.500000  0.000000  1
  Ir  Ir27  1  0.000000  0.500000  0.500000  1
  W  W28  1  0.500000  0.000000  0.000000  1
  W  W29  1  0.000000  0.500000  0.000000  1
  W  W30  1  0.000000  0.000000  0.500000  1
  W  W31  1  0.500000  0.000000  0.500000  1
  O  O32  1  0.329546  0.905229  0.015939  1
  O  O33  1  0.188464  0.109546  0.017334  1
  O  O34  1  0.688924  0.670932  0.079417  1
  O  O35  1  0.888854  0.405341  0.075386  1
  O  O36  1  0.982875  0.669922  0.094158  1
  O  O37  1  0.609573  0.421373  0.092999  1
  O  O38  1  0.594678  0.924435  0.111001  1
  O  O39  1  0.017669  0.188646  0.109554  1
  O  O40  1  0.186469  0.576061  0.171148  1
  O  O41  1  0.480928  0.591426  0.169313  1
  O  O42  1  0.575566  0.170785  0.186354  1
  O  O43  1  0.109374  0.017742  0.188170  1
  O  O44  1  0.329031  0.923062  0.312991  1
  O  O45  1  0.480680  0.387809  0.311639  1
  O  O46  1  0.905249  0.016124  0.329758  1
  O  O47  1  0.920777  0.311256  0.328920  1
  O  O48  1  0.576246  0.904754  0.389908  1
  O  O49  1  0.310999  0.479611  0.387293  1
  O  O50  1  0.830122  0.518984  0.408328  1
  O  O51  1  0.076069  0.889386  0.405457  1
  O  O52  1  0.829730  0.813010  0.424351  1
  O  O53  1  0.092440  0.609382  0.421502  1
  O  O54  1  0.594237  0.169953  0.483023  1
  O  O55  1  0.388368  0.311426  0.481058  1
  O  O56  1  0.611632  0.688573  0.518942  1
  O  O57  1  0.405763  0.830047  0.516977  1
  O  O58  1  0.170270  0.186989  0.575648  1
  O  O59  1  0.907560  0.390618  0.578498  1
  O  O60  1  0.923931  0.110614  0.594543  1
  O  O61  1  0.169878  0.481016  0.591672  1
  O  O62  1  0.689000  0.520389  0.612707  1
  O  O63  1  0.423754  0.095246  0.610092  1
  O  O64  1  0.094750  0.983875  0.670241  1
  O  O65  1  0.079223  0.688743  0.671079  1
  O  O66  1  0.519320  0.612191  0.688361  1
  O  O67  1  0.670968  0.076938  0.687008  1
  O  O68  1  0.890626  0.982258  0.811830  1
  O  O69  1  0.424433  0.829216  0.813646  1
  O  O70  1  0.519072  0.408574  0.830687  1
  O  O71  1  0.813531  0.423939  0.828852  1
  O  O72  1  0.982331  0.811354  0.890446  1
  O  O73  1  0.405322  0.075565  0.888999  1
  O  O74  1  0.017124  0.330077  0.905842  1
  O  O75  1  0.390427  0.578627  0.907001  1
  O  O76  1  0.111146  0.594659  0.924614  1
  O  O77  1  0.311075  0.329067  0.920583  1
  O  O78  1  0.670454  0.094771  0.984059  1
  O  O79  1  0.811536  0.890454  0.982666  1
