# generated using pymatgen
data_Tb4DyCo(P2Ru3)6
_symmetry_space_group_name_H-M   'P 1'
_cell_length_a   12.49707400
_cell_length_b   12.49707438
_cell_length_c   3.97457900
_cell_angle_alpha   90.00000000
_cell_angle_beta   90.00000000
_cell_angle_gamma   119.99999898
_symmetry_Int_Tables_number   1
_chemical_formula_structural   Tb4DyCo(P2Ru3)6
_chemical_formula_sum   'Tb4 Dy1 Co1 P12 Ru18'
_cell_volume   537.57426025
_cell_formula_units_Z   1
loop_
 _symmetry_equiv_pos_site_id
 _symmetry_equiv_pos_as_xyz
  1  'x, y, z'
loop_
 _atom_site_type_symbol
 _atom_site_label
 _atom_site_symmetry_multiplicity
 _atom_site_fract_x
 _atom_site_fract_y
 _atom_site_fract_z
 _atom_site_occupancy
  Tb  Tb0  1  0.666667  0.333333  0.000000  1
  Tb  Tb1  1  0.182681  0.000005  0.500000  1
  Tb  Tb2  1  0.999995  0.182676  0.500000  1
  Tb  Tb3  1  0.817324  0.817319  0.500000  1
  Dy  Dy4  1  0.333333  0.666667  0.000000  1
  Co  Co5  1  0.000000  0.000000  0.000000  1
  P  P6  1  0.372624  0.000020  0.000000  1
  P  P7  1  0.999980  0.372604  0.000000  1
  P  P8  1  0.627396  0.627376  0.000000  1
  P  P9  1  0.306944  0.476576  0.500000  1
  P  P10  1  0.523424  0.830367  0.500000  1
  P  P11  1  0.169633  0.693056  0.500000  1
  P  P12  1  0.830500  0.523600  0.500000  1
  P  P13  1  0.693100  0.169500  0.500000  1
  P  P14  1  0.476400  0.306900  0.500000  1
  P  P15  1  0.822253  0.999990  0.000000  1
  P  P16  1  0.000010  0.822263  0.000000  1
  P  P17  1  0.177737  0.177747  0.000000  1
  Ru  Ru18  1  0.191537  0.375471  0.000000  1
  Ru  Ru19  1  0.624529  0.816065  0.000000  1
  Ru  Ru20  1  0.183935  0.808463  0.000000  1
  Ru  Ru21  1  0.816173  0.624712  0.000000  1
  Ru  Ru22  1  0.808538  0.183827  0.000000  1
  Ru  Ru23  1  0.375288  0.191462  0.000000  1
  Ru  Ru24  1  0.555751  0.000011  0.000000  1
  Ru  Ru25  1  0.999989  0.555739  0.000000  1
  Ru  Ru26  1  0.444261  0.444249  0.000000  1
  Ru  Ru27  1  0.126257  0.491302  0.500000  1
  Ru  Ru28  1  0.508698  0.634953  0.500000  1
  Ru  Ru29  1  0.365047  0.873743  0.500000  1
  Ru  Ru30  1  0.634932  0.509000  0.500000  1
  Ru  Ru31  1  0.874067  0.365068  0.500000  1
  Ru  Ru32  1  0.491000  0.125933  0.500000  1
  Ru  Ru33  1  0.720027  0.999977  0.500000  1
  Ru  Ru34  1  0.000023  0.720050  0.500000  1
  Ru  Ru35  1  0.279950  0.279973  0.500000  1
