# generated using pymatgen
data_Tb2CdNiAg
_symmetry_space_group_name_H-M   'P 1'
_cell_length_a   7.78778042
_cell_length_b   7.78778046
_cell_length_c   3.67148200
_cell_angle_alpha   90.00000000
_cell_angle_beta   90.00000000
_cell_angle_gamma   88.08446319
_symmetry_Int_Tables_number   1
_chemical_formula_structural   Tb2CdNiAg
_chemical_formula_sum   'Tb4 Cd2 Ni2 Ag2'
_cell_volume   222.54920373
_cell_formula_units_Z   2
loop_
 _symmetry_equiv_pos_site_id
 _symmetry_equiv_pos_as_xyz
  1  'x, y, z'
loop_
 _atom_site_type_symbol
 _atom_site_label
 _atom_site_symmetry_multiplicity
 _atom_site_fract_x
 _atom_site_fract_y
 _atom_site_fract_z
 _atom_site_occupancy
  Tb  Tb0  1  0.658331  0.158331  0.500000  1
  Tb  Tb1  1  0.341669  0.841669  0.500000  1
  Tb  Tb2  1  0.196320  0.303680  0.500000  1
  Tb  Tb3  1  0.803680  0.696320  0.500000  1
  Cd  Cd4  1  0.500000  0.500000  0.000000  1
  Cd  Cd5  1  0.000000  0.000000  0.000000  1
  Ni  Ni6  1  0.616313  0.883687  0.000000  1
  Ni  Ni7  1  0.383687  0.116313  0.000000  1
  Ag  Ag8  1  0.125147  0.625147  0.000000  1
  Ag  Ag9  1  0.874853  0.374853  0.000000  1
