# generated using pymatgen
data_Ta9Ga6ReB2
_symmetry_space_group_name_H-M   'P 1'
_cell_length_a   7.76077400
_cell_length_b   7.76077362
_cell_length_c   5.29626400
_cell_angle_alpha   90.00000000
_cell_angle_beta   90.00000000
_cell_angle_gamma   120.00000161
_symmetry_Int_Tables_number   1
_chemical_formula_structural   Ta9Ga6ReB2
_chemical_formula_sum   'Ta9 Ga6 Re1 B2'
_cell_volume   276.25509830
_cell_formula_units_Z   1
loop_
 _symmetry_equiv_pos_site_id
 _symmetry_equiv_pos_as_xyz
  1  'x, y, z'
loop_
 _atom_site_type_symbol
 _atom_site_label
 _atom_site_symmetry_multiplicity
 _atom_site_fract_x
 _atom_site_fract_y
 _atom_site_fract_z
 _atom_site_occupancy
  Ta  Ta0  1  0.243598  0.002348  0.253422  1
  Ta  Ta1  1  0.758750  0.002348  0.746578  1
  Ta  Ta2  1  0.997652  0.241250  0.253422  1
  Ta  Ta3  1  0.997652  0.756402  0.746578  1
  Ta  Ta4  1  0.758750  0.756402  0.253422  1
  Ta  Ta5  1  0.243598  0.241250  0.746578  1
  Ta  Ta6  1  0.666667  0.333333  0.000000  1
  Ta  Ta7  1  0.666667  0.333333  0.500000  1
  Ta  Ta8  1  0.333333  0.666667  0.500000  1
  Ga  Ga9  1  0.596103  0.997103  0.244179  1
  Ga  Ga10  1  0.401000  0.997103  0.755821  1
  Ga  Ga11  1  0.002897  0.599000  0.244179  1
  Ga  Ga12  1  0.002897  0.403897  0.755821  1
  Ga  Ga13  1  0.401000  0.403897  0.244179  1
  Ga  Ga14  1  0.596103  0.599000  0.755821  1
  Re  Re15  1  0.333333  0.666667  0.000000  1
  B  B16  1  0.000000  0.000000  0.000000  1
  B  B17  1  0.000000  0.000000  0.500000  1
