# generated using pymatgen
data_Pr16CdHg3RuPt3
_symmetry_space_group_name_H-M   'P 1'
_cell_length_a   10.08016124
_cell_length_b   10.09677323
_cell_length_c   10.09686043
_cell_angle_alpha   59.71653902
_cell_angle_beta   59.72792183
_cell_angle_gamma   59.72408379
_symmetry_Int_Tables_number   1
_chemical_formula_structural   Pr16CdHg3RuPt3
_chemical_formula_sum   'Pr16 Cd1 Hg3 Ru1 Pt3'
_cell_volume   722.06963565
_cell_formula_units_Z   1
loop_
 _symmetry_equiv_pos_site_id
 _symmetry_equiv_pos_as_xyz
  1  'x, y, z'
loop_
 _atom_site_type_symbol
 _atom_site_label
 _atom_site_symmetry_multiplicity
 _atom_site_fract_x
 _atom_site_fract_y
 _atom_site_fract_z
 _atom_site_occupancy
  Pr  Pr0  1  0.352143  0.351513  0.351484  1
  Pr  Pr1  1  0.348100  0.347928  0.950297  1
  Pr  Pr2  1  0.348078  0.950338  0.347914  1
  Pr  Pr3  1  0.948532  0.348603  0.348608  1
  Pr  Pr4  1  0.816071  0.189434  0.189471  1
  Pr  Pr5  1  0.188460  0.808326  0.808349  1
  Pr  Pr6  1  0.188545  0.816539  0.189296  1
  Pr  Pr7  1  0.807485  0.189532  0.807478  1
  Pr  Pr8  1  0.188558  0.189289  0.816519  1
  Pr  Pr9  1  0.807491  0.807474  0.189546  1
  Pr  Pr10  1  0.937200  0.563646  0.563637  1
  Pr  Pr11  1  0.558243  0.937649  0.937660  1
  Pr  Pr12  1  0.563012  0.938400  0.563496  1
  Pr  Pr13  1  0.936508  0.558680  0.937957  1
  Pr  Pr14  1  0.562991  0.563505  0.938423  1
  Pr  Pr15  1  0.936518  0.937956  0.558678  1
  Cd  Cd16  1  0.259901  0.580040  0.580054  1
  Hg  Hg17  1  0.581762  0.583975  0.583975  1
  Hg  Hg18  1  0.582877  0.585227  0.247391  1
  Hg  Hg19  1  0.582865  0.247401  0.585223  1
  Ru  Ru20  1  0.142541  0.142767  0.142779  1
  Pt  Pt21  1  0.144996  0.145071  0.571737  1
  Pt  Pt22  1  0.144992  0.571736  0.145065  1
  Pt  Pt23  1  0.572128  0.144972  0.144961  1
