# generated using pymatgen
data_TcSeS
_symmetry_space_group_name_H-M   'P 1'
_cell_length_a   6.53269631
_cell_length_b   6.70090116
_cell_length_c   7.76103240
_cell_angle_alpha   66.58437194
_cell_angle_beta   77.96139941
_cell_angle_gamma   61.48102475
_symmetry_Int_Tables_number   1
_chemical_formula_structural   TcSeS
_chemical_formula_sum   'Tc4 Se4 S4'
_cell_volume   273.85606295
_cell_formula_units_Z   4
loop_
 _symmetry_equiv_pos_site_id
 _symmetry_equiv_pos_as_xyz
  1  'x, y, z'
loop_
 _atom_site_type_symbol
 _atom_site_label
 _atom_site_symmetry_multiplicity
 _atom_site_fract_x
 _atom_site_fract_y
 _atom_site_fract_z
 _atom_site_occupancy
  Tc  Tc0  1  0.508659  0.293028  0.503131  1
  Tc  Tc1  1  0.491341  0.706972  0.496869  1
  Tc  Tc2  1  0.932561  0.316765  0.509523  1
  Tc  Tc3  1  0.067439  0.683235  0.490477  1
  Se  Se4  1  0.323710  0.173283  0.318698  1
  Se  Se5  1  0.676290  0.826717  0.681302  1
  Se  Se6  1  0.859432  0.154912  0.298934  1
  Se  Se7  1  0.140568  0.845088  0.701066  1
  S  S8  1  0.363667  0.665191  0.257501  1
  S  S9  1  0.636333  0.334809  0.742499  1
  S  S10  1  0.823851  0.697745  0.284268  1
  S  S11  1  0.176149  0.302255  0.715732  1
