# generated using pymatgen
data_Th3Al2SnRh3
_symmetry_space_group_name_H-M   'P 1'
_cell_length_a   7.31890149
_cell_length_b   7.43155612
_cell_length_c   4.12753300
_cell_angle_alpha   90.00000000
_cell_angle_beta   90.00000000
_cell_angle_gamma   120.51047601
_symmetry_Int_Tables_number   1
_chemical_formula_structural   Th3Al2SnRh3
_chemical_formula_sum   'Th3 Al2 Sn1 Rh3'
_cell_volume   193.41485313
_cell_formula_units_Z   1
loop_
 _symmetry_equiv_pos_site_id
 _symmetry_equiv_pos_as_xyz
  1  'x, y, z'
loop_
 _atom_site_type_symbol
 _atom_site_label
 _atom_site_symmetry_multiplicity
 _atom_site_fract_x
 _atom_site_fract_y
 _atom_site_fract_z
 _atom_site_occupancy
  Th  Th0  1  0.000000  0.410135  0.500000  1
  Th  Th1  1  0.576869  0.581588  0.500000  1
  Th  Th2  1  0.423131  0.004718  0.500000  1
  Al  Al3  1  0.235063  0.236494  0.000000  1
  Al  Al4  1  0.764937  0.001431  0.000000  1
  Sn  Sn5  1  0.000000  0.762298  0.000000  1
  Rh  Rh6  1  0.339613  0.660430  0.000000  1
  Rh  Rh7  1  0.660387  0.320815  0.000000  1
  Rh  Rh8  1  0.000000  0.022091  0.500000  1
