# generated using pymatgen
data_Sm5Er3(BeSi3)4
_symmetry_space_group_name_H-M   'P 1'
_cell_length_a   7.87751900
_cell_length_b   7.87751962
_cell_length_c   8.23980000
_cell_angle_alpha   90.00000000
_cell_angle_beta   90.00000000
_cell_angle_gamma   120.00000160
_symmetry_Int_Tables_number   1
_chemical_formula_structural   Sm5Er3(BeSi3)4
_chemical_formula_sum   'Sm5 Er3 Be4 Si12'
_cell_volume   442.81900118
_cell_formula_units_Z   1
loop_
 _symmetry_equiv_pos_site_id
 _symmetry_equiv_pos_as_xyz
  1  'x, y, z'
loop_
 _atom_site_type_symbol
 _atom_site_label
 _atom_site_symmetry_multiplicity
 _atom_site_fract_x
 _atom_site_fract_y
 _atom_site_fract_z
 _atom_site_occupancy
  Sm  Sm0  1  0.000000  0.000000  0.250000  1
  Sm  Sm1  1  0.000000  0.000000  0.750000  1
  Sm  Sm2  1  0.499438  0.500562  0.250000  1
  Sm  Sm3  1  0.499438  0.998875  0.250000  1
  Sm  Sm4  1  0.001125  0.500562  0.250000  1
  Er  Er5  1  0.501585  0.498415  0.750000  1
  Er  Er6  1  0.996831  0.498415  0.750000  1
  Er  Er7  1  0.501585  0.003169  0.750000  1
  Be  Be8  1  0.666667  0.333333  0.502781  1
  Be  Be9  1  0.666667  0.333333  0.997219  1
  Be  Be10  1  0.333333  0.666667  0.982986  1
  Be  Be11  1  0.333333  0.666667  0.517014  1
  Si  Si12  1  0.826986  0.173014  0.504647  1
  Si  Si13  1  0.826986  0.653974  0.504647  1
  Si  Si14  1  0.346026  0.173014  0.504647  1
  Si  Si15  1  0.826986  0.173014  0.995353  1
  Si  Si16  1  0.826986  0.653974  0.995353  1
  Si  Si17  1  0.346026  0.173014  0.995353  1
  Si  Si18  1  0.172948  0.827052  0.994530  1
  Si  Si19  1  0.654104  0.827052  0.994530  1
  Si  Si20  1  0.172948  0.345896  0.994530  1
  Si  Si21  1  0.172948  0.827052  0.505470  1
  Si  Si22  1  0.654104  0.827052  0.505470  1
  Si  Si23  1  0.172948  0.345896  0.505470  1
