# generated using pymatgen
data_Y3Sn3IrPtRh
_symmetry_space_group_name_H-M   'P 1'
_cell_length_a   7.59823800
_cell_length_b   7.59823875
_cell_length_c   3.89234400
_cell_angle_alpha   90.00000000
_cell_angle_beta   90.00000000
_cell_angle_gamma   119.99999673
_symmetry_Int_Tables_number   1
_chemical_formula_structural   Y3Sn3IrPtRh
_chemical_formula_sum   'Y3 Sn3 Ir1 Pt1 Rh1'
_cell_volume   194.61113716
_cell_formula_units_Z   1
loop_
 _symmetry_equiv_pos_site_id
 _symmetry_equiv_pos_as_xyz
  1  'x, y, z'
loop_
 _atom_site_type_symbol
 _atom_site_label
 _atom_site_symmetry_multiplicity
 _atom_site_fract_x
 _atom_site_fract_y
 _atom_site_fract_z
 _atom_site_occupancy
  Y  Y0  1  0.409977  0.006628  0.500000  1
  Y  Y1  1  0.993372  0.403349  0.500000  1
  Y  Y2  1  0.596651  0.590023  0.500000  1
  Sn  Sn3  1  0.742648  0.002951  0.000000  1
  Sn  Sn4  1  0.997049  0.739697  0.000000  1
  Sn  Sn5  1  0.260303  0.257352  0.000000  1
  Ir  Ir6  1  0.666667  0.333333  0.000000  1
  Pt  Pt7  1  0.333333  0.666667  0.000000  1
  Rh  Rh8  1  0.000000  0.000000  0.500000  1
