# generated using pymatgen
data_TmZn3AgPt
_symmetry_space_group_name_H-M   'P 1'
_cell_length_a   5.25197321
_cell_length_b   5.25197366
_cell_length_c   5.25197318
_cell_angle_alpha   59.66354043
_cell_angle_beta   59.66354462
_cell_angle_gamma   59.66353441
_symmetry_Int_Tables_number   1
_chemical_formula_structural   TmZn3AgPt
_chemical_formula_sum   'Tm1 Zn3 Ag1 Pt1'
_cell_volume   101.65292510
_cell_formula_units_Z   1
loop_
 _symmetry_equiv_pos_site_id
 _symmetry_equiv_pos_as_xyz
  1  'x, y, z'
loop_
 _atom_site_type_symbol
 _atom_site_label
 _atom_site_symmetry_multiplicity
 _atom_site_fract_x
 _atom_site_fract_y
 _atom_site_fract_z
 _atom_site_occupancy
  Tm  Tm0  1  0.253032  0.253032  0.253032  1
  Zn  Zn1  1  0.626012  0.626012  0.118128  1
  Zn  Zn2  1  0.626012  0.118128  0.626012  1
  Zn  Zn3  1  0.118128  0.626012  0.626012  1
  Ag  Ag4  1  0.005111  0.005111  0.005111  1
  Pt  Pt5  1  0.621704  0.621704  0.621704  1
