# generated using pymatgen
data_TbDy7(SiPd)8
_symmetry_space_group_name_H-M   'P 1'
_cell_length_a   4.33351800
_cell_length_b   7.48893000
_cell_length_c   13.90328200
_cell_angle_alpha   90.00000000
_cell_angle_beta   90.00000000
_cell_angle_gamma   90.00000000
_symmetry_Int_Tables_number   1
_chemical_formula_structural   TbDy7(SiPd)8
_chemical_formula_sum   'Tb1 Dy7 Si8 Pd8'
_cell_volume   451.20895219
_cell_formula_units_Z   1
loop_
 _symmetry_equiv_pos_site_id
 _symmetry_equiv_pos_as_xyz
  1  'x, y, z'
loop_
 _atom_site_type_symbol
 _atom_site_label
 _atom_site_symmetry_multiplicity
 _atom_site_fract_x
 _atom_site_fract_y
 _atom_site_fract_z
 _atom_site_occupancy
  Tb  Tb0  1  0.000000  0.299437  0.000000  1
  Dy  Dy1  1  0.500000  0.789406  0.748674  1
  Dy  Dy2  1  0.000000  0.210403  0.750840  1
  Dy  Dy3  1  0.500000  0.789406  0.251326  1
  Dy  Dy4  1  0.000000  0.210403  0.249160  1
  Dy  Dy5  1  0.500000  0.710004  0.000000  1
  Dy  Dy6  1  0.000000  0.290466  0.500000  1
  Dy  Dy7  1  0.500000  0.700875  0.500000  1
  Si  Si8  1  0.500000  0.408939  0.644250  1
  Si  Si9  1  0.000000  0.591436  0.855221  1
  Si  Si10  1  0.500000  0.408939  0.355750  1
  Si  Si11  1  0.000000  0.591436  0.144779  1
  Si  Si12  1  0.500000  0.089902  0.094028  1
  Si  Si13  1  0.000000  0.909472  0.406416  1
  Si  Si14  1  0.500000  0.089902  0.905972  1
  Si  Si15  1  0.000000  0.909472  0.593584  1
  Pd  Pd16  1  0.500000  0.076602  0.608863  1
  Pd  Pd17  1  0.000000  0.922923  0.890938  1
  Pd  Pd18  1  0.500000  0.076602  0.391137  1
  Pd  Pd19  1  0.000000  0.922923  0.109062  1
  Pd  Pd20  1  0.500000  0.421105  0.156562  1
  Pd  Pd21  1  0.000000  0.579420  0.344314  1
  Pd  Pd22  1  0.500000  0.421105  0.843438  1
  Pd  Pd23  1  0.000000  0.579420  0.655686  1
