# generated using pymatgen
data_TaCoB2Ru
_symmetry_space_group_name_H-M   'P 1'
_cell_length_a   4.63420244
_cell_length_b   4.63420182
_cell_length_c   4.63420181
_cell_angle_alpha   141.52450159
_cell_angle_beta   120.28965372
_cell_angle_gamma   73.30686011
_symmetry_Int_Tables_number   1
_chemical_formula_structural   TaCoB2Ru
_chemical_formula_sum   'Ta1 Co1 B2 Ru1'
_cell_volume   52.38468053
_cell_formula_units_Z   1
loop_
 _symmetry_equiv_pos_site_id
 _symmetry_equiv_pos_as_xyz
  1  'x, y, z'
loop_
 _atom_site_type_symbol
 _atom_site_label
 _atom_site_symmetry_multiplicity
 _atom_site_fract_x
 _atom_site_fract_y
 _atom_site_fract_z
 _atom_site_occupancy
  Ta  Ta0  1  0.704503  0.204503  0.500000  1
  Co  Co1  1  0.001115  0.001115  0.000000  1
  B  B2  1  0.690640  0.492755  0.197885  1
  B  B3  1  0.294871  0.492755  0.802115  1
  Ru  Ru4  1  0.308872  0.808872  0.500000  1
