# generated using pymatgen
data_Zr6B4Ru7Rh3
_symmetry_space_group_name_H-M   'P 1'
_cell_length_a   9.59008362
_cell_length_b   9.61335862
_cell_length_c   3.14177500
_cell_angle_alpha   90.00000000
_cell_angle_beta   90.00000000
_cell_angle_gamma   90.04121580
_symmetry_Int_Tables_number   1
_chemical_formula_structural   Zr6B4Ru7Rh3
_chemical_formula_sum   'Zr6 B4 Ru7 Rh3'
_cell_volume   289.64931447
_cell_formula_units_Z   1
loop_
 _symmetry_equiv_pos_site_id
 _symmetry_equiv_pos_as_xyz
  1  'x, y, z'
loop_
 _atom_site_type_symbol
 _atom_site_label
 _atom_site_symmetry_multiplicity
 _atom_site_fract_x
 _atom_site_fract_y
 _atom_site_fract_z
 _atom_site_occupancy
  Zr  Zr0  1  0.674114  0.180101  0.000000  1
  Zr  Zr1  1  0.330603  0.820696  0.000000  1
  Zr  Zr2  1  0.175054  0.327961  0.000000  1
  Zr  Zr3  1  0.820026  0.668468  0.000000  1
  Zr  Zr4  1  0.999626  0.002333  0.000000  1
  Zr  Zr5  1  0.499448  0.499033  0.000000  1
  B  B6  1  0.123261  0.615526  0.000000  1
  B  B7  1  0.877650  0.378463  0.000000  1
  B  B8  1  0.616037  0.876098  0.000000  1
  B  B9  1  0.384758  0.124829  0.000000  1
  Ru  Ru10  1  0.721515  0.427014  0.500000  1
  Ru  Ru11  1  0.930320  0.222809  0.500000  1
  Ru  Ru12  1  0.277522  0.576240  0.500000  1
  Ru  Ru13  1  0.574605  0.722704  0.500000  1
  Ru  Ru14  1  0.424038  0.277708  0.500000  1
  Ru  Ru15  1  0.500835  0.000434  0.500000  1
  Ru  Ru16  1  0.999396  0.502360  0.500000  1
  Rh  Rh17  1  0.223284  0.068842  0.500000  1
  Rh  Rh18  1  0.777699  0.929217  0.500000  1
  Rh  Rh19  1  0.070210  0.779164  0.500000  1
