# generated using pymatgen
data_Tb3GeAs2Rh3
_symmetry_space_group_name_H-M   'P 1'
_cell_length_a   6.97093100
_cell_length_b   6.97093096
_cell_length_c   4.02768500
_cell_angle_alpha   90.00000000
_cell_angle_beta   90.00000000
_cell_angle_gamma   120.00000493
_symmetry_Int_Tables_number   1
_chemical_formula_structural   Tb3GeAs2Rh3
_chemical_formula_sum   'Tb3 Ge1 As2 Rh3'
_cell_volume   169.49920800
_cell_formula_units_Z   1
loop_
 _symmetry_equiv_pos_site_id
 _symmetry_equiv_pos_as_xyz
  1  'x, y, z'
loop_
 _atom_site_type_symbol
 _atom_site_label
 _atom_site_symmetry_multiplicity
 _atom_site_fract_x
 _atom_site_fract_y
 _atom_site_fract_z
 _atom_site_occupancy
  Tb  Tb0  1  0.415634  0.415634  0.500000  1
  Tb  Tb1  1  0.584366  0.000000  0.500000  1
  Tb  Tb2  1  0.000000  0.584366  0.500000  1
  Ge  Ge3  1  0.000000  0.000000  0.500000  1
  As  As4  1  0.666667  0.333333  0.000000  1
  As  As5  1  0.333333  0.666667  0.000000  1
  Rh  Rh6  1  0.761280  0.761280  0.000000  1
  Rh  Rh7  1  0.238720  0.000000  0.000000  1
  Rh  Rh8  1  0.000000  0.238720  0.000000  1
