# generated using pymatgen
data_TmLuSi2Os
_symmetry_space_group_name_H-M   'P 1'
_cell_length_a   5.62617138
_cell_length_b   5.62617121
_cell_length_c   9.84597205
_cell_angle_alpha   63.77762580
_cell_angle_beta   63.77762696
_cell_angle_gamma   43.79704124
_symmetry_Int_Tables_number   1
_chemical_formula_structural   TmLuSi2Os
_chemical_formula_sum   'Tm2 Lu2 Si4 Os2'
_cell_volume   189.67399520
_cell_formula_units_Z   2
loop_
 _symmetry_equiv_pos_site_id
 _symmetry_equiv_pos_as_xyz
  1  'x, y, z'
loop_
 _atom_site_type_symbol
 _atom_site_label
 _atom_site_symmetry_multiplicity
 _atom_site_fract_x
 _atom_site_fract_y
 _atom_site_fract_z
 _atom_site_occupancy
  Tm  Tm0  1  0.813979  0.813979  0.110277  1
  Tm  Tm1  1  0.186021  0.186021  0.889723  1
  Lu  Lu2  1  0.005327  0.005327  0.322766  1
  Lu  Lu3  1  0.994673  0.994673  0.677234  1
  Si  Si4  1  0.640282  0.640282  0.439547  1
  Si  Si5  1  0.359718  0.359718  0.560453  1
  Si  Si6  1  0.506188  0.506188  0.123720  1
  Si  Si7  1  0.493812  0.493812  0.876280  1
  Os  Os8  1  0.730613  0.730613  0.627915  1
  Os  Os9  1  0.269387  0.269387  0.372085  1
