# generated using pymatgen
data_Hf18CuMo8Rh
_symmetry_space_group_name_H-M   'P 1'
_cell_length_a   8.72726900
_cell_length_b   8.72726818
_cell_length_c   8.52470500
_cell_angle_alpha   90.00000000
_cell_angle_beta   90.00000000
_cell_angle_gamma   119.99999932
_symmetry_Int_Tables_number   1
_chemical_formula_structural   Hf18CuMo8Rh
_chemical_formula_sum   'Hf18 Cu1 Mo8 Rh1'
_cell_volume   562.29817974
_cell_formula_units_Z   1
loop_
 _symmetry_equiv_pos_site_id
 _symmetry_equiv_pos_as_xyz
  1  'x, y, z'
loop_
 _atom_site_type_symbol
 _atom_site_label
 _atom_site_symmetry_multiplicity
 _atom_site_fract_x
 _atom_site_fract_y
 _atom_site_fract_z
 _atom_site_occupancy
  Hf  Hf0  1  0.197797  0.802203  0.445387  1
  Hf  Hf1  1  0.197797  0.395593  0.445387  1
  Hf  Hf2  1  0.604407  0.802203  0.445387  1
  Hf  Hf3  1  0.801771  0.198229  0.553332  1
  Hf  Hf4  1  0.801771  0.603544  0.553332  1
  Hf  Hf5  1  0.396456  0.198229  0.553332  1
  Hf  Hf6  1  0.801771  0.198229  0.946668  1
  Hf  Hf7  1  0.801771  0.603544  0.946668  1
  Hf  Hf8  1  0.396456  0.198229  0.946668  1
  Hf  Hf9  1  0.197797  0.802203  0.054613  1
  Hf  Hf10  1  0.197797  0.395593  0.054613  1
  Hf  Hf11  1  0.604407  0.802203  0.054613  1
  Hf  Hf12  1  0.542191  0.457809  0.250000  1
  Hf  Hf13  1  0.542191  0.084382  0.250000  1
  Hf  Hf14  1  0.915618  0.457809  0.250000  1
  Hf  Hf15  1  0.456778  0.543222  0.750000  1
  Hf  Hf16  1  0.456778  0.913556  0.750000  1
  Hf  Hf17  1  0.086444  0.543222  0.750000  1
  Cu  Cu18  1  0.333333  0.666667  0.250000  1
  Mo  Mo19  1  0.888657  0.111343  0.250000  1
  Mo  Mo20  1  0.888657  0.777312  0.250000  1
  Mo  Mo21  1  0.222688  0.111343  0.250000  1
  Mo  Mo22  1  0.111988  0.888012  0.750000  1
  Mo  Mo23  1  0.111988  0.223977  0.750000  1
  Mo  Mo24  1  0.776023  0.888012  0.750000  1
  Mo  Mo25  1  0.000000  0.000000  0.501149  1
  Mo  Mo26  1  0.000000  0.000000  0.998851  1
  Rh  Rh27  1  0.666667  0.333333  0.750000  1
