# generated using pymatgen
data_Tb3HfMg2Ir3
_symmetry_space_group_name_H-M   'P 1'
_cell_length_a   7.33659559
_cell_length_b   7.18237853
_cell_length_c   4.22115500
_cell_angle_alpha   90.00000000
_cell_angle_beta   90.00000000
_cell_angle_gamma   119.30706476
_symmetry_Int_Tables_number   1
_chemical_formula_structural   Tb3HfMg2Ir3
_chemical_formula_sum   'Tb3 Hf1 Mg2 Ir3'
_cell_volume   193.96130588
_cell_formula_units_Z   1
loop_
 _symmetry_equiv_pos_site_id
 _symmetry_equiv_pos_as_xyz
  1  'x, y, z'
loop_
 _atom_site_type_symbol
 _atom_site_label
 _atom_site_symmetry_multiplicity
 _atom_site_fract_x
 _atom_site_fract_y
 _atom_site_fract_z
 _atom_site_occupancy
  Tb  Tb0  1  0.419545  0.414525  0.000000  1
  Tb  Tb1  1  0.580455  0.994980  0.000000  1
  Tb  Tb2  1  0.000000  0.600707  0.000000  1
  Hf  Hf3  1  0.000000  0.247196  0.500000  1
  Mg  Mg4  1  0.752260  0.752485  0.500000  1
  Mg  Mg5  1  0.247740  0.000225  0.500000  1
  Ir  Ir6  1  0.000000  0.022636  0.000000  1
  Ir  Ir7  1  0.320549  0.643896  0.500000  1
  Ir  Ir8  1  0.679451  0.323346  0.500000  1
