# generated using pymatgen
data_Ta12Mn11GaN4
_symmetry_space_group_name_H-M   'P 1'
_cell_length_a   8.05681461
_cell_length_b   8.01726251
_cell_length_c   8.01726300
_cell_angle_alpha   60.00001036
_cell_angle_beta   60.16227118
_cell_angle_gamma   60.16226333
_symmetry_Int_Tables_number   1
_chemical_formula_structural   Ta12Mn11GaN4
_chemical_formula_sum   'Ta12 Mn11 Ga1 N4'
_cell_volume   367.08063881
_cell_formula_units_Z   1
loop_
 _symmetry_equiv_pos_site_id
 _symmetry_equiv_pos_as_xyz
  1  'x, y, z'
loop_
 _atom_site_type_symbol
 _atom_site_label
 _atom_site_symmetry_multiplicity
 _atom_site_fract_x
 _atom_site_fract_y
 _atom_site_fract_z
 _atom_site_occupancy
  Ta  Ta0  1  0.804346  0.806265  0.194695  1
  Ta  Ta1  1  0.194426  0.193239  0.806168  1
  Ta  Ta2  1  0.804346  0.194695  0.806265  1
  Ta  Ta3  1  0.194426  0.806168  0.193239  1
  Ta  Ta4  1  0.194426  0.806168  0.806168  1
  Ta  Ta5  1  0.804346  0.194695  0.194695  1
  Ta  Ta6  1  0.444286  0.444298  0.055708  1
  Ta  Ta7  1  0.057353  0.047163  0.447742  1
  Ta  Ta8  1  0.444286  0.055708  0.444298  1
  Ta  Ta9  1  0.057353  0.447742  0.047163  1
  Ta  Ta10  1  0.057353  0.447742  0.447742  1
  Ta  Ta11  1  0.444286  0.055708  0.055708  1
  Mn  Mn12  1  0.126970  0.624343  0.624343  1
  Mn  Mn13  1  0.614942  0.122003  0.631528  1
  Mn  Mn14  1  0.614942  0.631528  0.122003  1
  Mn  Mn15  1  0.614942  0.631528  0.631528  1
  Mn  Mn16  1  0.420850  0.728310  0.425419  1
  Mn  Mn17  1  0.420850  0.425419  0.728310  1
  Mn  Mn18  1  0.420850  0.425419  0.425419  1
  Mn  Mn19  1  0.526857  0.824381  0.824381  1
  Mn  Mn20  1  0.829505  0.515436  0.827530  1
  Mn  Mn21  1  0.829505  0.827530  0.515436  1
  Mn  Mn22  1  0.829505  0.827530  0.827530  1
  Ga  Ga23  1  0.749172  0.416942  0.416942  1
  N  N24  1  0.625088  0.124970  0.124970  1
  N  N25  1  0.124931  0.625344  0.124862  1
  N  N26  1  0.124931  0.124862  0.625344  1
  N  N27  1  0.124931  0.124862  0.124862  1
