# generated using pymatgen
data_YbEr2Al3Ge2Pd
_symmetry_space_group_name_H-M   'P 1'
_cell_length_a   6.99757600
_cell_length_b   6.95043053
_cell_length_c   4.26443700
_cell_angle_alpha   90.00000000
_cell_angle_beta   90.00000000
_cell_angle_gamma   120.22463797
_symmetry_Int_Tables_number   1
_chemical_formula_structural   YbEr2Al3Ge2Pd
_chemical_formula_sum   'Yb1 Er2 Al3 Ge2 Pd1'
_cell_volume   179.21078358
_cell_formula_units_Z   1
loop_
 _symmetry_equiv_pos_site_id
 _symmetry_equiv_pos_as_xyz
  1  'x, y, z'
loop_
 _atom_site_type_symbol
 _atom_site_label
 _atom_site_symmetry_multiplicity
 _atom_site_fract_x
 _atom_site_fract_y
 _atom_site_fract_z
 _atom_site_occupancy
  Yb  Yb0  1  0.417679  0.000000  0.000000  1
  Er  Er1  1  0.000669  0.417151  0.000000  1
  Er  Er2  1  0.583518  0.582849  0.000000  1
  Al  Al3  1  0.768604  0.000000  0.500001  1
  Al  Al4  1  0.231696  0.237311  0.500001  1
  Al  Al5  1  0.994385  0.762689  0.500001  1
  Ge  Ge6  1  0.671030  0.337807  0.500001  1
  Ge  Ge7  1  0.333223  0.662193  0.500001  1
  Pd  Pd8  1  0.999197  0.000000  0.000000  1
