# generated using pymatgen
data_NaAc3Mn4O12
_symmetry_space_group_name_H-M   'P 1'
_cell_length_a   7.95632800
_cell_length_b   7.95632800
_cell_length_c   3.97854700
_cell_angle_alpha   90.00000000
_cell_angle_beta   90.00000000
_cell_angle_gamma   90.00000000
_symmetry_Int_Tables_number   1
_chemical_formula_structural   NaAc3Mn4O12
_chemical_formula_sum   'Na1 Ac3 Mn4 O12'
_cell_volume   251.85457838
_cell_formula_units_Z   1
loop_
 _symmetry_equiv_pos_site_id
 _symmetry_equiv_pos_as_xyz
  1  'x, y, z'
loop_
 _atom_site_type_symbol
 _atom_site_label
 _atom_site_symmetry_multiplicity
 _atom_site_fract_x
 _atom_site_fract_y
 _atom_site_fract_z
 _atom_site_occupancy
  Na  Na0  1  0.500000  0.500000  0.500000  1
  Ac  Ac1  1  0.000000  0.500000  0.500000  1
  Ac  Ac2  1  0.000000  0.000000  0.500000  1
  Ac  Ac3  1  0.500000  0.000000  0.500000  1
  Mn  Mn4  1  0.745022  0.254978  0.000000  1
  Mn  Mn5  1  0.254978  0.254978  0.000000  1
  Mn  Mn6  1  0.745022  0.745022  0.000000  1
  Mn  Mn7  1  0.254978  0.745022  0.000000  1
  O  O8  1  0.757958  0.242042  0.500000  1
  O  O9  1  0.242042  0.242042  0.500000  1
  O  O10  1  0.757958  0.757958  0.500000  1
  O  O11  1  0.242042  0.757958  0.500000  1
  O  O12  1  0.767047  0.500000  0.000000  1
  O  O13  1  0.232953  0.500000  0.000000  1
  O  O14  1  0.754503  0.000000  0.000000  1
  O  O15  1  0.245497  0.000000  0.000000  1
  O  O16  1  0.000000  0.245497  0.000000  1
  O  O17  1  0.500000  0.232953  0.000000  1
  O  O18  1  0.000000  0.754503  0.000000  1
  O  O19  1  0.500000  0.767047  0.000000  1
