# generated using pymatgen
data_Ca4TaFe2RuO12
_symmetry_space_group_name_H-M   'P 1'
_cell_length_a   5.45580592
_cell_length_b   5.59532004
_cell_length_c   7.79030079
_cell_angle_alpha   90.40923505
_cell_angle_beta   90.04047605
_cell_angle_gamma   89.96581129
_symmetry_Int_Tables_number   1
_chemical_formula_structural   Ca4TaFe2RuO12
_chemical_formula_sum   'Ca4 Ta1 Fe2 Ru1 O12'
_cell_volume   237.80819117
_cell_formula_units_Z   1
loop_
 _symmetry_equiv_pos_site_id
 _symmetry_equiv_pos_as_xyz
  1  'x, y, z'
loop_
 _atom_site_type_symbol
 _atom_site_label
 _atom_site_symmetry_multiplicity
 _atom_site_fract_x
 _atom_site_fract_y
 _atom_site_fract_z
 _atom_site_occupancy
  Ca  Ca0  1  0.509388  0.552701  0.753671  1
  Ca  Ca1  1  0.490610  0.447301  0.246326  1
  Ca  Ca2  1  0.987718  0.048206  0.754991  1
  Ca  Ca3  1  0.012281  0.951786  0.245006  1
  Ta  Ta4  1  0.999997  0.499997  0.499998  1
  Fe  Fe5  1  0.000010  0.500034  0.000003  1
  Fe  Fe6  1  0.500005  0.000002  0.500010  1
  Ru  Ru7  1  0.499999  0.000000  0.999999  1
  O  O8  1  0.410437  0.973734  0.754078  1
  O  O9  1  0.914575  0.524920  0.250705  1
  O  O10  1  0.085426  0.475071  0.749293  1
  O  O11  1  0.589563  0.026263  0.245920  1
  O  O12  1  0.205611  0.201408  0.045402  1
  O  O13  1  0.199922  0.206228  0.453492  1
  O  O14  1  0.698164  0.291862  0.953412  1
  O  O15  1  0.800079  0.793772  0.546506  1
  O  O16  1  0.295744  0.701326  0.455843  1
  O  O17  1  0.794384  0.798582  0.954597  1
  O  O18  1  0.704252  0.298672  0.544157  1
  O  O19  1  0.301834  0.708131  0.046584  1
