# generated using pymatgen
data_K6TmLuSb4
_symmetry_space_group_name_H-M   'P 1'
_cell_length_a   9.90221996
_cell_length_b   9.90221993
_cell_length_c   9.90221974
_cell_angle_alpha   129.32693690
_cell_angle_beta   69.61598586
_cell_angle_gamma   135.60763131
_symmetry_Int_Tables_number   1
_chemical_formula_structural   K6TmLuSb4
_chemical_formula_sum   'K6 Tm1 Lu1 Sb4'
_cell_volume   515.52843367
_cell_formula_units_Z   1
loop_
 _symmetry_equiv_pos_site_id
 _symmetry_equiv_pos_as_xyz
  1  'x, y, z'
loop_
 _atom_site_type_symbol
 _atom_site_label
 _atom_site_symmetry_multiplicity
 _atom_site_fract_x
 _atom_site_fract_y
 _atom_site_fract_z
 _atom_site_occupancy
  K  K0  1  0.314571  0.701780  0.016232  1
  K  K1  1  0.185429  0.201663  0.387209  1
  K  K2  1  0.750000  0.250000  0.500000  1
  K  K3  1  0.250000  0.749999  0.499999  1
  K  K4  1  0.814454  0.798221  0.612792  1
  K  K5  1  0.685546  0.298338  0.983769  1
  Tm  Tm6  1  0.250000  0.250000  0.000000  1
  Lu  Lu7  1  0.750000  0.750000  0.000000  1
  Sb  Sb8  1  0.897413  0.198081  0.096920  1
  Sb  Sb9  1  0.602588  0.699509  0.300669  1
  Sb  Sb10  1  0.398839  0.301918  0.699330  1
  Sb  Sb11  1  0.101161  0.800491  0.903079  1
