# generated using pymatgen
data_LaTaP7Ru12
_symmetry_space_group_name_H-M   'P 1'
_cell_length_a   9.43659200
_cell_length_b   9.43659116
_cell_length_c   3.91679600
_cell_angle_alpha   90.00000000
_cell_angle_beta   90.00000000
_cell_angle_gamma   120.00000202
_symmetry_Int_Tables_number   1
_chemical_formula_structural   LaTaP7Ru12
_chemical_formula_sum   'La1 Ta1 P7 Ru12'
_cell_volume   302.05907859
_cell_formula_units_Z   1
loop_
 _symmetry_equiv_pos_site_id
 _symmetry_equiv_pos_as_xyz
  1  'x, y, z'
loop_
 _atom_site_type_symbol
 _atom_site_label
 _atom_site_symmetry_multiplicity
 _atom_site_fract_x
 _atom_site_fract_y
 _atom_site_fract_z
 _atom_site_occupancy
  La  La0  1  0.333333  0.666667  0.000000  1
  Ta  Ta1  1  0.666667  0.333333  0.500000  1
  P  P2  1  0.604687  0.719789  0.500000  1
  P  P3  1  0.000000  0.000000  0.000000  1
  P  P4  1  0.280211  0.884899  0.500000  1
  P  P5  1  0.115101  0.395313  0.500000  1
  P  P6  1  0.887459  0.571166  0.000000  1
  P  P7  1  0.428834  0.316294  0.000000  1
  P  P8  1  0.683706  0.112541  0.000000  1
  Ru  Ru9  1  0.562197  0.963967  0.500000  1
  Ru  Ru10  1  0.401771  0.437803  0.500000  1
  Ru  Ru11  1  0.913289  0.121158  0.500000  1
  Ru  Ru12  1  0.207869  0.086711  0.500000  1
  Ru  Ru13  1  0.878842  0.792131  0.500000  1
  Ru  Ru14  1  0.726764  0.889039  0.000000  1
  Ru  Ru15  1  0.110961  0.837724  0.000000  1
  Ru  Ru16  1  0.162276  0.273236  0.000000  1
  Ru  Ru17  1  0.429805  0.081705  0.000000  1
  Ru  Ru18  1  0.918295  0.348101  0.000000  1
  Ru  Ru19  1  0.651899  0.570195  0.000000  1
  Ru  Ru20  1  0.036033  0.598229  0.500000  1
