# generated using pymatgen
data_Nd6Ga4Pd9Pt4
_symmetry_space_group_name_H-M   'P 1'
_cell_length_a   8.40965936
_cell_length_b   8.40965833
_cell_length_c   8.40224900
_cell_angle_alpha   109.45336926
_cell_angle_beta   109.45336679
_cell_angle_gamma   109.48907105
_symmetry_Int_Tables_number   1
_chemical_formula_structural   Nd6Ga4Pd9Pt4
_chemical_formula_sum   'Nd6 Ga4 Pd9 Pt4'
_cell_volume   457.53680133
_cell_formula_units_Z   1
loop_
 _symmetry_equiv_pos_site_id
 _symmetry_equiv_pos_as_xyz
  1  'x, y, z'
loop_
 _atom_site_type_symbol
 _atom_site_label
 _atom_site_symmetry_multiplicity
 _atom_site_fract_x
 _atom_site_fract_y
 _atom_site_fract_z
 _atom_site_occupancy
  Nd  Nd0  1  0.700994  0.700994  0.001981  1
  Nd  Nd1  1  0.299006  0.000000  0.300987  1
  Nd  Nd2  1  0.000000  0.299006  0.300987  1
  Nd  Nd3  1  0.301178  0.301178  0.998831  1
  Nd  Nd4  1  0.698822  0.000000  0.697652  1
  Nd  Nd5  1  0.000000  0.698822  0.697652  1
  Ga  Ga6  1  0.000000  0.000000  0.499922  1
  Ga  Ga7  1  0.000000  0.500242  0.000040  1
  Ga  Ga8  1  0.500242  0.000000  0.000040  1
  Ga  Ga9  1  0.499758  0.499758  0.499798  1
  Pd  Pd10  1  0.674824  0.324817  0.001302  1
  Pd  Pd11  1  0.325176  0.649992  0.326479  1
  Pd  Pd12  1  0.000000  0.326393  0.676755  1
  Pd  Pd13  1  0.324817  0.674824  0.001302  1
  Pd  Pd14  1  0.326393  0.000000  0.676755  1
  Pd  Pd15  1  0.649992  0.325176  0.326479  1
  Pd  Pd16  1  0.673607  0.673607  0.350362  1
  Pd  Pd17  1  0.675183  0.350008  0.676486  1
  Pd  Pd18  1  0.350008  0.675183  0.676486  1
  Pt  Pt19  1  0.323255  0.323255  0.646545  1
  Pt  Pt20  1  0.676745  0.000000  0.323291  1
  Pt  Pt21  1  0.000000  0.676745  0.323291  1
  Pt  Pt22  1  0.000000  0.000000  0.996576  1
