# generated using pymatgen
data_Dy3Y17(Ir2Ru)4
_symmetry_space_group_name_H-M   'P 1'
_cell_length_a   10.87415400
_cell_length_b   10.87415400
_cell_length_c   6.44931700
_cell_angle_alpha   90.00000000
_cell_angle_beta   90.00000000
_cell_angle_gamma   90.00000000
_symmetry_Int_Tables_number   1
_chemical_formula_structural   Dy3Y17(Ir2Ru)4
_chemical_formula_sum   'Dy3 Y17 Ir8 Ru4'
_cell_volume   762.61383979
_cell_formula_units_Z   1
loop_
 _symmetry_equiv_pos_site_id
 _symmetry_equiv_pos_as_xyz
  1  'x, y, z'
loop_
 _atom_site_type_symbol
 _atom_site_label
 _atom_site_symmetry_multiplicity
 _atom_site_fract_x
 _atom_site_fract_y
 _atom_site_fract_z
 _atom_site_occupancy
  Dy  Dy0  1  0.000000  0.000000  0.000000  1
  Dy  Dy1  1  0.500000  0.500000  0.000000  1
  Dy  Dy2  1  0.500000  0.500000  0.500000  1
  Y  Y3  1  0.293531  0.086978  0.378390  1
  Y  Y4  1  0.293474  0.913105  0.878362  1
  Y  Y5  1  0.706526  0.086895  0.878362  1
  Y  Y6  1  0.706469  0.913022  0.378390  1
  Y  Y7  1  0.586834  0.793462  0.878386  1
  Y  Y8  1  0.586903  0.206541  0.378419  1
  Y  Y9  1  0.413097  0.793459  0.378419  1
  Y  Y10  1  0.413166  0.206538  0.878386  1
  Y  Y11  1  0.206541  0.413097  0.621581  1
  Y  Y12  1  0.206538  0.586834  0.121614  1
  Y  Y13  1  0.793462  0.413166  0.121614  1
  Y  Y14  1  0.793459  0.586903  0.621581  1
  Y  Y15  1  0.913105  0.706526  0.121638  1
  Y  Y16  1  0.913022  0.293531  0.621610  1
  Y  Y17  1  0.086978  0.706469  0.621610  1
  Y  Y18  1  0.086895  0.293474  0.121638  1
  Y  Y19  1  0.000000  0.000000  0.500000  1
  Ir  Ir20  1  0.847709  0.152317  0.249488  1
  Ir  Ir21  1  0.847683  0.847709  0.750512  1
  Ir  Ir22  1  0.152317  0.152291  0.750512  1
  Ir  Ir23  1  0.152291  0.847683  0.249488  1
  Ir  Ir24  1  0.652036  0.347960  0.750095  1
  Ir  Ir25  1  0.652040  0.652036  0.249905  1
  Ir  Ir26  1  0.347960  0.347964  0.249905  1
  Ir  Ir27  1  0.347964  0.652040  0.750095  1
  Ru  Ru28  1  0.500000  0.000000  0.123865  1
  Ru  Ru29  1  0.500000  0.000000  0.623874  1
  Ru  Ru30  1  0.000000  0.500000  0.876135  1
  Ru  Ru31  1  0.000000  0.500000  0.376126  1
