# generated using pymatgen
data_AcZnIr4
_symmetry_space_group_name_H-M   'P 1'
_cell_length_a   5.48503300
_cell_length_b   5.48503282
_cell_length_c   4.25043300
_cell_angle_alpha   90.00000000
_cell_angle_beta   90.00000000
_cell_angle_gamma   119.99999505
_symmetry_Int_Tables_number   1
_chemical_formula_structural   AcZnIr4
_chemical_formula_sum   'Ac1 Zn1 Ir4'
_cell_volume   110.74453488
_cell_formula_units_Z   1
loop_
 _symmetry_equiv_pos_site_id
 _symmetry_equiv_pos_as_xyz
  1  'x, y, z'
loop_
 _atom_site_type_symbol
 _atom_site_label
 _atom_site_symmetry_multiplicity
 _atom_site_fract_x
 _atom_site_fract_y
 _atom_site_fract_z
 _atom_site_occupancy
  Ac  Ac0  1  0.000000  0.000000  0.000000  1
  Zn  Zn1  1  0.666667  0.333333  0.000000  1
  Ir  Ir2  1  0.998227  0.499113  0.500000  1
  Ir  Ir3  1  0.333333  0.666667  0.000000  1
  Ir  Ir4  1  0.500887  0.001773  0.500000  1
  Ir  Ir5  1  0.500887  0.499113  0.500000  1
