# generated using pymatgen
data_Sc6Al9IrRh2
_symmetry_space_group_name_H-M   'P 1'
_cell_length_a   9.25049400
_cell_length_b   9.25049317
_cell_length_c   8.46906900
_cell_angle_alpha   90.00000000
_cell_angle_beta   90.00000000
_cell_angle_gamma   119.99998866
_symmetry_Int_Tables_number   1
_chemical_formula_structural   Sc6Al9IrRh2
_chemical_formula_sum   'Sc12 Al18 Ir2 Rh4'
_cell_volume   627.61911947
_cell_formula_units_Z   2
loop_
 _symmetry_equiv_pos_site_id
 _symmetry_equiv_pos_as_xyz
  1  'x, y, z'
loop_
 _atom_site_type_symbol
 _atom_site_label
 _atom_site_symmetry_multiplicity
 _atom_site_fract_x
 _atom_site_fract_y
 _atom_site_fract_z
 _atom_site_occupancy
  Sc  Sc0  1  0.332256  0.000000  0.056195  1
  Sc  Sc1  1  0.667744  0.000000  0.943805  1
  Sc  Sc2  1  0.000000  0.332256  0.056195  1
  Sc  Sc3  1  0.667744  0.000000  0.556195  1
  Sc  Sc4  1  0.000000  0.332256  0.443805  1
  Sc  Sc5  1  0.000000  0.667744  0.943805  1
  Sc  Sc6  1  0.332256  0.000000  0.443805  1
  Sc  Sc7  1  0.000000  0.667744  0.556195  1
  Sc  Sc8  1  0.667744  0.667744  0.056195  1
  Sc  Sc9  1  0.332256  0.332256  0.943805  1
  Sc  Sc10  1  0.332256  0.332256  0.556195  1
  Sc  Sc11  1  0.667744  0.667744  0.443805  1
  Al  Al12  1  0.166651  0.500307  0.750000  1
  Al  Al13  1  0.833349  0.499693  0.250000  1
  Al  Al14  1  0.499693  0.666344  0.750000  1
  Al  Al15  1  0.500307  0.166651  0.750000  1
  Al  Al16  1  0.500307  0.333656  0.250000  1
  Al  Al17  1  0.499693  0.833349  0.250000  1
  Al  Al18  1  0.333656  0.833349  0.750000  1
  Al  Al19  1  0.666344  0.499693  0.750000  1
  Al  Al20  1  0.666344  0.166651  0.250000  1
  Al  Al21  1  0.333656  0.500307  0.250000  1
  Al  Al22  1  0.833349  0.333656  0.750000  1
  Al  Al23  1  0.166651  0.666344  0.250000  1
  Al  Al24  1  0.166792  0.000000  0.750000  1
  Al  Al25  1  0.833208  0.000000  0.250000  1
  Al  Al26  1  0.000000  0.166792  0.750000  1
  Al  Al27  1  0.000000  0.833208  0.250000  1
  Al  Al28  1  0.833208  0.833208  0.750000  1
  Al  Al29  1  0.166792  0.166792  0.250000  1
  Ir  Ir30  1  0.000000  0.000000  0.500000  1
  Ir  Ir31  1  0.000000  0.000000  0.000000  1
  Rh  Rh32  1  0.333333  0.666667  0.500000  1
  Rh  Rh33  1  0.666667  0.333333  0.500000  1
  Rh  Rh34  1  0.666667  0.333333  0.000000  1
  Rh  Rh35  1  0.333333  0.666667  0.000000  1
