# generated using pymatgen
data_Sc4Si6IrRh6
_symmetry_space_group_name_H-M   'P 1'
_cell_length_a   6.96889890
_cell_length_b   6.96889849
_cell_length_c   6.96889900
_cell_angle_alpha   109.47121922
_cell_angle_beta   109.47121802
_cell_angle_gamma   109.47122034
_symmetry_Int_Tables_number   1
_chemical_formula_structural   Sc4Si6IrRh6
_chemical_formula_sum   'Sc4 Si6 Ir1 Rh6'
_cell_volume   260.53771829
_cell_formula_units_Z   1
loop_
 _symmetry_equiv_pos_site_id
 _symmetry_equiv_pos_as_xyz
  1  'x, y, z'
loop_
 _atom_site_type_symbol
 _atom_site_label
 _atom_site_symmetry_multiplicity
 _atom_site_fract_x
 _atom_site_fract_y
 _atom_site_fract_z
 _atom_site_occupancy
  Sc  Sc0  1  0.000000  0.000000  0.500000  1
  Sc  Sc1  1  0.000000  0.500000  0.000000  1
  Sc  Sc2  1  0.500000  0.000000  0.000000  1
  Sc  Sc3  1  0.500000  0.500000  0.500000  1
  Si  Si4  1  0.680672  0.680672  0.000000  1
  Si  Si5  1  0.319328  0.000000  0.319328  1
  Si  Si6  1  0.000000  0.319328  0.319328  1
  Si  Si7  1  0.319328  0.319328  0.000000  1
  Si  Si8  1  0.680672  0.000000  0.680672  1
  Si  Si9  1  0.000000  0.680672  0.680672  1
  Ir  Ir10  1  0.000000  0.000000  0.000000  1
  Rh  Rh11  1  0.750000  0.250000  0.500000  1
  Rh  Rh12  1  0.750000  0.500000  0.250000  1
  Rh  Rh13  1  0.500000  0.250000  0.750000  1
  Rh  Rh14  1  0.250000  0.500000  0.750000  1
  Rh  Rh15  1  0.250000  0.750000  0.500000  1
  Rh  Rh16  1  0.500000  0.750000  0.250000  1
