# generated using pymatgen
data_CaFeCo4As3
_symmetry_space_group_name_H-M   'P 1'
_cell_length_a   3.84310000
_cell_length_b   10.74079500
_cell_length_c   12.27473800
_cell_angle_alpha   90.00000000
_cell_angle_beta   90.00000000
_cell_angle_gamma   90.00000000
_symmetry_Int_Tables_number   1
_chemical_formula_structural   CaFeCo4As3
_chemical_formula_sum   'Ca4 Fe4 Co16 As12'
_cell_volume   506.67601240
_cell_formula_units_Z   4
loop_
 _symmetry_equiv_pos_site_id
 _symmetry_equiv_pos_as_xyz
  1  'x, y, z'
loop_
 _atom_site_type_symbol
 _atom_site_label
 _atom_site_symmetry_multiplicity
 _atom_site_fract_x
 _atom_site_fract_y
 _atom_site_fract_z
 _atom_site_occupancy
  Ca  Ca0  1  0.250000  0.580649  0.702383  1
  Ca  Ca1  1  0.250000  0.919351  0.202383  1
  Ca  Ca2  1  0.750000  0.419351  0.297617  1
  Ca  Ca3  1  0.750000  0.080649  0.797617  1
  Fe  Fe4  1  0.250000  0.705854  0.988441  1
  Fe  Fe5  1  0.250000  0.794146  0.488441  1
  Fe  Fe6  1  0.750000  0.294146  0.011559  1
  Fe  Fe7  1  0.750000  0.205854  0.511559  1
  Co  Co8  1  0.250000  0.405984  0.489016  1
  Co  Co9  1  0.250000  0.094016  0.989016  1
  Co  Co10  1  0.750000  0.594016  0.510984  1
  Co  Co11  1  0.750000  0.905984  0.010984  1
  Co  Co12  1  0.250000  0.215345  0.175959  1
  Co  Co13  1  0.250000  0.284655  0.675959  1
  Co  Co14  1  0.750000  0.784655  0.824041  1
  Co  Co15  1  0.750000  0.715345  0.324041  1
  Co  Co16  1  0.250000  0.881004  0.695690  1
  Co  Co17  1  0.250000  0.618996  0.195690  1
  Co  Co18  1  0.750000  0.118996  0.304310  1
  Co  Co19  1  0.750000  0.381004  0.804310  1
  Co  Co20  1  0.250000  0.467878  0.933798  1
  Co  Co21  1  0.250000  0.032122  0.433798  1
  Co  Co22  1  0.750000  0.532122  0.066202  1
  Co  Co23  1  0.750000  0.967878  0.566202  1
  As  As24  1  0.250000  0.417296  0.115530  1
  As  As25  1  0.250000  0.082704  0.615530  1
  As  As26  1  0.750000  0.582704  0.884470  1
  As  As27  1  0.750000  0.917296  0.384470  1
  As  As28  1  0.250000  0.268366  0.868105  1
  As  As29  1  0.250000  0.231634  0.368105  1
  As  As30  1  0.750000  0.731634  0.131895  1
  As  As31  1  0.750000  0.768366  0.631895  1
  As  As32  1  0.250000  0.600854  0.391670  1
  As  As33  1  0.250000  0.899146  0.891670  1
  As  As34  1  0.750000  0.399146  0.608330  1
  As  As35  1  0.750000  0.100854  0.108330  1
