# generated using pymatgen
data_Tb12Th4Mg4Co3Ru
_symmetry_space_group_name_H-M   'P 1'
_cell_length_a   9.72037286
_cell_length_b   9.69489429
_cell_length_c   9.69489400
_cell_angle_alpha   60.00000099
_cell_angle_beta   60.08667017
_cell_angle_gamma   60.08667357
_symmetry_Int_Tables_number   1
_chemical_formula_structural   Tb12Th4Mg4Co3Ru
_chemical_formula_sum   'Tb12 Th4 Mg4 Co3 Ru1'
_cell_volume   646.87710056
_cell_formula_units_Z   1
loop_
 _symmetry_equiv_pos_site_id
 _symmetry_equiv_pos_as_xyz
  1  'x, y, z'
loop_
 _atom_site_type_symbol
 _atom_site_label
 _atom_site_symmetry_multiplicity
 _atom_site_fract_x
 _atom_site_fract_y
 _atom_site_fract_z
 _atom_site_occupancy
  Tb  Tb0  1  0.066810  0.437019  0.437019  1
  Tb  Tb1  1  0.438091  0.062827  0.062827  1
  Tb  Tb2  1  0.438091  0.062827  0.436256  1
  Tb  Tb3  1  0.066810  0.437019  0.059151  1
  Tb  Tb4  1  0.438091  0.436256  0.062827  1
  Tb  Tb5  1  0.066810  0.059151  0.437019  1
  Tb  Tb6  1  0.185446  0.814504  0.814504  1
  Tb  Tb7  1  0.816291  0.185963  0.185963  1
  Tb  Tb8  1  0.816291  0.185963  0.811781  1
  Tb  Tb9  1  0.185446  0.814504  0.185545  1
  Tb  Tb10  1  0.816291  0.811781  0.185963  1
  Tb  Tb11  1  0.185446  0.185545  0.814504  1
  Th  Th12  1  0.588906  0.597469  0.597469  1
  Th  Th13  1  0.588906  0.597469  0.216159  1
  Th  Th14  1  0.588906  0.216159  0.597469  1
  Th  Th15  1  0.216845  0.594386  0.594386  1
  Mg  Mg16  1  0.830658  0.829790  0.829790  1
  Mg  Mg17  1  0.830658  0.829790  0.509761  1
  Mg  Mg18  1  0.830658  0.509761  0.829790  1
  Mg  Mg19  1  0.508920  0.830360  0.830360  1
  Co  Co20  1  0.392789  0.395469  0.395469  1
  Co  Co21  1  0.392789  0.395469  0.816272  1
  Co  Co22  1  0.392789  0.816272  0.395469  1
  Ru  Ru23  1  0.817264  0.394245  0.394245  1
