# generated using pymatgen
data_Sm2Dy2Tc3Os5
_symmetry_space_group_name_H-M   'P 1'
_cell_length_a   5.28859020
_cell_length_b   5.30674298
_cell_length_c   9.16898301
_cell_angle_alpha   90.00000339
_cell_angle_beta   89.99623264
_cell_angle_gamma   120.11361540
_symmetry_Int_Tables_number   1
_chemical_formula_structural   Sm2Dy2Tc3Os5
_chemical_formula_sum   'Sm2 Dy2 Tc3 Os5'
_cell_volume   222.59808341
_cell_formula_units_Z   1
loop_
 _symmetry_equiv_pos_site_id
 _symmetry_equiv_pos_as_xyz
  1  'x, y, z'
loop_
 _atom_site_type_symbol
 _atom_site_label
 _atom_site_symmetry_multiplicity
 _atom_site_fract_x
 _atom_site_fract_y
 _atom_site_fract_z
 _atom_site_occupancy
  Sm  Sm0  1  0.669953  0.334976  0.937651  1
  Sm  Sm1  1  0.337833  0.668917  0.063845  1
  Dy  Dy2  1  0.337844  0.668923  0.435870  1
  Dy  Dy3  1  0.669333  0.334666  0.562211  1
  Tc  Tc4  1  0.164582  0.332020  0.747062  1
  Tc  Tc5  1  0.164582  0.832562  0.747062  1
  Tc  Tc6  1  0.324034  0.162017  0.252685  1
  Os  Os7  1  0.825226  0.654246  0.253438  1
  Os  Os8  1  0.651854  0.825927  0.746455  1
  Os  Os9  1  0.014722  0.007361  0.001665  1
  Os  Os10  1  0.825226  0.170980  0.253438  1
  Os  Os11  1  0.014812  0.007406  0.498618  1
