# generated using pymatgen
data_Ti3Ga2CoN
_symmetry_space_group_name_H-M   'P 1'
_cell_length_a   8.00308400
_cell_length_b   8.00354224
_cell_length_c   8.00308400
_cell_angle_alpha   119.99810604
_cell_angle_beta   90.00000000
_cell_angle_gamma   119.99810604
_symmetry_Int_Tables_number   1
_chemical_formula_structural   Ti3Ga2CoN
_chemical_formula_sum   'Ti12 Ga8 Co4 N4'
_cell_volume   362.49903723
_cell_formula_units_Z   4
loop_
 _symmetry_equiv_pos_site_id
 _symmetry_equiv_pos_as_xyz
  1  'x, y, z'
loop_
 _atom_site_type_symbol
 _atom_site_label
 _atom_site_symmetry_multiplicity
 _atom_site_fract_x
 _atom_site_fract_y
 _atom_site_fract_z
 _atom_site_occupancy
  Ti  Ti0  1  0.936134  0.372269  0.186134  1
  Ti  Ti1  1  0.313863  0.750000  0.186137  1
  Ti  Ti2  1  0.936137  0.750000  0.186137  1
  Ti  Ti3  1  0.686137  0.250000  0.436137  1
  Ti  Ti4  1  0.686134  0.872269  0.436134  1
  Ti  Ti5  1  0.063863  0.250000  0.436137  1
  Ti  Ti6  1  0.313866  0.127731  0.563866  1
  Ti  Ti7  1  0.313863  0.750000  0.563863  1
  Ti  Ti8  1  0.936137  0.750000  0.563863  1
  Ti  Ti9  1  0.063863  0.250000  0.813863  1
  Ti  Ti10  1  0.686137  0.250000  0.813863  1
  Ti  Ti11  1  0.063866  0.627731  0.813866  1
  Ga  Ga12  1  0.709863  0.919727  0.129590  1
  Ga  Ga13  1  0.290137  0.080273  0.209863  1
  Ga  Ga14  1  0.290137  0.419727  0.209863  1
  Ga  Ga15  1  0.629590  0.419727  0.209863  1
  Ga  Ga16  1  0.370410  0.580273  0.790137  1
  Ga  Ga17  1  0.709863  0.580273  0.790137  1
  Ga  Ga18  1  0.709863  0.919727  0.790137  1
  Ga  Ga19  1  0.290137  0.080273  0.870410  1
  Co  Co20  1  0.000000  0.000000  0.000000  1
  Co  Co21  1  0.500000  0.000000  0.000000  1
  Co  Co22  1  0.500000  0.500000  0.000000  1
  Co  Co23  1  0.500000  0.500000  0.500000  1
  N  N24  1  0.000000  0.500000  0.000000  1
  N  N25  1  0.000000  0.000000  0.500000  1
  N  N26  1  0.500000  0.000000  0.500000  1
  N  N27  1  0.000000  0.500000  0.500000  1
