# generated using pymatgen
data_Rb2YbNiF6
_symmetry_space_group_name_H-M   'P 1'
_cell_length_a   6.04294089
_cell_length_b   6.04294047
_cell_length_c   6.04294000
_cell_angle_alpha   59.99999165
_cell_angle_beta   59.99999391
_cell_angle_gamma   60.00000000
_symmetry_Int_Tables_number   1
_chemical_formula_structural   Rb2YbNiF6
_chemical_formula_sum   'Rb2 Yb1 Ni1 F6'
_cell_volume   156.03782895
_cell_formula_units_Z   1
loop_
 _symmetry_equiv_pos_site_id
 _symmetry_equiv_pos_as_xyz
  1  'x, y, z'
loop_
 _atom_site_type_symbol
 _atom_site_label
 _atom_site_symmetry_multiplicity
 _atom_site_fract_x
 _atom_site_fract_y
 _atom_site_fract_z
 _atom_site_occupancy
  Rb  Rb0  1  0.250000  0.250000  0.250000  1
  Rb  Rb1  1  0.750000  0.750000  0.750000  1
  Yb  Yb2  1  0.500000  0.500000  0.500000  1
  Ni  Ni3  1  0.000000  0.000000  0.000000  1
  F  F4  1  0.239959  0.760041  0.239959  1
  F  F5  1  0.760041  0.760041  0.239959  1
  F  F6  1  0.760041  0.239959  0.760041  1
  F  F7  1  0.760041  0.239959  0.239959  1
  F  F8  1  0.239959  0.760041  0.760041  1
  F  F9  1  0.239959  0.239959  0.760041  1
