# generated using pymatgen
data_Tm5InAu4
_symmetry_space_group_name_H-M   'P 1'
_cell_length_a   8.01062300
_cell_length_b   8.01062300
_cell_length_c   3.68540300
_cell_angle_alpha   90.00000000
_cell_angle_beta   90.00000000
_cell_angle_gamma   90.00000000
_symmetry_Int_Tables_number   1
_chemical_formula_structural   Tm5InAu4
_chemical_formula_sum   'Tm5 In1 Au4'
_cell_volume   236.49260847
_cell_formula_units_Z   1
loop_
 _symmetry_equiv_pos_site_id
 _symmetry_equiv_pos_as_xyz
  1  'x, y, z'
loop_
 _atom_site_type_symbol
 _atom_site_label
 _atom_site_symmetry_multiplicity
 _atom_site_fract_x
 _atom_site_fract_y
 _atom_site_fract_z
 _atom_site_occupancy
  Tm  Tm0  1  0.683793  0.143377  0.500000  1
  Tm  Tm1  1  0.316207  0.856623  0.500000  1
  Tm  Tm2  1  0.143377  0.316207  0.500000  1
  Tm  Tm3  1  0.856623  0.683793  0.500000  1
  Tm  Tm4  1  0.500000  0.500000  0.000000  1
  In  In5  1  0.000000  0.000000  0.000000  1
  Au  Au6  1  0.145760  0.618931  0.000000  1
  Au  Au7  1  0.854240  0.381069  0.000000  1
  Au  Au8  1  0.618931  0.854240  0.000000  1
  Au  Au9  1  0.381069  0.145760  0.000000  1
