# generated using pymatgen
data_CaLa2(TmSi2)2
_symmetry_space_group_name_H-M   'P 1'
_cell_length_a   7.84936100
_cell_length_b   7.84936100
_cell_length_c   14.32165400
_cell_angle_alpha   90.00000000
_cell_angle_beta   90.00000000
_cell_angle_gamma   90.00000000
_symmetry_Int_Tables_number   1
_chemical_formula_structural   CaLa2(TmSi2)2
_chemical_formula_sum   'Ca4 La8 Tm8 Si16'
_cell_volume   882.39245033
_cell_formula_units_Z   4
loop_
 _symmetry_equiv_pos_site_id
 _symmetry_equiv_pos_as_xyz
  1  'x, y, z'
loop_
 _atom_site_type_symbol
 _atom_site_label
 _atom_site_symmetry_multiplicity
 _atom_site_fract_x
 _atom_site_fract_y
 _atom_site_fract_z
 _atom_site_occupancy
  Ca  Ca0  1  0.686392  0.686392  0.500000  1
  Ca  Ca1  1  0.813608  0.186392  0.750000  1
  Ca  Ca2  1  0.186392  0.813608  0.250000  1
  Ca  Ca3  1  0.313608  0.313608  0.000000  1
  La  La4  1  0.989423  0.638585  0.040391  1
  La  La5  1  0.010577  0.361415  0.540391  1
  La  La6  1  0.638585  0.989423  0.959609  1
  La  La7  1  0.138585  0.510577  0.790391  1
  La  La8  1  0.861415  0.489423  0.290391  1
  La  La9  1  0.510577  0.138585  0.209609  1
  La  La10  1  0.489423  0.861415  0.709609  1
  La  La11  1  0.361415  0.010577  0.459609  1
  Tm  Tm12  1  0.365286  0.492741  0.376764  1
  Tm  Tm13  1  0.865286  0.007259  0.373236  1
  Tm  Tm14  1  0.992741  0.134714  0.126764  1
  Tm  Tm15  1  0.007259  0.865286  0.626764  1
  Tm  Tm16  1  0.634714  0.507259  0.876764  1
  Tm  Tm17  1  0.492741  0.365286  0.623236  1
  Tm  Tm18  1  0.507259  0.634714  0.123236  1
  Tm  Tm19  1  0.134714  0.992741  0.873236  1
  Si  Si20  1  0.074237  0.713716  0.440715  1
  Si  Si21  1  0.925763  0.286284  0.940715  1
  Si  Si22  1  0.713716  0.074237  0.559285  1
  Si  Si23  1  0.213717  0.425763  0.190715  1
  Si  Si24  1  0.786284  0.574237  0.690715  1
  Si  Si25  1  0.425763  0.213717  0.809285  1
  Si  Si26  1  0.574237  0.786284  0.309285  1
  Si  Si27  1  0.286284  0.925763  0.059285  1
  Si  Si28  1  0.848686  0.787695  0.812616  1
  Si  Si29  1  0.151314  0.212305  0.312616  1
  Si  Si30  1  0.787695  0.848686  0.187384  1
  Si  Si31  1  0.287695  0.651314  0.562616  1
  Si  Si32  1  0.712305  0.348686  0.062616  1
  Si  Si33  1  0.651314  0.287695  0.437384  1
  Si  Si34  1  0.348686  0.712305  0.937384  1
  Si  Si35  1  0.212305  0.151314  0.687384  1
