# generated using pymatgen
data_Nd2DyY(B6Os)2
_symmetry_space_group_name_H-M   'P 1'
_cell_length_a   3.70963500
_cell_length_b   9.25711800
_cell_length_c   11.67848801
_cell_angle_alpha   90.00385170
_cell_angle_beta   90.00000000
_cell_angle_gamma   90.00000000
_symmetry_Int_Tables_number   1
_chemical_formula_structural   Nd2DyY(B6Os)2
_chemical_formula_sum   'Nd4 Dy2 Y2 B24 Os4'
_cell_volume   401.04545461
_cell_formula_units_Z   2
loop_
 _symmetry_equiv_pos_site_id
 _symmetry_equiv_pos_as_xyz
  1  'x, y, z'
loop_
 _atom_site_type_symbol
 _atom_site_label
 _atom_site_symmetry_multiplicity
 _atom_site_fract_x
 _atom_site_fract_y
 _atom_site_fract_z
 _atom_site_occupancy
  Nd  Nd0  1  0.000000  0.322869  0.414162  1
  Nd  Nd1  1  0.000000  0.677131  0.585838  1
  Nd  Nd2  1  0.000000  0.822765  0.085788  1
  Nd  Nd3  1  0.000000  0.177235  0.914212  1
  Dy  Dy4  1  0.000000  0.444280  0.127764  1
  Dy  Dy5  1  0.000000  0.555720  0.872236  1
  Y  Y6  1  0.000000  0.944410  0.372599  1
  Y  Y7  1  0.000000  0.055590  0.627401  1
  B  B8  1  0.500000  0.556192  0.430480  1
  B  B9  1  0.500000  0.443808  0.569520  1
  B  B10  1  0.500000  0.056203  0.069495  1
  B  B11  1  0.500000  0.943797  0.930505  1
  B  B12  1  0.500000  0.748991  0.417501  1
  B  B13  1  0.500000  0.251009  0.582499  1
  B  B14  1  0.500000  0.249192  0.082500  1
  B  B15  1  0.500000  0.750808  0.917500  1
  B  B16  1  0.500000  0.790328  0.266871  1
  B  B17  1  0.500000  0.209672  0.733129  1
  B  B18  1  0.500000  0.290399  0.232998  1
  B  B19  1  0.500000  0.709601  0.767002  1
  B  B20  1  0.500000  0.631182  0.185463  1
  B  B21  1  0.500000  0.368818  0.814537  1
  B  B22  1  0.500000  0.131353  0.314423  1
  B  B23  1  0.500000  0.868647  0.685577  1
  B  B24  1  0.500000  0.986085  0.213771  1
  B  B25  1  0.500000  0.013915  0.786229  1
  B  B26  1  0.500000  0.486085  0.286104  1
  B  B27  1  0.500000  0.513915  0.713896  1
  B  B28  1  0.500000  0.604085  0.028489  1
  B  B29  1  0.500000  0.395915  0.971511  1
  B  B30  1  0.500000  0.104479  0.471414  1
  B  B31  1  0.500000  0.895521  0.528586  1
  Os  Os32  1  0.000000  0.639020  0.319811  1
  Os  Os33  1  0.000000  0.360980  0.680189  1
  Os  Os34  1  0.000000  0.139222  0.180084  1
  Os  Os35  1  0.000000  0.860778  0.819916  1
