# generated using pymatgen
data_Nd3PaIn2Rh3
_symmetry_space_group_name_H-M   'P 1'
_cell_length_a   7.44826900
_cell_length_b   7.55952703
_cell_length_c   4.36050700
_cell_angle_alpha   90.00000000
_cell_angle_beta   90.00000000
_cell_angle_gamma   119.51433294
_symmetry_Int_Tables_number   1
_chemical_formula_structural   Nd3PaIn2Rh3
_chemical_formula_sum   'Nd3 Pa1 In2 Rh3'
_cell_volume   213.65952421
_cell_formula_units_Z   1
loop_
 _symmetry_equiv_pos_site_id
 _symmetry_equiv_pos_as_xyz
  1  'x, y, z'
loop_
 _atom_site_type_symbol
 _atom_site_label
 _atom_site_symmetry_multiplicity
 _atom_site_fract_x
 _atom_site_fract_y
 _atom_site_fract_z
 _atom_site_occupancy
  Nd  Nd0  1  0.624832  0.000000  0.500000  1
  Nd  Nd1  1  0.408272  0.436007  0.500000  1
  Nd  Nd2  1  0.972266  0.563993  0.500000  1
  Pa  Pa3  1  0.268568  0.000000  0.000000  1
  In  In4  1  0.750679  0.746910  0.000000  1
  In  In5  1  0.003769  0.253090  0.000000  1
  Rh  Rh6  1  0.026789  0.000000  0.500000  1
  Rh  Rh7  1  0.319588  0.694351  0.000000  1
  Rh  Rh8  1  0.625238  0.305649  0.000000  1
