# generated using pymatgen
data_Tb6Y4Si6C
_symmetry_space_group_name_H-M   'P 1'
_cell_length_a   8.50354304
_cell_length_b   8.50246522
_cell_length_c   6.41578203
_cell_angle_alpha   89.99452208
_cell_angle_beta   90.01095444
_cell_angle_gamma   120.00418956
_symmetry_Int_Tables_number   1
_chemical_formula_structural   Tb6Y4Si6C
_chemical_formula_sum   'Tb6 Y4 Si6 C1'
_cell_volume   401.70447217
_cell_formula_units_Z   1
loop_
 _symmetry_equiv_pos_site_id
 _symmetry_equiv_pos_as_xyz
  1  'x, y, z'
loop_
 _atom_site_type_symbol
 _atom_site_label
 _atom_site_symmetry_multiplicity
 _atom_site_fract_x
 _atom_site_fract_y
 _atom_site_fract_z
 _atom_site_occupancy
  Tb  Tb0  1  0.333376  0.666693  0.500045  1
  Tb  Tb1  1  0.666684  0.333307  0.500045  1
  Tb  Tb2  1  0.666692  0.333313  0.999971  1
  Tb  Tb3  1  0.333378  0.666687  0.999971  1
  Tb  Tb4  1  0.999973  0.764186  0.270954  1
  Tb  Tb5  1  0.235787  0.235814  0.270954  1
  Y  Y6  1  0.764139  0.000000  0.271080  1
  Y  Y7  1  0.999983  0.235833  0.728986  1
  Y  Y8  1  0.764150  0.764167  0.728986  1
  Y  Y9  1  0.235818  0.000000  0.728923  1
  Si  Si10  1  0.999912  0.398689  0.253321  1
  Si  Si11  1  0.601223  0.601311  0.253321  1
  Si  Si12  1  0.398921  0.000000  0.253326  1
  Si  Si13  1  0.999983  0.601318  0.746658  1
  Si  Si14  1  0.398665  0.398682  0.746658  1
  Si  Si15  1  0.601279  0.000000  0.746666  1
  C  C16  1  0.000038  0.000000  0.500135  1
