# generated using pymatgen
data_Ce2CuSi4Rh
_symmetry_space_group_name_H-M   'P 1'
_cell_length_a   8.59754086
_cell_length_b   8.59754231
_cell_length_c   4.10411200
_cell_angle_alpha   90.00000000
_cell_angle_beta   90.00000000
_cell_angle_gamma   151.56813887
_symmetry_Int_Tables_number   1
_chemical_formula_structural   Ce2CuSi4Rh
_chemical_formula_sum   'Ce2 Cu1 Si4 Rh1'
_cell_volume   144.43687390
_cell_formula_units_Z   1
loop_
 _symmetry_equiv_pos_site_id
 _symmetry_equiv_pos_as_xyz
  1  'x, y, z'
loop_
 _atom_site_type_symbol
 _atom_site_label
 _atom_site_symmetry_multiplicity
 _atom_site_fract_x
 _atom_site_fract_y
 _atom_site_fract_z
 _atom_site_occupancy
  Ce  Ce0  1  0.601420  0.398580  0.250000  1
  Ce  Ce1  1  0.390770  0.609230  0.750000  1
  Cu  Cu2  1  0.824813  0.175187  0.250000  1
  Si  Si3  1  0.963528  0.036472  0.250000  1
  Si  Si4  1  0.037597  0.962403  0.750000  1
  Si  Si5  1  0.253262  0.746738  0.250000  1
  Si  Si6  1  0.748210  0.251790  0.750000  1
  Rh  Rh7  1  0.180401  0.819599  0.750000  1
