# generated using pymatgen
data_Tb2DyTm9Co4BiRu
_symmetry_space_group_name_H-M   'P 1'
_cell_length_a   8.24498789
_cell_length_b   8.24498690
_cell_length_c   8.23506386
_cell_angle_alpha   110.79421293
_cell_angle_beta   111.03054412
_cell_angle_gamma   106.67730534
_symmetry_Int_Tables_number   1
_chemical_formula_structural   Tb2DyTm9Co4BiRu
_chemical_formula_sum   'Tb2 Dy1 Tm9 Co4 Bi1 Ru1'
_cell_volume   429.89499385
_cell_formula_units_Z   1
loop_
 _symmetry_equiv_pos_site_id
 _symmetry_equiv_pos_as_xyz
  1  'x, y, z'
loop_
 _atom_site_type_symbol
 _atom_site_label
 _atom_site_symmetry_multiplicity
 _atom_site_fract_x
 _atom_site_fract_y
 _atom_site_fract_z
 _atom_site_occupancy
  Tb  Tb0  1  0.284533  0.183902  0.468436  1
  Tb  Tb1  1  0.715834  0.816832  0.532665  1
  Dy  Dy2  1  0.284177  0.815180  0.099356  1
  Tm  Tm3  1  0.716904  0.183632  0.900537  1
  Tm  Tm4  1  0.621418  0.311184  0.308750  1
  Tm  Tm5  1  0.379162  0.689367  0.690888  1
  Tm  Tm6  1  0.001521  0.311726  0.690888  1
  Tm  Tm7  1  0.997568  0.687333  0.308750  1
  Tm  Tm8  1  0.211253  0.407933  0.195049  1
  Tm  Tm9  1  0.787718  0.591133  0.804458  1
  Tm  Tm10  1  0.213326  0.016741  0.804458  1
  Tm  Tm11  1  0.787115  0.983796  0.195049  1
  Co  Co12  1  0.999657  0.375097  0.374754  1
  Co  Co13  1  0.999601  0.624561  0.624162  1
  Co  Co14  1  0.388814  0.888812  0.501447  1
  Co  Co15  1  0.612634  0.112634  0.501447  1
  Bi  Bi16  1  0.499966  0.499971  0.999937  1
  Ru  Ru17  1  0.998802  0.000164  0.998967  1
