# generated using pymatgen
data_Li3Pr3Sn4Hg
_symmetry_space_group_name_H-M   'P 1'
_cell_length_a   8.95559814
_cell_length_b   8.92591187
_cell_length_c   8.92591037
_cell_angle_alpha   149.18270755
_cell_angle_beta   131.15748773
_cell_angle_gamma   58.84170073
_symmetry_Int_Tables_number   1
_chemical_formula_structural   Li3Pr3Sn4Hg
_chemical_formula_sum   'Li3 Pr3 Sn4 Hg1'
_cell_volume   273.08891639
_cell_formula_units_Z   1
loop_
 _symmetry_equiv_pos_site_id
 _symmetry_equiv_pos_as_xyz
  1  'x, y, z'
loop_
 _atom_site_type_symbol
 _atom_site_label
 _atom_site_symmetry_multiplicity
 _atom_site_fract_x
 _atom_site_fract_y
 _atom_site_fract_z
 _atom_site_occupancy
  Li  Li0  1  0.483944  0.671663  0.812282  1
  Li  Li1  1  0.855261  0.672089  0.183171  1
  Li  Li2  1  0.140709  0.330691  0.810017  1
  Pr  Pr3  1  0.496652  0.997735  0.498917  1
  Pr  Pr4  1  0.878484  0.872094  0.006390  1
  Pr  Pr5  1  0.131108  0.126484  0.004625  1
  Sn  Sn6  1  0.260409  0.782593  0.477816  1
  Sn  Sn7  1  0.722124  0.212278  0.509846  1
  Sn  Sn8  1  0.812341  0.505989  0.306352  1
  Sn  Sn9  1  0.197871  0.500268  0.697603  1
  Hg  Hg10  1  0.521099  0.328117  0.192981  1
