# generated using pymatgen
data_Hf4Mn4GaAs3
_symmetry_space_group_name_H-M   'P 1'
_cell_length_a   3.68921300
_cell_length_b   6.57653961
_cell_length_c   7.72109600
_cell_angle_alpha   89.77521732
_cell_angle_beta   90.00000000
_cell_angle_gamma   90.00000000
_symmetry_Int_Tables_number   1
_chemical_formula_structural   Hf4Mn4GaAs3
_chemical_formula_sum   'Hf4 Mn4 Ga1 As3'
_cell_volume   187.32976169
_cell_formula_units_Z   1
loop_
 _symmetry_equiv_pos_site_id
 _symmetry_equiv_pos_as_xyz
  1  'x, y, z'
loop_
 _atom_site_type_symbol
 _atom_site_label
 _atom_site_symmetry_multiplicity
 _atom_site_fract_x
 _atom_site_fract_y
 _atom_site_fract_z
 _atom_site_occupancy
  Hf  Hf0  1  0.250000  0.964417  0.324500  1
  Hf  Hf1  1  0.250000  0.464428  0.175134  1
  Hf  Hf2  1  0.750000  0.034315  0.676242  1
  Hf  Hf3  1  0.750000  0.535538  0.824211  1
  Mn  Mn4  1  0.250000  0.363651  0.562100  1
  Mn  Mn5  1  0.250000  0.865914  0.935776  1
  Mn  Mn6  1  0.750000  0.633193  0.440749  1
  Mn  Mn7  1  0.750000  0.137824  0.062975  1
  Ga  Ga8  1  0.750000  0.764332  0.126879  1
  As  As9  1  0.250000  0.736961  0.628514  1
  As  As10  1  0.250000  0.236825  0.871646  1
  As  As11  1  0.750000  0.262603  0.371276  1
