# generated using pymatgen
data_Tb6TmSe8
_symmetry_space_group_name_H-M   'P 1'
_cell_length_a   8.23483300
_cell_length_b   8.23461496
_cell_length_c   8.23184800
_cell_angle_alpha   120.01878214
_cell_angle_beta   89.94353102
_cell_angle_gamma   120.01752211
_symmetry_Int_Tables_number   1
_chemical_formula_structural   Tb6TmSe8
_chemical_formula_sum   'Tb6 Tm1 Se8'
_cell_volume   394.68980224
_cell_formula_units_Z   1
loop_
 _symmetry_equiv_pos_site_id
 _symmetry_equiv_pos_as_xyz
  1  'x, y, z'
loop_
 _atom_site_type_symbol
 _atom_site_label
 _atom_site_symmetry_multiplicity
 _atom_site_fract_x
 _atom_site_fract_y
 _atom_site_fract_z
 _atom_site_occupancy
  Tb  Tb0  1  0.249985  0.000010  0.249988  1
  Tb  Tb1  1  0.249987  0.499955  0.249983  1
  Tb  Tb2  1  0.750026  0.000014  0.249998  1
  Tb  Tb3  1  0.249990  0.000002  0.750020  1
  Tb  Tb4  1  0.750023  0.000014  0.750021  1
  Tb  Tb5  1  0.750017  0.500017  0.750006  1
  Tm  Tm6  1  0.249976  0.499984  0.749989  1
  Se  Se7  1  0.999963  0.999989  0.999988  1
  Se  Se8  1  0.500013  0.999995  0.499997  1
  Se  Se9  1  0.002695  0.005357  0.502681  1
  Se  Se10  1  0.002713  0.500010  0.502694  1
  Se  Se11  1  0.497300  0.500006  0.502716  1
  Se  Se12  1  0.002713  0.500020  0.997328  1
  Se  Se13  1  0.497297  0.500005  0.997282  1
  Se  Se14  1  0.497306  0.994626  0.997317  1
