# generated using pymatgen
data_Bi3SbPbI3
_symmetry_space_group_name_H-M   'P 1'
_cell_length_a   23.46971182
_cell_length_b   23.46971292
_cell_length_c   6.92605930
_cell_angle_alpha   79.61058387
_cell_angle_beta   79.61058334
_cell_angle_gamma   14.48439245
_symmetry_Int_Tables_number   1
_chemical_formula_structural   Bi3SbPbI3
_chemical_formula_sum   'Bi9 Sb3 Pb3 I9'
_cell_volume   938.31014554
_cell_formula_units_Z   3
loop_
 _symmetry_equiv_pos_site_id
 _symmetry_equiv_pos_as_xyz
  1  'x, y, z'
loop_
 _atom_site_type_symbol
 _atom_site_label
 _atom_site_symmetry_multiplicity
 _atom_site_fract_x
 _atom_site_fract_y
 _atom_site_fract_z
 _atom_site_occupancy
  Bi  Bi0  1  0.091889  0.091889  0.028186  1
  Bi  Bi1  1  0.740512  0.740512  0.991350  1
  Bi  Bi2  1  0.239648  0.239648  0.505635  1
  Bi  Bi3  1  0.238988  0.238988  0.988239  1
  Bi  Bi4  1  0.739995  0.739995  0.512979  1
  Bi  Bi5  1  0.872764  0.872764  0.958803  1
  Bi  Bi6  1  0.300248  0.300248  0.176435  1
  Bi  Bi7  1  0.178820  0.178820  0.290961  1
  Bi  Bi8  1  0.675342  0.675342  0.790940  1
  Sb  Sb9  1  0.801307  0.801307  0.162602  1
  Sb  Sb10  1  0.175096  0.175096  0.805470  1
  Sb  Sb11  1  0.675329  0.675329  0.297224  1
  Pb  Pb12  1  0.934138  0.934138  0.172505  1
  Pb  Pb13  1  0.469557  0.469557  0.647162  1
  Pb  Pb14  1  0.607500  0.607500  0.501756  1
  I  I15  1  0.102653  0.102653  0.513166  1
  I  I16  1  0.593316  0.593316  0.036765  1
  I  I17  1  0.877518  0.877518  0.478864  1
  I  I18  1  0.373334  0.373334  0.946872  1
  I  I19  1  0.439840  0.439840  0.174637  1
  I  I20  1  0.967352  0.967352  0.645212  1
  I  I21  1  0.532409  0.532409  0.651538  1
  I  I22  1  0.029152  0.029152  0.102479  1
  I  I23  1  0.311377  0.311377  0.620221  1
