# generated using pymatgen
data_La12IrPt(AuI6)2
_symmetry_space_group_name_H-M   'P 1'
_cell_length_a   11.21139434
_cell_length_b   11.13791552
_cell_length_c   11.02138220
_cell_angle_alpha   109.31590729
_cell_angle_beta   109.58795808
_cell_angle_gamma   110.06617865
_symmetry_Int_Tables_number   1
_chemical_formula_structural   La12IrPt(AuI6)2
_chemical_formula_sum   'La12 Ir1 Pt1 Au2 I12'
_cell_volume   1052.07114385
_cell_formula_units_Z   1
loop_
 _symmetry_equiv_pos_site_id
 _symmetry_equiv_pos_as_xyz
  1  'x, y, z'
loop_
 _atom_site_type_symbol
 _atom_site_label
 _atom_site_symmetry_multiplicity
 _atom_site_fract_x
 _atom_site_fract_y
 _atom_site_fract_z
 _atom_site_occupancy
  La  La0  1  0.462003  0.488188  0.225467  1
  La  La1  1  0.757304  0.235606  0.270244  1
  La  La2  1  0.760169  0.024083  0.487857  1
  La  La3  1  0.227688  0.463777  0.487857  1
  La  La4  1  0.263465  0.737278  0.225467  1
  La  La5  1  0.038763  0.276168  0.010734  1
  La  La6  1  0.012940  0.034637  0.270244  1
  La  La7  1  0.471969  0.734566  0.010734  1
  La  La8  1  0.484800  0.234800  0.469602  1
  La  La9  1  0.022071  0.483262  0.755064  1
  La  La10  1  0.265470  0.015470  0.030938  1
  La  La11  1  0.232993  0.271802  0.755064  1
  Ir  Ir12  1  0.249420  0.499420  0.998841  1
  Pt  Pt13  1  0.000612  0.250612  0.501225  1
  Au  Au14  1  0.249401  0.250355  0.250151  1
  Au  Au15  1  0.500750  0.999796  0.250151  1
  I  I16  1  0.250676  0.760617  0.741687  1
  I  I17  1  0.518866  0.508907  0.757937  1
  I  I18  1  0.985508  0.743518  0.993645  1
  I  I19  1  0.739071  0.249030  0.757937  1
  I  I20  1  0.991010  0.981070  0.741687  1
  I  I21  1  0.249584  0.992243  0.506400  1
  I  I22  1  0.756816  0.514156  0.506400  1
  I  I23  1  0.508138  0.250127  0.993645  1
  I  I24  1  0.759135  0.741627  0.250301  1
  I  I25  1  0.742248  0.992248  0.984497  1
  I  I26  1  0.991167  0.508675  0.250301  1
  I  I27  1  0.507962  0.757962  0.515924  1
