# generated using pymatgen
data_Ce4Nd5Dy7(CdIr)4
_symmetry_space_group_name_H-M   'P 1'
_cell_length_a   9.70045136
_cell_length_b   9.70700521
_cell_length_c   9.70965502
_cell_angle_alpha   60.02521762
_cell_angle_beta   60.04173883
_cell_angle_gamma   60.03204997
_symmetry_Int_Tables_number   1
_chemical_formula_structural   Ce4Nd5Dy7(CdIr)4
_chemical_formula_sum   'Ce4 Nd5 Dy7 Cd4 Ir4'
_cell_volume   646.97985245
_cell_formula_units_Z   1
loop_
 _symmetry_equiv_pos_site_id
 _symmetry_equiv_pos_as_xyz
  1  'x, y, z'
loop_
 _atom_site_type_symbol
 _atom_site_label
 _atom_site_symmetry_multiplicity
 _atom_site_fract_x
 _atom_site_fract_y
 _atom_site_fract_z
 _atom_site_occupancy
  Ce  Ce0  1  0.349457  0.348768  0.348757  1
  Ce  Ce1  1  0.348158  0.350922  0.952791  1
  Ce  Ce2  1  0.348075  0.953040  0.350830  1
  Ce  Ce3  1  0.953357  0.348664  0.348675  1
  Nd  Nd4  1  0.558445  0.941619  0.941518  1
  Nd  Nd5  1  0.562307  0.938807  0.559608  1
  Nd  Nd6  1  0.939427  0.559503  0.938749  1
  Nd  Nd7  1  0.562250  0.559488  0.938841  1
  Nd  Nd8  1  0.939281  0.938698  0.559633  1
  Dy  Dy9  1  0.813265  0.186636  0.186699  1
  Dy  Dy10  1  0.186108  0.813866  0.813902  1
  Dy  Dy11  1  0.186569  0.812477  0.187893  1
  Dy  Dy12  1  0.813019  0.187836  0.812583  1
  Dy  Dy13  1  0.186586  0.187831  0.812506  1
  Dy  Dy14  1  0.813001  0.812547  0.187903  1
  Dy  Dy15  1  0.942771  0.557233  0.557325  1
  Cd  Cd16  1  0.582356  0.578993  0.579029  1
  Cd  Cd17  1  0.579510  0.579951  0.260962  1
  Cd  Cd18  1  0.579495  0.260972  0.579975  1
  Cd  Cd19  1  0.259595  0.578978  0.579019  1
  Ir  Ir20  1  0.143768  0.142983  0.142834  1
  Ir  Ir21  1  0.141435  0.146466  0.570702  1
  Ir  Ir22  1  0.141498  0.570673  0.146361  1
  Ir  Ir23  1  0.570263  0.143045  0.142899  1
