# generated using pymatgen
data_SrTbPa2(Al8Pt3)3
_symmetry_space_group_name_H-M   'P 1'
_cell_length_a   7.59527098
_cell_length_b   7.60297171
_cell_length_c   13.18429595
_cell_angle_alpha   84.49550495
_cell_angle_beta   78.91735266
_cell_angle_gamma   59.91177256
_symmetry_Int_Tables_number   1
_chemical_formula_structural   SrTbPa2(Al8Pt3)3
_chemical_formula_sum   'Sr1 Tb1 Pa2 Al24 Pt9'
_cell_volume   646.47496095
_cell_formula_units_Z   1
loop_
 _symmetry_equiv_pos_site_id
 _symmetry_equiv_pos_as_xyz
  1  'x, y, z'
loop_
 _atom_site_type_symbol
 _atom_site_label
 _atom_site_symmetry_multiplicity
 _atom_site_fract_x
 _atom_site_fract_y
 _atom_site_fract_z
 _atom_site_occupancy
  Sr  Sr0  1  0.733018  0.498790  0.809637  1
  Tb  Tb1  1  0.266513  0.501644  0.192131  1
  Pa  Pa2  1  0.396708  0.167874  0.803080  1
  Pa  Pa3  1  0.604026  0.830999  0.196287  1
  Al  Al4  1  0.683301  0.835584  0.947364  1
  Al  Al5  1  0.315931  0.166198  0.055390  1
  Al  Al6  1  0.146052  0.832512  0.560240  1
  Al  Al7  1  0.854867  0.167066  0.438489  1
  Al  Al8  1  0.481145  0.167406  0.556943  1
  Al  Al9  1  0.519395  0.832171  0.441475  1
  Al  Al10  1  0.214242  0.168112  0.331562  1
  Al  Al11  1  0.787238  0.830854  0.665109  1
  Al  Al12  1  0.439048  0.510045  0.666696  1
  Al  Al13  1  0.562598  0.490228  0.330745  1
  Al  Al14  1  0.107962  0.160425  0.664753  1
  Al  Al15  1  0.891821  0.840312  0.332381  1
  Al  Al16  1  0.350410  0.499504  0.945884  1
  Al  Al17  1  0.647040  0.500096  0.057311  1
  Al  Al18  1  0.016537  0.166219  0.955258  1
  Al  Al19  1  0.984020  0.832575  0.047726  1
  Al  Al20  1  0.185438  0.500780  0.440831  1
  Al  Al21  1  0.814539  0.499425  0.557994  1
  Al  Al22  1  0.736856  0.161252  0.183435  1
  Al  Al23  1  0.257935  0.845564  0.817433  1
  Al  Al24  1  0.069449  0.629012  0.816153  1
  Al  Al25  1  0.937462  0.368723  0.184631  1
  Al  Al26  1  0.852785  0.034918  0.817059  1
  Al  Al27  1  0.143973  0.960895  0.183615  1
  Pt  Pt28  1  0.124122  0.490993  0.638130  1
  Pt  Pt29  1  0.879222  0.509258  0.360089  1
  Pt  Pt30  1  0.656273  0.171478  0.001883  1
  Pt  Pt31  1  0.341938  0.828284  0.001818  1
  Pt  Pt32  1  0.537533  0.165794  0.360329  1
  Pt  Pt33  1  0.460075  0.836935  0.637889  1
  Pt  Pt34  1  0.778270  0.172563  0.637235  1
  Pt  Pt35  1  0.222616  0.824666  0.360843  1
  Pt  Pt36  1  0.999641  0.500845  0.002174  1
