# generated using pymatgen
data_DyYHf3Co9As7
_symmetry_space_group_name_H-M   'P 1'
_cell_length_a   3.81044700
_cell_length_b   9.69012302
_cell_length_c   9.69012300
_cell_angle_alpha   119.99999650
_cell_angle_beta   90.00000000
_cell_angle_gamma   90.00000000
_symmetry_Int_Tables_number   1
_chemical_formula_structural   DyYHf3Co9As7
_chemical_formula_sum   'Dy1 Y1 Hf3 Co9 As7'
_cell_volume   309.85974053
_cell_formula_units_Z   1
loop_
 _symmetry_equiv_pos_site_id
 _symmetry_equiv_pos_as_xyz
  1  'x, y, z'
loop_
 _atom_site_type_symbol
 _atom_site_label
 _atom_site_symmetry_multiplicity
 _atom_site_fract_x
 _atom_site_fract_y
 _atom_site_fract_z
 _atom_site_occupancy
  Dy  Dy0  1  0.000000  0.666667  0.333333  1
  Y  Y1  1  0.500000  0.333333  0.666667  1
  Hf  Hf2  1  0.500000  0.768732  0.888066  1
  Hf  Hf3  1  0.500000  0.119333  0.231268  1
  Hf  Hf4  1  0.500000  0.111934  0.880667  1
  Co  Co5  1  0.000000  0.577319  0.935974  1
  Co  Co6  1  0.000000  0.358655  0.422681  1
  Co  Co7  1  0.000000  0.064026  0.641345  1
  Co  Co8  1  0.000000  0.878409  0.162949  1
  Co  Co9  1  0.000000  0.284541  0.121591  1
  Co  Co10  1  0.000000  0.837051  0.715459  1
  Co  Co11  1  0.500000  0.948254  0.390611  1
  Co  Co12  1  0.500000  0.442355  0.051746  1
  Co  Co13  1  0.500000  0.609389  0.557645  1
  As  As14  1  0.000000  0.000000  0.000000  1
  As  As15  1  0.500000  0.713085  0.132788  1
  As  As16  1  0.500000  0.419703  0.286915  1
  As  As17  1  0.500000  0.867212  0.580297  1
  As  As18  1  0.000000  0.572741  0.681323  1
  As  As19  1  0.000000  0.108582  0.427259  1
  As  As20  1  0.000000  0.318677  0.891418  1
