# generated using pymatgen
data_Ti3AlAuO
_symmetry_space_group_name_H-M   'P 1'
_cell_length_a   6.95936700
_cell_length_b   6.95936700
_cell_length_c   6.95936700
_cell_angle_alpha   90.00000000
_cell_angle_beta   90.00000000
_cell_angle_gamma   90.00000000
_symmetry_Int_Tables_number   1
_chemical_formula_structural   Ti3AlAuO
_chemical_formula_sum   'Ti12 Al4 Au4 O4'
_cell_volume   337.06155377
_cell_formula_units_Z   4
loop_
 _symmetry_equiv_pos_site_id
 _symmetry_equiv_pos_as_xyz
  1  'x, y, z'
loop_
 _atom_site_type_symbol
 _atom_site_label
 _atom_site_symmetry_multiplicity
 _atom_site_fract_x
 _atom_site_fract_y
 _atom_site_fract_z
 _atom_site_occupancy
  Ti  Ti0  1  0.785238  0.957088  0.375777  1
  Ti  Ti1  1  0.714762  0.042912  0.875777  1
  Ti  Ti2  1  0.214762  0.457088  0.124223  1
  Ti  Ti3  1  0.285238  0.542912  0.624223  1
  Ti  Ti4  1  0.957088  0.375777  0.785238  1
  Ti  Ti5  1  0.042912  0.875777  0.714762  1
  Ti  Ti6  1  0.457088  0.124223  0.214762  1
  Ti  Ti7  1  0.542912  0.624223  0.285238  1
  Ti  Ti8  1  0.375777  0.785238  0.957088  1
  Ti  Ti9  1  0.875777  0.714762  0.042912  1
  Ti  Ti10  1  0.124223  0.214762  0.457088  1
  Ti  Ti11  1  0.624223  0.285238  0.542912  1
  Al  Al12  1  0.571805  0.428195  0.928195  1
  Al  Al13  1  0.428195  0.928195  0.571805  1
  Al  Al14  1  0.928195  0.571805  0.428195  1
  Al  Al15  1  0.071805  0.071805  0.071805  1
  Au  Au16  1  0.179250  0.820750  0.320750  1
  Au  Au17  1  0.320750  0.179250  0.820750  1
  Au  Au18  1  0.820750  0.320750  0.179250  1
  Au  Au19  1  0.679250  0.679250  0.679250  1
  O  O20  1  0.876796  0.123204  0.623204  1
  O  O21  1  0.623204  0.876796  0.123204  1
  O  O22  1  0.123204  0.623204  0.876796  1
  O  O23  1  0.376796  0.376796  0.376796  1
