# generated using pymatgen
data_Li4Sm4Si3Sn2Ge
_symmetry_space_group_name_H-M   'P 1'
_cell_length_a   9.72156055
_cell_length_b   9.72156001
_cell_length_c   6.83823630
_cell_angle_alpha   89.84844041
_cell_angle_beta   90.15156084
_cell_angle_gamma   153.29617396
_symmetry_Int_Tables_number   1
_chemical_formula_structural   Li4Sm4Si3Sn2Ge
_chemical_formula_sum   'Li4 Sm4 Si3 Sn2 Ge1'
_cell_volume   290.42024319
_cell_formula_units_Z   1
loop_
 _symmetry_equiv_pos_site_id
 _symmetry_equiv_pos_as_xyz
  1  'x, y, z'
loop_
 _atom_site_type_symbol
 _atom_site_label
 _atom_site_symmetry_multiplicity
 _atom_site_fract_x
 _atom_site_fract_y
 _atom_site_fract_z
 _atom_site_occupancy
  Li  Li0  1  0.815602  0.184398  0.554512  1
  Li  Li1  1  0.184292  0.815708  0.445733  1
  Li  Li2  1  0.184579  0.815421  0.054393  1
  Li  Li3  1  0.814930  0.185070  0.945343  1
  Sm  Sm4  1  0.548846  0.451154  0.250644  1
  Sm  Sm5  1  0.452099  0.547901  0.747476  1
  Sm  Sm6  1  0.350185  0.649815  0.252352  1
  Sm  Sm7  1  0.649338  0.350662  0.750039  1
  Si  Si8  1  0.059111  0.940889  0.924468  1
  Si  Si9  1  0.057530  0.942470  0.573538  1
  Si  Si10  1  0.942346  0.057654  0.431206  1
  Sn  Sn11  1  0.719075  0.280925  0.249997  1
  Sn  Sn12  1  0.281033  0.718967  0.750106  1
  Ge  Ge13  1  0.941035  0.058965  0.070195  1
