# generated using pymatgen
data_Yb(S8Br)3
_symmetry_space_group_name_H-M   'P 1'
_cell_length_a   4.24275768
_cell_length_b   15.40050054
_cell_length_c   15.40049874
_cell_angle_alpha   119.16657438
_cell_angle_beta   95.26899516
_cell_angle_gamma   95.26898049
_symmetry_Int_Tables_number   1
_chemical_formula_structural   Yb(S8Br)3
_chemical_formula_sum   'Yb1 S24 Br3'
_cell_volume   864.11303420
_cell_formula_units_Z   1
loop_
 _symmetry_equiv_pos_site_id
 _symmetry_equiv_pos_as_xyz
  1  'x, y, z'
loop_
 _atom_site_type_symbol
 _atom_site_label
 _atom_site_symmetry_multiplicity
 _atom_site_fract_x
 _atom_site_fract_y
 _atom_site_fract_z
 _atom_site_occupancy
  Yb  Yb0  1  0.554247  0.000000  0.000000  1
  S  S1  1  0.400661  0.407180  0.000000  1
  S  S2  1  0.547054  0.722721  0.000000  1
  S  S3  1  0.265945  0.520322  0.126150  1
  S  S4  1  0.368090  0.741310  0.126838  1
  S  S5  1  0.568387  0.653920  0.177314  1
  S  S6  1  0.626781  0.385528  0.258690  1
  S  S7  1  0.824331  0.277279  0.277279  1
  S  S8  1  0.914466  0.523393  0.346079  1
  S  S9  1  0.139795  0.873851  0.394173  1
  S  S10  1  0.626781  0.258690  0.385528  1
  S  S11  1  0.400661  0.000000  0.407180  1
  S  S12  1  0.391073  0.822687  0.476607  1
  S  S13  1  0.745624  0.605827  0.479679  1
  S  S14  1  0.265945  0.126150  0.520322  1
  S  S15  1  0.914466  0.346079  0.523393  1
  S  S16  1  0.993484  0.592820  0.592820  1
  S  S17  1  0.241253  0.873162  0.614472  1
  S  S18  1  0.745624  0.479679  0.605827  1
  S  S19  1  0.568387  0.177314  0.653920  1
  S  S20  1  0.547054  0.000000  0.722721  1
  S  S21  1  0.368090  0.126838  0.741310  1
  S  S22  1  0.391073  0.476607  0.822687  1
  S  S23  1  0.241253  0.614472  0.873162  1
  S  S24  1  0.139795  0.394173  0.873851  1
  Br  Br25  1  0.100038  0.137520  0.000000  1
  Br  Br26  1  0.100038  0.000000  0.137520  1
  Br  Br27  1  0.962518  0.862480  0.862480  1
