# generated using pymatgen
data_Dy15YCdHg3Rh4
_symmetry_space_group_name_H-M   'P 1'
_cell_length_a   9.60187096
_cell_length_b   9.60374681
_cell_length_c   9.61291200
_cell_angle_alpha   59.96841895
_cell_angle_beta   59.96194795
_cell_angle_gamma   59.93816825
_symmetry_Int_Tables_number   1
_chemical_formula_structural   Dy15YCdHg3Rh4
_chemical_formula_sum   'Dy15 Y1 Cd1 Hg3 Rh4'
_cell_volume   626.18786046
_cell_formula_units_Z   1
loop_
 _symmetry_equiv_pos_site_id
 _symmetry_equiv_pos_as_xyz
  1  'x, y, z'
loop_
 _atom_site_type_symbol
 _atom_site_label
 _atom_site_symmetry_multiplicity
 _atom_site_fract_x
 _atom_site_fract_y
 _atom_site_fract_z
 _atom_site_occupancy
  Dy  Dy0  1  0.147053  0.555197  0.148876  1
  Dy  Dy1  1  0.689832  0.311869  0.309940  1
  Dy  Dy2  1  0.937513  0.563086  0.562673  1
  Dy  Dy3  1  0.937513  0.563086  0.936727  1
  Dy  Dy4  1  0.689834  0.689805  0.310181  1
  Dy  Dy5  1  0.562093  0.938191  0.936421  1
  Dy  Dy6  1  0.149562  0.148868  0.151140  1
  Dy  Dy7  1  0.310610  0.690629  0.309575  1
  Dy  Dy8  1  0.552382  0.147439  0.150090  1
  Dy  Dy9  1  0.310398  0.311335  0.689133  1
  Dy  Dy10  1  0.310610  0.690629  0.689186  1
  Dy  Dy11  1  0.149562  0.148868  0.550430  1
  Dy  Dy12  1  0.689832  0.311869  0.688359  1
  Dy  Dy13  1  0.936317  0.937407  0.563137  1
  Dy  Dy14  1  0.562093  0.938191  0.563294  1
  Y  Y15  1  0.562606  0.563933  0.936730  1
  Cd  Cd16  1  0.919582  0.241925  0.919246  1
  Hg  Hg17  1  0.914230  0.916310  0.914098  1
  Hg  Hg18  1  0.256258  0.916241  0.913750  1
  Hg  Hg19  1  0.914230  0.916310  0.255361  1
  Rh  Rh20  1  0.356615  0.357125  0.927996  1
  Rh  Rh21  1  0.356615  0.357125  0.358262  1
  Rh  Rh22  1  0.928310  0.356478  0.357606  1
  Rh  Rh23  1  0.356347  0.928079  0.357786  1
