# generated using pymatgen
data_Dy4Ho4In3Ru
_symmetry_space_group_name_H-M   'P 1'
_cell_length_a   10.39187589
_cell_length_b   10.39187551
_cell_length_c   7.03556201
_cell_angle_alpha   90.00699084
_cell_angle_beta   89.99301048
_cell_angle_gamma   120.08500958
_symmetry_Int_Tables_number   1
_chemical_formula_structural   Dy4Ho4In3Ru
_chemical_formula_sum   'Dy8 Ho8 In6 Ru2'
_cell_volume   657.42262987
_cell_formula_units_Z   2
loop_
 _symmetry_equiv_pos_site_id
 _symmetry_equiv_pos_as_xyz
  1  'x, y, z'
loop_
 _atom_site_type_symbol
 _atom_site_label
 _atom_site_symmetry_multiplicity
 _atom_site_fract_x
 _atom_site_fract_y
 _atom_site_fract_z
 _atom_site_occupancy
  Dy  Dy0  1  0.533334  0.066367  0.508123  1
  Dy  Dy1  1  0.933633  0.466666  0.508123  1
  Dy  Dy2  1  0.532870  0.467130  0.508473  1
  Dy  Dy3  1  0.466449  0.933921  0.008235  1
  Dy  Dy4  1  0.066079  0.533551  0.008235  1
  Dy  Dy5  1  0.467437  0.532563  0.008908  1
  Dy  Dy6  1  0.177279  0.354343  0.712359  1
  Dy  Dy7  1  0.645657  0.822721  0.712359  1
  Ho  Ho8  1  0.177135  0.822865  0.711500  1
  Ho  Ho9  1  0.822641  0.645459  0.212199  1
  Ho  Ho10  1  0.354541  0.177359  0.212199  1
  Ho  Ho11  1  0.822888  0.177112  0.211777  1
  Ho  Ho12  1  0.666585  0.333415  0.884483  1
  Ho  Ho13  1  0.333305  0.666695  0.384050  1
  Ho  Ho14  1  0.000082  0.999918  0.491810  1
  Ho  Ho15  1  0.000169  0.999831  0.991877  1
  In  In16  1  0.837700  0.674638  0.753834  1
  In  In17  1  0.325362  0.162300  0.753834  1
  In  In18  1  0.836927  0.163073  0.754311  1
  In  In19  1  0.162431  0.324906  0.252552  1
  In  In20  1  0.675094  0.837569  0.252552  1
  In  In21  1  0.162625  0.837375  0.253600  1
  Ru  Ru22  1  0.666445  0.333555  0.281081  1
  Ru  Ru23  1  0.333331  0.666669  0.781565  1
