# generated using pymatgen
data_Er16In4PdPtRh2
_symmetry_space_group_name_H-M   'P 1'
_cell_length_a   9.60874452
_cell_length_b   9.60017716
_cell_length_c   9.61444274
_cell_angle_alpha   59.98448577
_cell_angle_beta   60.01960266
_cell_angle_gamma   59.97047839
_symmetry_Int_Tables_number   1
_chemical_formula_structural   Er16In4PdPtRh2
_chemical_formula_sum   'Er16 In4 Pd1 Pt1 Rh2'
_cell_volume   627.00550655
_cell_formula_units_Z   1
loop_
 _symmetry_equiv_pos_site_id
 _symmetry_equiv_pos_as_xyz
  1  'x, y, z'
loop_
 _atom_site_type_symbol
 _atom_site_label
 _atom_site_symmetry_multiplicity
 _atom_site_fract_x
 _atom_site_fract_y
 _atom_site_fract_z
 _atom_site_occupancy
  Er  Er0  1  0.193187  0.184998  0.810761  1
  Er  Er1  1  0.437654  0.062877  0.061815  1
  Er  Er2  1  0.436823  0.063865  0.437685  1
  Er  Er3  1  0.061638  0.439736  0.062548  1
  Er  Er4  1  0.649124  0.049935  0.651818  1
  Er  Er5  1  0.188598  0.811673  0.811130  1
  Er  Er6  1  0.061627  0.063865  0.437685  1
  Er  Er7  1  0.810143  0.188663  0.191051  1
  Er  Er8  1  0.810712  0.810820  0.186708  1
  Er  Er9  1  0.647108  0.652268  0.053517  1
  Er  Er10  1  0.645174  0.651384  0.648561  1
  Er  Er11  1  0.062462  0.438775  0.436302  1
  Er  Er12  1  0.054882  0.651384  0.648561  1
  Er  Er13  1  0.811055  0.184998  0.810761  1
  Er  Er14  1  0.436079  0.439736  0.062548  1
  Er  Er15  1  0.191759  0.810820  0.186708  1
  In  In16  1  0.416275  0.751130  0.416321  1
  In  In17  1  0.417142  0.415585  0.750131  1
  In  In18  1  0.751080  0.415191  0.416938  1
  In  In19  1  0.416791  0.415191  0.416938  1
  Pd  Pd20  1  0.856360  0.430693  0.856586  1
  Pt  Pt21  1  0.857457  0.855361  0.429725  1
  Rh  Rh22  1  0.429515  0.855526  0.857602  1
  Rh  Rh23  1  0.857356  0.855526  0.857602  1
