# generated using pymatgen
data_V10Ga3Si3N
_symmetry_space_group_name_H-M   'P 1'
_cell_length_a   7.24004900
_cell_length_b   7.24004944
_cell_length_c   4.85756300
_cell_angle_alpha   90.00000000
_cell_angle_beta   90.00000000
_cell_angle_gamma   120.00001170
_symmetry_Int_Tables_number   1
_chemical_formula_structural   V10Ga3Si3N
_chemical_formula_sum   'V10 Ga3 Si3 N1'
_cell_volume   220.51191442
_cell_formula_units_Z   1
loop_
 _symmetry_equiv_pos_site_id
 _symmetry_equiv_pos_as_xyz
  1  'x, y, z'
loop_
 _atom_site_type_symbol
 _atom_site_label
 _atom_site_symmetry_multiplicity
 _atom_site_fract_x
 _atom_site_fract_y
 _atom_site_fract_z
 _atom_site_occupancy
  V  V0  1  0.000000  0.766864  0.258564  1
  V  V1  1  0.233136  0.233136  0.258564  1
  V  V2  1  0.766864  0.000000  0.258564  1
  V  V3  1  0.000000  0.230754  0.740949  1
  V  V4  1  0.769246  0.769246  0.740949  1
  V  V5  1  0.230754  0.000000  0.740949  1
  V  V6  1  0.333333  0.666667  0.506369  1
  V  V7  1  0.666667  0.333333  0.506369  1
  V  V8  1  0.666667  0.333333  0.993298  1
  V  V9  1  0.333333  0.666667  0.993298  1
  Ga  Ga10  1  0.000000  0.403607  0.243221  1
  Ga  Ga11  1  0.596393  0.596393  0.243221  1
  Ga  Ga12  1  0.403607  0.000000  0.243221  1
  Si  Si13  1  0.000000  0.599339  0.758356  1
  Si  Si14  1  0.400661  0.400661  0.758356  1
  Si  Si15  1  0.599339  0.000000  0.758356  1
  N  N16  1  0.000000  0.000000  0.497399  1
