# generated using pymatgen
data_DyZr(Al3Ir)3
_symmetry_space_group_name_H-M   'P 1'
_cell_length_a   7.52064055
_cell_length_b   7.50352525
_cell_length_c   9.36068400
_cell_angle_alpha   90.00000000
_cell_angle_beta   90.00000000
_cell_angle_gamma   119.74048696
_symmetry_Int_Tables_number   1
_chemical_formula_structural   DyZr(Al3Ir)3
_chemical_formula_sum   'Dy2 Zr2 Al18 Ir6'
_cell_volume   458.65713965
_cell_formula_units_Z   2
loop_
 _symmetry_equiv_pos_site_id
 _symmetry_equiv_pos_as_xyz
  1  'x, y, z'
loop_
 _atom_site_type_symbol
 _atom_site_label
 _atom_site_symmetry_multiplicity
 _atom_site_fract_x
 _atom_site_fract_y
 _atom_site_fract_z
 _atom_site_occupancy
  Dy  Dy0  1  0.670363  0.994435  0.750000  1
  Dy  Dy1  1  0.329637  0.005565  0.250000  1
  Zr  Zr2  1  0.995111  0.670700  0.750000  1
  Zr  Zr3  1  0.004889  0.329300  0.250000  1
  Al  Al4  1  0.125999  0.123951  0.750000  1
  Al  Al5  1  0.874001  0.876049  0.250000  1
  Al  Al6  1  0.999986  0.336949  0.574589  1
  Al  Al7  1  0.000014  0.663051  0.425411  1
  Al  Al8  1  0.000014  0.663051  0.074589  1
  Al  Al9  1  0.332009  0.998418  0.922398  1
  Al  Al10  1  0.999986  0.336949  0.925411  1
  Al  Al11  1  0.667991  0.001582  0.077602  1
  Al  Al12  1  0.667991  0.001582  0.422398  1
  Al  Al13  1  0.332009  0.998418  0.577602  1
  Al  Al14  1  0.331364  0.333642  0.055928  1
  Al  Al15  1  0.668636  0.666358  0.944072  1
  Al  Al16  1  0.668636  0.666358  0.555928  1
  Al  Al17  1  0.331364  0.333642  0.444072  1
  Al  Al18  1  0.334343  0.547700  0.750000  1
  Al  Al19  1  0.665657  0.452300  0.250000  1
  Al  Al20  1  0.553866  0.343774  0.750000  1
  Al  Al21  1  0.446134  0.656226  0.250000  1
  Ir  Ir22  1  0.671946  0.327655  0.499489  1
  Ir  Ir23  1  0.328054  0.672345  0.500511  1
  Ir  Ir24  1  0.328054  0.672345  0.999489  1
  Ir  Ir25  1  0.671946  0.327655  0.000511  1
  Ir  Ir26  1  0.000000  0.000000  0.500000  1
  Ir  Ir27  1  0.000000  0.000000  0.000000  1
