# generated using pymatgen
data_HoMo3(PO4)4
_symmetry_space_group_name_H-M   'P 1'
_cell_length_a   4.89056742
_cell_length_b   7.02704369
_cell_length_c   9.06952234
_cell_angle_alpha   89.98829503
_cell_angle_beta   90.05389758
_cell_angle_gamma   89.92083833
_symmetry_Int_Tables_number   1
_chemical_formula_structural   HoMo3(PO4)4
_chemical_formula_sum   'Ho1 Mo3 P4 O16'
_cell_volume   311.68485749
_cell_formula_units_Z   1
loop_
 _symmetry_equiv_pos_site_id
 _symmetry_equiv_pos_as_xyz
  1  'x, y, z'
loop_
 _atom_site_type_symbol
 _atom_site_label
 _atom_site_symmetry_multiplicity
 _atom_site_fract_x
 _atom_site_fract_y
 _atom_site_fract_z
 _atom_site_occupancy
  Ho  Ho0  1  0.000000  0.000000  0.000000  1
  Mo  Mo1  1  0.500000  0.500000  0.500000  1
  Mo  Mo2  1  0.000000  0.500000  0.000000  1
  Mo  Mo3  1  0.500000  0.000000  0.500000  1
  P  P4  1  0.988518  0.746115  0.674256  1
  P  P5  1  0.492284  0.256416  0.819498  1
  P  P6  1  0.011482  0.253885  0.325744  1
  P  P7  1  0.507716  0.743584  0.180502  1
  O  O8  1  0.146890  0.436093  0.378705  1
  O  O9  1  0.653027  0.563511  0.129243  1
  O  O10  1  0.849585  0.932104  0.628089  1
  O  O11  1  0.366131  0.069748  0.871773  1
  O  O12  1  0.853110  0.563907  0.621295  1
  O  O13  1  0.346973  0.436489  0.870757  1
  O  O14  1  0.150415  0.067896  0.371911  1
  O  O15  1  0.633869  0.930252  0.128227  1
  O  O16  1  0.203360  0.736951  0.123296  1
  O  O17  1  0.706050  0.250055  0.384527  1
  O  O18  1  0.796640  0.263049  0.876704  1
  O  O19  1  0.293950  0.749945  0.615473  1
  O  O20  1  0.525737  0.747986  0.355055  1
  O  O21  1  0.020837  0.257466  0.151666  1
  O  O22  1  0.474263  0.252014  0.644945  1
  O  O23  1  0.979163  0.742534  0.848334  1
