# generated using pymatgen
data_La8DyTmIr4
_symmetry_space_group_name_H-M   'P 1'
_cell_length_a   6.71421743
_cell_length_b   7.30357091
_cell_length_c   9.12199700
_cell_angle_alpha   95.95348545
_cell_angle_beta   111.59377479
_cell_angle_gamma   90.00000202
_symmetry_Int_Tables_number   1
_chemical_formula_structural   La8DyTmIr4
_chemical_formula_sum   'La8 Dy1 Tm1 Ir4'
_cell_volume   413.33179128
_cell_formula_units_Z   1
loop_
 _symmetry_equiv_pos_site_id
 _symmetry_equiv_pos_as_xyz
  1  'x, y, z'
loop_
 _atom_site_type_symbol
 _atom_site_label
 _atom_site_symmetry_multiplicity
 _atom_site_fract_x
 _atom_site_fract_y
 _atom_site_fract_z
 _atom_site_occupancy
  La  La0  1  0.798805  0.083585  0.818610  1
  La  La1  1  0.980194  0.416415  0.181390  1
  La  La2  1  0.201293  0.916621  0.181517  1
  La  La3  1  0.019777  0.583379  0.818483  1
  La  La4  1  0.216064  0.184841  0.573365  1
  La  La5  1  0.642700  0.315159  0.426635  1
  La  La6  1  0.783997  0.815200  0.426787  1
  La  La7  1  0.357209  0.684800  0.573213  1
  Dy  Dy8  1  0.565536  0.750000  0.000000  1
  Tm  Tm9  1  0.434893  0.250000  0.000000  1
  Ir  Ir10  1  0.596179  0.425333  0.788435  1
  Ir  Ir11  1  0.807743  0.074667  0.211565  1
  Ir  Ir12  1  0.403557  0.572809  0.211504  1
  Ir  Ir13  1  0.192054  0.927191  0.788496  1
