# generated using pymatgen
data_Nd4Tm4Tc3B24Os
_symmetry_space_group_name_H-M   'P 1'
_cell_length_a   3.70801800
_cell_length_b   9.19674257
_cell_length_c   11.65159301
_cell_angle_alpha   89.95160716
_cell_angle_beta   90.00000000
_cell_angle_gamma   90.00000000
_symmetry_Int_Tables_number   1
_chemical_formula_structural   Nd4Tm4Tc3B24Os
_chemical_formula_sum   'Nd4 Tm4 Tc3 B24 Os1'
_cell_volume   397.33883584
_cell_formula_units_Z   1
loop_
 _symmetry_equiv_pos_site_id
 _symmetry_equiv_pos_as_xyz
  1  'x, y, z'
loop_
 _atom_site_type_symbol
 _atom_site_label
 _atom_site_symmetry_multiplicity
 _atom_site_fract_x
 _atom_site_fract_y
 _atom_site_fract_z
 _atom_site_occupancy
  Nd  Nd0  1  0.000000  0.322786  0.414085  1
  Nd  Nd1  1  0.000000  0.676170  0.584306  1
  Nd  Nd2  1  0.000000  0.822503  0.086904  1
  Nd  Nd3  1  0.000000  0.178357  0.915031  1
  Tm  Tm4  1  0.000000  0.942574  0.369330  1
  Tm  Tm5  1  0.000000  0.058284  0.630560  1
  Tm  Tm6  1  0.000000  0.443053  0.130941  1
  Tm  Tm7  1  0.000000  0.556810  0.868858  1
  Tc  Tc8  1  0.000000  0.639655  0.318843  1
  Tc  Tc9  1  0.000000  0.360428  0.681675  1
  Tc  Tc10  1  0.000000  0.139000  0.180358  1
  B  B11  1  0.500000  0.554989  0.430287  1
  B  B12  1  0.500000  0.444899  0.569420  1
  B  B13  1  0.500000  0.055065  0.069582  1
  B  B14  1  0.500000  0.944472  0.930329  1
  B  B15  1  0.500000  0.750372  0.416050  1
  B  B16  1  0.500000  0.249319  0.584043  1
  B  B17  1  0.500000  0.251036  0.083942  1
  B  B18  1  0.500000  0.749719  0.915747  1
  B  B19  1  0.500000  0.791443  0.266173  1
  B  B20  1  0.500000  0.208772  0.734337  1
  B  B21  1  0.500000  0.291331  0.233994  1
  B  B22  1  0.500000  0.709274  0.765790  1
  B  B23  1  0.500000  0.629345  0.185940  1
  B  B24  1  0.500000  0.370560  0.814533  1
  B  B25  1  0.500000  0.129020  0.313853  1
  B  B26  1  0.500000  0.870585  0.686088  1
  B  B27  1  0.500000  0.983273  0.213457  1
  B  B28  1  0.500000  0.015645  0.786781  1
  B  B29  1  0.500000  0.483651  0.286321  1
  B  B30  1  0.500000  0.516218  0.713387  1
  B  B31  1  0.500000  0.596922  0.026389  1
  B  B32  1  0.500000  0.403992  0.973360  1
  B  B33  1  0.500000  0.096467  0.473621  1
  B  B34  1  0.500000  0.903610  0.526893  1
  Os  Os35  1  0.000000  0.860400  0.818794  1
