# generated using pymatgen
data_Dy16CdIn3Ir4
_symmetry_space_group_name_H-M   'P 1'
_cell_length_a   9.64870337
_cell_length_b   9.65970558
_cell_length_c   9.65970500
_cell_angle_alpha   60.00000543
_cell_angle_beta   59.96227813
_cell_angle_gamma   59.96227563
_symmetry_Int_Tables_number   1
_chemical_formula_structural   Dy16CdIn3Ir4
_chemical_formula_sum   'Dy16 Cd1 In3 Ir4'
_cell_volume   636.25889209
_cell_formula_units_Z   1
loop_
 _symmetry_equiv_pos_site_id
 _symmetry_equiv_pos_as_xyz
  1  'x, y, z'
loop_
 _atom_site_type_symbol
 _atom_site_label
 _atom_site_symmetry_multiplicity
 _atom_site_fract_x
 _atom_site_fract_y
 _atom_site_fract_z
 _atom_site_occupancy
  Dy  Dy0  1  0.599339  0.599152  0.599152  1
  Dy  Dy1  1  0.599339  0.599152  0.202357  1
  Dy  Dy2  1  0.599339  0.202357  0.599152  1
  Dy  Dy3  1  0.202572  0.599143  0.599143  1
  Dy  Dy4  1  0.059561  0.440221  0.440221  1
  Dy  Dy5  1  0.439657  0.060542  0.060542  1
  Dy  Dy6  1  0.439657  0.060542  0.439259  1
  Dy  Dy7  1  0.059561  0.440221  0.059997  1
  Dy  Dy8  1  0.439657  0.439259  0.060542  1
  Dy  Dy9  1  0.059561  0.059997  0.440221  1
  Dy  Dy10  1  0.189212  0.811924  0.811924  1
  Dy  Dy11  1  0.812183  0.188428  0.188428  1
  Dy  Dy12  1  0.812183  0.188428  0.810962  1
  Dy  Dy13  1  0.189212  0.811924  0.186940  1
  Dy  Dy14  1  0.812183  0.810962  0.188428  1
  Dy  Dy15  1  0.189212  0.186940  0.811924  1
  Cd  Cd16  1  0.502992  0.832336  0.832336  1
  In  In17  1  0.831983  0.833164  0.833164  1
  In  In18  1  0.831983  0.833164  0.501690  1
  In  In19  1  0.831983  0.501690  0.833164  1
  Ir  Ir20  1  0.391207  0.391248  0.391248  1
  Ir  Ir21  1  0.391207  0.391248  0.826296  1
  Ir  Ir22  1  0.391207  0.826296  0.391248  1
  Ir  Ir23  1  0.825008  0.391664  0.391664  1
