# generated using pymatgen
data_Zr10Ga2Sn5Bi
_symmetry_space_group_name_H-M   'P 1'
_cell_length_a   8.78674200
_cell_length_b   8.77282710
_cell_length_c   5.88902400
_cell_angle_alpha   90.00000000
_cell_angle_beta   90.00000000
_cell_angle_gamma   120.05248284
_symmetry_Int_Tables_number   1
_chemical_formula_structural   Zr10Ga2Sn5Bi
_chemical_formula_sum   'Zr10 Ga2 Sn5 Bi1'
_cell_volume   392.92664532
_cell_formula_units_Z   1
loop_
 _symmetry_equiv_pos_site_id
 _symmetry_equiv_pos_as_xyz
  1  'x, y, z'
loop_
 _atom_site_type_symbol
 _atom_site_label
 _atom_site_symmetry_multiplicity
 _atom_site_fract_x
 _atom_site_fract_y
 _atom_site_fract_z
 _atom_site_occupancy
  Zr  Zr0  1  0.004354  0.269584  0.250000  1
  Zr  Zr1  1  0.734346  0.000000  0.750000  1
  Zr  Zr2  1  0.734771  0.730416  0.250000  1
  Zr  Zr3  1  0.667237  0.336158  0.501790  1
  Zr  Zr4  1  0.000319  0.733021  0.750000  1
  Zr  Zr5  1  0.267299  0.266979  0.750000  1
  Zr  Zr6  1  0.331078  0.663842  0.998210  1
  Zr  Zr7  1  0.667237  0.336158  0.998210  1
  Zr  Zr8  1  0.331078  0.663842  0.501790  1
  Zr  Zr9  1  0.263805  0.000000  0.250000  1
  Ga  Ga10  1  0.000124  0.000000  0.999453  1
  Ga  Ga11  1  0.000124  0.000000  0.500547  1
  Sn  Sn12  1  0.387333  0.000000  0.750000  1
  Sn  Sn13  1  0.388613  0.388390  0.250000  1
  Sn  Sn14  1  0.000223  0.611610  0.250000  1
  Sn  Sn15  1  0.999879  0.388237  0.750000  1
  Sn  Sn16  1  0.611642  0.611763  0.750000  1
  Bi  Bi17  1  0.610536  0.000000  0.250000  1
