# generated using pymatgen
data_Tb18DyYPb16
_symmetry_space_group_name_H-M   'P 1'
_cell_length_a   8.24088300
_cell_length_b   8.32404065
_cell_length_c   15.72252400
_cell_angle_alpha   90.00000000
_cell_angle_beta   90.00000000
_cell_angle_gamma   90.02262498
_symmetry_Int_Tables_number   1
_chemical_formula_structural   Tb18DyYPb16
_chemical_formula_sum   'Tb18 Dy1 Y1 Pb16'
_cell_volume   1078.52489245
_cell_formula_units_Z   1
loop_
 _symmetry_equiv_pos_site_id
 _symmetry_equiv_pos_as_xyz
  1  'x, y, z'
loop_
 _atom_site_type_symbol
 _atom_site_label
 _atom_site_symmetry_multiplicity
 _atom_site_fract_x
 _atom_site_fract_y
 _atom_site_fract_z
 _atom_site_occupancy
  Tb  Tb0  1  0.377491  0.840788  0.879644  1
  Tb  Tb1  1  0.877409  0.659295  0.620447  1
  Tb  Tb2  1  0.622376  0.159151  0.379511  1
  Tb  Tb3  1  0.122660  0.340694  0.120485  1
  Tb  Tb4  1  0.622376  0.159151  0.120489  1
  Tb  Tb5  1  0.122660  0.340694  0.379515  1
  Tb  Tb6  1  0.377491  0.840788  0.620356  1
  Tb  Tb7  1  0.877409  0.659295  0.879553  1
  Tb  Tb8  1  0.534806  0.323321  0.899893  1
  Tb  Tb9  1  0.034691  0.176647  0.600038  1
  Tb  Tb10  1  0.465189  0.676826  0.399893  1
  Tb  Tb11  1  0.965353  0.823450  0.100099  1
  Tb  Tb12  1  0.465189  0.676826  0.100107  1
  Tb  Tb13  1  0.965353  0.823450  0.399901  1
  Tb  Tb14  1  0.534806  0.323321  0.600107  1
  Tb  Tb15  1  0.034691  0.176647  0.899962  1
  Tb  Tb16  1  0.209018  0.503745  0.750000  1
  Tb  Tb17  1  0.791043  0.496268  0.250000  1
  Dy  Dy18  1  0.709048  0.996280  0.750000  1
  Y  Y19  1  0.290951  0.003827  0.250000  1
  Pb  Pb20  1  0.281005  0.032884  0.042974  1
  Pb  Pb21  1  0.780975  0.466964  0.457320  1
  Pb  Pb22  1  0.719019  0.966935  0.542597  1
  Pb  Pb23  1  0.219013  0.533000  0.957486  1
  Pb  Pb24  1  0.719019  0.966935  0.957403  1
  Pb  Pb25  1  0.219013  0.533000  0.542514  1
  Pb  Pb26  1  0.281005  0.032884  0.457026  1
  Pb  Pb27  1  0.780975  0.466964  0.042680  1
  Pb  Pb28  1  0.573137  0.625930  0.750000  1
  Pb  Pb29  1  0.072929  0.874282  0.750000  1
  Pb  Pb30  1  0.426701  0.373900  0.250000  1
  Pb  Pb31  1  0.927433  0.125311  0.250000  1
  Pb  Pb32  1  0.346128  0.152057  0.750000  1
  Pb  Pb33  1  0.846108  0.347501  0.750000  1
  Pb  Pb34  1  0.653565  0.847929  0.250000  1
  Pb  Pb35  1  0.153964  0.653060  0.250000  1
