# generated using pymatgen
data_CsNiH3
_symmetry_space_group_name_H-M   'P 1'
_cell_length_a   6.32232500
_cell_length_b   6.32232506
_cell_length_c   4.72173100
_cell_angle_alpha   90.00000000
_cell_angle_beta   90.00000000
_cell_angle_gamma   119.99998397
_symmetry_Int_Tables_number   1
_chemical_formula_structural   CsNiH3
_chemical_formula_sum   'Cs2 Ni2 H6'
_cell_volume   163.45024718
_cell_formula_units_Z   2
loop_
 _symmetry_equiv_pos_site_id
 _symmetry_equiv_pos_as_xyz
  1  'x, y, z'
loop_
 _atom_site_type_symbol
 _atom_site_label
 _atom_site_symmetry_multiplicity
 _atom_site_fract_x
 _atom_site_fract_y
 _atom_site_fract_z
 _atom_site_occupancy
  Cs  Cs0  1  0.333333  0.666667  0.250432  1
  Cs  Cs1  1  0.666667  0.333333  0.749568  1
  Ni  Ni2  1  0.000000  0.000000  0.000000  1
  Ni  Ni3  1  0.000000  0.000000  0.500000  1
  H  H4  1  0.107798  0.892202  0.750432  1
  H  H5  1  0.107798  0.215595  0.750432  1
  H  H6  1  0.784405  0.892202  0.750432  1
  H  H7  1  0.892202  0.107798  0.249568  1
  H  H8  1  0.892202  0.784405  0.249568  1
  H  H9  1  0.215595  0.107798  0.249568  1
