# generated using pymatgen
data_Sr4FeIrO8
_symmetry_space_group_name_H-M   'P 1'
_cell_length_a   6.89935214
_cell_length_b   6.89935182
_cell_length_c   5.62366300
_cell_angle_alpha   90.00000000
_cell_angle_beta   90.00000000
_cell_angle_gamma   131.91889107
_symmetry_Int_Tables_number   1
_chemical_formula_structural   Sr4FeIrO8
_chemical_formula_sum   'Sr4 Fe1 Ir1 O8'
_cell_volume   199.18752054
_cell_formula_units_Z   1
loop_
 _symmetry_equiv_pos_site_id
 _symmetry_equiv_pos_as_xyz
  1  'x, y, z'
loop_
 _atom_site_type_symbol
 _atom_site_label
 _atom_site_symmetry_multiplicity
 _atom_site_fract_x
 _atom_site_fract_y
 _atom_site_fract_z
 _atom_site_occupancy
  Sr  Sr0  1  0.644821  0.355179  0.000000  1
  Sr  Sr1  1  0.142986  0.857014  0.500000  1
  Sr  Sr2  1  0.857014  0.142986  0.500000  1
  Sr  Sr3  1  0.355179  0.644821  0.000000  1
  Fe  Fe4  1  0.000000  0.000000  0.000000  1
  Ir  Ir5  1  0.500000  0.500000  0.500000  1
  O  O6  1  0.748359  0.748359  0.253526  1
  O  O7  1  0.251641  0.251641  0.746474  1
  O  O8  1  0.251641  0.251641  0.253526  1
  O  O9  1  0.748359  0.748359  0.746474  1
  O  O10  1  0.838757  0.161243  0.000000  1
  O  O11  1  0.339766  0.660234  0.500000  1
  O  O12  1  0.660234  0.339766  0.500000  1
  O  O13  1  0.161243  0.838757  0.000000  1
