# generated using pymatgen
data_Y2TmCo8P6W
_symmetry_space_group_name_H-M   'P 1'
_cell_length_a   3.71304700
_cell_length_b   10.53409900
_cell_length_c   12.22992800
_cell_angle_alpha   90.00000000
_cell_angle_beta   90.00000000
_cell_angle_gamma   90.00000000
_symmetry_Int_Tables_number   1
_chemical_formula_structural   Y2TmCo8P6W
_chemical_formula_sum   'Y4 Tm2 Co16 P12 W2'
_cell_volume   478.35656917
_cell_formula_units_Z   2
loop_
 _symmetry_equiv_pos_site_id
 _symmetry_equiv_pos_as_xyz
  1  'x, y, z'
loop_
 _atom_site_type_symbol
 _atom_site_label
 _atom_site_symmetry_multiplicity
 _atom_site_fract_x
 _atom_site_fract_y
 _atom_site_fract_z
 _atom_site_occupancy
  Y  Y0  1  0.000000  0.500000  0.524068  1
  Y  Y1  1  0.500000  0.000000  0.475386  1
  Y  Y2  1  0.000000  0.680687  0.795119  1
  Y  Y3  1  0.000000  0.319313  0.795119  1
  Tm  Tm4  1  0.500000  0.819902  0.204822  1
  Tm  Tm5  1  0.500000  0.180098  0.204822  1
  Co  Co6  1  0.500000  0.500000  0.701301  1
  Co  Co7  1  0.000000  0.000000  0.297586  1
  Co  Co8  1  0.000000  0.500000  0.988224  1
  Co  Co9  1  0.500000  0.000000  0.013985  1
  Co  Co10  1  0.500000  0.332244  0.991388  1
  Co  Co11  1  0.500000  0.667756  0.991388  1
  Co  Co12  1  0.000000  0.166793  0.010989  1
  Co  Co13  1  0.000000  0.833207  0.010989  1
  Co  Co14  1  0.500000  0.295470  0.430332  1
  Co  Co15  1  0.500000  0.704530  0.430332  1
  Co  Co16  1  0.000000  0.203917  0.567869  1
  Co  Co17  1  0.000000  0.796083  0.567869  1
  Co  Co18  1  0.500000  0.878467  0.707337  1
  Co  Co19  1  0.500000  0.121533  0.707337  1
  Co  Co20  1  0.000000  0.622535  0.291663  1
  Co  Co21  1  0.000000  0.377465  0.291663  1
  P  P22  1  0.500000  0.500000  0.881256  1
  P  P23  1  0.000000  0.000000  0.120479  1
  P  P24  1  0.500000  0.500000  0.349798  1
  P  P25  1  0.000000  0.000000  0.650037  1
  P  P26  1  0.500000  0.311001  0.615348  1
  P  P27  1  0.500000  0.688999  0.615348  1
  P  P28  1  0.000000  0.188300  0.382483  1
  P  P29  1  0.000000  0.811700  0.382483  1
  P  P30  1  0.500000  0.844618  0.893150  1
  P  P31  1  0.500000  0.155382  0.893150  1
  P  P32  1  0.000000  0.656674  0.108172  1
  P  P33  1  0.000000  0.343326  0.108172  1
  W  W34  1  0.500000  0.500000  0.156281  1
  W  W35  1  0.000000  0.000000  0.844256  1
