# generated using pymatgen
data_Li2Er2TmSi3Ag
_symmetry_space_group_name_H-M   'P 1'
_cell_length_a   6.94490145
_cell_length_b   6.92599084
_cell_length_c   4.19860700
_cell_angle_alpha   90.00000000
_cell_angle_beta   90.00000000
_cell_angle_gamma   119.90996768
_symmetry_Int_Tables_number   1
_chemical_formula_structural   Li2Er2TmSi3Ag
_chemical_formula_sum   'Li2 Er2 Tm1 Si3 Ag1'
_cell_volume   175.05605853
_cell_formula_units_Z   1
loop_
 _symmetry_equiv_pos_site_id
 _symmetry_equiv_pos_as_xyz
  1  'x, y, z'
loop_
 _atom_site_type_symbol
 _atom_site_label
 _atom_site_symmetry_multiplicity
 _atom_site_fract_x
 _atom_site_fract_y
 _atom_site_fract_z
 _atom_site_occupancy
  Li  Li0  1  0.764302  0.768059  0.000000  1
  Li  Li1  1  0.235698  0.003757  0.000000  1
  Er  Er2  1  0.424358  0.423974  0.500000  1
  Er  Er3  1  0.575642  0.999616  0.500000  1
  Tm  Tm4  1  0.000000  0.572119  0.500000  1
  Si  Si5  1  0.665452  0.332118  0.000000  1
  Si  Si6  1  0.334548  0.666667  0.000000  1
  Si  Si7  1  0.000000  0.995964  0.500000  1
  Ag  Ag8  1  0.000000  0.237726  0.000000  1
