# generated using pymatgen
data_Pa2(Ni7B2)3
_symmetry_space_group_name_H-M   'P 1'
_cell_length_a   7.54187500
_cell_length_b   7.54187553
_cell_length_c   7.54187500
_cell_angle_alpha   120.00000205
_cell_angle_beta   90.00000000
_cell_angle_gamma   120.00000205
_symmetry_Int_Tables_number   1
_chemical_formula_structural   Pa2(Ni7B2)3
_chemical_formula_sum   'Pa2 Ni21 B6'
_cell_volume   303.33532981
_cell_formula_units_Z   1
loop_
 _symmetry_equiv_pos_site_id
 _symmetry_equiv_pos_as_xyz
  1  'x, y, z'
loop_
 _atom_site_type_symbol
 _atom_site_label
 _atom_site_symmetry_multiplicity
 _atom_site_fract_x
 _atom_site_fract_y
 _atom_site_fract_z
 _atom_site_occupancy
  Pa  Pa0  1  0.749998  0.499999  0.249999  1
  Pa  Pa1  1  0.249999  0.499999  0.749998  1
  Ni  Ni2  1  0.000000  0.000000  0.000000  1
  Ni  Ni3  1  0.338828  0.000000  0.000000  1
  Ni  Ni4  1  0.661172  0.000000  0.000000  1
  Ni  Ni5  1  0.000000  0.338828  0.000000  1
  Ni  Ni6  1  0.338828  0.338828  0.000000  1
  Ni  Ni7  1  0.000000  0.661172  0.000000  1
  Ni  Ni8  1  0.661172  0.661172  0.000000  1
  Ni  Ni9  1  0.386608  0.773217  0.159825  1
  Ni  Ni10  1  0.000000  0.000000  0.338828  1
  Ni  Ni11  1  0.000000  0.338828  0.338828  1
  Ni  Ni12  1  0.338828  0.338828  0.338828  1
  Ni  Ni13  1  0.613391  0.226783  0.386608  1
  Ni  Ni14  1  0.159825  0.773217  0.386608  1
  Ni  Ni15  1  0.613391  0.773217  0.386608  1
  Ni  Ni16  1  0.386608  0.226783  0.613391  1
  Ni  Ni17  1  0.840175  0.226783  0.613391  1
  Ni  Ni18  1  0.386608  0.773217  0.613391  1
  Ni  Ni19  1  0.000000  0.000000  0.661172  1
  Ni  Ni20  1  0.000000  0.661172  0.661172  1
  Ni  Ni21  1  0.661172  0.661172  0.661172  1
  Ni  Ni22  1  0.613391  0.226783  0.840175  1
  B  B23  1  0.733149  0.000000  0.266851  1
  B  B24  1  0.266852  0.000000  0.266852  1
  B  B25  1  0.266852  0.533702  0.266852  1
  B  B26  1  0.733149  0.000000  0.733149  1
  B  B27  1  0.266851  0.000000  0.733149  1
  B  B28  1  0.733149  0.466299  0.733149  1
