# generated using pymatgen
data_Yb2Lu4Si24OsRu7
_symmetry_space_group_name_H-M   'P 1'
_cell_length_a   10.12113036
_cell_length_b   10.12113329
_cell_length_c   8.08052700
_cell_angle_alpha   89.99859688
_cell_angle_beta   89.99859064
_cell_angle_gamma   132.84391077
_symmetry_Int_Tables_number   1
_chemical_formula_structural   Yb2Lu4Si24OsRu7
_chemical_formula_sum   'Yb2 Lu4 Si24 Os1 Ru7'
_cell_volume   606.91182022
_cell_formula_units_Z   1
loop_
 _symmetry_equiv_pos_site_id
 _symmetry_equiv_pos_as_xyz
  1  'x, y, z'
loop_
 _atom_site_type_symbol
 _atom_site_label
 _atom_site_symmetry_multiplicity
 _atom_site_fract_x
 _atom_site_fract_y
 _atom_site_fract_z
 _atom_site_occupancy
  Yb  Yb0  1  0.500021  0.499979  0.500000  1
  Yb  Yb1  1  0.000048  0.999952  0.000000  1
  Lu  Lu2  1  0.501060  0.001178  0.749948  1
  Lu  Lu3  1  0.998822  0.498940  0.250052  1
  Lu  Lu4  1  0.497835  0.997964  0.250016  1
  Lu  Lu5  1  0.002036  0.502165  0.749984  1
  Si  Si6  1  0.797095  0.202905  0.500000  1
  Si  Si7  1  0.296230  0.703770  0.000000  1
  Si  Si8  1  0.203781  0.796219  0.500000  1
  Si  Si9  1  0.703621  0.296379  0.000000  1
  Si  Si10  1  0.332279  0.333313  0.832690  1
  Si  Si11  1  0.666687  0.667721  0.167310  1
  Si  Si12  1  0.167868  0.166435  0.332605  1
  Si  Si13  1  0.833565  0.832132  0.667395  1
  Si  Si14  1  0.122939  0.889707  0.730186  1
  Si  Si15  1  0.110293  0.877061  0.269814  1
  Si  Si16  1  0.609589  0.377268  0.229344  1
  Si  Si17  1  0.622732  0.390411  0.770656  1
  Si  Si18  1  0.876128  0.108704  0.268968  1
  Si  Si19  1  0.891296  0.123872  0.731032  1
  Si  Si20  1  0.390018  0.623250  0.770030  1
  Si  Si21  1  0.376750  0.609982  0.229970  1
  Si  Si22  1  0.345924  0.113558  0.505982  1
  Si  Si23  1  0.886442  0.654076  0.494018  1
  Si  Si24  1  0.385589  0.152741  0.006429  1
  Si  Si25  1  0.847259  0.614411  0.993571  1
  Si  Si26  1  0.652274  0.885053  0.492278  1
  Si  Si27  1  0.114947  0.347726  0.507722  1
  Si  Si28  1  0.614174  0.846904  0.993936  1
  Si  Si29  1  0.153096  0.385826  0.006064  1
  Os  Os30  1  0.672610  0.327390  0.500000  1
  Ru  Ru31  1  0.172163  0.827837  0.000000  1
  Ru  Ru32  1  0.327823  0.672177  0.500000  1
  Ru  Ru33  1  0.827426  0.172574  0.000000  1
  Ru  Ru34  1  0.126182  0.126377  0.626428  1
  Ru  Ru35  1  0.873623  0.873818  0.373572  1
  Ru  Ru36  1  0.373473  0.373701  0.126424  1
  Ru  Ru37  1  0.626299  0.626527  0.873576  1
