# generated using pymatgen
data_LaDySbI2
_symmetry_space_group_name_H-M   'P 1'
_cell_length_a   4.45520900
_cell_length_b   4.45520997
_cell_length_c   11.28536900
_cell_angle_alpha   90.00000000
_cell_angle_beta   90.00000000
_cell_angle_gamma   120.00000025
_symmetry_Int_Tables_number   1
_chemical_formula_structural   LaDySbI2
_chemical_formula_sum   'La1 Dy1 Sb1 I2'
_cell_volume   193.99147851
_cell_formula_units_Z   1
loop_
 _symmetry_equiv_pos_site_id
 _symmetry_equiv_pos_as_xyz
  1  'x, y, z'
loop_
 _atom_site_type_symbol
 _atom_site_label
 _atom_site_symmetry_multiplicity
 _atom_site_fract_x
 _atom_site_fract_y
 _atom_site_fract_z
 _atom_site_occupancy
  La  La0  1  0.666667  0.333333  0.846067  1
  Dy  Dy1  1  0.333333  0.666667  0.155816  1
  Sb  Sb2  1  0.000000  0.000000  0.011698  1
  I  I3  1  0.333333  0.666667  0.662769  1
  I  I4  1  0.666667  0.333333  0.323649  1
