# generated using pymatgen
data_Tb5Dy6Tl8InNi4
_symmetry_space_group_name_H-M   'P 1'
_cell_length_a   3.69528400
_cell_length_b   13.02363728
_cell_length_c   13.02363783
_cell_angle_alpha   110.59185262
_cell_angle_beta   90.00000000
_cell_angle_gamma   90.00000000
_symmetry_Int_Tables_number   1
_chemical_formula_structural   Tb5Dy6Tl8InNi4
_chemical_formula_sum   'Tb5 Dy6 Tl8 In1 Ni4'
_cell_volume   586.73109345
_cell_formula_units_Z   1
loop_
 _symmetry_equiv_pos_site_id
 _symmetry_equiv_pos_as_xyz
  1  'x, y, z'
loop_
 _atom_site_type_symbol
 _atom_site_label
 _atom_site_symmetry_multiplicity
 _atom_site_fract_x
 _atom_site_fract_y
 _atom_site_fract_z
 _atom_site_occupancy
  Tb  Tb0  1  0.000000  0.840019  0.159981  1
  Tb  Tb1  1  0.000000  0.373258  0.626742  1
  Tb  Tb2  1  0.000000  0.626925  0.373075  1
  Tb  Tb3  1  0.000000  0.686974  0.686899  1
  Tb  Tb4  1  0.000000  0.313101  0.313026  1
  Dy  Dy5  1  0.000000  0.915280  0.577358  1
  Dy  Dy6  1  0.000000  0.084833  0.422923  1
  Dy  Dy7  1  0.000000  0.577077  0.915167  1
  Dy  Dy8  1  0.000000  0.422642  0.084720  1
  Dy  Dy9  1  0.000000  0.159977  0.840023  1
  Dy  Dy10  1  0.000000  0.999832  0.000168  1
  Tl  Tl11  1  0.500000  0.154973  0.631524  1
  Tl  Tl12  1  0.500000  0.844845  0.368881  1
  Tl  Tl13  1  0.500000  0.631119  0.155155  1
  Tl  Tl14  1  0.500000  0.368476  0.845027  1
  Tl  Tl15  1  0.500000  0.929288  0.780917  1
  Tl  Tl16  1  0.500000  0.071576  0.219498  1
  Tl  Tl17  1  0.500000  0.780502  0.928424  1
  Tl  Tl18  1  0.500000  0.219083  0.070712  1
  In  In19  1  0.500000  0.500127  0.499873  1
  Ni  Ni20  1  0.500000  0.748097  0.547764  1
  Ni  Ni21  1  0.500000  0.251921  0.452163  1
  Ni  Ni22  1  0.500000  0.547837  0.748079  1
  Ni  Ni23  1  0.500000  0.452236  0.251903  1
