# generated using pymatgen
data_Ho4Ga3GeRu4
_symmetry_space_group_name_H-M   'P 1'
_cell_length_a   4.48737900
_cell_length_b   7.11753383
_cell_length_c   7.14859455
_cell_angle_alpha   90.47847448
_cell_angle_beta   90.00000000
_cell_angle_gamma   90.00000000
_symmetry_Int_Tables_number   1
_chemical_formula_structural   Ho4Ga3GeRu4
_chemical_formula_sum   'Ho4 Ga3 Ge1 Ru4'
_cell_volume   228.31151359
_cell_formula_units_Z   1
loop_
 _symmetry_equiv_pos_site_id
 _symmetry_equiv_pos_as_xyz
  1  'x, y, z'
loop_
 _atom_site_type_symbol
 _atom_site_label
 _atom_site_symmetry_multiplicity
 _atom_site_fract_x
 _atom_site_fract_y
 _atom_site_fract_z
 _atom_site_occupancy
  Ho  Ho0  1  0.250000  0.482462  0.194184  1
  Ho  Ho1  1  0.750000  0.517893  0.804078  1
  Ho  Ho2  1  0.250000  0.979439  0.304271  1
  Ho  Ho3  1  0.750000  0.017126  0.696669  1
  Ga  Ga4  1  0.250000  0.801090  0.893242  1
  Ga  Ga5  1  0.750000  0.197877  0.106707  1
  Ga  Ga6  1  0.250000  0.299357  0.604832  1
  Ge  Ge7  1  0.750000  0.700695  0.396808  1
  Ru  Ru8  1  0.750000  0.837300  0.068509  1
  Ru  Ru9  1  0.250000  0.159986  0.936079  1
  Ru  Ru10  1  0.750000  0.347695  0.436256  1
  Ru  Ru11  1  0.250000  0.659080  0.558364  1
