# generated using pymatgen
data_Er4HfZr3Pt4
_symmetry_space_group_name_H-M   'P 1'
_cell_length_a   4.66831200
_cell_length_b   7.05407409
_cell_length_c   8.25695344
_cell_angle_alpha   90.04847505
_cell_angle_beta   90.00000000
_cell_angle_gamma   90.00000000
_symmetry_Int_Tables_number   1
_chemical_formula_structural   Er4HfZr3Pt4
_chemical_formula_sum   'Er4 Hf1 Zr3 Pt4'
_cell_volume   271.90648813
_cell_formula_units_Z   1
loop_
 _symmetry_equiv_pos_site_id
 _symmetry_equiv_pos_as_xyz
  1  'x, y, z'
loop_
 _atom_site_type_symbol
 _atom_site_label
 _atom_site_symmetry_multiplicity
 _atom_site_fract_x
 _atom_site_fract_y
 _atom_site_fract_z
 _atom_site_occupancy
  Er  Er0  1  0.250000  0.983002  0.322067  1
  Er  Er1  1  0.250000  0.481833  0.179271  1
  Er  Er2  1  0.750000  0.016509  0.675727  1
  Er  Er3  1  0.750000  0.518210  0.823494  1
  Hf  Hf4  1  0.750000  0.145998  0.076480  1
  Zr  Zr5  1  0.250000  0.351274  0.579145  1
  Zr  Zr6  1  0.250000  0.854563  0.921769  1
  Zr  Zr7  1  0.750000  0.646156  0.421807  1
  Pt  Pt8  1  0.250000  0.236095  0.908426  1
  Pt  Pt9  1  0.250000  0.733714  0.597054  1
  Pt  Pt10  1  0.750000  0.768760  0.097235  1
  Pt  Pt11  1  0.750000  0.263887  0.397525  1
