# generated using pymatgen
data_Tb13Y7Sn16
_symmetry_space_group_name_H-M   'P 1'
_cell_length_a   8.06270202
_cell_length_b   8.21669004
_cell_length_c   15.52750603
_cell_angle_alpha   90.00728970
_cell_angle_beta   90.00060786
_cell_angle_gamma   90.00896090
_symmetry_Int_Tables_number   1
_chemical_formula_structural   Tb13Y7Sn16
_chemical_formula_sum   'Tb13 Y7 Sn16'
_cell_volume   1028.67743178
_cell_formula_units_Z   1
loop_
 _symmetry_equiv_pos_site_id
 _symmetry_equiv_pos_as_xyz
  1  'x, y, z'
loop_
 _atom_site_type_symbol
 _atom_site_label
 _atom_site_symmetry_multiplicity
 _atom_site_fract_x
 _atom_site_fract_y
 _atom_site_fract_z
 _atom_site_occupancy
  Tb  Tb0  1  0.132639  0.336068  0.121611  1
  Tb  Tb1  1  0.632563  0.164120  0.121793  1
  Tb  Tb2  1  0.132390  0.335859  0.378273  1
  Tb  Tb3  1  0.367635  0.835884  0.621720  1
  Tb  Tb4  1  0.867709  0.664007  0.878336  1
  Tb  Tb5  1  0.519968  0.320185  0.902264  1
  Tb  Tb6  1  0.020053  0.179860  0.597787  1
  Tb  Tb7  1  0.480006  0.679940  0.402201  1
  Tb  Tb8  1  0.979957  0.820290  0.097875  1
  Tb  Tb9  1  0.479847  0.679453  0.097832  1
  Tb  Tb10  1  0.979720  0.820539  0.402189  1
  Tb  Tb11  1  0.520271  0.320541  0.597789  1
  Tb  Tb12  1  0.020257  0.179427  0.902096  1
  Y  Y13  1  0.367037  0.836365  0.878135  1
  Y  Y14  1  0.866986  0.663671  0.621739  1
  Y  Y15  1  0.632904  0.163658  0.378301  1
  Y  Y16  1  0.199222  0.502005  0.750144  1
  Y  Y17  1  0.699219  0.998008  0.749788  1
  Y  Y18  1  0.800822  0.498094  0.250200  1
  Y  Y19  1  0.300942  0.001859  0.249913  1
  Sn  Sn20  1  0.292629  0.035179  0.041636  1
  Sn  Sn21  1  0.792336  0.464523  0.458333  1
  Sn  Sn22  1  0.707701  0.964499  0.541646  1
  Sn  Sn23  1  0.207834  0.535783  0.958104  1
  Sn  Sn24  1  0.706794  0.964369  0.958074  1
  Sn  Sn25  1  0.206810  0.535610  0.541933  1
  Sn  Sn26  1  0.293142  0.035579  0.458008  1
  Sn  Sn27  1  0.792601  0.464510  0.041966  1
  Sn  Sn28  1  0.565274  0.618382  0.749869  1
  Sn  Sn29  1  0.065260  0.881586  0.750121  1
  Sn  Sn30  1  0.434968  0.381480  0.249960  1
  Sn  Sn31  1  0.934705  0.118352  0.250127  1
  Sn  Sn32  1  0.328756  0.146814  0.750031  1
  Sn  Sn33  1  0.828827  0.353305  0.749986  1
  Sn  Sn34  1  0.671060  0.853219  0.250106  1
  Sn  Sn35  1  0.171155  0.646977  0.250113  1
