# generated using pymatgen
data_CeHoEr(RhPb)3
_symmetry_space_group_name_H-M   'P 1'
_cell_length_a   7.72140810
_cell_length_b   7.81349992
_cell_length_c   3.89418900
_cell_angle_alpha   90.00000000
_cell_angle_beta   90.00000000
_cell_angle_gamma   120.39275497
_symmetry_Int_Tables_number   1
_chemical_formula_structural   CeHoEr(RhPb)3
_chemical_formula_sum   'Ce1 Ho1 Er1 Rh3 Pb3'
_cell_volume   202.65501053
_cell_formula_units_Z   1
loop_
 _symmetry_equiv_pos_site_id
 _symmetry_equiv_pos_as_xyz
  1  'x, y, z'
loop_
 _atom_site_type_symbol
 _atom_site_label
 _atom_site_symmetry_multiplicity
 _atom_site_fract_x
 _atom_site_fract_y
 _atom_site_fract_z
 _atom_site_occupancy
  Ce  Ce0  1  0.000001  0.588846  0.500000  1
  Ho  Ho1  1  0.595587  0.999549  0.500000  1
  Er  Er2  1  0.404393  0.403948  0.500000  1
  Rh  Rh3  1  0.000042  0.996309  0.500000  1
  Rh  Rh4  1  0.680417  0.345852  0.000000  1
  Rh  Rh5  1  0.319549  0.665335  0.000000  1
  Pb  Pb6  1  0.728908  0.736512  0.000000  1
  Pb  Pb7  1  0.271059  0.007647  0.000000  1
  Pb  Pb8  1  0.000044  0.256002  0.000000  1
