# generated using pymatgen
data_Hf7Co16Si9P3W
_symmetry_space_group_name_H-M   'P 1'
_cell_length_a   12.17871281
_cell_length_b   12.18944212
_cell_length_c   3.66647000
_cell_angle_alpha   90.00000000
_cell_angle_beta   90.00000000
_cell_angle_gamma   119.93291131
_symmetry_Int_Tables_number   1
_chemical_formula_structural   Hf7Co16Si9P3W
_chemical_formula_sum   'Hf7 Co16 Si9 P3 W1'
_cell_volume   471.69056132
_cell_formula_units_Z   1
loop_
 _symmetry_equiv_pos_site_id
 _symmetry_equiv_pos_as_xyz
  1  'x, y, z'
loop_
 _atom_site_type_symbol
 _atom_site_label
 _atom_site_symmetry_multiplicity
 _atom_site_fract_x
 _atom_site_fract_y
 _atom_site_fract_z
 _atom_site_occupancy
  Hf  Hf0  1  0.811035  0.812031  0.500000  1
  Hf  Hf1  1  0.999505  0.180142  0.500000  1
  Hf  Hf2  1  0.558275  0.000848  0.000000  1
  Hf  Hf3  1  0.335032  0.664246  0.000000  1
  Hf  Hf4  1  0.667269  0.336085  0.000000  1
  Hf  Hf5  1  0.001722  0.560525  0.000000  1
  Hf  Hf6  1  0.184185  0.001498  0.500000  1
  Co  Co7  1  0.628172  0.821303  0.000000  1
  Co  Co8  1  0.371179  0.193701  0.000000  1
  Co  Co9  1  0.000358  0.728150  0.500000  1
  Co  Co10  1  0.279447  0.277232  0.500000  1
  Co  Co11  1  0.880846  0.359561  0.500000  1
  Co  Co12  1  0.724637  0.997823  0.500000  1
  Co  Co13  1  0.822300  0.630534  0.000000  1
  Co  Co14  1  0.178695  0.812641  0.000000  1
  Co  Co15  1  0.357549  0.882324  0.500000  1
  Co  Co16  1  0.127172  0.483239  0.500000  1
  Co  Co17  1  0.641186  0.519360  0.500000  1
  Co  Co18  1  0.995003  0.994680  0.000000  1
  Co  Co19  1  0.518678  0.640658  0.500000  1
  Co  Co20  1  0.480104  0.125844  0.500000  1
  Co  Co21  1  0.197271  0.370672  0.000000  1
  Co  Co22  1  0.807644  0.174497  0.000000  1
  Si  Si23  1  0.002221  0.348665  0.000000  1
  Si  Si24  1  0.824315  0.517812  0.500000  1
  Si  Si25  1  0.695241  0.178126  0.500000  1
  Si  Si26  1  0.174201  0.174017  0.000000  1
  Si  Si27  1  0.641676  0.642213  0.000000  1
  Si  Si28  1  0.515377  0.823283  0.500000  1
  Si  Si29  1  0.178580  0.695840  0.500000  1
  Si  Si30  1  0.483032  0.312137  0.500000  1
  Si  Si31  1  0.311384  0.480940  0.500000  1
  P  P32  1  0.821549  0.997517  0.000000  1
  P  P33  1  0.349791  0.003006  0.000000  1
  P  P34  1  0.998772  0.822902  0.000000  1
  W  W35  1  0.436594  0.435948  0.000000  1
