# generated using pymatgen
data_Th8MgTe17
_symmetry_space_group_name_H-M   'P 1'
_cell_length_a   9.12891829
_cell_length_b   9.12891877
_cell_length_c   12.13665411
_cell_angle_alpha   79.88034983
_cell_angle_beta   79.88035074
_cell_angle_gamma   64.11960293
_symmetry_Int_Tables_number   1
_chemical_formula_structural   Th8MgTe17
_chemical_formula_sum   'Th8 Mg1 Te17'
_cell_volume   890.22291630
_cell_formula_units_Z   1
loop_
 _symmetry_equiv_pos_site_id
 _symmetry_equiv_pos_as_xyz
  1  'x, y, z'
loop_
 _atom_site_type_symbol
 _atom_site_label
 _atom_site_symmetry_multiplicity
 _atom_site_fract_x
 _atom_site_fract_y
 _atom_site_fract_z
 _atom_site_occupancy
  Th  Th0  1  0.183496  0.696990  0.701879  1
  Th  Th1  1  0.696990  0.183496  0.701879  1
  Th  Th2  1  0.816504  0.303010  0.298121  1
  Th  Th3  1  0.303010  0.816504  0.298121  1
  Th  Th4  1  0.798014  0.798014  0.456584  1
  Th  Th5  1  0.201986  0.201986  0.543416  1
  Th  Th6  1  0.316513  0.316513  0.018598  1
  Th  Th7  1  0.683487  0.683487  0.981402  1
  Mg  Mg8  1  0.000000  0.000000  0.000000  1
  Te  Te9  1  0.178882  0.566802  0.468058  1
  Te  Te10  1  0.566802  0.178882  0.468058  1
  Te  Te11  1  0.821118  0.433198  0.531942  1
  Te  Te12  1  0.433198  0.821118  0.531942  1
  Te  Te13  1  0.054515  0.672395  0.965238  1
  Te  Te14  1  0.672395  0.054515  0.965238  1
  Te  Te15  1  0.945485  0.327605  0.034762  1
  Te  Te16  1  0.327605  0.945485  0.034762  1
  Te  Te17  1  0.788334  0.788334  0.721148  1
  Te  Te18  1  0.211666  0.211666  0.278852  1
  Te  Te19  1  0.940621  0.940621  0.231215  1
  Te  Te20  1  0.059379  0.059379  0.768785  1
  Te  Te21  1  0.698193  0.698193  0.246525  1
  Te  Te22  1  0.301807  0.301807  0.753475  1
  Te  Te23  1  0.480028  0.480028  0.168185  1
  Te  Te24  1  0.519972  0.519972  0.831815  1
  Te  Te25  1  0.000000  0.000000  0.500000  1
