# generated using pymatgen
data_Li3(PrCd7)2
_symmetry_space_group_name_H-M   'P 1'
_cell_length_a   7.49472306
_cell_length_b   7.49472451
_cell_length_c   7.49472300
_cell_angle_alpha   82.61919901
_cell_angle_beta   82.61921299
_cell_angle_gamma   82.61919053
_symmetry_Int_Tables_number   1
_chemical_formula_structural   Li3(PrCd7)2
_chemical_formula_sum   'Li3 Pr2 Cd14'
_cell_volume   411.34620377
_cell_formula_units_Z   1
loop_
 _symmetry_equiv_pos_site_id
 _symmetry_equiv_pos_as_xyz
  1  'x, y, z'
loop_
 _atom_site_type_symbol
 _atom_site_label
 _atom_site_symmetry_multiplicity
 _atom_site_fract_x
 _atom_site_fract_y
 _atom_site_fract_z
 _atom_site_occupancy
  Li  Li0  1  0.000000  0.000000  0.500000  1
  Li  Li1  1  0.500000  0.000000  0.000000  1
  Li  Li2  1  0.000000  0.500000  0.000000  1
  Pr  Pr3  1  0.341891  0.341891  0.341891  1
  Pr  Pr4  1  0.658109  0.658109  0.658109  1
  Cd  Cd5  1  0.296799  0.703201  0.000000  1
  Cd  Cd6  1  0.852252  0.348438  0.348438  1
  Cd  Cd7  1  0.651562  0.147748  0.651562  1
  Cd  Cd8  1  0.108817  0.108817  0.108817  1
  Cd  Cd9  1  0.296799  0.000000  0.703201  1
  Cd  Cd10  1  0.703201  0.296799  0.000000  1
  Cd  Cd11  1  0.348438  0.348438  0.852252  1
  Cd  Cd12  1  0.891183  0.891183  0.891183  1
  Cd  Cd13  1  0.000000  0.703201  0.296799  1
  Cd  Cd14  1  0.703201  0.000000  0.296799  1
  Cd  Cd15  1  0.348438  0.852252  0.348438  1
  Cd  Cd16  1  0.147748  0.651562  0.651562  1
  Cd  Cd17  1  0.651562  0.651562  0.147748  1
  Cd  Cd18  1  0.000000  0.296799  0.703201  1
