# generated using pymatgen
data_Tm8Ti11Si16Ru
_symmetry_space_group_name_H-M   'P 1'
_cell_length_a   6.99110316
_cell_length_b   6.99110254
_cell_length_c   12.81458808
_cell_angle_alpha   90.03712376
_cell_angle_beta   89.96287597
_cell_angle_gamma   89.89308328
_symmetry_Int_Tables_number   1
_chemical_formula_structural   Tm8Ti11Si16Ru
_chemical_formula_sum   'Tm8 Ti11 Si16 Ru1'
_cell_volume   626.31829012
_cell_formula_units_Z   1
loop_
 _symmetry_equiv_pos_site_id
 _symmetry_equiv_pos_as_xyz
  1  'x, y, z'
loop_
 _atom_site_type_symbol
 _atom_site_label
 _atom_site_symmetry_multiplicity
 _atom_site_fract_x
 _atom_site_fract_y
 _atom_site_fract_z
 _atom_site_occupancy
  Tm  Tm0  1  0.341099  0.003637  0.467445  1
  Tm  Tm1  1  0.496855  0.841239  0.717880  1
  Tm  Tm2  1  0.500319  0.158867  0.215073  1
  Tm  Tm3  1  0.841239  0.496855  0.282120  1
  Tm  Tm4  1  0.158867  0.500319  0.784927  1
  Tm  Tm5  1  0.657885  0.998592  0.968564  1
  Tm  Tm6  1  0.003637  0.341099  0.532555  1
  Tm  Tm7  1  0.998592  0.657885  0.031436  1
  Ti  Ti8  1  0.174789  0.827281  0.248428  1
  Ti  Ti9  1  0.827281  0.174789  0.751572  1
  Ti  Ti10  1  0.673964  0.673964  0.500000  1
  Ti  Ti11  1  0.149800  0.002533  0.875077  1
  Ti  Ti12  1  0.493146  0.655203  0.124993  1
  Ti  Ti13  1  0.506545  0.349677  0.627922  1
  Ti  Ti14  1  0.655203  0.493146  0.875007  1
  Ti  Ti15  1  0.349677  0.506545  0.372078  1
  Ti  Ti16  1  0.849240  0.994642  0.375023  1
  Ti  Ti17  1  0.002533  0.149800  0.124923  1
  Ti  Ti18  1  0.994642  0.849240  0.624977  1
  Si  Si19  1  0.203265  0.133280  0.684236  1
  Si  Si20  1  0.371836  0.700791  0.933001  1
  Si  Si21  1  0.631822  0.296367  0.433807  1
  Si  Si22  1  0.700791  0.371836  0.066999  1
  Si  Si23  1  0.296367  0.631822  0.566193  1
  Si  Si24  1  0.795894  0.867008  0.183190  1
  Si  Si25  1  0.133280  0.203265  0.315764  1
  Si  Si26  1  0.867008  0.795894  0.816810  1
  Si  Si27  1  0.287902  0.953910  0.064396  1
  Si  Si28  1  0.546999  0.793111  0.315615  1
  Si  Si29  1  0.450217  0.208545  0.818133  1
  Si  Si30  1  0.793111  0.546999  0.684385  1
  Si  Si31  1  0.208545  0.450217  0.181867  1
  Si  Si32  1  0.707714  0.048058  0.565640  1
  Si  Si33  1  0.953910  0.287902  0.935604  1
  Si  Si34  1  0.048058  0.707714  0.434360  1
  Ru  Ru35  1  0.327968  0.327968  0.000000  1
