# generated using pymatgen
data_Er16TlCd(InRh2)2
_symmetry_space_group_name_H-M   'P 1'
_cell_length_a   9.57337926
_cell_length_b   9.57188126
_cell_length_c   9.57569507
_cell_angle_alpha   60.04087557
_cell_angle_beta   60.00800161
_cell_angle_gamma   59.99483151
_symmetry_Int_Tables_number   1
_chemical_formula_structural   Er16TlCd(InRh2)2
_chemical_formula_sum   'Er16 Tl1 Cd1 In2 Rh4'
_cell_volume   620.67056637
_cell_formula_units_Z   1
loop_
 _symmetry_equiv_pos_site_id
 _symmetry_equiv_pos_as_xyz
  1  'x, y, z'
loop_
 _atom_site_type_symbol
 _atom_site_label
 _atom_site_symmetry_multiplicity
 _atom_site_fract_x
 _atom_site_fract_y
 _atom_site_fract_z
 _atom_site_occupancy
  Er  Er0  1  0.189526  0.190324  0.809870  1
  Er  Er1  1  0.439549  0.057734  0.063170  1
  Er  Er2  1  0.437402  0.060533  0.436669  1
  Er  Er3  1  0.062465  0.435828  0.063614  1
  Er  Er4  1  0.650528  0.051555  0.647389  1
  Er  Er5  1  0.188635  0.811930  0.810800  1
  Er  Er6  1  0.065398  0.060533  0.436669  1
  Er  Er7  1  0.809498  0.190755  0.190249  1
  Er  Er8  1  0.810892  0.811745  0.188948  1
  Er  Er9  1  0.651413  0.647846  0.049329  1
  Er  Er10  1  0.653753  0.650307  0.650648  1
  Er  Er11  1  0.064753  0.433979  0.436514  1
  Er  Er12  1  0.045292  0.650307  0.650648  1
  Er  Er13  1  0.810280  0.190324  0.809870  1
  Er  Er14  1  0.438094  0.435828  0.063614  1
  Er  Er15  1  0.188414  0.811745  0.188948  1
  Tl  Tl16  1  0.413788  0.418171  0.754253  1
  Cd  Cd17  1  0.417517  0.747673  0.417292  1
  In  In18  1  0.748511  0.420062  0.415840  1
  In  In19  1  0.415587  0.420062  0.415840  1
  Rh  Rh20  1  0.857831  0.425429  0.858908  1
  Rh  Rh21  1  0.857142  0.859741  0.425975  1
  Rh  Rh22  1  0.427692  0.858796  0.857472  1
  Rh  Rh23  1  0.856041  0.858796  0.857472  1
