# generated using pymatgen
data_Sc8Be(NiB8)3
_symmetry_space_group_name_H-M   'P 1'
_cell_length_a   3.34552600
_cell_length_b   8.81789574
_cell_length_c   11.11880026
_cell_angle_alpha   90.00790693
_cell_angle_beta   90.00000000
_cell_angle_gamma   90.00000000
_symmetry_Int_Tables_number   1
_chemical_formula_structural   Sc8Be(NiB8)3
_chemical_formula_sum   'Sc8 Be1 Ni3 B24'
_cell_volume   328.01015812
_cell_formula_units_Z   1
loop_
 _symmetry_equiv_pos_site_id
 _symmetry_equiv_pos_as_xyz
  1  'x, y, z'
loop_
 _atom_site_type_symbol
 _atom_site_label
 _atom_site_symmetry_multiplicity
 _atom_site_fract_x
 _atom_site_fract_y
 _atom_site_fract_z
 _atom_site_occupancy
  Sc  Sc0  1  0.000000  0.945826  0.369797  1
  Sc  Sc1  1  0.000000  0.054965  0.629460  1
  Sc  Sc2  1  0.000000  0.556428  0.870528  1
  Sc  Sc3  1  0.000000  0.176891  0.916877  1
  Sc  Sc4  1  0.000000  0.826417  0.085903  1
  Sc  Sc5  1  0.000000  0.675884  0.584989  1
  Sc  Sc6  1  0.000000  0.321520  0.413394  1
  Sc  Sc7  1  0.000000  0.443205  0.129434  1
  Be  Be8  1  0.000000  0.140514  0.179042  1
  Ni  Ni9  1  0.000000  0.355414  0.681994  1
  Ni  Ni10  1  0.000000  0.857483  0.818697  1
  Ni  Ni11  1  0.000000  0.643097  0.318286  1
  B  B12  1  0.500000  0.365444  0.819839  1
  B  B13  1  0.500000  0.983792  0.211665  1
  B  B14  1  0.500000  0.553068  0.434752  1
  B  B15  1  0.500000  0.296897  0.237880  1
  B  B16  1  0.500000  0.202947  0.739224  1
  B  B17  1  0.500000  0.102333  0.472485  1
  B  B18  1  0.500000  0.797569  0.260466  1
  B  B19  1  0.500000  0.446384  0.564260  1
  B  B20  1  0.500000  0.249626  0.579629  1
  B  B21  1  0.500000  0.481447  0.289171  1
  B  B22  1  0.500000  0.703214  0.760186  1
  B  B23  1  0.500000  0.751387  0.419299  1
  B  B24  1  0.500000  0.515480  0.712016  1
  B  B25  1  0.500000  0.899202  0.526439  1
  B  B26  1  0.500000  0.054382  0.065743  1
  B  B27  1  0.500000  0.601086  0.026804  1
  B  B28  1  0.500000  0.751065  0.920504  1
  B  B29  1  0.500000  0.016532  0.789942  1
  B  B30  1  0.500000  0.397990  0.973213  1
  B  B31  1  0.500000  0.948202  0.937077  1
  B  B32  1  0.500000  0.634480  0.181091  1
  B  B33  1  0.500000  0.251031  0.080733  1
  B  B34  1  0.500000  0.864838  0.680646  1
  B  B35  1  0.500000  0.133965  0.318534  1
