# generated using pymatgen
data_TbYTm2(ZnSi)4
_symmetry_space_group_name_H-M   'P 1'
_cell_length_a   4.16026400
_cell_length_b   4.16026546
_cell_length_c   15.52035800
_cell_angle_alpha   90.00000000
_cell_angle_beta   90.00000000
_cell_angle_gamma   119.99998837
_symmetry_Int_Tables_number   1
_chemical_formula_structural   TbYTm2(ZnSi)4
_chemical_formula_sum   'Tb1 Y1 Tm2 Zn4 Si4'
_cell_volume   232.63462316
_cell_formula_units_Z   1
loop_
 _symmetry_equiv_pos_site_id
 _symmetry_equiv_pos_as_xyz
  1  'x, y, z'
loop_
 _atom_site_type_symbol
 _atom_site_label
 _atom_site_symmetry_multiplicity
 _atom_site_fract_x
 _atom_site_fract_y
 _atom_site_fract_z
 _atom_site_occupancy
  Tb  Tb0  1  0.000000  0.000000  0.500000  1
  Y  Y1  1  0.000000  0.000000  0.000000  1
  Tm  Tm2  1  0.000000  0.000000  0.249731  1
  Tm  Tm3  1  0.000000  0.000000  0.750269  1
  Zn  Zn4  1  0.333333  0.666667  0.144249  1
  Zn  Zn5  1  0.666667  0.333333  0.855751  1
  Zn  Zn6  1  0.666667  0.333333  0.644208  1
  Zn  Zn7  1  0.333333  0.666667  0.355792  1
  Si  Si8  1  0.333333  0.666667  0.619660  1
  Si  Si9  1  0.666667  0.333333  0.380340  1
  Si  Si10  1  0.666667  0.333333  0.119547  1
  Si  Si11  1  0.333333  0.666667  0.880453  1
