# generated using pymatgen
data_Pr6Ho10Cd4Co3Ir
_symmetry_space_group_name_H-M   'P 1'
_cell_length_a   9.66270589
_cell_length_b   9.62418882
_cell_length_c   9.62418800
_cell_angle_alpha   60.00000283
_cell_angle_beta   60.13177647
_cell_angle_gamma   60.13178013
_symmetry_Int_Tables_number   1
_chemical_formula_structural   Pr6Ho10Cd4Co3Ir
_chemical_formula_sum   'Pr6 Ho10 Cd4 Co3 Ir1'
_cell_volume   634.12398460
_cell_formula_units_Z   1
loop_
 _symmetry_equiv_pos_site_id
 _symmetry_equiv_pos_as_xyz
  1  'x, y, z'
loop_
 _atom_site_type_symbol
 _atom_site_label
 _atom_site_symmetry_multiplicity
 _atom_site_fract_x
 _atom_site_fract_y
 _atom_site_fract_z
 _atom_site_occupancy
  Pr  Pr0  1  0.939901  0.559854  0.559854  1
  Pr  Pr1  1  0.559804  0.940909  0.940909  1
  Pr  Pr2  1  0.559804  0.940909  0.558378  1
  Pr  Pr3  1  0.939901  0.559854  0.940392  1
  Pr  Pr4  1  0.559804  0.558378  0.940909  1
  Pr  Pr5  1  0.939901  0.940392  0.559854  1
  Ho  Ho6  1  0.340450  0.348094  0.348094  1
  Ho  Ho7  1  0.340450  0.348094  0.963361  1
  Ho  Ho8  1  0.340450  0.963361  0.348094  1
  Ho  Ho9  1  0.965597  0.344801  0.344801  1
  Ho  Ho10  1  0.818787  0.186147  0.186147  1
  Ho  Ho11  1  0.187003  0.813814  0.813814  1
  Ho  Ho12  1  0.187003  0.813814  0.185369  1
  Ho  Ho13  1  0.818787  0.186147  0.808919  1
  Ho  Ho14  1  0.187003  0.185369  0.813814  1
  Ho  Ho15  1  0.818787  0.808919  0.186147  1
  Cd  Cd16  1  0.579179  0.578821  0.578821  1
  Cd  Cd17  1  0.579179  0.578821  0.263178  1
  Cd  Cd18  1  0.579179  0.263178  0.578821  1
  Cd  Cd19  1  0.262765  0.579078  0.579078  1
  Co  Co20  1  0.139823  0.141164  0.141164  1
  Co  Co21  1  0.139823  0.141164  0.577851  1
  Co  Co22  1  0.139823  0.577851  0.141164  1
  Ir  Ir23  1  0.576800  0.141066  0.141066  1
