# generated using pymatgen
data_Tb4Dy3TmAu4
_symmetry_space_group_name_H-M   'P 1'
_cell_length_a   4.96859000
_cell_length_b   7.15417004
_cell_length_c   9.00628500
_cell_angle_alpha   90.05279352
_cell_angle_beta   90.00000000
_cell_angle_gamma   90.00000000
_symmetry_Int_Tables_number   1
_chemical_formula_structural   Tb4Dy3TmAu4
_chemical_formula_sum   'Tb4 Dy3 Tm1 Au4'
_cell_volume   320.13851091
_cell_formula_units_Z   1
loop_
 _symmetry_equiv_pos_site_id
 _symmetry_equiv_pos_as_xyz
  1  'x, y, z'
loop_
 _atom_site_type_symbol
 _atom_site_label
 _atom_site_symmetry_multiplicity
 _atom_site_fract_x
 _atom_site_fract_y
 _atom_site_fract_z
 _atom_site_occupancy
  Tb  Tb0  1  0.250000  0.487547  0.176075  1
  Tb  Tb1  1  0.750000  0.514075  0.823519  1
  Tb  Tb2  1  0.250000  0.986887  0.323229  1
  Tb  Tb3  1  0.750000  0.012703  0.676692  1
  Dy  Dy4  1  0.750000  0.648417  0.419014  1
  Dy  Dy5  1  0.250000  0.351790  0.581302  1
  Dy  Dy6  1  0.750000  0.148263  0.080199  1
  Tm  Tm7  1  0.250000  0.851832  0.919484  1
  Au  Au8  1  0.250000  0.254348  0.900977  1
  Au  Au9  1  0.750000  0.743899  0.097466  1
  Au  Au10  1  0.250000  0.757029  0.600999  1
  Au  Au11  1  0.750000  0.243210  0.401044  1
