# generated using pymatgen
data_ErSc4Bi2Pb
_symmetry_space_group_name_H-M   'P 1'
_cell_length_a   7.86814800
_cell_length_b   9.10480100
_cell_length_c   11.52828800
_cell_angle_alpha   90.00000000
_cell_angle_beta   90.00000000
_cell_angle_gamma   90.00000000
_symmetry_Int_Tables_number   1
_chemical_formula_structural   ErSc4Bi2Pb
_chemical_formula_sum   'Er4 Sc16 Bi8 Pb4'
_cell_volume   825.86259398
_cell_formula_units_Z   4
loop_
 _symmetry_equiv_pos_site_id
 _symmetry_equiv_pos_as_xyz
  1  'x, y, z'
loop_
 _atom_site_type_symbol
 _atom_site_label
 _atom_site_symmetry_multiplicity
 _atom_site_fract_x
 _atom_site_fract_y
 _atom_site_fract_z
 _atom_site_occupancy
  Er  Er0  1  0.312562  0.251168  0.218881  1
  Er  Er1  1  0.812562  0.248832  0.281119  1
  Er  Er2  1  0.687438  0.751168  0.781119  1
  Er  Er3  1  0.187438  0.748832  0.718881  1
  Sc  Sc4  1  0.346677  0.750806  0.222943  1
  Sc  Sc5  1  0.846677  0.749194  0.277057  1
  Sc  Sc6  1  0.653323  0.250806  0.777057  1
  Sc  Sc7  1  0.153323  0.249194  0.722943  1
  Sc  Sc8  1  0.695941  0.565532  0.061970  1
  Sc  Sc9  1  0.195941  0.934468  0.438030  1
  Sc  Sc10  1  0.304059  0.065532  0.938030  1
  Sc  Sc11  1  0.804059  0.434468  0.561970  1
  Sc  Sc12  1  0.306034  0.433346  0.936893  1
  Sc  Sc13  1  0.806034  0.066654  0.563107  1
  Sc  Sc14  1  0.693966  0.933346  0.063107  1
  Sc  Sc15  1  0.193966  0.566654  0.436893  1
  Sc  Sc16  1  0.484451  0.248602  0.490687  1
  Sc  Sc17  1  0.984451  0.251398  0.009313  1
  Sc  Sc18  1  0.515549  0.748602  0.509313  1
  Sc  Sc19  1  0.015549  0.751398  0.990687  1
  Bi  Bi20  1  0.401898  0.749440  0.966619  1
  Bi  Bi21  1  0.901898  0.750560  0.533381  1
  Bi  Bi22  1  0.598102  0.249440  0.033381  1
  Bi  Bi23  1  0.098102  0.250560  0.466619  1
  Bi  Bi24  1  0.439017  0.007702  0.672783  1
  Bi  Bi25  1  0.939017  0.492298  0.827217  1
  Bi  Bi26  1  0.560983  0.507702  0.327217  1
  Bi  Bi27  1  0.060983  0.992298  0.172783  1
  Pb  Pb28  1  0.560861  0.992086  0.327247  1
  Pb  Pb29  1  0.060861  0.507914  0.172753  1
  Pb  Pb30  1  0.439139  0.492086  0.672753  1
  Pb  Pb31  1  0.939139  0.007914  0.827247  1
