# generated using pymatgen
data_Mn4Ni2P3
_symmetry_space_group_name_H-M   'P 1'
_cell_length_a   5.97381724
_cell_length_b   5.97673172
_cell_length_c   3.37607000
_cell_angle_alpha   90.00000000
_cell_angle_beta   90.00000000
_cell_angle_gamma   120.01613238
_symmetry_Int_Tables_number   1
_chemical_formula_structural   Mn4Ni2P3
_chemical_formula_sum   'Mn4 Ni2 P3'
_cell_volume   104.37275475
_cell_formula_units_Z   1
loop_
 _symmetry_equiv_pos_site_id
 _symmetry_equiv_pos_as_xyz
  1  'x, y, z'
loop_
 _atom_site_type_symbol
 _atom_site_label
 _atom_site_symmetry_multiplicity
 _atom_site_fract_x
 _atom_site_fract_y
 _atom_site_fract_z
 _atom_site_occupancy
  Mn  Mn0  1  0.595354  0.597466  0.500000  1
  Mn  Mn1  1  0.000000  0.744127  0.000000  1
  Mn  Mn2  1  0.404646  0.002112  0.500000  1
  Mn  Mn3  1  0.000000  0.400779  0.500000  1
  Ni  Ni4  1  0.258809  0.257518  0.000000  1
  Ni  Ni5  1  0.741191  0.998709  0.000000  1
  P  P6  1  0.331870  0.665536  0.000000  1
  P  P7  1  0.000000  0.000088  0.500000  1
  P  P8  1  0.668130  0.333664  0.000000  1
