# generated using pymatgen
data_SmAl10ReRh
_symmetry_space_group_name_H-M   'P 1'
_cell_length_a   6.89300179
_cell_length_b   6.92022611
_cell_length_c   9.21991600
_cell_angle_alpha   90.00000000
_cell_angle_beta   90.00000000
_cell_angle_gamma   96.60746626
_symmetry_Int_Tables_number   1
_chemical_formula_structural   SmAl10ReRh
_chemical_formula_sum   'Sm2 Al20 Re2 Rh2'
_cell_volume   436.87916940
_cell_formula_units_Z   2
loop_
 _symmetry_equiv_pos_site_id
 _symmetry_equiv_pos_as_xyz
  1  'x, y, z'
loop_
 _atom_site_type_symbol
 _atom_site_label
 _atom_site_symmetry_multiplicity
 _atom_site_fract_x
 _atom_site_fract_y
 _atom_site_fract_z
 _atom_site_occupancy
  Sm  Sm0  1  0.868009  0.120699  0.750000  1
  Sm  Sm1  1  0.131991  0.879301  0.250000  1
  Al  Al2  1  0.619861  0.375550  0.549210  1
  Al  Al3  1  0.380139  0.624450  0.450790  1
  Al  Al4  1  0.380139  0.624450  0.049210  1
  Al  Al5  1  0.619861  0.375550  0.950790  1
  Al  Al6  1  0.225399  0.224848  0.497971  1
  Al  Al7  1  0.774601  0.775152  0.502029  1
  Al  Al8  1  0.774601  0.775152  0.997971  1
  Al  Al9  1  0.225399  0.224848  0.002029  1
  Al  Al10  1  0.842028  0.158859  0.101661  1
  Al  Al11  1  0.157972  0.841141  0.898339  1
  Al  Al12  1  0.157972  0.841141  0.601661  1
  Al  Al13  1  0.842028  0.158859  0.398339  1
  Al  Al14  1  0.858491  0.588314  0.750000  1
  Al  Al15  1  0.141509  0.411686  0.250000  1
  Al  Al16  1  0.408806  0.140629  0.750000  1
  Al  Al17  1  0.591194  0.859371  0.250000  1
  Al  Al18  1  0.221966  0.481221  0.750000  1
  Al  Al19  1  0.778034  0.518779  0.250000  1
  Al  Al20  1  0.517694  0.781301  0.750000  1
  Al  Al21  1  0.482306  0.218699  0.250000  1
  Re  Re22  1  0.500000  0.000000  0.000000  1
  Re  Re23  1  0.500000  0.000000  0.500000  1
  Rh  Rh24  1  0.000000  0.500000  0.500000  1
  Rh  Rh25  1  0.000000  0.500000  0.000000  1
