# generated using pymatgen
data_TbHoCu2(AuO4)2
_symmetry_space_group_name_H-M   'P 1'
_cell_length_a   6.44748190
_cell_length_b   6.44748230
_cell_length_c   6.48811050
_cell_angle_alpha   125.98606057
_cell_angle_beta   126.07010853
_cell_angle_gamma   79.41023503
_symmetry_Int_Tables_number   1
_chemical_formula_structural   TbHoCu2(AuO4)2
_chemical_formula_sum   'Tb1 Ho1 Cu2 Au2 O8'
_cell_volume   170.89283296
_cell_formula_units_Z   1
loop_
 _symmetry_equiv_pos_site_id
 _symmetry_equiv_pos_as_xyz
  1  'x, y, z'
loop_
 _atom_site_type_symbol
 _atom_site_label
 _atom_site_symmetry_multiplicity
 _atom_site_fract_x
 _atom_site_fract_y
 _atom_site_fract_z
 _atom_site_occupancy
  Tb  Tb0  1  0.000141  0.000141  0.000000  1
  Ho  Ho1  1  0.749741  0.249741  0.500000  1
  Cu  Cu2  1  0.374857  0.624702  0.249571  1
  Cu  Cu3  1  0.375131  0.125286  0.750429  1
  Au  Au4  1  0.375192  0.624531  0.749752  1
  Au  Au5  1  0.874779  0.625440  0.250248  1
  O  O6  1  0.739390  0.286478  0.141095  1
  O  O7  1  0.145384  0.598295  0.858905  1
  O  O8  1  0.009471  0.966131  0.362120  1
  O  O9  1  0.604010  0.647351  0.637880  1
  O  O10  1  0.045140  0.387615  0.035138  1
  O  O11  1  0.352477  0.010004  0.964862  1
  O  O12  1  0.401956  0.240775  0.538446  1
  O  O13  1  0.702330  0.863510  0.461554  1
