# generated using pymatgen
data_Y8Lu2OsRu3
_symmetry_space_group_name_H-M   'P 1'
_cell_length_a   6.33640424
_cell_length_b   7.29888131
_cell_length_c   8.48323182
_cell_angle_alpha   96.75917485
_cell_angle_beta   111.99614370
_cell_angle_gamma   89.90858389
_symmetry_Int_Tables_number   1
_chemical_formula_structural   Y8Lu2OsRu3
_chemical_formula_sum   'Y8 Lu2 Os1 Ru3'
_cell_volume   360.86627023
_cell_formula_units_Z   1
loop_
 _symmetry_equiv_pos_site_id
 _symmetry_equiv_pos_as_xyz
  1  'x, y, z'
loop_
 _atom_site_type_symbol
 _atom_site_label
 _atom_site_symmetry_multiplicity
 _atom_site_fract_x
 _atom_site_fract_y
 _atom_site_fract_z
 _atom_site_occupancy
  Y  Y0  1  0.523676  0.083436  0.814767  1
  Y  Y1  1  0.476319  0.916788  0.185306  1
  Y  Y2  1  0.709046  0.416797  0.185372  1
  Y  Y3  1  0.291257  0.583257  0.815271  1
  Y  Y4  1  0.296608  0.313558  0.432716  1
  Y  Y5  1  0.702523  0.686152  0.566718  1
  Y  Y6  1  0.863956  0.186396  0.567308  1
  Y  Y7  1  0.136396  0.813322  0.432398  1
  Lu  Lu8  1  0.077824  0.250397  0.000255  1
  Lu  Lu9  1  0.922879  0.749670  0.000296  1
  Os  Os10  1  0.315216  0.574496  0.214947  1
  Ru  Ru11  1  0.684499  0.425587  0.784907  1
  Ru  Ru12  1  0.100235  0.926263  0.784551  1
  Ru  Ru13  1  0.899565  0.073882  0.215191  1
