# generated using pymatgen
data_BaYb2FeO5
_symmetry_space_group_name_H-M   'P 1'
_cell_length_a   12.19397500
_cell_length_b   5.70539700
_cell_length_c   7.05796400
_cell_angle_alpha   90.00000000
_cell_angle_beta   90.00000000
_cell_angle_gamma   90.00000000
_symmetry_Int_Tables_number   1
_chemical_formula_structural   BaYb2FeO5
_chemical_formula_sum   'Ba4 Yb8 Fe4 O20'
_cell_volume   491.03291927
_cell_formula_units_Z   4
loop_
 _symmetry_equiv_pos_site_id
 _symmetry_equiv_pos_as_xyz
  1  'x, y, z'
loop_
 _atom_site_type_symbol
 _atom_site_label
 _atom_site_symmetry_multiplicity
 _atom_site_fract_x
 _atom_site_fract_y
 _atom_site_fract_z
 _atom_site_occupancy
  Ba  Ba0  1  0.897074  0.250000  0.930074  1
  Ba  Ba1  1  0.602926  0.750000  0.430073  1
  Ba  Ba2  1  0.397074  0.250000  0.569927  1
  Ba  Ba3  1  0.102925  0.750000  0.069927  1
  Yb  Yb4  1  0.295343  0.250000  0.118884  1
  Yb  Yb5  1  0.204657  0.750000  0.618884  1
  Yb  Yb6  1  0.795343  0.250000  0.381116  1
  Yb  Yb7  1  0.704657  0.750000  0.881116  1
  Yb  Yb8  1  0.073414  0.250000  0.388283  1
  Yb  Yb9  1  0.426587  0.750000  0.888283  1
  Yb  Yb10  1  0.573413  0.250000  0.111716  1
  Yb  Yb11  1  0.926587  0.750000  0.611716  1
  Fe  Fe12  1  0.655444  0.250000  0.698900  1
  Fe  Fe13  1  0.844556  0.750000  0.198900  1
  Fe  Fe14  1  0.155444  0.250000  0.801100  1
  Fe  Fe15  1  0.344555  0.750000  0.301100  1
  O  O16  1  0.101351  0.250000  0.057874  1
  O  O17  1  0.398649  0.750000  0.557874  1
  O  O18  1  0.601351  0.250000  0.442126  1
  O  O19  1  0.898649  0.750000  0.942126  1
  O  O20  1  0.234091  0.518067  0.344991  1
  O  O21  1  0.265908  0.481932  0.844991  1
  O  O22  1  0.734091  0.981932  0.155009  1
  O  O23  1  0.765908  0.018067  0.655008  1
  O  O24  1  0.765908  0.481932  0.655008  1
  O  O25  1  0.734091  0.518067  0.155009  1
  O  O26  1  0.265908  0.018067  0.844991  1
  O  O27  1  0.234091  0.981932  0.344991  1
  O  O28  1  0.432608  0.978261  0.179140  1
  O  O29  1  0.067393  0.021741  0.679140  1
  O  O30  1  0.932608  0.521739  0.320858  1
  O  O31  1  0.567392  0.478261  0.820859  1
  O  O32  1  0.567392  0.021741  0.820859  1
  O  O33  1  0.932608  0.978261  0.320858  1
  O  O34  1  0.067393  0.478261  0.679140  1
  O  O35  1  0.432608  0.521739  0.179140  1
