# generated using pymatgen
data_ScNb7O12
_symmetry_space_group_name_H-M   'P 1'
_cell_length_a   6.76581100
_cell_length_b   6.76581048
_cell_length_c   6.76581100
_cell_angle_alpha   73.44427880
_cell_angle_beta   73.44427127
_cell_angle_gamma   73.44426896
_symmetry_Int_Tables_number   1
_chemical_formula_structural   ScNb7O12
_chemical_formula_sum   'Sc1 Nb7 O12'
_cell_volume   277.48064335
_cell_formula_units_Z   1
loop_
 _symmetry_equiv_pos_site_id
 _symmetry_equiv_pos_as_xyz
  1  'x, y, z'
loop_
 _atom_site_type_symbol
 _atom_site_label
 _atom_site_symmetry_multiplicity
 _atom_site_fract_x
 _atom_site_fract_y
 _atom_site_fract_z
 _atom_site_occupancy
  Sc  Sc0  1  0.726793  0.726793  0.726793  1
  Nb  Nb1  1  0.273948  0.273948  0.273948  1
  Nb  Nb2  1  0.939388  0.112658  0.709639  1
  Nb  Nb3  1  0.709639  0.939388  0.112658  1
  Nb  Nb4  1  0.112658  0.709639  0.939388  1
  Nb  Nb5  1  0.049994  0.885471  0.292741  1
  Nb  Nb6  1  0.292741  0.049994  0.885471  1
  Nb  Nb7  1  0.885471  0.292741  0.049994  1
  O  O8  1  0.172274  0.574681  0.260798  1
  O  O9  1  0.260798  0.172274  0.574681  1
  O  O10  1  0.574681  0.260798  0.172274  1
  O  O11  1  0.832840  0.413581  0.748405  1
  O  O12  1  0.748405  0.832840  0.413581  1
  O  O13  1  0.413581  0.748405  0.832840  1
  O  O14  1  0.642289  0.040786  0.804218  1
  O  O15  1  0.804218  0.642289  0.040786  1
  O  O16  1  0.966896  0.201198  0.351399  1
  O  O17  1  0.201198  0.351399  0.966896  1
  O  O18  1  0.351399  0.966896  0.201198  1
  O  O19  1  0.040786  0.804218  0.642289  1
