# generated using pymatgen
data_YTm3(WO6)2
_symmetry_space_group_name_H-M   'P 1'
_cell_length_a   5.35327100
_cell_length_b   7.64449211
_cell_length_c   11.39193304
_cell_angle_alpha   75.26967863
_cell_angle_beta   90.00000000
_cell_angle_gamma   90.00000000
_symmetry_Int_Tables_number   1
_chemical_formula_structural   YTm3(WO6)2
_chemical_formula_sum   'Y2 Tm6 W4 O24'
_cell_volume   450.87031098
_cell_formula_units_Z   2
loop_
 _symmetry_equiv_pos_site_id
 _symmetry_equiv_pos_as_xyz
  1  'x, y, z'
loop_
 _atom_site_type_symbol
 _atom_site_label
 _atom_site_symmetry_multiplicity
 _atom_site_fract_x
 _atom_site_fract_y
 _atom_site_fract_z
 _atom_site_occupancy
  Y  Y0  1  0.684838  0.500000  0.750000  1
  Y  Y1  1  0.315162  0.500000  0.250000  1
  Tm  Tm2  1  0.740058  0.000000  0.750000  1
  Tm  Tm3  1  0.259942  0.000000  0.250000  1
  Tm  Tm4  1  0.185892  0.796750  0.578207  1
  Tm  Tm5  1  0.814108  0.796750  0.078207  1
  Tm  Tm6  1  0.185892  0.203250  0.921793  1
  Tm  Tm7  1  0.814108  0.203250  0.421793  1
  W  W8  1  0.254343  0.723903  0.885677  1
  W  W9  1  0.745657  0.723903  0.385677  1
  W  W10  1  0.254343  0.276097  0.614323  1
  W  W11  1  0.745657  0.276097  0.114323  1
  O  O12  1  0.039530  0.941275  0.895545  1
  O  O13  1  0.534175  0.849283  0.930907  1
  O  O14  1  0.960470  0.941275  0.395545  1
  O  O15  1  0.460552  0.792207  0.726359  1
  O  O16  1  0.465825  0.849283  0.430907  1
  O  O17  1  0.982483  0.713148  0.769633  1
  O  O18  1  0.539448  0.792207  0.226359  1
  O  O19  1  0.854587  0.635483  0.549173  1
  O  O20  1  0.359172  0.487882  0.887450  1
  O  O21  1  0.017517  0.713148  0.269633  1
  O  O22  1  0.359172  0.512118  0.612550  1
  O  O23  1  0.854587  0.364517  0.950827  1
  O  O24  1  0.145413  0.635483  0.049173  1
  O  O25  1  0.640828  0.487882  0.387450  1
  O  O26  1  0.982483  0.286852  0.730367  1
  O  O27  1  0.640828  0.512118  0.112550  1
  O  O28  1  0.145413  0.364517  0.450827  1
  O  O29  1  0.460552  0.207793  0.773641  1
  O  O30  1  0.017517  0.286852  0.230367  1
  O  O31  1  0.534175  0.150717  0.569093  1
  O  O32  1  0.539448  0.207793  0.273641  1
  O  O33  1  0.039530  0.058725  0.604455  1
  O  O34  1  0.465825  0.150717  0.069093  1
  O  O35  1  0.960470  0.058725  0.104455  1
