# generated using pymatgen
data_Ba3Dy2WO9
_symmetry_space_group_name_H-M   'P 1'
_cell_length_a   6.10844600
_cell_length_b   6.10844601
_cell_length_c   7.47210500
_cell_angle_alpha   90.00000000
_cell_angle_beta   90.00000000
_cell_angle_gamma   119.99998913
_symmetry_Int_Tables_number   1
_chemical_formula_structural   Ba3Dy2WO9
_chemical_formula_sum   'Ba3 Dy2 W1 O9'
_cell_volume   241.45439997
_cell_formula_units_Z   1
loop_
 _symmetry_equiv_pos_site_id
 _symmetry_equiv_pos_as_xyz
  1  'x, y, z'
loop_
 _atom_site_type_symbol
 _atom_site_label
 _atom_site_symmetry_multiplicity
 _atom_site_fract_x
 _atom_site_fract_y
 _atom_site_fract_z
 _atom_site_occupancy
  Ba  Ba0  1  0.000000  0.000000  0.500000  1
  Ba  Ba1  1  0.666667  0.333333  0.813418  1
  Ba  Ba2  1  0.333333  0.666667  0.186582  1
  Dy  Dy3  1  0.666667  0.333333  0.329719  1
  Dy  Dy4  1  0.333333  0.666667  0.670281  1
  W  W5  1  0.000000  0.000000  0.000000  1
  O  O6  1  0.695579  0.847789  0.849624  1
  O  O7  1  0.304421  0.152211  0.150376  1
  O  O8  1  0.000000  0.500000  0.500000  1
  O  O9  1  0.500000  0.000000  0.500000  1
  O  O10  1  0.152211  0.304421  0.849624  1
  O  O11  1  0.847789  0.695579  0.150376  1
  O  O12  1  0.500000  0.500000  0.500000  1
  O  O13  1  0.152211  0.847789  0.849624  1
  O  O14  1  0.847789  0.152211  0.150376  1
