# generated using pymatgen
data_Tb2Dy4Al24Ir5Ru3
_symmetry_space_group_name_H-M   'P 1'
_cell_length_a   8.82710124
_cell_length_b   8.78381857
_cell_length_c   9.53665701
_cell_angle_alpha   90.00000283
_cell_angle_beta   90.10354647
_cell_angle_gamma   119.83793106
_symmetry_Int_Tables_number   1
_chemical_formula_structural   Tb2Dy4Al24Ir5Ru3
_chemical_formula_sum   'Tb2 Dy4 Al24 Ir5 Ru3'
_cell_volume   641.40782679
_cell_formula_units_Z   1
loop_
 _symmetry_equiv_pos_site_id
 _symmetry_equiv_pos_as_xyz
  1  'x, y, z'
loop_
 _atom_site_type_symbol
 _atom_site_label
 _atom_site_symmetry_multiplicity
 _atom_site_fract_x
 _atom_site_fract_y
 _atom_site_fract_z
 _atom_site_occupancy
  Tb  Tb0  1  0.190842  0.806410  0.249821  1
  Tb  Tb1  1  0.190842  0.384432  0.249821  1
  Dy  Dy2  1  0.614677  0.807338  0.249908  1
  Dy  Dy3  1  0.808825  0.194271  0.750243  1
  Dy  Dy4  1  0.808825  0.614554  0.750243  1
  Dy  Dy5  1  0.385445  0.192723  0.750091  1
  Al  Al6  1  0.562015  0.436940  0.250253  1
  Al  Al7  1  0.562015  0.125075  0.250253  1
  Al  Al8  1  0.875398  0.437698  0.248690  1
  Al  Al9  1  0.438382  0.563202  0.749754  1
  Al  Al10  1  0.438382  0.875179  0.749754  1
  Al  Al11  1  0.124217  0.562109  0.751265  1
  Al  Al12  1  0.325935  0.162967  0.423844  1
  Al  Al13  1  0.835210  0.162400  0.423529  1
  Al  Al14  1  0.835210  0.672809  0.423529  1
  Al  Al15  1  0.674446  0.837223  0.576653  1
  Al  Al16  1  0.164587  0.837554  0.577117  1
  Al  Al17  1  0.164587  0.327034  0.577117  1
  Al  Al18  1  0.673561  0.836781  0.924246  1
  Al  Al19  1  0.162401  0.835347  0.923015  1
  Al  Al20  1  0.162401  0.327054  0.923015  1
  Al  Al21  1  0.326829  0.163414  0.075241  1
  Al  Al22  1  0.837328  0.164555  0.076334  1
  Al  Al23  1  0.837328  0.672773  0.076334  1
  Al  Al24  1  0.667495  0.333747  0.528843  1
  Al  Al25  1  0.332713  0.666358  0.471929  1
  Al  Al26  1  0.330560  0.665281  0.027347  1
  Al  Al27  1  0.669583  0.334791  0.971894  1
  Al  Al28  1  0.997337  0.998668  0.250058  1
  Al  Al29  1  0.001987  0.000994  0.749960  1
  Ir  Ir30  1  0.500251  0.500066  0.500170  1
  Ir  Ir31  1  0.500251  0.000185  0.500170  1
  Ir  Ir32  1  0.999835  0.499918  0.500280  1
  Ir  Ir33  1  0.500240  0.500064  0.999826  1
  Ir  Ir34  1  0.500240  0.000175  0.999826  1
  Ru  Ru35  1  0.000033  0.000016  0.500054  1
  Ru  Ru36  1  0.000025  0.000013  0.999968  1
  Ru  Ru37  1  0.999762  0.499881  0.999606  1
