# generated using pymatgen
data_In2As2I2O5
_symmetry_space_group_name_H-M   'P 1'
_cell_length_a   6.94223385
_cell_length_b   7.85654510
_cell_length_c   10.27715158
_cell_angle_alpha   108.94078801
_cell_angle_beta   100.50053521
_cell_angle_gamma   101.18774955
_symmetry_Int_Tables_number   1
_chemical_formula_structural   In2As2I2O5
_chemical_formula_sum   'In4 As4 I4 O10'
_cell_volume   501.61784726
_cell_formula_units_Z   2
loop_
 _symmetry_equiv_pos_site_id
 _symmetry_equiv_pos_as_xyz
  1  'x, y, z'
loop_
 _atom_site_type_symbol
 _atom_site_label
 _atom_site_symmetry_multiplicity
 _atom_site_fract_x
 _atom_site_fract_y
 _atom_site_fract_z
 _atom_site_occupancy
  In  In0  1  0.399168  0.689571  0.511180  1
  In  In1  1  0.600832  0.310429  0.488820  1
  In  In2  1  0.872414  0.791494  0.354208  1
  In  In3  1  0.127586  0.208506  0.645792  1
  As  As4  1  0.853310  0.835771  0.712824  1
  As  As5  1  0.146690  0.164229  0.287176  1
  As  As6  1  0.665713  0.207567  0.758243  1
  As  As7  1  0.334287  0.792433  0.241757  1
  I  I8  1  0.235778  0.630107  0.733302  1
  I  I9  1  0.764222  0.369893  0.266698  1
  I  I10  1  0.791482  0.739397  0.061207  1
  I  I11  1  0.208518  0.260603  0.938793  1
  O  O12  1  0.818387  0.261080  0.641321  1
  O  O13  1  0.181613  0.738920  0.358679  1
  O  O14  1  0.555262  0.787108  0.363516  1
  O  O15  1  0.444738  0.212892  0.636484  1
  O  O16  1  0.630340  0.947840  0.689548  1
  O  O17  1  0.369660  0.052160  0.310452  1
  O  O18  1  0.676109  0.618819  0.589833  1
  O  O19  1  0.323891  0.381181  0.410167  1
  O  O20  1  0.972221  0.903890  0.586717  1
  O  O21  1  0.027779  0.096110  0.413283  1
