# generated using pymatgen
data_DyTm2Lu2Sn3
_symmetry_space_group_name_H-M   'P 1'
_cell_length_a   8.84351793
_cell_length_b   8.85054765
_cell_length_c   6.43922500
_cell_angle_alpha   90.00000000
_cell_angle_beta   90.00000000
_cell_angle_gamma   120.02629894
_symmetry_Int_Tables_number   1
_chemical_formula_structural   DyTm2Lu2Sn3
_chemical_formula_sum   'Dy2 Tm4 Lu4 Sn6'
_cell_volume   436.35934987
_cell_formula_units_Z   2
loop_
 _symmetry_equiv_pos_site_id
 _symmetry_equiv_pos_as_xyz
  1  'x, y, z'
loop_
 _atom_site_type_symbol
 _atom_site_label
 _atom_site_symmetry_multiplicity
 _atom_site_fract_x
 _atom_site_fract_y
 _atom_site_fract_z
 _atom_site_occupancy
  Dy  Dy0  1  0.761549  0.761876  0.750000  1
  Dy  Dy1  1  0.238451  0.000327  0.750000  1
  Tm  Tm2  1  0.000000  0.238438  0.750000  1
  Tm  Tm3  1  0.237923  0.237992  0.250000  1
  Tm  Tm4  1  0.762077  0.000069  0.250000  1
  Tm  Tm5  1  0.000000  0.761476  0.250000  1
  Lu  Lu6  1  0.666845  0.333367  0.000091  1
  Lu  Lu7  1  0.333155  0.666523  0.000091  1
  Lu  Lu8  1  0.333155  0.666523  0.499909  1
  Lu  Lu9  1  0.666845  0.333367  0.499909  1
  Sn  Sn10  1  0.395257  0.396011  0.750000  1
  Sn  Sn11  1  0.604743  0.000754  0.750000  1
  Sn  Sn12  1  0.000000  0.602869  0.750000  1
  Sn  Sn13  1  0.604612  0.604657  0.250000  1
  Sn  Sn14  1  0.395388  0.000045  0.250000  1
  Sn  Sn15  1  0.000000  0.395706  0.250000  1
