# generated using pymatgen
data_Tb8NiHg2Pd
_symmetry_space_group_name_H-M   'P 1'
_cell_length_a   9.62665345
_cell_length_b   9.63905010
_cell_length_c   9.63904992
_cell_angle_alpha   60.05383528
_cell_angle_beta   60.04253279
_cell_angle_gamma   60.04253564
_symmetry_Int_Tables_number   1
_chemical_formula_structural   Tb8NiHg2Pd
_chemical_formula_sum   'Tb16 Ni2 Hg4 Pd2'
_cell_volume   633.11751872
_cell_formula_units_Z   2
loop_
 _symmetry_equiv_pos_site_id
 _symmetry_equiv_pos_as_xyz
  1  'x, y, z'
loop_
 _atom_site_type_symbol
 _atom_site_label
 _atom_site_symmetry_multiplicity
 _atom_site_fract_x
 _atom_site_fract_y
 _atom_site_fract_z
 _atom_site_occupancy
  Tb  Tb0  1  0.440084  0.440459  0.054604  1
  Tb  Tb1  1  0.593329  0.603085  0.603085  1
  Tb  Tb2  1  0.183576  0.816424  0.816424  1
  Tb  Tb3  1  0.064853  0.054604  0.440459  1
  Tb  Tb4  1  0.438277  0.061723  0.061723  1
  Tb  Tb5  1  0.814201  0.187563  0.814684  1
  Tb  Tb6  1  0.440084  0.054604  0.440459  1
  Tb  Tb7  1  0.600649  0.185297  0.613406  1
  Tb  Tb8  1  0.814201  0.814684  0.187563  1
  Tb  Tb9  1  0.200500  0.603085  0.603085  1
  Tb  Tb10  1  0.811761  0.188239  0.188239  1
  Tb  Tb11  1  0.058638  0.441362  0.441362  1
  Tb  Tb12  1  0.183554  0.814684  0.187563  1
  Tb  Tb13  1  0.600649  0.613406  0.185297  1
  Tb  Tb14  1  0.183554  0.187563  0.814684  1
  Tb  Tb15  1  0.064853  0.440459  0.054604  1
  Ni  Ni16  1  0.394202  0.821446  0.390152  1
  Ni  Ni17  1  0.394202  0.390152  0.821446  1
  Hg  Hg18  1  0.836593  0.832539  0.494275  1
  Hg  Hg19  1  0.838093  0.834711  0.834711  1
  Hg  Hg20  1  0.492483  0.834711  0.834711  1
  Hg  Hg21  1  0.836593  0.494275  0.832539  1
  Pd  Pd22  1  0.398704  0.392463  0.392463  1
  Pd  Pd23  1  0.816371  0.392463  0.392463  1
