# generated using pymatgen
data_Yb2Dy2Al2Si3Ge
_symmetry_space_group_name_H-M   'P 1'
_cell_length_a   6.87361441
_cell_length_b   6.91766047
_cell_length_c   4.40055200
_cell_angle_alpha   90.00000000
_cell_angle_beta   90.00000000
_cell_angle_gamma   89.90360034
_symmetry_Int_Tables_number   1
_chemical_formula_structural   Yb2Dy2Al2Si3Ge
_chemical_formula_sum   'Yb2 Dy2 Al2 Si3 Ge1'
_cell_volume   209.24300611
_cell_formula_units_Z   1
loop_
 _symmetry_equiv_pos_site_id
 _symmetry_equiv_pos_as_xyz
  1  'x, y, z'
loop_
 _atom_site_type_symbol
 _atom_site_label
 _atom_site_symmetry_multiplicity
 _atom_site_fract_x
 _atom_site_fract_y
 _atom_site_fract_z
 _atom_site_occupancy
  Yb  Yb0  1  0.323179  0.822791  0.500000  1
  Yb  Yb1  1  0.823496  0.677919  0.500000  1
  Dy  Dy2  1  0.174906  0.325354  0.500000  1
  Dy  Dy3  1  0.675471  0.177900  0.500000  1
  Al  Al4  1  0.497025  0.491255  0.000000  1
  Al  Al5  1  0.004345  0.005937  0.000000  1
  Si  Si6  1  0.878033  0.373960  0.000000  1
  Si  Si7  1  0.375047  0.129244  0.000000  1
  Si  Si8  1  0.123461  0.618835  0.000000  1
  Ge  Ge9  1  0.625039  0.876803  0.000000  1
