# generated using pymatgen
data_Yb3Er(ReB4)4
_symmetry_space_group_name_H-M   'P 1'
_cell_length_a   3.57503100
_cell_length_b   5.98122809
_cell_length_c   11.56533311
_cell_angle_alpha   90.06930674
_cell_angle_beta   90.00000000
_cell_angle_gamma   90.00000000
_symmetry_Int_Tables_number   1
_chemical_formula_structural   Yb3Er(ReB4)4
_chemical_formula_sum   'Yb3 Er1 Re4 B16'
_cell_volume   247.30221435
_cell_formula_units_Z   1
loop_
 _symmetry_equiv_pos_site_id
 _symmetry_equiv_pos_as_xyz
  1  'x, y, z'
loop_
 _atom_site_type_symbol
 _atom_site_label
 _atom_site_symmetry_multiplicity
 _atom_site_fract_x
 _atom_site_fract_y
 _atom_site_fract_z
 _atom_site_occupancy
  Yb  Yb0  1  0.500000  0.628302  0.848785  1
  Yb  Yb1  1  0.500000  0.128017  0.649850  1
  Yb  Yb2  1  0.500000  0.872666  0.351120  1
  Er  Er3  1  0.500000  0.371927  0.150510  1
  Re  Re4  1  0.500000  0.369891  0.415210  1
  Re  Re5  1  0.500000  0.631098  0.583546  1
  Re  Re6  1  0.500000  0.131967  0.916623  1
  Re  Re7  1  0.500000  0.869758  0.085414  1
  B  B8  1  0.000000  0.113430  0.047828  1
  B  B9  1  0.000000  0.885161  0.952394  1
  B  B10  1  0.000000  0.385024  0.547127  1
  B  B11  1  0.000000  0.614474  0.451968  1
  B  B12  1  0.000000  0.134498  0.467781  1
  B  B13  1  0.000000  0.865082  0.531994  1
  B  B14  1  0.000000  0.364676  0.968199  1
  B  B15  1  0.000000  0.635358  0.031718  1
  B  B16  1  0.000000  0.024171  0.192950  1
  B  B17  1  0.000000  0.976249  0.807734  1
  B  B18  1  0.000000  0.476025  0.692335  1
  B  B19  1  0.000000  0.524373  0.307091  1
  B  B20  1  0.000000  0.214265  0.314903  1
  B  B21  1  0.000000  0.784572  0.684892  1
  B  B22  1  0.000000  0.283776  0.814755  1
  B  B23  1  0.000000  0.715240  0.185274  1
