# generated using pymatgen
data_Dy7HoSc12Tl15Pb
_symmetry_space_group_name_H-M   'P 1'
_cell_length_a   7.70244406
_cell_length_b   8.03845253
_cell_length_c   15.12630366
_cell_angle_alpha   90.01462427
_cell_angle_beta   89.89668440
_cell_angle_gamma   89.99239472
_symmetry_Int_Tables_number   1
_chemical_formula_structural   Dy7HoSc12Tl15Pb
_chemical_formula_sum   'Dy7 Ho1 Sc12 Tl15 Pb1'
_cell_volume   936.55458563
_cell_formula_units_Z   1
loop_
 _symmetry_equiv_pos_site_id
 _symmetry_equiv_pos_as_xyz
  1  'x, y, z'
loop_
 _atom_site_type_symbol
 _atom_site_label
 _atom_site_symmetry_multiplicity
 _atom_site_fract_x
 _atom_site_fract_y
 _atom_site_fract_z
 _atom_site_occupancy
  Dy  Dy0  1  0.001200  0.182609  0.093071  1
  Dy  Dy1  1  0.999005  0.817761  0.907306  1
  Dy  Dy2  1  0.499050  0.681318  0.907557  1
  Dy  Dy3  1  0.999204  0.819182  0.593537  1
  Dy  Dy4  1  0.500266  0.318060  0.093195  1
  Dy  Dy5  1  0.999378  0.180561  0.405576  1
  Dy  Dy6  1  0.502157  0.315789  0.405816  1
  Ho  Ho7  1  0.501949  0.685656  0.594511  1
  Sc  Sc8  1  0.164567  0.497898  0.751233  1
  Sc  Sc9  1  0.836019  0.502152  0.249012  1
  Sc  Sc10  1  0.335124  0.998710  0.250029  1
  Sc  Sc11  1  0.665290  0.002594  0.750585  1
  Sc  Sc12  1  0.335343  0.157345  0.626210  1
  Sc  Sc13  1  0.666456  0.839560  0.374213  1
  Sc  Sc14  1  0.167073  0.664104  0.373640  1
  Sc  Sc15  1  0.666138  0.838030  0.124678  1
  Sc  Sc16  1  0.829438  0.337991  0.625678  1
  Sc  Sc17  1  0.331860  0.161631  0.874957  1
  Sc  Sc18  1  0.832584  0.338093  0.874896  1
  Sc  Sc19  1  0.169043  0.660591  0.125237  1
  Tl  Tl20  1  0.025469  0.124514  0.749677  1
  Tl  Tl21  1  0.974364  0.876057  0.248186  1
  Tl  Tl22  1  0.475431  0.623345  0.250389  1
  Tl  Tl23  1  0.524565  0.376779  0.750889  1
  Tl  Tl24  1  0.298250  0.854855  0.751072  1
  Tl  Tl25  1  0.701206  0.143575  0.248839  1
  Tl  Tl26  1  0.201206  0.356629  0.250459  1
  Tl  Tl27  1  0.799342  0.644174  0.750243  1
  Tl  Tl28  1  0.817775  0.541736  0.457167  1
  Tl  Tl29  1  0.320096  0.959443  0.458182  1
  Tl  Tl30  1  0.819671  0.539452  0.042198  1
  Tl  Tl31  1  0.680648  0.041365  0.541520  1
  Tl  Tl32  1  0.179448  0.459847  0.958157  1
  Tl  Tl33  1  0.679395  0.040643  0.957766  1
  Tl  Tl34  1  0.320206  0.959507  0.042310  1
  Pb  Pb35  1  0.181785  0.458441  0.542012  1
