# generated using pymatgen
data_Y2CO
_symmetry_space_group_name_H-M   'P 1'
_cell_length_a   6.11935087
_cell_length_b   6.11935112
_cell_length_c   6.11935064
_cell_angle_alpha   132.17227192
_cell_angle_beta   132.17227691
_cell_angle_gamma   69.95706979
_symmetry_Int_Tables_number   1
_chemical_formula_structural   Y2CO
_chemical_formula_sum   'Y4 C2 O2'
_cell_volume   123.40768299
_cell_formula_units_Z   2
loop_
 _symmetry_equiv_pos_site_id
 _symmetry_equiv_pos_as_xyz
  1  'x, y, z'
loop_
 _atom_site_type_symbol
 _atom_site_label
 _atom_site_symmetry_multiplicity
 _atom_site_fract_x
 _atom_site_fract_y
 _atom_site_fract_z
 _atom_site_occupancy
  Y  Y0  1  0.753292  0.753292  0.000000  1
  Y  Y1  1  0.246708  0.246708  0.000000  1
  Y  Y2  1  0.996708  0.496708  0.500000  1
  Y  Y3  1  0.503292  0.003292  0.500000  1
  C  C4  1  0.000000  0.000000  0.000000  1
  C  C5  1  0.750000  0.250000  0.500000  1
  O  O6  1  0.500000  0.500000  0.000000  1
  O  O7  1  0.250000  0.750000  0.500000  1
