# generated using pymatgen
data_Er2MoWC3
_symmetry_space_group_name_H-M   'P 1'
_cell_length_a   6.06494984
_cell_length_b   6.06494791
_cell_length_c   5.68333306
_cell_angle_alpha   110.94957496
_cell_angle_beta   110.94956854
_cell_angle_gamma   31.74025953
_symmetry_Int_Tables_number   1
_chemical_formula_structural   Er2MoWC3
_chemical_formula_sum   'Er2 Mo1 W1 C3'
_cell_volume   102.09648756
_cell_formula_units_Z   1
loop_
 _symmetry_equiv_pos_site_id
 _symmetry_equiv_pos_as_xyz
  1  'x, y, z'
loop_
 _atom_site_type_symbol
 _atom_site_label
 _atom_site_symmetry_multiplicity
 _atom_site_fract_x
 _atom_site_fract_y
 _atom_site_fract_z
 _atom_site_occupancy
  Er  Er0  1  0.610686  0.610686  0.322823  1
  Er  Er1  1  0.389245  0.389245  0.673517  1
  Mo  Mo2  1  0.845071  0.845071  0.173818  1
  W  W3  1  0.155983  0.155983  0.828676  1
  C  C4  1  0.248072  0.248072  0.236717  1
  C  C5  1  0.000550  0.000550  0.502441  1
  C  C6  1  0.750393  0.750393  0.762008  1
