# generated using pymatgen
data_Dy3TlF10
_symmetry_space_group_name_H-M   'P 1'
_cell_length_a   8.21214600
_cell_length_b   8.21214595
_cell_length_c   13.41046400
_cell_angle_alpha   90.00000000
_cell_angle_beta   90.00000000
_cell_angle_gamma   120.00000019
_symmetry_Int_Tables_number   1
_chemical_formula_structural   Dy3TlF10
_chemical_formula_sum   'Dy12 Tl4 F40'
_cell_volume   783.22719177
_cell_formula_units_Z   4
loop_
 _symmetry_equiv_pos_site_id
 _symmetry_equiv_pos_as_xyz
  1  'x, y, z'
loop_
 _atom_site_type_symbol
 _atom_site_label
 _atom_site_symmetry_multiplicity
 _atom_site_fract_x
 _atom_site_fract_y
 _atom_site_fract_z
 _atom_site_occupancy
  Dy  Dy0  1  0.505655  0.011309  0.512900  1
  Dy  Dy1  1  0.494345  0.988691  0.012900  1
  Dy  Dy2  1  0.494345  0.505655  0.012900  1
  Dy  Dy3  1  0.173965  0.826035  0.252816  1
  Dy  Dy4  1  0.011309  0.505655  0.012900  1
  Dy  Dy5  1  0.826035  0.173965  0.752816  1
  Dy  Dy6  1  0.347930  0.173965  0.752816  1
  Dy  Dy7  1  0.173965  0.347930  0.252816  1
  Dy  Dy8  1  0.988691  0.494345  0.512900  1
  Dy  Dy9  1  0.505655  0.494345  0.512900  1
  Dy  Dy10  1  0.652070  0.826035  0.252816  1
  Dy  Dy11  1  0.826035  0.652070  0.752816  1
  Tl  Tl12  1  0.666667  0.333333  0.258714  1
  Tl  Tl13  1  0.000000  0.000000  0.499604  1
  Tl  Tl14  1  0.333333  0.666667  0.758714  1
  Tl  Tl15  1  0.000000  0.000000  0.999604  1
  F  F16  1  0.777612  0.222388  0.049908  1
  F  F17  1  0.110223  0.220446  0.721589  1
  F  F18  1  0.339737  0.335053  0.882666  1
  F  F19  1  0.664947  0.660263  0.882666  1
  F  F20  1  0.960265  0.480133  0.687095  1
  F  F21  1  0.222388  0.777612  0.549908  1
  F  F22  1  0.333333  0.666667  0.300064  1
  F  F23  1  0.004684  0.664947  0.382666  1
  F  F24  1  0.333333  0.666667  0.968819  1
  F  F25  1  0.660263  0.995316  0.382666  1
  F  F26  1  0.004684  0.339737  0.382666  1
  F  F27  1  0.519867  0.039735  0.687095  1
  F  F28  1  0.777612  0.555224  0.049908  1
  F  F29  1  0.995316  0.335053  0.882666  1
  F  F30  1  0.816671  0.183329  0.576640  1
  F  F31  1  0.222388  0.444776  0.549908  1
  F  F32  1  0.779554  0.889777  0.721589  1
  F  F33  1  0.664947  0.004684  0.882666  1
  F  F34  1  0.555224  0.777612  0.549908  1
  F  F35  1  0.110223  0.889777  0.721589  1
  F  F36  1  0.183329  0.816671  0.076640  1
  F  F37  1  0.889777  0.779554  0.221589  1
  F  F38  1  0.519867  0.480133  0.687095  1
  F  F39  1  0.220446  0.110223  0.221589  1
  F  F40  1  0.183329  0.366658  0.076640  1
  F  F41  1  0.335053  0.339737  0.382666  1
  F  F42  1  0.444776  0.222388  0.049908  1
  F  F43  1  0.660263  0.664947  0.382666  1
  F  F44  1  0.480133  0.519867  0.187095  1
  F  F45  1  0.039735  0.519867  0.187095  1
  F  F46  1  0.335053  0.995316  0.382666  1
  F  F47  1  0.816671  0.633342  0.576640  1
  F  F48  1  0.666667  0.333333  0.468819  1
  F  F49  1  0.339737  0.004684  0.882666  1
  F  F50  1  0.995316  0.660263  0.882666  1
  F  F51  1  0.366658  0.183329  0.576640  1
  F  F52  1  0.666667  0.333333  0.800064  1
  F  F53  1  0.889777  0.110223  0.221589  1
  F  F54  1  0.633342  0.816671  0.076640  1
  F  F55  1  0.480133  0.960265  0.187095  1
