# generated using pymatgen
data_Er6GaCo12Si5
_symmetry_space_group_name_H-M   'P 1'
_cell_length_a   5.19247000
_cell_length_b   5.19246820
_cell_length_c   14.82038300
_cell_angle_alpha   90.00000000
_cell_angle_beta   90.00000000
_cell_angle_gamma   119.99998601
_symmetry_Int_Tables_number   1
_chemical_formula_structural   Er6GaCo12Si5
_chemical_formula_sum   'Er6 Ga1 Co12 Si5'
_cell_volume   346.04928900
_cell_formula_units_Z   1
loop_
 _symmetry_equiv_pos_site_id
 _symmetry_equiv_pos_as_xyz
  1  'x, y, z'
loop_
 _atom_site_type_symbol
 _atom_site_label
 _atom_site_symmetry_multiplicity
 _atom_site_fract_x
 _atom_site_fract_y
 _atom_site_fract_z
 _atom_site_occupancy
  Er  Er0  1  0.333333  0.666667  0.538623  1
  Er  Er1  1  0.666667  0.333333  0.461377  1
  Er  Er2  1  0.666667  0.333333  0.039503  1
  Er  Er3  1  0.333333  0.666667  0.960497  1
  Er  Er4  1  0.333333  0.666667  0.749062  1
  Er  Er5  1  0.666667  0.333333  0.250938  1
  Ga  Ga6  1  0.000000  0.000000  0.000000  1
  Co  Co7  1  0.168427  0.336856  0.133982  1
  Co  Co8  1  0.831573  0.663144  0.866018  1
  Co  Co9  1  0.663144  0.831573  0.133982  1
  Co  Co10  1  0.833406  0.666811  0.629753  1
  Co  Co11  1  0.336856  0.168427  0.866018  1
  Co  Co12  1  0.166594  0.333189  0.370247  1
  Co  Co13  1  0.168427  0.831573  0.133982  1
  Co  Co14  1  0.333189  0.166594  0.629753  1
  Co  Co15  1  0.831573  0.168427  0.866018  1
  Co  Co16  1  0.666811  0.833406  0.370247  1
  Co  Co17  1  0.833406  0.166594  0.629753  1
  Co  Co18  1  0.166594  0.833406  0.370247  1
  Si  Si19  1  0.000000  0.000000  0.251388  1
  Si  Si20  1  0.000000  0.000000  0.748612  1
  Si  Si21  1  0.333333  0.666667  0.252600  1
  Si  Si22  1  0.666667  0.333333  0.747400  1
  Si  Si23  1  0.000000  0.000000  0.500000  1
