# generated using pymatgen
data_Yb3EuNb2O9
_symmetry_space_group_name_H-M   'P 1'
_cell_length_a   5.81391140
_cell_length_b   5.81391262
_cell_length_c   13.92172700
_cell_angle_alpha   88.58041771
_cell_angle_beta   88.58041741
_cell_angle_gamma   57.71261396
_symmetry_Int_Tables_number   1
_chemical_formula_structural   Yb3EuNb2O9
_chemical_formula_sum   'Yb6 Eu2 Nb4 O18'
_cell_volume   397.65633130
_cell_formula_units_Z   2
loop_
 _symmetry_equiv_pos_site_id
 _symmetry_equiv_pos_as_xyz
  1  'x, y, z'
loop_
 _atom_site_type_symbol
 _atom_site_label
 _atom_site_symmetry_multiplicity
 _atom_site_fract_x
 _atom_site_fract_y
 _atom_site_fract_z
 _atom_site_occupancy
  Yb  Yb0  1  0.947707  0.976849  0.737288  1
  Yb  Yb1  1  0.640398  0.612409  0.402867  1
  Yb  Yb2  1  0.288567  0.286908  0.077526  1
  Yb  Yb3  1  0.976849  0.947707  0.237288  1
  Yb  Yb4  1  0.612409  0.640398  0.902867  1
  Yb  Yb5  1  0.286908  0.288567  0.577526  1
  Eu  Eu6  1  0.991712  0.984292  0.496102  1
  Eu  Eu7  1  0.984292  0.991712  0.996102  1
  Nb  Nb8  1  0.673603  0.661508  0.165720  1
  Nb  Nb9  1  0.315565  0.350954  0.837050  1
  Nb  Nb10  1  0.661508  0.673603  0.665720  1
  Nb  Nb11  1  0.350954  0.315565  0.337050  1
  O  O12  1  0.716618  0.959845  0.610026  1
  O  O13  1  0.425519  0.628035  0.258236  1
  O  O14  1  0.067678  0.321593  0.921784  1
  O  O15  1  0.739355  0.183644  0.362896  1
  O  O16  1  0.442345  0.822585  0.055881  1
  O  O17  1  0.071857  0.499159  0.719899  1
  O  O18  1  0.285422  0.547297  0.450873  1
  O  O19  1  0.893950  0.286430  0.129465  1
  O  O20  1  0.556734  0.965076  0.792336  1
  O  O21  1  0.286430  0.893950  0.629465  1
  O  O22  1  0.965076  0.556734  0.292336  1
  O  O23  1  0.547297  0.285422  0.950873  1
  O  O24  1  0.822585  0.442345  0.555881  1
  O  O25  1  0.499159  0.071857  0.219899  1
  O  O26  1  0.183644  0.739355  0.862896  1
  O  O27  1  0.321593  0.067678  0.421784  1
  O  O28  1  0.959845  0.716618  0.110026  1
  O  O29  1  0.628035  0.425519  0.758236  1
