# generated using pymatgen
data_Tb4Al4PdPt2Rh
_symmetry_space_group_name_H-M   'P 1'
_cell_length_a   4.42918700
_cell_length_b   6.87607797
_cell_length_c   7.84395192
_cell_angle_alpha   90.14730757
_cell_angle_beta   90.00000000
_cell_angle_gamma   90.00000000
_symmetry_Int_Tables_number   1
_chemical_formula_structural   Tb4Al4PdPt2Rh
_chemical_formula_sum   'Tb4 Al4 Pd1 Pt2 Rh1'
_cell_volume   238.89017932
_cell_formula_units_Z   1
loop_
 _symmetry_equiv_pos_site_id
 _symmetry_equiv_pos_as_xyz
  1  'x, y, z'
loop_
 _atom_site_type_symbol
 _atom_site_label
 _atom_site_symmetry_multiplicity
 _atom_site_fract_x
 _atom_site_fract_y
 _atom_site_fract_z
 _atom_site_occupancy
  Tb  Tb0  1  0.250000  0.529579  0.820085  1
  Tb  Tb1  1  0.750000  0.460504  0.177633  1
  Tb  Tb2  1  0.250000  0.034028  0.682000  1
  Tb  Tb3  1  0.750000  0.967700  0.320475  1
  Al  Al4  1  0.250000  0.641676  0.439101  1
  Al  Al5  1  0.750000  0.356051  0.563715  1
  Al  Al6  1  0.250000  0.143825  0.060358  1
  Al  Al7  1  0.750000  0.863348  0.936645  1
  Pd  Pd8  1  0.250000  0.771109  0.119062  1
  Pt  Pt9  1  0.750000  0.727545  0.618715  1
  Pt  Pt10  1  0.250000  0.270871  0.379847  1
  Rh  Rh11  1  0.750000  0.233764  0.882364  1
