# generated using pymatgen
data_Sc4Be8CuRu9
_symmetry_space_group_name_H-M   'P 1'
_cell_length_a   3.21111200
_cell_length_b   8.56066672
_cell_length_c   10.16876877
_cell_angle_alpha   91.01398765
_cell_angle_beta   90.00000000
_cell_angle_gamma   90.00000000
_symmetry_Int_Tables_number   1
_chemical_formula_structural   Sc4Be8CuRu9
_chemical_formula_sum   'Sc4 Be8 Cu1 Ru9'
_cell_volume   279.48815125
_cell_formula_units_Z   1
loop_
 _symmetry_equiv_pos_site_id
 _symmetry_equiv_pos_as_xyz
  1  'x, y, z'
loop_
 _atom_site_type_symbol
 _atom_site_label
 _atom_site_symmetry_multiplicity
 _atom_site_fract_x
 _atom_site_fract_y
 _atom_site_fract_z
 _atom_site_occupancy
  Sc  Sc0  1  0.500000  0.833437  0.192548  1
  Sc  Sc1  1  0.500000  0.166563  0.807452  1
  Sc  Sc2  1  0.500000  0.661241  0.681227  1
  Sc  Sc3  1  0.500000  0.338759  0.318773  1
  Be  Be4  1  0.500000  0.964422  0.595575  1
  Be  Be5  1  0.500000  0.035578  0.404425  1
  Be  Be6  1  0.500000  0.839233  0.900977  1
  Be  Be7  1  0.500000  0.160767  0.099023  1
  Be  Be8  1  0.500000  0.656000  0.406236  1
  Be  Be9  1  0.500000  0.344000  0.593764  1
  Be  Be10  1  0.500000  0.468738  0.903945  1
  Be  Be11  1  0.500000  0.531262  0.096055  1
  Cu  Cu12  1  0.000000  0.000000  0.000000  1
  Ru  Ru13  1  0.000000  0.663822  0.960788  1
  Ru  Ru14  1  0.000000  0.336178  0.039212  1
  Ru  Ru15  1  0.000000  0.840540  0.456268  1
  Ru  Ru16  1  0.000000  0.159460  0.543732  1
  Ru  Ru17  1  0.000000  0.407603  0.755353  1
  Ru  Ru18  1  0.000000  0.592397  0.244647  1
  Ru  Ru19  1  0.000000  0.500000  0.500000  1
  Ru  Ru20  1  0.000000  0.912162  0.750806  1
  Ru  Ru21  1  0.000000  0.087838  0.249194  1
