# generated using pymatgen
data_Pr4Mn5Ag3O20
_symmetry_space_group_name_H-M   'P 1'
_cell_length_a   5.85938800
_cell_length_b   7.87676040
_cell_length_c   8.88135364
_cell_angle_alpha   89.17289893
_cell_angle_beta   90.00000000
_cell_angle_gamma   90.00000000
_symmetry_Int_Tables_number   1
_chemical_formula_structural   Pr4Mn5Ag3O20
_chemical_formula_sum   'Pr4 Mn5 Ag3 O20'
_cell_volume   409.85836509
_cell_formula_units_Z   1
loop_
 _symmetry_equiv_pos_site_id
 _symmetry_equiv_pos_as_xyz
  1  'x, y, z'
loop_
 _atom_site_type_symbol
 _atom_site_label
 _atom_site_symmetry_multiplicity
 _atom_site_fract_x
 _atom_site_fract_y
 _atom_site_fract_z
 _atom_site_occupancy
  Pr  Pr0  1  0.000000  0.355850  0.676029  1
  Pr  Pr1  1  0.000000  0.645297  0.325153  1
  Pr  Pr2  1  0.000000  0.849857  0.826240  1
  Pr  Pr3  1  0.000000  0.153960  0.173463  1
  Mn  Mn4  1  0.500000  0.406549  0.349122  1
  Mn  Mn5  1  0.259763  0.498767  0.003226  1
  Mn  Mn6  1  0.743735  0.004284  0.498477  1
  Mn  Mn7  1  0.740237  0.498767  0.003226  1
  Mn  Mn8  1  0.256265  0.004284  0.498477  1
  Ag  Ag9  1  0.500000  0.068092  0.841992  1
  Ag  Ag10  1  0.500000  0.933203  0.156877  1
  Ag  Ag11  1  0.500000  0.565902  0.653612  1
  O  O12  1  0.234044  0.907771  0.299424  1
  O  O13  1  0.234752  0.097179  0.699326  1
  O  O14  1  0.751474  0.403078  0.208584  1
  O  O15  1  0.764742  0.594129  0.798531  1
  O  O16  1  0.765248  0.097179  0.699326  1
  O  O17  1  0.765956  0.907771  0.299424  1
  O  O18  1  0.235258  0.594129  0.798531  1
  O  O19  1  0.248526  0.403078  0.208584  1
  O  O20  1  0.500000  0.357911  0.942995  1
  O  O21  1  0.500000  0.642014  0.059908  1
  O  O22  1  0.500000  0.864716  0.558311  1
  O  O23  1  0.500000  0.153529  0.433614  1
  O  O24  1  0.256656  0.000137  0.999259  1
  O  O25  1  0.731503  0.493708  0.493080  1
  O  O26  1  0.743344  0.000137  0.999259  1
  O  O27  1  0.268497  0.493708  0.493080  1
  O  O28  1  0.000000  0.159165  0.448935  1
  O  O29  1  0.000000  0.847842  0.549498  1
  O  O30  1  0.000000  0.653034  0.052999  1
  O  O31  1  0.000000  0.344975  0.951437  1
