# generated using pymatgen
data_Cs4ZrReBr12
_symmetry_space_group_name_H-M   'P 1'
_cell_length_a   7.91117500
_cell_length_b   7.91180700
_cell_length_c   11.20069100
_cell_angle_alpha   90.00000000
_cell_angle_beta   90.00000000
_cell_angle_gamma   90.00000000
_symmetry_Int_Tables_number   1
_chemical_formula_structural   Cs4ZrReBr12
_chemical_formula_sum   'Cs4 Zr1 Re1 Br12'
_cell_volume   701.07017598
_cell_formula_units_Z   1
loop_
 _symmetry_equiv_pos_site_id
 _symmetry_equiv_pos_as_xyz
  1  'x, y, z'
loop_
 _atom_site_type_symbol
 _atom_site_label
 _atom_site_symmetry_multiplicity
 _atom_site_fract_x
 _atom_site_fract_y
 _atom_site_fract_z
 _atom_site_occupancy
  Cs  Cs0  1  0.500000  0.000000  0.748528  1
  Cs  Cs1  1  0.000000  0.500000  0.251470  1
  Cs  Cs2  1  0.500000  0.000000  0.251472  1
  Cs  Cs3  1  0.000000  0.500000  0.748530  1
  Zr  Zr4  1  0.000000  0.000000  0.000000  1
  Re  Re5  1  0.500000  0.500000  0.500000  1
  Br  Br6  1  0.000000  0.000000  0.762839  1
  Br  Br7  1  0.500000  0.500000  0.273455  1
  Br  Br8  1  0.727408  0.727392  0.500000  1
  Br  Br9  1  0.237146  0.237148  0.000000  1
  Br  Br10  1  0.727408  0.272608  0.500000  1
  Br  Br11  1  0.237146  0.762852  0.000000  1
  Br  Br12  1  0.000000  0.000000  0.237161  1
  Br  Br13  1  0.500000  0.500000  0.726545  1
  Br  Br14  1  0.272592  0.272608  0.500000  1
  Br  Br15  1  0.762854  0.762852  0.000000  1
  Br  Br16  1  0.272592  0.727392  0.500000  1
  Br  Br17  1  0.762854  0.237148  0.000000  1
