# generated using pymatgen
data_Ta9Nb3Co8(MoN)4
_symmetry_space_group_name_H-M   'P 1'
_cell_length_a   8.14188337
_cell_length_b   8.13612372
_cell_length_c   8.14739916
_cell_angle_alpha   60.00094809
_cell_angle_beta   60.05826111
_cell_angle_gamma   60.06825470
_symmetry_Int_Tables_number   1
_chemical_formula_structural   Ta9Nb3Co8(MoN)4
_chemical_formula_sum   'Ta9 Nb3 Co8 Mo4 N4'
_cell_volume   382.00066067
_cell_formula_units_Z   1
loop_
 _symmetry_equiv_pos_site_id
 _symmetry_equiv_pos_as_xyz
  1  'x, y, z'
loop_
 _atom_site_type_symbol
 _atom_site_label
 _atom_site_symmetry_multiplicity
 _atom_site_fract_x
 _atom_site_fract_y
 _atom_site_fract_z
 _atom_site_occupancy
  Ta  Ta0  1  0.190949  0.809051  0.190949  1
  Ta  Ta1  1  0.190969  0.809214  0.808877  1
  Ta  Ta2  1  0.808877  0.190940  0.190969  1
  Ta  Ta3  1  0.441248  0.440511  0.058950  1
  Ta  Ta4  1  0.058950  0.059291  0.441248  1
  Ta  Ta5  1  0.440393  0.059607  0.440393  1
  Ta  Ta6  1  0.059368  0.440632  0.059368  1
  Ta  Ta7  1  0.059884  0.439519  0.440406  1
  Ta  Ta8  1  0.440406  0.060191  0.059884  1
  Nb  Nb9  1  0.810268  0.810545  0.189631  1
  Nb  Nb10  1  0.189631  0.189556  0.810268  1
  Nb  Nb11  1  0.810239  0.189761  0.810239  1
  Co  Co12  1  0.733179  0.421973  0.421552  1
  Co  Co13  1  0.421238  0.733771  0.422281  1
  Co  Co14  1  0.421552  0.423296  0.733179  1
  Co  Co15  1  0.422281  0.422710  0.421238  1
  Co  Co16  1  0.517294  0.826693  0.828040  1
  Co  Co17  1  0.826749  0.517996  0.828125  1
  Co  Co18  1  0.828040  0.827972  0.517294  1
  Co  Co19  1  0.828125  0.827131  0.826749  1
  Mo  Mo20  1  0.124694  0.625345  0.624837  1
  Mo  Mo21  1  0.624912  0.125000  0.624745  1
  Mo  Mo22  1  0.624837  0.625124  0.124694  1
  Mo  Mo23  1  0.624745  0.625344  0.624912  1
  N  N24  1  0.621959  0.126835  0.127099  1
  N  N25  1  0.127359  0.623432  0.124755  1
  N  N26  1  0.127099  0.124107  0.621959  1
  N  N27  1  0.124755  0.124453  0.127359  1
