# generated using pymatgen
data_Hf2Pa4Ga6Ni5Pd
_symmetry_space_group_name_H-M   'P 1'
_cell_length_a   6.72123633
_cell_length_b   6.71873726
_cell_length_c   7.97573300
_cell_angle_alpha   90.00000000
_cell_angle_beta   90.00000000
_cell_angle_gamma   119.92589497
_symmetry_Int_Tables_number   1
_chemical_formula_structural   Hf2Pa4Ga6Ni5Pd
_chemical_formula_sum   'Hf2 Pa4 Ga6 Ni5 Pd1'
_cell_volume   312.14895129
_cell_formula_units_Z   1
loop_
 _symmetry_equiv_pos_site_id
 _symmetry_equiv_pos_as_xyz
  1  'x, y, z'
loop_
 _atom_site_type_symbol
 _atom_site_label
 _atom_site_symmetry_multiplicity
 _atom_site_fract_x
 _atom_site_fract_y
 _atom_site_fract_z
 _atom_site_occupancy
  Hf  Hf0  1  0.409330  0.999194  0.250000  1
  Hf  Hf1  1  0.998803  0.409253  0.250000  1
  Pa  Pa2  1  0.577572  0.577334  0.250000  1
  Pa  Pa3  1  0.998004  0.434631  0.750000  1
  Pa  Pa4  1  0.433978  0.997009  0.750000  1
  Pa  Pa5  1  0.571030  0.571215  0.750000  1
  Ga  Ga6  1  0.241509  0.241282  0.490372  1
  Ga  Ga7  1  0.752823  0.007492  0.482716  1
  Ga  Ga8  1  0.007319  0.752893  0.482698  1
  Ga  Ga9  1  0.752823  0.007492  0.017284  1
  Ga  Ga10  1  0.241509  0.241282  0.009628  1
  Ga  Ga11  1  0.007319  0.752893  0.017302  1
  Ni  Ni12  1  0.336798  0.666286  0.493523  1
  Ni  Ni13  1  0.003025  0.003240  0.250000  1
  Ni  Ni14  1  0.336798  0.666286  0.006477  1
  Ni  Ni15  1  0.666559  0.336869  0.494589  1
  Ni  Ni16  1  0.666559  0.336869  0.005411  1
  Pd  Pd17  1  0.998241  0.998480  0.750000  1
