# generated using pymatgen
data_Tm3Lu3Co16(P6W)2
_symmetry_space_group_name_H-M   'P 1'
_cell_length_a   3.69343300
_cell_length_b   10.50305602
_cell_length_c   12.15939141
_cell_angle_alpha   90.07160321
_cell_angle_beta   90.00000000
_cell_angle_gamma   90.00000000
_symmetry_Int_Tables_number   1
_chemical_formula_structural   Tm3Lu3Co16(P6W)2
_chemical_formula_sum   'Tm3 Lu3 Co16 P12 W2'
_cell_volume   471.69080086
_cell_formula_units_Z   1
loop_
 _symmetry_equiv_pos_site_id
 _symmetry_equiv_pos_as_xyz
  1  'x, y, z'
loop_
 _atom_site_type_symbol
 _atom_site_label
 _atom_site_symmetry_multiplicity
 _atom_site_fract_x
 _atom_site_fract_y
 _atom_site_fract_z
 _atom_site_occupancy
  Tm  Tm0  1  0.000000  0.500281  0.525257  1
  Tm  Tm1  1  0.500000  0.999669  0.474581  1
  Tm  Tm2  1  0.000000  0.320358  0.794837  1
  Lu  Lu3  1  0.500000  0.819716  0.205015  1
  Lu  Lu4  1  0.500000  0.179551  0.204832  1
  Lu  Lu5  1  0.000000  0.680466  0.795106  1
  Co  Co6  1  0.500000  0.500470  0.700994  1
  Co  Co7  1  0.000000  0.999787  0.298746  1
  Co  Co8  1  0.000000  0.500549  0.986915  1
  Co  Co9  1  0.500000  0.999581  0.013565  1
  Co  Co10  1  0.500000  0.333104  0.990713  1
  Co  Co11  1  0.500000  0.667712  0.989864  1
  Co  Co12  1  0.000000  0.166781  0.010117  1
  Co  Co13  1  0.000000  0.832480  0.010402  1
  Co  Co14  1  0.500000  0.296004  0.431188  1
  Co  Co15  1  0.500000  0.703850  0.431685  1
  Co  Co16  1  0.000000  0.203790  0.567917  1
  Co  Co17  1  0.000000  0.796269  0.568344  1
  Co  Co18  1  0.500000  0.877062  0.706871  1
  Co  Co19  1  0.500000  0.122380  0.706731  1
  Co  Co20  1  0.000000  0.622844  0.293359  1
  Co  Co21  1  0.000000  0.377059  0.292727  1
  P  P22  1  0.500000  0.500652  0.879294  1
  P  P23  1  0.000000  0.999678  0.121075  1
  P  P24  1  0.500000  0.499955  0.352166  1
  P  P25  1  0.000000  0.000045  0.647856  1
  P  P26  1  0.500000  0.312790  0.616006  1
  P  P27  1  0.500000  0.687488  0.616752  1
  P  P28  1  0.000000  0.186974  0.383021  1
  P  P29  1  0.000000  0.812665  0.383244  1
  P  P30  1  0.500000  0.843167  0.891388  1
  P  P31  1  0.500000  0.156690  0.891987  1
  P  P32  1  0.000000  0.656995  0.108884  1
  P  P33  1  0.000000  0.343008  0.108386  1
  W  W34  1  0.500000  0.500603  0.157305  1
  W  W35  1  0.000000  0.999528  0.842873  1
