# generated using pymatgen
data_CeY3P4
_symmetry_space_group_name_H-M   'P 1'
_cell_length_a   8.08245900
_cell_length_b   4.04479900
_cell_length_c   5.68943000
_cell_angle_alpha   90.00000000
_cell_angle_beta   90.00048570
_cell_angle_gamma   90.00000000
_symmetry_Int_Tables_number   1
_chemical_formula_structural   CeY3P4
_chemical_formula_sum   'Ce1 Y3 P4'
_cell_volume   185.99840224
_cell_formula_units_Z   1
loop_
 _symmetry_equiv_pos_site_id
 _symmetry_equiv_pos_as_xyz
  1  'x, y, z'
loop_
 _atom_site_type_symbol
 _atom_site_label
 _atom_site_symmetry_multiplicity
 _atom_site_fract_x
 _atom_site_fract_y
 _atom_site_fract_z
 _atom_site_occupancy
  Ce  Ce0  1  0.875052  0.249999  0.750147  1
  Y  Y1  1  0.129534  0.749999  0.249965  1
  Y  Y2  1  0.620419  0.749999  0.250002  1
  Y  Y3  1  0.375008  0.249999  0.749929  1
  P  P4  1  0.374982  0.249999  0.249900  1
  P  P5  1  0.874982  0.249999  0.250109  1
  P  P6  1  0.126059  0.749999  0.749963  1
  P  P7  1  0.623966  0.749999  0.749989  1
