# generated using pymatgen
data_KBi3Te10
_symmetry_space_group_name_H-M   'P 1'
_cell_length_a   24.11154020
_cell_length_b   24.11153967
_cell_length_c   3.16913900
_cell_angle_alpha   90.00000000
_cell_angle_beta   90.00000000
_cell_angle_gamma   166.40088210
_symmetry_Int_Tables_number   1
_chemical_formula_structural   KBi3Te10
_chemical_formula_sum   'K1 Bi3 Te10'
_cell_volume   433.20550137
_cell_formula_units_Z   1
loop_
 _symmetry_equiv_pos_site_id
 _symmetry_equiv_pos_as_xyz
  1  'x, y, z'
loop_
 _atom_site_type_symbol
 _atom_site_label
 _atom_site_symmetry_multiplicity
 _atom_site_fract_x
 _atom_site_fract_y
 _atom_site_fract_z
 _atom_site_occupancy
  K  K0  1  0.101474  0.898526  0.750000  1
  Bi  Bi1  1  0.683691  0.316309  0.250000  1
  Bi  Bi2  1  0.321722  0.678278  0.750000  1
  Bi  Bi3  1  0.888258  0.111742  0.250000  1
  Te  Te4  1  0.621086  0.378914  0.250000  1
  Te  Te5  1  0.387337  0.612663  0.750000  1
  Te  Te6  1  0.824862  0.175138  0.250000  1
  Te  Te7  1  0.182113  0.817887  0.750000  1
  Te  Te8  1  0.959644  0.040356  0.750000  1
  Te  Te9  1  0.031436  0.968564  0.250000  1
  Te  Te10  1  0.528819  0.471181  0.750000  1
  Te  Te11  1  0.462008  0.537992  0.250000  1
  Te  Te12  1  0.751904  0.248096  0.750000  1
  Te  Te13  1  0.255645  0.744355  0.250000  1
