# generated using pymatgen
data_Tb5TmTi3Al21Ru8
_symmetry_space_group_name_H-M   'P 1'
_cell_length_a   8.86626600
_cell_length_b   8.87265668
_cell_length_c   9.56244703
_cell_angle_alpha   90.00829923
_cell_angle_beta   90.00000000
_cell_angle_gamma   119.97617663
_symmetry_Int_Tables_number   1
_chemical_formula_structural   Tb5TmTi3Al21Ru8
_chemical_formula_sum   'Tb5 Tm1 Ti3 Al21 Ru8'
_cell_volume   651.62585628
_cell_formula_units_Z   1
loop_
 _symmetry_equiv_pos_site_id
 _symmetry_equiv_pos_as_xyz
  1  'x, y, z'
loop_
 _atom_site_type_symbol
 _atom_site_label
 _atom_site_symmetry_multiplicity
 _atom_site_fract_x
 _atom_site_fract_y
 _atom_site_fract_z
 _atom_site_occupancy
  Tb  Tb0  1  0.807073  0.193054  0.750736  1
  Tb  Tb1  1  0.192165  0.807606  0.249942  1
  Tb  Tb2  1  0.385982  0.193054  0.750736  1
  Tb  Tb3  1  0.615441  0.807606  0.249942  1
  Tb  Tb4  1  0.806831  0.613663  0.750765  1
  Tm  Tm5  1  0.193070  0.386141  0.250184  1
  Ti  Ti6  1  0.666624  0.333247  0.004071  1
  Ti  Ti7  1  0.333052  0.666105  0.004060  1
  Ti  Ti8  1  0.332994  0.665989  0.494480  1
  Al  Al9  1  0.666695  0.333389  0.519231  1
  Al  Al10  1  0.838955  0.161923  0.422136  1
  Al  Al11  1  0.159256  0.840785  0.575857  1
  Al  Al12  1  0.322968  0.161923  0.422136  1
  Al  Al13  1  0.159470  0.840591  0.922984  1
  Al  Al14  1  0.681531  0.840785  0.575857  1
  Al  Al15  1  0.841132  0.159839  0.076955  1
  Al  Al16  1  0.838316  0.676631  0.422385  1
  Al  Al17  1  0.681121  0.840591  0.922984  1
  Al  Al18  1  0.159144  0.318288  0.575067  1
  Al  Al19  1  0.318708  0.159839  0.076955  1
  Al  Al20  1  0.159391  0.318781  0.923751  1
  Al  Al21  1  0.840507  0.681014  0.076723  1
  Al  Al22  1  0.438405  0.561518  0.747838  1
  Al  Al23  1  0.560307  0.438525  0.249780  1
  Al  Al24  1  0.123111  0.561518  0.747838  1
  Al  Al25  1  0.878218  0.438525  0.249780  1
  Al  Al26  1  0.438443  0.876888  0.747777  1
  Al  Al27  1  0.561365  0.122730  0.249862  1
  Al  Al28  1  0.999955  0.999910  0.750654  1
  Al  Al29  1  0.000754  0.001508  0.251309  1
  Ru  Ru30  1  0.498783  0.500172  0.997871  1
  Ru  Ru31  1  0.001388  0.500172  0.997871  1
  Ru  Ru32  1  0.497576  0.501131  0.497283  1
  Ru  Ru33  1  0.499549  0.999098  0.997346  1
  Ru  Ru34  1  0.003554  0.501131  0.497283  1
  Ru  Ru35  1  0.498464  0.996930  0.497806  1
  Ru  Ru36  1  0.999883  0.999766  0.001135  1
  Ru  Ru37  1  0.999817  0.999635  0.500621  1
