# generated using pymatgen
data_Y6IrPd7
_symmetry_space_group_name_H-M   'P 1'
_cell_length_a   7.88195667
_cell_length_b   7.88195717
_cell_length_c   7.88195621
_cell_angle_alpha   114.23732895
_cell_angle_beta   114.23733256
_cell_angle_gamma   114.23732716
_symmetry_Int_Tables_number   1
_chemical_formula_structural   Y6IrPd7
_chemical_formula_sum   'Y6 Ir1 Pd7'
_cell_volume   292.18994515
_cell_formula_units_Z   1
loop_
 _symmetry_equiv_pos_site_id
 _symmetry_equiv_pos_as_xyz
  1  'x, y, z'
loop_
 _atom_site_type_symbol
 _atom_site_label
 _atom_site_symmetry_multiplicity
 _atom_site_fract_x
 _atom_site_fract_y
 _atom_site_fract_z
 _atom_site_occupancy
  Y  Y0  1  0.397290  0.023155  0.271326  1
  Y  Y1  1  0.023155  0.271326  0.397290  1
  Y  Y2  1  0.271326  0.397290  0.023155  1
  Y  Y3  1  0.602710  0.976845  0.728674  1
  Y  Y4  1  0.976845  0.728674  0.602710  1
  Y  Y5  1  0.728674  0.602710  0.976845  1
  Ir  Ir6  1  0.000000  0.000000  0.000000  1
  Pd  Pd7  1  0.500000  0.500000  0.500000  1
  Pd  Pd8  1  0.229682  0.063293  0.551717  1
  Pd  Pd9  1  0.063293  0.551717  0.229682  1
  Pd  Pd10  1  0.551717  0.229682  0.063293  1
  Pd  Pd11  1  0.770318  0.936707  0.448283  1
  Pd  Pd12  1  0.936707  0.448283  0.770318  1
  Pd  Pd13  1  0.448283  0.770318  0.936707  1
