# generated using pymatgen
data_Sm7PI12
_symmetry_space_group_name_H-M   'P 1'
_cell_length_a   9.82415882
_cell_length_b   9.82415993
_cell_length_c   9.82416057
_cell_angle_alpha   107.83574552
_cell_angle_beta   107.83574704
_cell_angle_gamma   107.83573482
_symmetry_Int_Tables_number   1
_chemical_formula_structural   Sm7PI12
_chemical_formula_sum   'Sm7 P1 I12'
_cell_volume   770.93452863
_cell_formula_units_Z   1
loop_
 _symmetry_equiv_pos_site_id
 _symmetry_equiv_pos_as_xyz
  1  'x, y, z'
loop_
 _atom_site_type_symbol
 _atom_site_label
 _atom_site_symmetry_multiplicity
 _atom_site_fract_x
 _atom_site_fract_y
 _atom_site_fract_z
 _atom_site_occupancy
  Sm  Sm0  1  0.804045  0.530490  0.600397  1
  Sm  Sm1  1  0.530490  0.600397  0.804045  1
  Sm  Sm2  1  0.195955  0.469510  0.399603  1
  Sm  Sm3  1  0.469510  0.399603  0.195955  1
  Sm  Sm4  1  0.000000  0.000000  0.000000  1
  Sm  Sm5  1  0.600397  0.804045  0.530490  1
  Sm  Sm6  1  0.399603  0.195955  0.469510  1
  P  P7  1  0.500000  0.500000  0.500000  1
  I  I8  1  0.728759  0.185906  0.575787  1
  I  I9  1  0.967825  0.887513  0.653412  1
  I  I10  1  0.575787  0.728759  0.185906  1
  I  I11  1  0.112487  0.346588  0.032175  1
  I  I12  1  0.653412  0.967825  0.887513  1
  I  I13  1  0.887513  0.653412  0.967825  1
  I  I14  1  0.032175  0.112487  0.346588  1
  I  I15  1  0.814094  0.424213  0.271241  1
  I  I16  1  0.346588  0.032175  0.112487  1
  I  I17  1  0.271241  0.814094  0.424213  1
  I  I18  1  0.185906  0.575787  0.728759  1
  I  I19  1  0.424213  0.271241  0.814094  1
