# generated using pymatgen
data_SmHo2Zr(Co4P3)2
_symmetry_space_group_name_H-M   'P 1'
_cell_length_a   3.73175300
_cell_length_b   10.71064400
_cell_length_c   12.43585600
_cell_angle_alpha   90.00000000
_cell_angle_beta   90.00000000
_cell_angle_gamma   90.00000000
_symmetry_Int_Tables_number   1
_chemical_formula_structural   SmHo2Zr(Co4P3)2
_chemical_formula_sum   'Sm2 Ho4 Zr2 Co16 P12'
_cell_volume   497.05467130
_cell_formula_units_Z   2
loop_
 _symmetry_equiv_pos_site_id
 _symmetry_equiv_pos_as_xyz
  1  'x, y, z'
loop_
 _atom_site_type_symbol
 _atom_site_label
 _atom_site_symmetry_multiplicity
 _atom_site_fract_x
 _atom_site_fract_y
 _atom_site_fract_z
 _atom_site_occupancy
  Sm  Sm0  1  0.000000  0.500000  0.530179  1
  Sm  Sm1  1  0.500000  0.000000  0.469821  1
  Ho  Ho2  1  0.500000  0.821637  0.204323  1
  Ho  Ho3  1  0.500000  0.178363  0.204323  1
  Ho  Ho4  1  0.000000  0.678363  0.795677  1
  Ho  Ho5  1  0.000000  0.321637  0.795677  1
  Zr  Zr6  1  0.500000  0.500000  0.156752  1
  Zr  Zr7  1  0.000000  0.000000  0.843248  1
  Co  Co8  1  0.000000  0.500000  0.985800  1
  Co  Co9  1  0.500000  0.000000  0.014200  1
  Co  Co10  1  0.500000  0.294811  0.432654  1
  Co  Co11  1  0.500000  0.705189  0.432654  1
  Co  Co12  1  0.000000  0.205189  0.567346  1
  Co  Co13  1  0.000000  0.794811  0.567346  1
  Co  Co14  1  0.500000  0.877588  0.702513  1
  Co  Co15  1  0.500000  0.122412  0.702513  1
  Co  Co16  1  0.000000  0.622412  0.297487  1
  Co  Co17  1  0.000000  0.377588  0.297487  1
  Co  Co18  1  0.500000  0.331757  0.992830  1
  Co  Co19  1  0.500000  0.668243  0.992830  1
  Co  Co20  1  0.000000  0.168243  0.007170  1
  Co  Co21  1  0.000000  0.831757  0.007170  1
  Co  Co22  1  0.500000  0.500000  0.705903  1
  Co  Co23  1  0.000000  0.000000  0.294097  1
  P  P24  1  0.500000  0.307956  0.616544  1
  P  P25  1  0.500000  0.692044  0.616544  1
  P  P26  1  0.000000  0.192044  0.383456  1
  P  P27  1  0.000000  0.807956  0.383456  1
  P  P28  1  0.500000  0.500000  0.884109  1
  P  P29  1  0.000000  0.000000  0.115891  1
  P  P30  1  0.500000  0.837943  0.894090  1
  P  P31  1  0.500000  0.162057  0.894090  1
  P  P32  1  0.000000  0.662057  0.105910  1
  P  P33  1  0.000000  0.337943  0.105910  1
  P  P34  1  0.500000  0.500000  0.360847  1
  P  P35  1  0.000000  0.000000  0.639153  1
