# generated using pymatgen
data_TbEr3LuBi3
_symmetry_space_group_name_H-M   'P 1'
_cell_length_a   8.19509700
_cell_length_b   9.46315300
_cell_length_c   11.95781200
_cell_angle_alpha   90.00000000
_cell_angle_beta   90.00000000
_cell_angle_gamma   90.00000000
_symmetry_Int_Tables_number   1
_chemical_formula_structural   TbEr3LuBi3
_chemical_formula_sum   'Tb4 Er12 Lu4 Bi12'
_cell_volume   927.34574027
_cell_formula_units_Z   4
loop_
 _symmetry_equiv_pos_site_id
 _symmetry_equiv_pos_as_xyz
  1  'x, y, z'
loop_
 _atom_site_type_symbol
 _atom_site_label
 _atom_site_symmetry_multiplicity
 _atom_site_fract_x
 _atom_site_fract_y
 _atom_site_fract_z
 _atom_site_occupancy
  Tb  Tb0  1  0.313594  0.250000  0.218239  1
  Tb  Tb1  1  0.813594  0.250000  0.281761  1
  Tb  Tb2  1  0.686406  0.750000  0.781761  1
  Tb  Tb3  1  0.186406  0.750000  0.718239  1
  Er  Er4  1  0.352888  0.750000  0.217498  1
  Er  Er5  1  0.852888  0.750000  0.282502  1
  Er  Er6  1  0.647112  0.250000  0.782502  1
  Er  Er7  1  0.147112  0.250000  0.717498  1
  Er  Er8  1  0.692464  0.565442  0.059543  1
  Er  Er9  1  0.192464  0.934558  0.440457  1
  Er  Er10  1  0.307536  0.065442  0.940457  1
  Er  Er11  1  0.807536  0.434558  0.559543  1
  Er  Er12  1  0.307536  0.434558  0.940457  1
  Er  Er13  1  0.807536  0.065442  0.559543  1
  Er  Er14  1  0.692464  0.934558  0.059543  1
  Er  Er15  1  0.192464  0.565442  0.440457  1
  Lu  Lu16  1  0.476507  0.250000  0.488806  1
  Lu  Lu17  1  0.976507  0.250000  0.011194  1
  Lu  Lu18  1  0.523493  0.750000  0.511194  1
  Lu  Lu19  1  0.023493  0.750000  0.988806  1
  Bi  Bi20  1  0.404085  0.750000  0.959209  1
  Bi  Bi21  1  0.904085  0.750000  0.540791  1
  Bi  Bi22  1  0.595915  0.250000  0.040791  1
  Bi  Bi23  1  0.095915  0.250000  0.459209  1
  Bi  Bi24  1  0.565577  0.994685  0.326922  1
  Bi  Bi25  1  0.065577  0.505315  0.173078  1
  Bi  Bi26  1  0.434423  0.494685  0.673078  1
  Bi  Bi27  1  0.934423  0.005315  0.826922  1
  Bi  Bi28  1  0.434423  0.005315  0.673078  1
  Bi  Bi29  1  0.934423  0.494685  0.826922  1
  Bi  Bi30  1  0.565577  0.505315  0.326922  1
  Bi  Bi31  1  0.065577  0.994685  0.173078  1
