# generated using pymatgen
data_Ho20Rh11Au
_symmetry_space_group_name_H-M   'P 1'
_cell_length_a   10.92775760
_cell_length_b   10.92775841
_cell_length_c   6.31371012
_cell_angle_alpha   89.96710817
_cell_angle_beta   89.96710785
_cell_angle_gamma   89.60705274
_symmetry_Int_Tables_number   1
_chemical_formula_structural   Ho20Rh11Au
_chemical_formula_sum   'Ho20 Rh11 Au1'
_cell_volume   753.93936739
_cell_formula_units_Z   1
loop_
 _symmetry_equiv_pos_site_id
 _symmetry_equiv_pos_as_xyz
  1  'x, y, z'
loop_
 _atom_site_type_symbol
 _atom_site_label
 _atom_site_symmetry_multiplicity
 _atom_site_fract_x
 _atom_site_fract_y
 _atom_site_fract_z
 _atom_site_occupancy
  Ho  Ho0  1  0.289878  0.088814  0.376766  1
  Ho  Ho1  1  0.292270  0.910778  0.876250  1
  Ho  Ho2  1  0.704790  0.085158  0.866837  1
  Ho  Ho3  1  0.706401  0.905297  0.380186  1
  Ho  Ho4  1  0.588543  0.790486  0.879011  1
  Ho  Ho5  1  0.581040  0.210011  0.378462  1
  Ho  Ho6  1  0.410572  0.790778  0.377798  1
  Ho  Ho7  1  0.409847  0.209011  0.878188  1
  Ho  Ho8  1  0.209514  0.411457  0.620989  1
  Ho  Ho9  1  0.209222  0.589428  0.122202  1
  Ho  Ho10  1  0.789989  0.418960  0.121538  1
  Ho  Ho11  1  0.790989  0.590153  0.621812  1
  Ho  Ho12  1  0.911186  0.710122  0.123234  1
  Ho  Ho13  1  0.914842  0.295210  0.633163  1
  Ho  Ho14  1  0.089222  0.707730  0.623750  1
  Ho  Ho15  1  0.094703  0.293599  0.119814  1
  Ho  Ho16  1  0.003383  0.995996  0.501217  1
  Ho  Ho17  1  0.004004  0.996617  0.998783  1
  Ho  Ho18  1  0.499150  0.499616  0.998945  1
  Ho  Ho19  1  0.500384  0.500850  0.501055  1
  Rh  Rh20  1  0.846108  0.847447  0.749368  1
  Rh  Rh21  1  0.152553  0.153892  0.750632  1
  Rh  Rh22  1  0.155302  0.844698  0.250000  1
  Rh  Rh23  1  0.655334  0.344666  0.750000  1
  Rh  Rh24  1  0.654152  0.653008  0.248886  1
  Rh  Rh25  1  0.346992  0.345848  0.251114  1
  Rh  Rh26  1  0.345826  0.654174  0.750000  1
  Rh  Rh27  1  0.500405  0.000024  0.124450  1
  Rh  Rh28  1  0.499928  0.000586  0.621677  1
  Rh  Rh29  1  0.999414  0.500072  0.878323  1
  Rh  Rh30  1  0.999976  0.499595  0.375550  1
  Au  Au31  1  0.844079  0.155921  0.250000  1
