# generated using pymatgen
data_Nd5Ga2BiO
_symmetry_space_group_name_H-M   'P 1'
_cell_length_a   9.23443523
_cell_length_b   9.23443431
_cell_length_c   9.23443600
_cell_angle_alpha   126.98804217
_cell_angle_beta   126.98803787
_cell_angle_gamma   78.27019794
_symmetry_Int_Tables_number   1
_chemical_formula_structural   Nd5Ga2BiO
_chemical_formula_sum   'Nd10 Ga4 Bi2 O2'
_cell_volume   486.63016665
_cell_formula_units_Z   2
loop_
 _symmetry_equiv_pos_site_id
 _symmetry_equiv_pos_as_xyz
  1  'x, y, z'
loop_
 _atom_site_type_symbol
 _atom_site_label
 _atom_site_symmetry_multiplicity
 _atom_site_fract_x
 _atom_site_fract_y
 _atom_site_fract_z
 _atom_site_occupancy
  Nd  Nd0  1  0.493692  0.302629  0.500000  1
  Nd  Nd1  1  0.802629  0.993692  0.500000  1
  Nd  Nd2  1  0.993692  0.493692  0.191062  1
  Nd  Nd3  1  0.302629  0.802629  0.808938  1
  Nd  Nd4  1  0.508951  0.700033  0.500000  1
  Nd  Nd5  1  0.200033  0.008951  0.500000  1
  Nd  Nd6  1  0.008951  0.508951  0.808918  1
  Nd  Nd7  1  0.700033  0.200033  0.191082  1
  Nd  Nd8  1  0.500836  0.500836  0.000000  1
  Nd  Nd9  1  0.000836  0.000836  0.000000  1
  Ga  Ga10  1  0.127304  0.375464  0.500000  1
  Ga  Ga11  1  0.875464  0.627304  0.500000  1
  Ga  Ga12  1  0.627304  0.127304  0.751839  1
  Ga  Ga13  1  0.375464  0.875464  0.248161  1
  Bi  Bi14  1  0.751168  0.751168  0.000000  1
  Bi  Bi15  1  0.251168  0.251168  0.000000  1
  O  O16  1  0.751345  0.251345  0.500000  1
  O  O17  1  0.251345  0.751345  0.500000  1
