# generated using pymatgen
data_Tb8Y8MgIn3Pt4
_symmetry_space_group_name_H-M   'P 1'
_cell_length_a   9.78108719
_cell_length_b   9.76156580
_cell_length_c   9.78002800
_cell_angle_alpha   59.93741605
_cell_angle_beta   60.00358213
_cell_angle_gamma   60.16115322
_symmetry_Int_Tables_number   1
_chemical_formula_structural   Tb8Y8MgIn3Pt4
_chemical_formula_sum   'Tb8 Y8 Mg1 In3 Pt4'
_cell_volume   660.78975331
_cell_formula_units_Z   1
loop_
 _symmetry_equiv_pos_site_id
 _symmetry_equiv_pos_as_xyz
  1  'x, y, z'
loop_
 _atom_site_type_symbol
 _atom_site_label
 _atom_site_symmetry_multiplicity
 _atom_site_fract_x
 _atom_site_fract_y
 _atom_site_fract_z
 _atom_site_occupancy
  Tb  Tb0  1  0.599860  0.599620  0.599920  1
  Tb  Tb1  1  0.599860  0.599620  0.200600  1
  Tb  Tb2  1  0.600424  0.198534  0.600521  1
  Tb  Tb3  1  0.194891  0.601503  0.601803  1
  Tb  Tb4  1  0.058523  0.442236  0.441032  1
  Tb  Tb5  1  0.439416  0.061154  0.060080  1
  Tb  Tb6  1  0.439416  0.061154  0.439349  1
  Tb  Tb7  1  0.058523  0.442236  0.058210  1
  Y  Y8  1  0.439952  0.440179  0.059934  1
  Y  Y9  1  0.057567  0.057293  0.442570  1
  Y  Y10  1  0.186025  0.813785  0.814144  1
  Y  Y11  1  0.813575  0.186169  0.186929  1
  Y  Y12  1  0.813575  0.186169  0.813326  1
  Y  Y13  1  0.186025  0.813785  0.186046  1
  Y  Y14  1  0.813738  0.813151  0.186556  1
  Y  Y15  1  0.186867  0.187601  0.812766  1
  Mg  Mg16  1  0.518440  0.826817  0.827370  1
  In  In17  1  0.832941  0.834034  0.833540  1
  In  In18  1  0.832941  0.834034  0.499484  1
  In  In19  1  0.831506  0.501119  0.833687  1
  Pt  Pt20  1  0.390917  0.392490  0.394929  1
  Pt  Pt21  1  0.390917  0.392490  0.821666  1
  Pt  Pt22  1  0.391387  0.822302  0.393157  1
  Pt  Pt23  1  0.822715  0.392525  0.392381  1
