# generated using pymatgen
data_La2Pr5Nd13Si16
_symmetry_space_group_name_H-M   'P 1'
_cell_length_a   7.89828152
_cell_length_b   7.89863347
_cell_length_c   15.28944527
_cell_angle_alpha   90.01917768
_cell_angle_beta   89.93912417
_cell_angle_gamma   90.04350149
_symmetry_Int_Tables_number   1
_chemical_formula_structural   La2Pr5Nd13Si16
_chemical_formula_sum   'La2 Pr5 Nd13 Si16'
_cell_volume   953.84082112
_cell_formula_units_Z   1
loop_
 _symmetry_equiv_pos_site_id
 _symmetry_equiv_pos_as_xyz
  1  'x, y, z'
loop_
 _atom_site_type_symbol
 _atom_site_label
 _atom_site_symmetry_multiplicity
 _atom_site_fract_x
 _atom_site_fract_y
 _atom_site_fract_z
 _atom_site_occupancy
  La  La0  1  0.486961  0.876824  0.698344  1
  La  La1  1  0.376905  0.013180  0.447630  1
  Pr  Pr2  1  0.012126  0.378371  0.552674  1
  Pr  Pr3  1  0.622525  0.987807  0.948261  1
  Pr  Pr4  1  0.121491  0.512211  0.803089  1
  Pr  Pr5  1  0.877727  0.487250  0.301995  1
  Pr  Pr6  1  0.512305  0.122120  0.197256  1
  Nd  Nd7  1  0.373411  0.480838  0.373025  1
  Nd  Nd8  1  0.872858  0.018877  0.376054  1
  Nd  Nd9  1  0.980472  0.126591  0.123206  1
  Nd  Nd10  1  0.018809  0.873237  0.623424  1
  Nd  Nd11  1  0.627519  0.519909  0.874002  1
  Nd  Nd12  1  0.481218  0.373073  0.626668  1
  Nd  Nd13  1  0.519315  0.627384  0.126135  1
  Nd  Nd14  1  0.126240  0.981165  0.877072  1
  Nd  Nd15  1  0.988854  0.620351  0.053192  1
  Nd  Nd16  1  0.692004  0.691587  0.499952  1
  Nd  Nd17  1  0.808129  0.192317  0.750354  1
  Nd  Nd18  1  0.191860  0.807839  0.249796  1
  Nd  Nd19  1  0.308342  0.307746  0.000160  1
  Si  Si20  1  0.078549  0.712592  0.439383  1
  Si  Si21  1  0.921690  0.287613  0.939942  1
  Si  Si22  1  0.714719  0.079887  0.560107  1
  Si  Si23  1  0.212913  0.421568  0.189224  1
  Si  Si24  1  0.786843  0.578581  0.689713  1
  Si  Si25  1  0.420658  0.214238  0.810641  1
  Si  Si26  1  0.579750  0.785952  0.309730  1
  Si  Si27  1  0.285608  0.920518  0.060367  1
  Si  Si28  1  0.831060  0.806506  0.796572  1
  Si  Si29  1  0.168805  0.194290  0.295842  1
  Si  Si30  1  0.807117  0.829689  0.202563  1
  Si  Si31  1  0.305398  0.668138  0.546318  1
  Si  Si32  1  0.694415  0.331734  0.046968  1
  Si  Si33  1  0.670532  0.307011  0.453302  1
  Si  Si34  1  0.329429  0.693054  0.953559  1
  Si  Si35  1  0.193443  0.169954  0.703478  1
