# generated using pymatgen
data_Gd3PaZn2Ir3
_symmetry_space_group_name_H-M   'P 1'
_cell_length_a   7.57884900
_cell_length_b   7.50034327
_cell_length_c   4.03448100
_cell_angle_alpha   90.00000000
_cell_angle_beta   90.00000000
_cell_angle_gamma   119.65793565
_symmetry_Int_Tables_number   1
_chemical_formula_structural   Gd3PaZn2Ir3
_chemical_formula_sum   'Gd3 Pa1 Zn2 Ir3'
_cell_volume   199.29176807
_cell_formula_units_Z   1
loop_
 _symmetry_equiv_pos_site_id
 _symmetry_equiv_pos_as_xyz
  1  'x, y, z'
loop_
 _atom_site_type_symbol
 _atom_site_label
 _atom_site_symmetry_multiplicity
 _atom_site_fract_x
 _atom_site_fract_y
 _atom_site_fract_z
 _atom_site_occupancy
  Gd  Gd0  1  0.447155  0.412976  0.000000  1
  Gd  Gd1  1  0.552845  0.965821  0.000000  1
  Gd  Gd2  1  0.000000  0.632042  0.000000  1
  Pa  Pa3  1  0.000000  0.255834  0.500000  1
  Zn  Zn4  1  0.745709  0.752260  0.500000  1
  Zn  Zn5  1  0.254291  0.006551  0.500000  1
  Ir  Ir6  1  0.000000  0.012180  0.000000  1
  Ir  Ir7  1  0.314530  0.638433  0.500000  1
  Ir  Ir8  1  0.685470  0.323902  0.500000  1
