# generated using pymatgen
data_La2TmHf(NiP)4
_symmetry_space_group_name_H-M   'P 1'
_cell_length_a   3.92848100
_cell_length_b   3.92848095
_cell_length_c   15.61860300
_cell_angle_alpha   90.00000000
_cell_angle_beta   90.00000000
_cell_angle_gamma   120.00000883
_symmetry_Int_Tables_number   1
_chemical_formula_structural   La2TmHf(NiP)4
_chemical_formula_sum   'La2 Tm1 Hf1 Ni4 P4'
_cell_volume   208.74788683
_cell_formula_units_Z   1
loop_
 _symmetry_equiv_pos_site_id
 _symmetry_equiv_pos_as_xyz
  1  'x, y, z'
loop_
 _atom_site_type_symbol
 _atom_site_label
 _atom_site_symmetry_multiplicity
 _atom_site_fract_x
 _atom_site_fract_y
 _atom_site_fract_z
 _atom_site_occupancy
  La  La0  1  0.000000  0.000000  0.493501  1
  La  La1  1  0.000000  0.000000  0.006499  1
  Tm  Tm2  1  0.000000  0.000000  0.750000  1
  Hf  Hf3  1  0.000000  0.000000  0.250000  1
  Ni  Ni4  1  0.333333  0.666667  0.340494  1
  Ni  Ni5  1  0.666667  0.333333  0.634038  1
  Ni  Ni6  1  0.666667  0.333333  0.865962  1
  Ni  Ni7  1  0.333333  0.666667  0.159506  1
  P  P8  1  0.333333  0.666667  0.872012  1
  P  P9  1  0.666667  0.333333  0.134251  1
  P  P10  1  0.666667  0.333333  0.365749  1
  P  P11  1  0.333333  0.666667  0.627988  1
