# generated using pymatgen
data_TbHo2Lu3(Al3Ru)8
_symmetry_space_group_name_H-M   'P 1'
_cell_length_a   8.76763800
_cell_length_b   8.76150628
_cell_length_c   9.57535900
_cell_angle_alpha   90.00053822
_cell_angle_beta   89.99969412
_cell_angle_gamma   120.02307651
_symmetry_Int_Tables_number   1
_chemical_formula_structural   TbHo2Lu3(Al3Ru)8
_chemical_formula_sum   'Tb1 Ho2 Lu3 Al24 Ru8'
_cell_volume   636.86304471
_cell_formula_units_Z   1
loop_
 _symmetry_equiv_pos_site_id
 _symmetry_equiv_pos_as_xyz
  1  'x, y, z'
loop_
 _atom_site_type_symbol
 _atom_site_label
 _atom_site_symmetry_multiplicity
 _atom_site_fract_x
 _atom_site_fract_y
 _atom_site_fract_z
 _atom_site_occupancy
  Tb  Tb0  1  0.192166  0.384332  0.749928  1
  Ho  Ho1  1  0.611799  0.805815  0.749977  1
  Ho  Ho2  1  0.194017  0.805818  0.749977  1
  Lu  Lu3  1  0.389867  0.195174  0.249998  1
  Lu  Lu4  1  0.805311  0.195176  0.249990  1
  Lu  Lu5  1  0.805575  0.611152  0.249999  1
  Al  Al6  1  0.439277  0.878552  0.249994  1
  Al  Al7  1  0.121947  0.561512  0.250050  1
  Al  Al8  1  0.439567  0.561508  0.250051  1
  Al  Al9  1  0.561712  0.123421  0.749996  1
  Al  Al10  1  0.875873  0.438277  0.750061  1
  Al  Al11  1  0.562402  0.438280  0.750062  1
  Al  Al12  1  0.162744  0.837757  0.421570  1
  Al  Al13  1  0.162693  0.325379  0.420610  1
  Al  Al14  1  0.675009  0.837749  0.421570  1
  Al  Al15  1  0.836496  0.162839  0.576500  1
  Al  Al16  1  0.837115  0.674235  0.576428  1
  Al  Al17  1  0.326344  0.162841  0.576501  1
  Al  Al18  1  0.836495  0.162781  0.923477  1
  Al  Al19  1  0.837104  0.674217  0.923632  1
  Al  Al20  1  0.326286  0.162781  0.923478  1
  Al  Al21  1  0.162729  0.837684  0.078411  1
  Al  Al22  1  0.162683  0.325362  0.079383  1
  Al  Al23  1  0.674954  0.837678  0.078410  1
  Al  Al24  1  0.333293  0.666582  0.517535  1
  Al  Al25  1  0.666814  0.333638  0.478506  1
  Al  Al26  1  0.666763  0.333532  0.021473  1
  Al  Al27  1  0.333237  0.666463  0.982386  1
  Al  Al28  1  0.000376  0.000751  0.249959  1
  Al  Al29  1  0.998184  0.996367  0.749970  1
  Ru  Ru30  1  0.000210  0.000424  0.499907  1
  Ru  Ru31  1  0.000203  0.000405  0.000025  1
  Ru  Ru32  1  0.500533  0.001065  0.498950  1
  Ru  Ru33  1  0.998960  0.499926  0.498703  1
  Ru  Ru34  1  0.500957  0.499923  0.498706  1
  Ru  Ru35  1  0.500470  0.000938  0.000997  1
  Ru  Ru36  1  0.998907  0.499844  0.001413  1
  Ru  Ru37  1  0.500924  0.499825  0.001416  1
