# generated using pymatgen
data_CaAc2YAs7Ir8
_symmetry_space_group_name_H-M   'P 1'
_cell_length_a   4.14619900
_cell_length_b   13.40663094
_cell_length_c   13.64431335
_cell_angle_alpha   81.89662006
_cell_angle_beta   90.00000000
_cell_angle_gamma   90.00000000
_symmetry_Int_Tables_number   1
_chemical_formula_structural   CaAc2YAs7Ir8
_chemical_formula_sum   'Ca2 Ac4 Y2 As14 Ir16'
_cell_volume   750.86767333
_cell_formula_units_Z   2
loop_
 _symmetry_equiv_pos_site_id
 _symmetry_equiv_pos_as_xyz
  1  'x, y, z'
loop_
 _atom_site_type_symbol
 _atom_site_label
 _atom_site_symmetry_multiplicity
 _atom_site_fract_x
 _atom_site_fract_y
 _atom_site_fract_z
 _atom_site_occupancy
  Ca  Ca0  1  0.250000  0.211841  0.437870  1
  Ca  Ca1  1  0.750000  0.788159  0.562130  1
  Ac  Ac2  1  0.250000  0.104744  0.789761  1
  Ac  Ac3  1  0.750000  0.895256  0.210239  1
  Ac  Ac4  1  0.250000  0.287553  0.105059  1
  Ac  Ac5  1  0.750000  0.712447  0.894941  1
  Y  Y6  1  0.250000  0.518932  0.293589  1
  Y  Y7  1  0.750000  0.481068  0.706411  1
  As  As8  1  0.250000  0.058942  0.099401  1
  As  As9  1  0.750000  0.941058  0.900599  1
  As  As10  1  0.250000  0.318349  0.683927  1
  As  As11  1  0.750000  0.681651  0.316073  1
  As  As12  1  0.250000  0.608748  0.565932  1
  As  As13  1  0.750000  0.391252  0.434068  1
  As  As14  1  0.250000  0.844948  0.716592  1
  As  As15  1  0.750000  0.155052  0.283408  1
  As  As16  1  0.750000  0.256438  0.914682  1
  As  As17  1  0.250000  0.743562  0.085318  1
  As  As18  1  0.750000  0.096821  0.584321  1
  As  As19  1  0.250000  0.903179  0.415679  1
  As  As20  1  0.750000  0.472032  0.129724  1
  As  As21  1  0.250000  0.527968  0.870276  1
  Ir  Ir22  1  0.250000  0.989019  0.573664  1
  Ir  Ir23  1  0.750000  0.010981  0.426336  1
  Ir  Ir24  1  0.250000  0.660980  0.729599  1
  Ir  Ir25  1  0.750000  0.339020  0.270401  1
  Ir  Ir26  1  0.250000  0.550407  0.050810  1
  Ir  Ir27  1  0.750000  0.449593  0.949190  1
  Ir  Ir28  1  0.250000  0.057562  0.281613  1
  Ir  Ir29  1  0.750000  0.942438  0.718387  1
  Ir  Ir30  1  0.250000  0.428425  0.523962  1
  Ir  Ir31  1  0.750000  0.571575  0.476038  1
  Ir  Ir32  1  0.250000  0.919399  0.999587  1
  Ir  Ir33  1  0.750000  0.080601  0.000413  1
  Ir  Ir34  1  0.250000  0.720013  0.402007  1
  Ir  Ir35  1  0.750000  0.279987  0.597993  1
  Ir  Ir36  1  0.250000  0.347165  0.856355  1
  Ir  Ir37  1  0.750000  0.652835  0.143645  1
