# generated using pymatgen
data_Sr6TaCo4O15
_symmetry_space_group_name_H-M   'P 1'
_cell_length_a   6.96599472
_cell_length_b   6.96599499
_cell_length_c   6.96599437
_cell_angle_alpha   87.93600684
_cell_angle_beta   87.93600766
_cell_angle_gamma   87.93600391
_symmetry_Int_Tables_number   1
_chemical_formula_structural   Sr6TaCo4O15
_chemical_formula_sum   'Sr6 Ta1 Co4 O15'
_cell_volume   337.38295066
_cell_formula_units_Z   1
loop_
 _symmetry_equiv_pos_site_id
 _symmetry_equiv_pos_as_xyz
  1  'x, y, z'
loop_
 _atom_site_type_symbol
 _atom_site_label
 _atom_site_symmetry_multiplicity
 _atom_site_fract_x
 _atom_site_fract_y
 _atom_site_fract_z
 _atom_site_occupancy
  Sr  Sr0  1  0.500000  0.865605  0.134395  1
  Sr  Sr1  1  0.134395  0.500000  0.865605  1
  Sr  Sr2  1  0.865605  0.134395  0.500000  1
  Sr  Sr3  1  0.000000  0.679788  0.320212  1
  Sr  Sr4  1  0.320212  0.000000  0.679788  1
  Sr  Sr5  1  0.679788  0.320212  0.000000  1
  Ta  Ta6  1  0.500000  0.500000  0.500000  1
  Co  Co7  1  0.709143  0.709143  0.709143  1
  Co  Co8  1  0.290857  0.290857  0.290857  1
  Co  Co9  1  0.906311  0.906311  0.906311  1
  Co  Co10  1  0.093689  0.093689  0.093689  1
  O  O11  1  0.370965  0.555977  0.248807  1
  O  O12  1  0.248807  0.370965  0.555977  1
  O  O13  1  0.555977  0.248807  0.370965  1
  O  O14  1  0.629035  0.751193  0.444023  1
  O  O15  1  0.444023  0.629035  0.751193  1
  O  O16  1  0.751193  0.444023  0.629035  1
  O  O17  1  0.202611  0.030946  0.340299  1
  O  O18  1  0.340299  0.202611  0.030946  1
  O  O19  1  0.030946  0.340299  0.202611  1
  O  O20  1  0.797389  0.659701  0.969054  1
  O  O21  1  0.969054  0.797389  0.659701  1
  O  O22  1  0.154702  0.845298  0.000000  1
  O  O23  1  0.845298  0.000000  0.154702  1
  O  O24  1  0.000000  0.154702  0.845298  1
  O  O25  1  0.659701  0.969054  0.797389  1
