# generated using pymatgen
data_BaLiMoF6
_symmetry_space_group_name_H-M   'P 1'
_cell_length_a   5.53429100
_cell_length_b   5.53429110
_cell_length_c   11.29873800
_cell_angle_alpha   90.00000000
_cell_angle_beta   90.00000000
_cell_angle_gamma   119.99999344
_symmetry_Int_Tables_number   1
_chemical_formula_structural   BaLiMoF6
_chemical_formula_sum   'Ba2 Li2 Mo2 F12'
_cell_volume   299.69851332
_cell_formula_units_Z   2
loop_
 _symmetry_equiv_pos_site_id
 _symmetry_equiv_pos_as_xyz
  1  'x, y, z'
loop_
 _atom_site_type_symbol
 _atom_site_label
 _atom_site_symmetry_multiplicity
 _atom_site_fract_x
 _atom_site_fract_y
 _atom_site_fract_z
 _atom_site_occupancy
  Ba  Ba0  1  0.000000  0.000000  0.500000  1
  Ba  Ba1  1  0.000000  0.000000  0.000000  1
  Li  Li2  1  0.333333  0.666667  0.750000  1
  Li  Li3  1  0.666667  0.333333  0.250000  1
  Mo  Mo4  1  0.666667  0.333333  0.750000  1
  Mo  Mo5  1  0.333333  0.666667  0.250000  1
  F  F6  1  0.632624  0.000016  0.647631  1
  F  F7  1  0.367376  0.999984  0.352369  1
  F  F8  1  0.999984  0.632608  0.647631  1
  F  F9  1  0.632624  0.632608  0.852369  1
  F  F10  1  0.000016  0.367392  0.352369  1
  F  F11  1  0.367376  0.367392  0.147631  1
  F  F12  1  0.367392  0.367376  0.647631  1
  F  F13  1  0.999984  0.367376  0.852369  1
  F  F14  1  0.632608  0.632624  0.352369  1
  F  F15  1  0.000016  0.632624  0.147631  1
  F  F16  1  0.367392  0.000016  0.852369  1
  F  F17  1  0.632608  0.999984  0.147631  1
