# generated using pymatgen
data_Tb3Y2(FeB3)2
_symmetry_space_group_name_H-M   'P 1'
_cell_length_a   5.43045100
_cell_length_b   5.43045148
_cell_length_c   8.33620789
_cell_angle_alpha   70.99112071
_cell_angle_beta   70.99111690
_cell_angle_gamma   59.99999774
_symmetry_Int_Tables_number   1
_chemical_formula_structural   Tb3Y2(FeB3)2
_chemical_formula_sum   'Tb3 Y2 Fe2 B6'
_cell_volume   197.26631153
_cell_formula_units_Z   1
loop_
 _symmetry_equiv_pos_site_id
 _symmetry_equiv_pos_as_xyz
  1  'x, y, z'
loop_
 _atom_site_type_symbol
 _atom_site_label
 _atom_site_symmetry_multiplicity
 _atom_site_fract_x
 _atom_site_fract_y
 _atom_site_fract_z
 _atom_site_occupancy
  Tb  Tb0  1  0.000000  0.000000  0.000000  1
  Tb  Tb1  1  0.251537  0.251537  0.245389  1
  Tb  Tb2  1  0.748463  0.748463  0.754611  1
  Y  Y3  1  0.417006  0.417006  0.748982  1
  Y  Y4  1  0.582994  0.582994  0.251018  1
  Fe  Fe5  1  0.118572  0.118572  0.644283  1
  Fe  Fe6  1  0.881428  0.881428  0.355717  1
  B  B7  1  0.167486  0.832514  0.500000  1
  B  B8  1  0.832514  0.500000  0.500000  1
  B  B9  1  0.500000  0.167486  0.500000  1
  B  B10  1  0.167486  0.500000  0.500000  1
  B  B11  1  0.500000  0.832514  0.500000  1
  B  B12  1  0.832514  0.167486  0.500000  1
