# generated using pymatgen
data_Tm7Pa(ReB6)4
_symmetry_space_group_name_H-M   'P 1'
_cell_length_a   3.66048600
_cell_length_b   9.10934236
_cell_length_c   11.47205929
_cell_angle_alpha   90.14573844
_cell_angle_beta   90.00000000
_cell_angle_gamma   90.00000000
_symmetry_Int_Tables_number   1
_chemical_formula_structural   Tm7Pa(ReB6)4
_chemical_formula_sum   'Tm7 Pa1 Re4 B24'
_cell_volume   382.53022210
_cell_formula_units_Z   1
loop_
 _symmetry_equiv_pos_site_id
 _symmetry_equiv_pos_as_xyz
  1  'x, y, z'
loop_
 _atom_site_type_symbol
 _atom_site_label
 _atom_site_symmetry_multiplicity
 _atom_site_fract_x
 _atom_site_fract_y
 _atom_site_fract_z
 _atom_site_occupancy
  Tm  Tm0  1  0.000000  0.679795  0.586860  1
  Tm  Tm1  1  0.000000  0.823137  0.085272  1
  Tm  Tm2  1  0.000000  0.175786  0.913418  1
  Tm  Tm3  1  0.000000  0.942663  0.371575  1
  Tm  Tm4  1  0.000000  0.055126  0.629364  1
  Tm  Tm5  1  0.000000  0.443640  0.127422  1
  Tm  Tm6  1  0.000000  0.557100  0.870574  1
  Pa  Pa7  1  0.000000  0.323085  0.414041  1
  Re  Re8  1  0.000000  0.636474  0.321688  1
  Re  Re9  1  0.000000  0.361984  0.677049  1
  Re  Re10  1  0.000000  0.140678  0.181166  1
  Re  Re11  1  0.000000  0.861403  0.821050  1
  B  B12  1  0.500000  0.553302  0.432536  1
  B  B13  1  0.500000  0.446083  0.567231  1
  B  B14  1  0.500000  0.053589  0.066850  1
  B  B15  1  0.500000  0.947056  0.933970  1
  B  B16  1  0.500000  0.749720  0.419008  1
  B  B17  1  0.500000  0.250074  0.581353  1
  B  B18  1  0.500000  0.249366  0.079970  1
  B  B19  1  0.500000  0.750398  0.919473  1
  B  B20  1  0.500000  0.792409  0.265455  1
  B  B21  1  0.500000  0.207368  0.735314  1
  B  B22  1  0.500000  0.292111  0.234288  1
  B  B23  1  0.500000  0.707507  0.765391  1
  B  B24  1  0.500000  0.631342  0.184200  1
  B  B25  1  0.500000  0.369586  0.814878  1
  B  B26  1  0.500000  0.131283  0.314957  1
  B  B27  1  0.500000  0.868797  0.685447  1
  B  B28  1  0.500000  0.981810  0.212043  1
  B  B29  1  0.500000  0.018111  0.788238  1
  B  B30  1  0.500000  0.482860  0.287149  1
  B  B31  1  0.500000  0.518463  0.712990  1
  B  B32  1  0.500000  0.601394  0.027712  1
  B  B33  1  0.500000  0.398724  0.971120  1
  B  B34  1  0.500000  0.102646  0.471646  1
  B  B35  1  0.500000  0.895131  0.529301  1
