# generated using pymatgen
data_TbTa2Ti(NbSn2)3
_symmetry_space_group_name_H-M   'P 1'
_cell_length_a   5.79197687
_cell_length_b   5.79311091
_cell_length_c   9.63603600
_cell_angle_alpha   90.00000000
_cell_angle_beta   90.00000000
_cell_angle_gamma   120.22883229
_symmetry_Int_Tables_number   1
_chemical_formula_structural   TbTa2Ti(NbSn2)3
_chemical_formula_sum   'Tb1 Ta2 Ti1 Nb3 Sn6'
_cell_volume   279.35835006
_cell_formula_units_Z   1
loop_
 _symmetry_equiv_pos_site_id
 _symmetry_equiv_pos_as_xyz
  1  'x, y, z'
loop_
 _atom_site_type_symbol
 _atom_site_label
 _atom_site_symmetry_multiplicity
 _atom_site_fract_x
 _atom_site_fract_y
 _atom_site_fract_z
 _atom_site_occupancy
  Tb  Tb0  1  0.000000  0.000000  0.997154  1
  Ta  Ta1  1  0.000000  0.500000  0.750608  1
  Ta  Ta2  1  0.500000  0.000000  0.752913  1
  Ti  Ti3  1  0.000000  0.500000  0.249099  1
  Nb  Nb4  1  0.500000  0.500000  0.752517  1
  Nb  Nb5  1  0.500000  0.500000  0.249534  1
  Nb  Nb6  1  0.500000  0.000000  0.250012  1
  Sn  Sn7  1  0.669515  0.334208  0.499598  1
  Sn  Sn8  1  0.330485  0.665792  0.499598  1
  Sn  Sn9  1  0.668994  0.334269  0.001938  1
  Sn  Sn10  1  0.331006  0.665731  0.001938  1
  Sn  Sn11  1  0.000000  0.000000  0.668126  1
  Sn  Sn12  1  0.000000  0.000000  0.326965  1
