# generated using pymatgen
data_La19YbCdSi11
_symmetry_space_group_name_H-M   'P 1'
_cell_length_a   7.89577800
_cell_length_b   7.89577800
_cell_length_c   14.56166100
_cell_angle_alpha   90.00000000
_cell_angle_beta   90.00000000
_cell_angle_gamma   90.00000000
_symmetry_Int_Tables_number   1
_chemical_formula_structural   La19YbCdSi11
_chemical_formula_sum   'La19 Yb1 Cd1 Si11'
_cell_volume   907.82214912
_cell_formula_units_Z   1
loop_
 _symmetry_equiv_pos_site_id
 _symmetry_equiv_pos_as_xyz
  1  'x, y, z'
loop_
 _atom_site_type_symbol
 _atom_site_label
 _atom_site_symmetry_multiplicity
 _atom_site_fract_x
 _atom_site_fract_y
 _atom_site_fract_z
 _atom_site_occupancy
  La  La0  1  0.500000  0.000000  0.779407  1
  La  La1  1  0.324013  0.315993  0.103939  1
  La  La2  1  0.828222  0.812869  0.895439  1
  La  La3  1  0.821547  0.174233  0.390610  1
  La  La4  1  0.171778  0.187131  0.895439  1
  La  La5  1  0.675987  0.684007  0.103939  1
  La  La6  1  0.000000  0.500000  0.724558  1
  La  La7  1  0.807880  0.838390  0.609280  1
  La  La8  1  0.325767  0.321547  0.390610  1
  La  La9  1  0.184007  0.824013  0.103939  1
  La  La10  1  0.192120  0.161610  0.609280  1
  La  La11  1  0.815993  0.175987  0.103939  1
  La  La12  1  0.338390  0.692120  0.609280  1
  La  La13  1  0.500000  0.000000  0.269656  1
  La  La14  1  0.687131  0.328222  0.895439  1
  La  La15  1  0.661610  0.307880  0.609280  1
  La  La16  1  0.312869  0.671778  0.895439  1
  La  La17  1  0.178453  0.825767  0.390610  1
  La  La18  1  0.674233  0.678453  0.390610  1
  Yb  Yb19  1  0.000000  0.500000  0.239846  1
  Cd  Cd20  1  0.000000  0.500000  0.498273  1
  Si  Si21  1  0.611467  0.387808  0.245787  1
  Si  Si22  1  0.887529  0.113654  0.752720  1
  Si  Si23  1  0.500000  0.000000  0.491471  1
  Si  Si24  1  0.887808  0.888533  0.245787  1
  Si  Si25  1  0.000000  0.500000  0.009310  1
  Si  Si26  1  0.112471  0.886346  0.752720  1
  Si  Si27  1  0.386346  0.387529  0.752720  1
  Si  Si28  1  0.112192  0.111467  0.245787  1
  Si  Si29  1  0.388533  0.612192  0.245787  1
  Si  Si30  1  0.613654  0.612471  0.752720  1
  Si  Si31  1  0.500000  0.000000  0.996369  1
