# generated using pymatgen
data_NdThSi3Pd
_symmetry_space_group_name_H-M   'P 1'
_cell_length_a   8.24880000
_cell_length_b   8.26873668
_cell_length_c   8.50968200
_cell_angle_alpha   90.00000000
_cell_angle_beta   90.00000000
_cell_angle_gamma   119.92027375
_symmetry_Int_Tables_number   1
_chemical_formula_structural   NdThSi3Pd
_chemical_formula_sum   'Nd4 Th4 Si12 Pd4'
_cell_volume   503.06284130
_cell_formula_units_Z   4
loop_
 _symmetry_equiv_pos_site_id
 _symmetry_equiv_pos_as_xyz
  1  'x, y, z'
loop_
 _atom_site_type_symbol
 _atom_site_label
 _atom_site_symmetry_multiplicity
 _atom_site_fract_x
 _atom_site_fract_y
 _atom_site_fract_z
 _atom_site_occupancy
  Nd  Nd0  1  0.498995  0.997989  0.750000  1
  Nd  Nd1  1  0.501005  0.002011  0.250000  1
  Nd  Nd2  1  0.999996  0.999991  0.750000  1
  Nd  Nd3  1  0.000004  0.000009  0.250000  1
  Th  Th4  1  0.499159  0.500449  0.750000  1
  Th  Th5  1  0.500841  0.499551  0.250000  1
  Th  Th6  1  0.001290  0.500449  0.750000  1
  Th  Th7  1  0.998710  0.499551  0.250000  1
  Si  Si8  1  0.833833  0.166235  0.999261  1
  Si  Si9  1  0.166167  0.833765  0.000739  1
  Si  Si10  1  0.332402  0.166235  0.999261  1
  Si  Si11  1  0.166167  0.833765  0.499261  1
  Si  Si12  1  0.667598  0.833765  0.000739  1
  Si  Si13  1  0.833833  0.166235  0.500739  1
  Si  Si14  1  0.835000  0.670000  0.999510  1
  Si  Si15  1  0.667598  0.833765  0.499261  1
  Si  Si16  1  0.165000  0.330000  0.000490  1
  Si  Si17  1  0.332402  0.166235  0.500739  1
  Si  Si18  1  0.165000  0.330000  0.499510  1
  Si  Si19  1  0.835000  0.670000  0.500490  1
  Pd  Pd20  1  0.667753  0.335506  0.997157  1
  Pd  Pd21  1  0.332247  0.664494  0.002843  1
  Pd  Pd22  1  0.332247  0.664494  0.497157  1
  Pd  Pd23  1  0.667753  0.335506  0.502843  1
