# generated using pymatgen
data_La4Ga5Ir5Pt4
_symmetry_space_group_name_H-M   'P 1'
_cell_length_a   12.59160859
_cell_length_b   12.57190646
_cell_length_c   12.59160800
_cell_angle_alpha   26.02711788
_cell_angle_beta   26.14413778
_cell_angle_gamma   26.02711210
_symmetry_Int_Tables_number   1
_chemical_formula_structural   La4Ga5Ir5Pt4
_chemical_formula_sum   'La4 Ga5 Ir5 Pt4'
_cell_volume   339.03535636
_cell_formula_units_Z   1
loop_
 _symmetry_equiv_pos_site_id
 _symmetry_equiv_pos_as_xyz
  1  'x, y, z'
loop_
 _atom_site_type_symbol
 _atom_site_label
 _atom_site_symmetry_multiplicity
 _atom_site_fract_x
 _atom_site_fract_y
 _atom_site_fract_z
 _atom_site_occupancy
  La  La0  1  0.954529  0.954899  0.954529  1
  La  La1  1  0.047235  0.048496  0.047235  1
  La  La2  1  0.855731  0.844710  0.855731  1
  La  La3  1  0.144890  0.143668  0.144890  1
  Ga  Ga4  1  0.494893  0.506344  0.494893  1
  Ga  Ga5  1  0.722753  0.717736  0.722753  1
  Ga  Ga6  1  0.279645  0.277987  0.279645  1
  Ga  Ga7  1  0.612361  0.614650  0.612361  1
  Ga  Ga8  1  0.385052  0.395182  0.385052  1
  Ir  Ir9  1  0.499070  0.500211  0.001082  1
  Ir  Ir10  1  0.001082  0.500211  0.499070  1
  Ir  Ir11  1  0.499586  0.003201  0.499586  1
  Ir  Ir12  1  0.613272  0.610143  0.105573  1
  Ir  Ir13  1  0.105573  0.610143  0.613272  1
  Pt  Pt14  1  0.389762  0.891620  0.389762  1
  Pt  Pt15  1  0.391067  0.387670  0.891819  1
  Pt  Pt16  1  0.891819  0.387670  0.391067  1
  Pt  Pt17  1  0.611679  0.105459  0.611679  1
