# generated using pymatgen
data_Pr5NdHg10
_symmetry_space_group_name_H-M   'P 1'
_cell_length_a   6.57979709
_cell_length_b   6.57979801
_cell_length_c   10.61609900
_cell_angle_alpha   90.00004354
_cell_angle_beta   90.00004354
_cell_angle_gamma   106.12379605
_symmetry_Int_Tables_number   1
_chemical_formula_structural   Pr5NdHg10
_chemical_formula_sum   'Pr5 Nd1 Hg10'
_cell_volume   441.53129572
_cell_formula_units_Z   1
loop_
 _symmetry_equiv_pos_site_id
 _symmetry_equiv_pos_as_xyz
  1  'x, y, z'
loop_
 _atom_site_type_symbol
 _atom_site_label
 _atom_site_symmetry_multiplicity
 _atom_site_fract_x
 _atom_site_fract_y
 _atom_site_fract_z
 _atom_site_occupancy
  Pr  Pr0  1  0.589530  0.589530  0.250000  1
  Pr  Pr1  1  0.202631  0.797017  0.500265  1
  Pr  Pr2  1  0.202631  0.797017  0.999735  1
  Pr  Pr3  1  0.797017  0.202631  0.500265  1
  Pr  Pr4  1  0.797017  0.202631  0.999735  1
  Nd  Nd5  1  0.410037  0.410037  0.750000  1
  Hg  Hg6  1  0.997098  0.997097  0.249999  1
  Hg  Hg7  1  0.005047  0.005046  0.750001  1
  Hg  Hg8  1  0.303611  0.303611  0.032381  1
  Hg  Hg9  1  0.696047  0.696047  0.965297  1
  Hg  Hg10  1  0.303611  0.303611  0.467619  1
  Hg  Hg11  1  0.696047  0.696047  0.534703  1
  Hg  Hg12  1  0.484337  0.050014  0.250000  1
  Hg  Hg13  1  0.950015  0.515309  0.750000  1
  Hg  Hg14  1  0.515309  0.950015  0.750000  1
  Hg  Hg15  1  0.050014  0.484337  0.250000  1
