# generated using pymatgen
data_NdGdV2F14
_symmetry_space_group_name_H-M   'P 1'
_cell_length_a   5.63709000
_cell_length_b   9.10780394
_cell_length_c   12.14558500
_cell_angle_alpha   62.91868063
_cell_angle_beta   90.00000000
_cell_angle_gamma   90.00000000
_symmetry_Int_Tables_number   1
_chemical_formula_structural   NdGdV2F14
_chemical_formula_sum   'Nd2 Gd2 V4 F28'
_cell_volume   555.20497128
_cell_formula_units_Z   2
loop_
 _symmetry_equiv_pos_site_id
 _symmetry_equiv_pos_as_xyz
  1  'x, y, z'
loop_
 _atom_site_type_symbol
 _atom_site_label
 _atom_site_symmetry_multiplicity
 _atom_site_fract_x
 _atom_site_fract_y
 _atom_site_fract_z
 _atom_site_occupancy
  Nd  Nd0  1  0.758047  0.805554  0.769461  1
  Nd  Nd1  1  0.258047  0.194446  0.730539  1
  Gd  Gd2  1  0.241541  0.191307  0.231320  1
  Gd  Gd3  1  0.741541  0.808693  0.268680  1
  V  V4  1  0.753569  0.271869  0.959180  1
  V  V5  1  0.253569  0.728131  0.540820  1
  V  V6  1  0.244503  0.724768  0.047497  1
  V  V7  1  0.744503  0.275232  0.452503  1
  F  F8  1  0.446039  0.708169  0.928120  1
  F  F9  1  0.946039  0.291831  0.571880  1
  F  F10  1  0.552038  0.289736  0.077796  1
  F  F11  1  0.052038  0.710264  0.422204  1
  F  F12  1  0.470103  0.285779  0.541800  1
  F  F13  1  0.970103  0.714221  0.958200  1
  F  F14  1  0.530650  0.718017  0.451700  1
  F  F15  1  0.030650  0.281983  0.048300  1
  F  F16  1  0.766411  0.498995  0.867777  1
  F  F17  1  0.266411  0.501005  0.632223  1
  F  F18  1  0.236265  0.497866  0.137384  1
  F  F19  1  0.736265  0.502134  0.362616  1
  F  F20  1  0.757161  0.047392  0.048243  1
  F  F21  1  0.257161  0.952608  0.451757  1
  F  F22  1  0.241075  0.949396  0.956238  1
  F  F23  1  0.741075  0.050604  0.543762  1
  F  F24  1  0.984695  0.733001  0.633641  1
  F  F25  1  0.484695  0.266999  0.866359  1
  F  F26  1  0.012781  0.265929  0.359482  1
  F  F27  1  0.512781  0.734071  0.140518  1
  F  F28  1  0.042188  0.746174  0.167198  1
  F  F29  1  0.542188  0.253826  0.332802  1
  F  F30  1  0.952741  0.253364  0.837853  1
  F  F31  1  0.452741  0.746636  0.662147  1
  F  F32  1  0.424079  0.975570  0.231597  1
  F  F33  1  0.924079  0.024430  0.268403  1
  F  F34  1  0.586115  0.029676  0.769779  1
  F  F35  1  0.086115  0.970324  0.730221  1
