# generated using pymatgen
data_PuCl2O
_symmetry_space_group_name_H-M   'P 1'
_cell_length_a   4.17311714
_cell_length_b   16.07330534
_cell_length_c   7.52857543
_cell_angle_alpha   83.23619370
_cell_angle_beta   106.16054506
_cell_angle_gamma   82.55898697
_symmetry_Int_Tables_number   1
_chemical_formula_structural   PuCl2O
_chemical_formula_sum   'Pu4 Cl8 O4'
_cell_volume   474.63200636
_cell_formula_units_Z   4
loop_
 _symmetry_equiv_pos_site_id
 _symmetry_equiv_pos_as_xyz
  1  'x, y, z'
loop_
 _atom_site_type_symbol
 _atom_site_label
 _atom_site_symmetry_multiplicity
 _atom_site_fract_x
 _atom_site_fract_y
 _atom_site_fract_z
 _atom_site_occupancy
  Pu  Pu0  1  0.254447  0.745546  0.254385  1
  Pu  Pu1  1  0.004496  0.995459  0.004426  1
  Pu  Pu2  1  0.754526  0.245541  0.754552  1
  Pu  Pu3  1  0.504491  0.495523  0.504525  1
  Cl  Cl4  1  0.161197  0.212154  0.534898  1
  Cl  Cl5  1  0.911194  0.462195  0.284990  1
  Cl  Cl6  1  0.661015  0.712249  0.034599  1
  Cl  Cl7  1  0.411314  0.962017  0.785048  1
  Cl  Cl8  1  0.351356  0.275453  0.977678  1
  Cl  Cl9  1  0.101061  0.525604  0.727286  1
  Cl  Cl10  1  0.851267  0.775465  0.477504  1
  Cl  Cl11  1  0.601274  0.025308  0.227352  1
  O  O12  1  0.629658  0.370308  0.629808  1
  O  O13  1  0.379024  0.620944  0.379095  1
  O  O14  1  0.129643  0.870306  0.129749  1
  O  O15  1  0.879140  0.120827  0.879204  1
