# generated using pymatgen
data_Nd4Er3Lu3Pb8
_symmetry_space_group_name_H-M   'P 1'
_cell_length_a   8.23146500
_cell_length_b   8.34971657
_cell_length_c   15.74280000
_cell_angle_alpha   89.97885131
_cell_angle_beta   90.00000000
_cell_angle_gamma   90.00000000
_symmetry_Int_Tables_number   1
_chemical_formula_structural   Nd4Er3Lu3Pb8
_chemical_formula_sum   'Nd8 Er6 Lu6 Pb16'
_cell_volume   1082.00886263
_cell_formula_units_Z   2
loop_
 _symmetry_equiv_pos_site_id
 _symmetry_equiv_pos_as_xyz
  1  'x, y, z'
loop_
 _atom_site_type_symbol
 _atom_site_label
 _atom_site_symmetry_multiplicity
 _atom_site_fract_x
 _atom_site_fract_y
 _atom_site_fract_z
 _atom_site_occupancy
  Nd  Nd0  1  0.473433  0.677210  0.597711  1
  Nd  Nd1  1  0.973433  0.822790  0.902289  1
  Nd  Nd2  1  0.526446  0.322484  0.097107  1
  Nd  Nd3  1  0.026446  0.177516  0.402893  1
  Nd  Nd4  1  0.526563  0.322522  0.402507  1
  Nd  Nd5  1  0.026563  0.177478  0.097493  1
  Nd  Nd6  1  0.473432  0.677411  0.902423  1
  Nd  Nd7  1  0.973432  0.822589  0.597577  1
  Er  Er8  1  0.633491  0.157827  0.622686  1
  Er  Er9  1  0.133491  0.342173  0.877314  1
  Er  Er10  1  0.366344  0.841835  0.122760  1
  Er  Er11  1  0.866344  0.658165  0.377240  1
  Er  Er12  1  0.366346  0.842099  0.377740  1
  Er  Er13  1  0.866346  0.657901  0.122260  1
  Lu  Lu14  1  0.633679  0.157631  0.876739  1
  Lu  Lu15  1  0.133679  0.342369  0.623261  1
  Lu  Lu16  1  0.799916  0.493636  0.750030  1
  Lu  Lu17  1  0.299916  0.006364  0.749970  1
  Lu  Lu18  1  0.200116  0.505761  0.250097  1
  Lu  Lu19  1  0.700116  0.994239  0.249903  1
  Pb  Pb20  1  0.705881  0.959697  0.456223  1
  Pb  Pb21  1  0.205881  0.540303  0.043777  1
  Pb  Pb22  1  0.295710  0.040806  0.955607  1
  Pb  Pb23  1  0.795710  0.459194  0.544393  1
  Pb  Pb24  1  0.292991  0.041994  0.544586  1
  Pb  Pb25  1  0.792991  0.458006  0.955414  1
  Pb  Pb26  1  0.705516  0.960399  0.042941  1
  Pb  Pb27  1  0.205516  0.539601  0.457059  1
  Pb  Pb28  1  0.438788  0.370503  0.750147  1
  Pb  Pb29  1  0.938788  0.129497  0.749853  1
  Pb  Pb30  1  0.561584  0.628770  0.250037  1
  Pb  Pb31  1  0.061584  0.871230  0.249963  1
  Pb  Pb32  1  0.662647  0.847969  0.750151  1
  Pb  Pb33  1  0.162647  0.652031  0.749849  1
  Pb  Pb34  1  0.337119  0.152256  0.249986  1
  Pb  Pb35  1  0.837119  0.347744  0.250014  1
