# generated using pymatgen
data_Ta6FeCo(BRu2)4
_symmetry_space_group_name_H-M   'P 1'
_cell_length_a   9.24919426
_cell_length_b   9.24919426
_cell_length_c   3.05383500
_cell_angle_alpha   90.00000000
_cell_angle_beta   90.00000000
_cell_angle_gamma   89.65771876
_symmetry_Int_Tables_number   1
_chemical_formula_structural   Ta6FeCo(BRu2)4
_chemical_formula_sum   'Ta6 Fe1 Co1 B4 Ru8'
_cell_volume   261.24357647
_cell_formula_units_Z   1
loop_
 _symmetry_equiv_pos_site_id
 _symmetry_equiv_pos_as_xyz
  1  'x, y, z'
loop_
 _atom_site_type_symbol
 _atom_site_label
 _atom_site_symmetry_multiplicity
 _atom_site_fract_x
 _atom_site_fract_y
 _atom_site_fract_z
 _atom_site_occupancy
  Ta  Ta0  1  0.828531  0.671469  0.000000  1
  Ta  Ta1  1  0.171469  0.328531  0.000000  1
  Ta  Ta2  1  0.326679  0.826679  0.000000  1
  Ta  Ta3  1  0.673321  0.173321  0.000000  1
  Ta  Ta4  1  0.500000  0.500000  0.000000  1
  Ta  Ta5  1  0.000000  0.000000  0.000000  1
  Fe  Fe6  1  0.000000  0.500000  0.500000  1
  Co  Co7  1  0.500000  0.000000  0.500000  1
  B  B8  1  0.606658  0.893342  0.000000  1
  B  B9  1  0.393342  0.106658  0.000000  1
  B  B10  1  0.108504  0.608504  0.000000  1
  B  B11  1  0.891496  0.391496  0.000000  1
  Ru  Ru12  1  0.567830  0.723999  0.500000  1
  Ru  Ru13  1  0.432170  0.276001  0.500000  1
  Ru  Ru14  1  0.067721  0.777247  0.500000  1
  Ru  Ru15  1  0.932279  0.222753  0.500000  1
  Ru  Ru16  1  0.277247  0.567721  0.500000  1
  Ru  Ru17  1  0.722753  0.432279  0.500000  1
  Ru  Ru18  1  0.223999  0.067830  0.500000  1
  Ru  Ru19  1  0.776001  0.932170  0.500000  1
