# generated using pymatgen
data_Li7La8Cu(Sn3Bi)2
_symmetry_space_group_name_H-M   'P 1'
_cell_length_a   9.64621502
_cell_length_b   9.63787218
_cell_length_c   7.89902599
_cell_angle_alpha   90.12953764
_cell_angle_beta   89.94418118
_cell_angle_gamma   119.97747238
_symmetry_Int_Tables_number   1
_chemical_formula_structural   Li7La8Cu(Sn3Bi)2
_chemical_formula_sum   'Li7 La8 Cu1 Sn6 Bi2'
_cell_volume   636.12095112
_cell_formula_units_Z   1
loop_
 _symmetry_equiv_pos_site_id
 _symmetry_equiv_pos_as_xyz
  1  'x, y, z'
loop_
 _atom_site_type_symbol
 _atom_site_label
 _atom_site_symmetry_multiplicity
 _atom_site_fract_x
 _atom_site_fract_y
 _atom_site_fract_z
 _atom_site_occupancy
  Li  Li0  1  0.833642  0.666787  0.721473  1
  Li  Li1  1  0.334151  0.166098  0.715316  1
  Li  Li2  1  0.170704  0.835276  0.214586  1
  Li  Li3  1  0.170735  0.335498  0.215620  1
  Li  Li4  1  0.662330  0.830520  0.208536  1
  Li  Li5  1  0.662714  0.332094  0.329095  1
  Li  Li6  1  0.333466  0.667915  0.825115  1
  La  La7  1  0.485012  0.509115  0.505117  1
  La  La8  1  0.490872  0.979169  0.509848  1
  La  La9  1  0.022238  0.507167  0.511749  1
  La  La10  1  0.506243  0.486200  0.003694  1
  La  La11  1  0.510805  0.021733  0.999361  1
  La  La12  1  0.981635  0.487220  0.997682  1
  La  La13  1  0.001151  0.004507  0.508643  1
  La  La14  1  0.002140  0.004464  0.994955  1
  Cu  Cu15  1  0.832940  0.166783  0.727781  1
  Sn  Sn16  1  0.332677  0.165710  0.268829  1
  Sn  Sn17  1  0.165898  0.832850  0.767801  1
  Sn  Sn18  1  0.164327  0.332336  0.766923  1
  Sn  Sn19  1  0.667608  0.835750  0.769237  1
  Sn  Sn20  1  0.668486  0.332398  0.732162  1
  Sn  Sn21  1  0.332155  0.666604  0.234429  1
  Bi  Bi22  1  0.833312  0.166668  0.264747  1
  Bi  Bi23  1  0.834760  0.667139  0.265308  1
