# generated using pymatgen
data_PrNd4(RhO6)2
_symmetry_space_group_name_H-M   'P 1'
_cell_length_a   7.09253520
_cell_length_b   7.09253556
_cell_length_c   7.59653958
_cell_angle_alpha   74.51038449
_cell_angle_beta   74.51038377
_cell_angle_gamma   50.90574167
_symmetry_Int_Tables_number   1
_chemical_formula_structural   PrNd4(RhO6)2
_chemical_formula_sum   'Pr1 Nd4 Rh2 O12'
_cell_volume   283.31063835
_cell_formula_units_Z   1
loop_
 _symmetry_equiv_pos_site_id
 _symmetry_equiv_pos_as_xyz
  1  'x, y, z'
loop_
 _atom_site_type_symbol
 _atom_site_label
 _atom_site_symmetry_multiplicity
 _atom_site_fract_x
 _atom_site_fract_y
 _atom_site_fract_z
 _atom_site_occupancy
  Pr  Pr0  1  0.000000  0.000000  0.500000  1
  Nd  Nd1  1  0.305087  0.305087  0.357540  1
  Nd  Nd2  1  0.694913  0.694913  0.642460  1
  Nd  Nd3  1  0.692628  0.692628  0.166466  1
  Nd  Nd4  1  0.307372  0.307372  0.833534  1
  Rh  Rh5  1  0.754295  0.245705  0.000000  1
  Rh  Rh6  1  0.245705  0.754295  0.000000  1
  O  O7  1  0.095482  0.595312  0.577305  1
  O  O8  1  0.999020  0.999020  0.173756  1
  O  O9  1  0.404688  0.904518  0.422695  1
  O  O10  1  0.500146  0.500146  0.178012  1
  O  O11  1  0.100060  0.577063  0.079917  1
  O  O12  1  0.904518  0.404688  0.422695  1
  O  O13  1  0.000980  0.000980  0.826244  1
  O  O14  1  0.595312  0.095481  0.577305  1
  O  O15  1  0.499854  0.499854  0.821988  1
  O  O16  1  0.577063  0.100060  0.079917  1
  O  O17  1  0.422937  0.899940  0.920083  1
  O  O18  1  0.899940  0.422937  0.920083  1
