# generated using pymatgen
data_Tb4Ho3Tm13(CoSb2)4
_symmetry_space_group_name_H-M   'P 1'
_cell_length_a   7.79930834
_cell_length_b   8.73991500
_cell_length_c   12.05424653
_cell_angle_alpha   90.00000000
_cell_angle_beta   90.03393909
_cell_angle_gamma   90.00000000
_symmetry_Int_Tables_number   1
_chemical_formula_structural   Tb4Ho3Tm13(CoSb2)4
_chemical_formula_sum   'Tb4 Ho3 Tm13 Co4 Sb8'
_cell_volume   821.68108993
_cell_formula_units_Z   1
loop_
 _symmetry_equiv_pos_site_id
 _symmetry_equiv_pos_as_xyz
  1  'x, y, z'
loop_
 _atom_site_type_symbol
 _atom_site_label
 _atom_site_symmetry_multiplicity
 _atom_site_fract_x
 _atom_site_fract_y
 _atom_site_fract_z
 _atom_site_occupancy
  Tb  Tb0  1  0.622255  0.750000  0.306584  1
  Tb  Tb1  1  0.122142  0.250000  0.193347  1
  Tb  Tb2  1  0.377881  0.250000  0.693345  1
  Tb  Tb3  1  0.878138  0.750000  0.806647  1
  Ho  Ho4  1  0.154934  0.750000  0.203594  1
  Ho  Ho5  1  0.654835  0.250000  0.296461  1
  Ho  Ho6  1  0.845057  0.250000  0.796343  1
  Tm  Tm7  1  0.345187  0.750000  0.703214  1
  Tm  Tm8  1  0.450186  0.750000  0.997459  1
  Tm  Tm9  1  0.950375  0.250000  0.502387  1
  Tm  Tm10  1  0.549660  0.250000  0.002279  1
  Tm  Tm11  1  0.050139  0.750000  0.497866  1
  Tm  Tm12  1  0.822798  0.963452  0.064941  1
  Tm  Tm13  1  0.322808  0.036398  0.435188  1
  Tm  Tm14  1  0.177254  0.463587  0.934990  1
  Tm  Tm15  1  0.676955  0.536840  0.565098  1
  Tm  Tm16  1  0.177254  0.036413  0.934990  1
  Tm  Tm17  1  0.676955  0.963160  0.565098  1
  Tm  Tm18  1  0.822798  0.536548  0.064941  1
  Tm  Tm19  1  0.322808  0.463602  0.435188  1
  Co  Co20  1  0.432050  0.750000  0.490988  1
  Co  Co21  1  0.932126  0.250000  0.009319  1
  Co  Co22  1  0.567760  0.250000  0.509339  1
  Co  Co23  1  0.067716  0.750000  0.990693  1
  Sb  Sb24  1  0.929687  0.991533  0.328787  1
  Sb  Sb25  1  0.429721  0.008446  0.171184  1
  Sb  Sb26  1  0.070750  0.491924  0.671330  1
  Sb  Sb27  1  0.569806  0.508890  0.828551  1
  Sb  Sb28  1  0.070750  0.008076  0.671330  1
  Sb  Sb29  1  0.569806  0.991110  0.828551  1
  Sb  Sb30  1  0.929687  0.508467  0.328787  1
  Sb  Sb31  1  0.429721  0.491554  0.171184  1
