# generated using pymatgen
data_SmHo7Mg2(SiB4)4
_symmetry_space_group_name_H-M   'P 1'
_cell_length_a   7.16554911
_cell_length_b   7.16553307
_cell_length_c   7.84413514
_cell_angle_alpha   90.01296293
_cell_angle_beta   90.01740650
_cell_angle_gamma   90.00981812
_symmetry_Int_Tables_number   1
_chemical_formula_structural   SmHo7Mg2(SiB4)4
_chemical_formula_sum   'Sm1 Ho7 Mg2 Si4 B16'
_cell_volume   402.75692021
_cell_formula_units_Z   1
loop_
 _symmetry_equiv_pos_site_id
 _symmetry_equiv_pos_as_xyz
  1  'x, y, z'
loop_
 _atom_site_type_symbol
 _atom_site_label
 _atom_site_symmetry_multiplicity
 _atom_site_fract_x
 _atom_site_fract_y
 _atom_site_fract_z
 _atom_site_occupancy
  Sm  Sm0  1  0.683195  0.183138  0.237496  1
  Ho  Ho1  1  0.316704  0.816752  0.767433  1
  Ho  Ho2  1  0.316648  0.816587  0.232628  1
  Ho  Ho3  1  0.817147  0.683126  0.232759  1
  Ho  Ho4  1  0.817052  0.683193  0.767584  1
  Ho  Ho5  1  0.683006  0.183055  0.767453  1
  Ho  Ho6  1  0.183201  0.317041  0.767641  1
  Ho  Ho7  1  0.183121  0.317154  0.232814  1
  Mg  Mg8  1  0.999995  0.000118  0.500261  1
  Mg  Mg9  1  0.500035  0.499974  0.500299  1
  Si  Si10  1  0.116540  0.616542  0.500515  1
  Si  Si11  1  0.886640  0.386644  0.503169  1
  Si  Si12  1  0.382197  0.113903  0.502522  1
  Si  Si13  1  0.613907  0.882181  0.502396  1
  B  B14  1  0.174132  0.039489  0.999048  1
  B  B15  1  0.826962  0.959220  0.999017  1
  B  B16  1  0.960996  0.173199  0.999202  1
  B  B17  1  0.325926  0.540355  0.999329  1
  B  B18  1  0.040364  0.825926  0.999273  1
  B  B19  1  0.673201  0.461003  0.999145  1
  B  B20  1  0.539496  0.674130  0.999127  1
  B  B21  1  0.459211  0.326960  0.998948  1
  B  B22  1  0.089446  0.589444  0.999504  1
  B  B23  1  0.910656  0.410656  0.999598  1
  B  B24  1  0.410190  0.089441  0.998265  1
  B  B25  1  0.589446  0.910191  0.998232  1
  B  B26  1  0.001695  0.999107  0.161512  1
  B  B27  1  0.000128  0.999654  0.836653  1
  B  B28  1  0.499657  0.500098  0.836656  1
  B  B29  1  0.499105  0.501718  0.161520  1
