# generated using pymatgen
data_Nd2HoPa(Al3Rh)6
_symmetry_space_group_name_H-M   'P 1'
_cell_length_a   7.61266442
_cell_length_b   7.60845880
_cell_length_c   9.49652600
_cell_angle_alpha   90.00000000
_cell_angle_beta   90.00000000
_cell_angle_gamma   119.39497723
_symmetry_Int_Tables_number   1
_chemical_formula_structural   Nd2HoPa(Al3Rh)6
_chemical_formula_sum   'Nd2 Ho1 Pa1 Al18 Rh6'
_cell_volume   479.23038087
_cell_formula_units_Z   1
loop_
 _symmetry_equiv_pos_site_id
 _symmetry_equiv_pos_as_xyz
  1  'x, y, z'
loop_
 _atom_site_type_symbol
 _atom_site_label
 _atom_site_symmetry_multiplicity
 _atom_site_fract_x
 _atom_site_fract_y
 _atom_site_fract_z
 _atom_site_occupancy
  Nd  Nd0  1  0.005620  0.328948  0.250000  1
  Nd  Nd1  1  0.329083  0.004709  0.250000  1
  Ho  Ho2  1  0.673514  0.994619  0.750000  1
  Pa  Pa3  1  0.995891  0.673074  0.750000  1
  Al  Al4  1  0.131688  0.130149  0.750000  1
  Al  Al5  1  0.869860  0.870683  0.250000  1
  Al  Al6  1  0.999925  0.333150  0.578063  1
  Al  Al7  1  0.997031  0.664180  0.425039  1
  Al  Al8  1  0.997031  0.664180  0.074961  1
  Al  Al9  1  0.339618  0.003345  0.921665  1
  Al  Al10  1  0.999925  0.333150  0.921937  1
  Al  Al11  1  0.664930  0.998245  0.072582  1
  Al  Al12  1  0.664930  0.998245  0.427418  1
  Al  Al13  1  0.339618  0.003345  0.578335  1
  Al  Al14  1  0.333479  0.333486  0.047037  1
  Al  Al15  1  0.663920  0.666437  0.949522  1
  Al  Al16  1  0.663920  0.666437  0.550478  1
  Al  Al17  1  0.333479  0.333486  0.452963  1
  Al  Al18  1  0.339236  0.549701  0.750000  1
  Al  Al19  1  0.658887  0.450730  0.250000  1
  Al  Al20  1  0.549916  0.344178  0.750000  1
  Al  Al21  1  0.452213  0.659564  0.250000  1
  Rh  Rh22  1  0.673436  0.330318  0.503691  1
  Rh  Rh23  1  0.327093  0.672139  0.503661  1
  Rh  Rh24  1  0.327093  0.672139  0.996339  1
  Rh  Rh25  1  0.673436  0.330318  0.996309  1
  Rh  Rh26  1  0.997616  0.995522  0.505185  1
  Rh  Rh27  1  0.997616  0.995522  0.994815  1
