# generated using pymatgen
data_Pr3(Al3Pt2)2
_symmetry_space_group_name_H-M   'P 1'
_cell_length_a   4.30041700
_cell_length_b   13.93753100
_cell_length_c   17.47739700
_cell_angle_alpha   90.00000000
_cell_angle_beta   90.00000000
_cell_angle_gamma   90.00000000
_symmetry_Int_Tables_number   1
_chemical_formula_structural   Pr3(Al3Pt2)2
_chemical_formula_sum   'Pr12 Al24 Pt16'
_cell_volume   1047.54615646
_cell_formula_units_Z   4
loop_
 _symmetry_equiv_pos_site_id
 _symmetry_equiv_pos_as_xyz
  1  'x, y, z'
loop_
 _atom_site_type_symbol
 _atom_site_label
 _atom_site_symmetry_multiplicity
 _atom_site_fract_x
 _atom_site_fract_y
 _atom_site_fract_z
 _atom_site_occupancy
  Pr  Pr0  1  0.250000  0.074804  0.152916  1
  Pr  Pr1  1  0.250000  0.574804  0.347084  1
  Pr  Pr2  1  0.750000  0.925196  0.847084  1
  Pr  Pr3  1  0.750000  0.425196  0.652916  1
  Pr  Pr4  1  0.250000  0.302710  0.970241  1
  Pr  Pr5  1  0.250000  0.802710  0.529759  1
  Pr  Pr6  1  0.750000  0.697290  0.029759  1
  Pr  Pr7  1  0.750000  0.197290  0.470241  1
  Pr  Pr8  1  0.250000  0.368152  0.192777  1
  Pr  Pr9  1  0.250000  0.868152  0.307223  1
  Pr  Pr10  1  0.750000  0.631848  0.807223  1
  Pr  Pr11  1  0.750000  0.131848  0.692777  1
  Al  Al12  1  0.250000  0.028736  0.432377  1
  Al  Al13  1  0.250000  0.528736  0.067623  1
  Al  Al14  1  0.750000  0.971264  0.567623  1
  Al  Al15  1  0.750000  0.471264  0.932377  1
  Al  Al16  1  0.250000  0.054371  0.955158  1
  Al  Al17  1  0.250000  0.554371  0.544842  1
  Al  Al18  1  0.750000  0.945629  0.044842  1
  Al  Al19  1  0.750000  0.445629  0.455158  1
  Al  Al20  1  0.250000  0.254100  0.605603  1
  Al  Al21  1  0.250000  0.754100  0.894397  1
  Al  Al22  1  0.750000  0.745900  0.394397  1
  Al  Al23  1  0.750000  0.245900  0.105603  1
  Al  Al24  1  0.250000  0.270910  0.773182  1
  Al  Al25  1  0.250000  0.770910  0.726818  1
  Al  Al26  1  0.750000  0.729090  0.226818  1
  Al  Al27  1  0.750000  0.229090  0.273182  1
  Al  Al28  1  0.250000  0.325573  0.368952  1
  Al  Al29  1  0.250000  0.825573  0.131048  1
  Al  Al30  1  0.750000  0.674427  0.631048  1
  Al  Al31  1  0.750000  0.174427  0.868952  1
  Al  Al32  1  0.250000  0.458517  0.809066  1
  Al  Al33  1  0.250000  0.958517  0.690934  1
  Al  Al34  1  0.750000  0.541483  0.190934  1
  Al  Al35  1  0.750000  0.041483  0.309066  1
  Pt  Pt36  1  0.250000  0.073864  0.571462  1
  Pt  Pt37  1  0.250000  0.573864  0.928538  1
  Pt  Pt38  1  0.750000  0.926136  0.428538  1
  Pt  Pt39  1  0.750000  0.426136  0.071462  1
  Pt  Pt40  1  0.250000  0.088564  0.812450  1
  Pt  Pt41  1  0.250000  0.588564  0.687550  1
  Pt  Pt42  1  0.750000  0.911436  0.187550  1
  Pt  Pt43  1  0.750000  0.411436  0.312450  1
  Pt  Pt44  1  0.250000  0.149735  0.324118  1
  Pt  Pt45  1  0.250000  0.649735  0.175882  1
  Pt  Pt46  1  0.750000  0.850265  0.675882  1
  Pt  Pt47  1  0.750000  0.350265  0.824118  1
  Pt  Pt48  1  0.250000  0.377718  0.507031  1
  Pt  Pt49  1  0.250000  0.877718  0.992969  1
  Pt  Pt50  1  0.750000  0.622282  0.492969  1
  Pt  Pt51  1  0.750000  0.122282  0.007031  1
