# generated using pymatgen
data_Pa4Ga20Co4Pt7
_symmetry_space_group_name_H-M   'P 1'
_cell_length_a   4.12381586
_cell_length_b   10.77736125
_cell_length_c   13.64110603
_cell_angle_alpha   82.78843681
_cell_angle_beta   81.30602927
_cell_angle_gamma   78.97077118
_symmetry_Int_Tables_number   1
_chemical_formula_structural   Pa4Ga20Co4Pt7
_chemical_formula_sum   'Pa4 Ga20 Co4 Pt7'
_cell_volume   585.30440464
_cell_formula_units_Z   1
loop_
 _symmetry_equiv_pos_site_id
 _symmetry_equiv_pos_as_xyz
  1  'x, y, z'
loop_
 _atom_site_type_symbol
 _atom_site_label
 _atom_site_symmetry_multiplicity
 _atom_site_fract_x
 _atom_site_fract_y
 _atom_site_fract_z
 _atom_site_occupancy
  Pa  Pa0  1  0.121304  0.088397  0.669031  1
  Pa  Pa1  1  0.878696  0.911603  0.330969  1
  Pa  Pa2  1  0.773673  0.630702  0.821949  1
  Pa  Pa3  1  0.226327  0.369298  0.178051  1
  Ga  Ga4  1  0.017817  0.053117  0.911034  1
  Ga  Ga5  1  0.982183  0.946883  0.088966  1
  Ga  Ga6  1  0.061974  0.667307  0.208724  1
  Ga  Ga7  1  0.938026  0.332693  0.791276  1
  Ga  Ga8  1  0.097806  0.349711  0.454755  1
  Ga  Ga9  1  0.902194  0.650289  0.545245  1
  Ga  Ga10  1  0.196387  0.615687  0.991538  1
  Ga  Ga11  1  0.803613  0.384313  0.008462  1
  Ga  Ga12  1  0.257453  0.780895  0.704261  1
  Ga  Ga13  1  0.742547  0.219105  0.295739  1
  Ga  Ga14  1  0.304259  0.897142  0.494331  1
  Ga  Ga15  1  0.695741  0.102858  0.505669  1
  Ga  Ga16  1  0.393028  0.521563  0.692338  1
  Ga  Ga17  1  0.606972  0.478437  0.307662  1
  Ga  Ga18  1  0.398075  0.198200  0.005639  1
  Ga  Ga19  1  0.601925  0.801800  0.994361  1
  Ga  Ga20  1  0.539945  0.293406  0.626788  1
  Ga  Ga21  1  0.460055  0.706594  0.373212  1
  Ga  Ga22  1  0.636927  0.924330  0.801813  1
  Ga  Ga23  1  0.363073  0.075670  0.198187  1
  Co  Co24  1  0.024956  0.574268  0.375769  1
  Co  Co25  1  0.975044  0.425732  0.624231  1
  Co  Co26  1  0.146360  0.822896  0.884457  1
  Co  Co27  1  0.853640  0.177104  0.115543  1
  Pt  Pt28  1  0.500000  0.500000  0.500000  1
  Pt  Pt29  1  0.240484  0.127654  0.391325  1
  Pt  Pt30  1  0.759516  0.872346  0.608675  1
  Pt  Pt31  1  0.345011  0.419517  0.890533  1
  Pt  Pt32  1  0.654989  0.580483  0.109467  1
  Pt  Pt33  1  0.507191  0.168125  0.817358  1
  Pt  Pt34  1  0.492809  0.831875  0.182642  1
