# generated using pymatgen
data_Ho4Zn(Ga2Pt)10
_symmetry_space_group_name_H-M   'P 1'
_cell_length_a   4.15143818
_cell_length_b   11.14982913
_cell_length_c   13.64951600
_cell_angle_alpha   81.49594040
_cell_angle_beta   81.25293009
_cell_angle_gamma   79.27088602
_symmetry_Int_Tables_number   1
_chemical_formula_structural   Ho4Zn(Ga2Pt)10
_chemical_formula_sum   'Ho4 Zn1 Ga20 Pt10'
_cell_volume   608.87291673
_cell_formula_units_Z   1
loop_
 _symmetry_equiv_pos_site_id
 _symmetry_equiv_pos_as_xyz
  1  'x, y, z'
loop_
 _atom_site_type_symbol
 _atom_site_label
 _atom_site_symmetry_multiplicity
 _atom_site_fract_x
 _atom_site_fract_y
 _atom_site_fract_z
 _atom_site_occupancy
  Ho  Ho0  1  0.124007  0.087767  0.664220  1
  Ho  Ho1  1  0.875993  0.912233  0.335780  1
  Ho  Ho2  1  0.772012  0.631879  0.824097  1
  Ho  Ho3  1  0.227988  0.368121  0.175903  1
  Zn  Zn4  1  0.500000  0.500000  0.500000  1
  Ga  Ga5  1  0.010324  0.069025  0.910326  1
  Ga  Ga6  1  0.989676  0.930975  0.089674  1
  Ga  Ga7  1  0.063025  0.672772  0.201179  1
  Ga  Ga8  1  0.936975  0.327228  0.798821  1
  Ga  Ga9  1  0.110569  0.328266  0.450595  1
  Ga  Ga10  1  0.889431  0.671734  0.549405  1
  Ga  Ga11  1  0.201888  0.603049  0.993175  1
  Ga  Ga12  1  0.798112  0.396951  0.006825  1
  Ga  Ga13  1  0.257197  0.783230  0.702377  1
  Ga  Ga14  1  0.742803  0.216770  0.297623  1
  Ga  Ga15  1  0.302530  0.898837  0.496104  1
  Ga  Ga16  1  0.697470  0.101163  0.503896  1
  Ga  Ga17  1  0.385597  0.525514  0.703292  1
  Ga  Ga18  1  0.614403  0.474486  0.296708  1
  Ga  Ga19  1  0.398037  0.205174  0.998753  1
  Ga  Ga20  1  0.601963  0.794826  0.001247  1
  Ga  Ga21  1  0.544375  0.281008  0.630241  1
  Ga  Ga22  1  0.455625  0.718992  0.369759  1
  Ga  Ga23  1  0.634229  0.936467  0.795075  1
  Ga  Ga24  1  0.365771  0.063533  0.204925  1
  Pt  Pt25  1  0.024711  0.566809  0.383767  1
  Pt  Pt26  1  0.975289  0.433191  0.616233  1
  Pt  Pt27  1  0.139544  0.832469  0.888444  1
  Pt  Pt28  1  0.860456  0.167531  0.111556  1
  Pt  Pt29  1  0.244393  0.121611  0.389600  1
  Pt  Pt30  1  0.755607  0.878389  0.610400  1
  Pt  Pt31  1  0.345082  0.421080  0.888758  1
  Pt  Pt32  1  0.654918  0.578920  0.111242  1
  Pt  Pt33  1  0.507374  0.170467  0.814786  1
  Pt  Pt34  1  0.492626  0.829533  0.185214  1
