# generated using pymatgen
data_TmHf3Si4W
_symmetry_space_group_name_H-M   'P 1'
_cell_length_a   7.02958100
_cell_length_b   7.02958100
_cell_length_c   12.83652700
_cell_angle_alpha   90.00000000
_cell_angle_beta   90.00000000
_cell_angle_gamma   90.00000000
_symmetry_Int_Tables_number   1
_chemical_formula_structural   TmHf3Si4W
_chemical_formula_sum   'Tm4 Hf12 Si16 W4'
_cell_volume   634.31709769
_cell_formula_units_Z   4
loop_
 _symmetry_equiv_pos_site_id
 _symmetry_equiv_pos_as_xyz
  1  'x, y, z'
loop_
 _atom_site_type_symbol
 _atom_site_label
 _atom_site_symmetry_multiplicity
 _atom_site_fract_x
 _atom_site_fract_y
 _atom_site_fract_z
 _atom_site_occupancy
  Tm  Tm0  1  0.495245  0.156937  0.531916  1
  Tm  Tm1  1  0.504755  0.843063  0.031916  1
  Tm  Tm2  1  0.656937  0.004755  0.281916  1
  Tm  Tm3  1  0.343063  0.995245  0.781916  1
  Hf  Hf4  1  0.846605  0.499576  0.968861  1
  Hf  Hf5  1  0.153395  0.500424  0.468861  1
  Hf  Hf6  1  0.999576  0.653395  0.718861  1
  Hf  Hf7  1  0.000424  0.346605  0.218861  1
  Hf  Hf8  1  0.494042  0.355831  0.125080  1
  Hf  Hf9  1  0.505958  0.644169  0.625080  1
  Hf  Hf10  1  0.855831  0.005958  0.875080  1
  Hf  Hf11  1  0.144169  0.994042  0.375080  1
  Hf  Hf12  1  0.645577  0.502846  0.374760  1
  Hf  Hf13  1  0.354423  0.497154  0.874760  1
  Hf  Hf14  1  0.002846  0.854423  0.124760  1
  Hf  Hf15  1  0.997154  0.145577  0.624760  1
  Si  Si16  1  0.802746  0.150406  0.070207  1
  Si  Si17  1  0.197254  0.849594  0.570207  1
  Si  Si18  1  0.650406  0.697254  0.820207  1
  Si  Si19  1  0.349594  0.302746  0.320207  1
  Si  Si20  1  0.861556  0.207923  0.429324  1
  Si  Si21  1  0.138444  0.792077  0.929324  1
  Si  Si22  1  0.707923  0.638444  0.179324  1
  Si  Si23  1  0.292077  0.361556  0.679324  1
  Si  Si24  1  0.550683  0.203730  0.933277  1
  Si  Si25  1  0.449317  0.796270  0.433277  1
  Si  Si26  1  0.703730  0.949317  0.683277  1
  Si  Si27  1  0.296270  0.050683  0.183277  1
  Si  Si28  1  0.805060  0.454686  0.566493  1
  Si  Si29  1  0.194940  0.545314  0.066493  1
  Si  Si30  1  0.954686  0.694940  0.316493  1
  Si  Si31  1  0.045314  0.305060  0.816493  1
  W  W32  1  0.679211  0.329353  0.750082  1
  W  W33  1  0.320789  0.670647  0.250082  1
  W  W34  1  0.829353  0.820789  0.500082  1
  W  W35  1  0.170647  0.179211  0.000082  1
