# generated using pymatgen
data_K2Li2PaS4
_symmetry_space_group_name_H-M   'P 1'
_cell_length_a   7.69831208
_cell_length_b   7.69831111
_cell_length_c   7.48927600
_cell_angle_alpha   109.37065942
_cell_angle_beta   109.37065688
_cell_angle_gamma   31.12278523
_symmetry_Int_Tables_number   1
_chemical_formula_structural   K2Li2PaS4
_chemical_formula_sum   'K2 Li2 Pa1 S4'
_cell_volume   215.38538026
_cell_formula_units_Z   1
loop_
 _symmetry_equiv_pos_site_id
 _symmetry_equiv_pos_as_xyz
  1  'x, y, z'
loop_
 _atom_site_type_symbol
 _atom_site_label
 _atom_site_symmetry_multiplicity
 _atom_site_fract_x
 _atom_site_fract_y
 _atom_site_fract_z
 _atom_site_occupancy
  K  K0  1  0.861443  0.861443  0.437482  1
  K  K1  1  0.138557  0.138557  0.562519  1
  Li  Li2  1  0.316814  0.316814  0.008741  1
  Li  Li3  1  0.683186  0.683186  0.991260  1
  Pa  Pa4  1  0.000000  0.000000  0.000000  1
  S  S5  1  0.195769  0.195769  0.168673  1
  S  S6  1  0.481952  0.481952  0.231448  1
  S  S7  1  0.518048  0.518048  0.768553  1
  S  S8  1  0.804232  0.804232  0.831326  1
