# generated using pymatgen
data_Er2B6Ir8Rh
_symmetry_space_group_name_H-M   'P 1'
_cell_length_a   5.62709855
_cell_length_b   5.62709719
_cell_length_c   8.64383900
_cell_angle_alpha   90.00000000
_cell_angle_beta   90.00000000
_cell_angle_gamma   119.89087637
_symmetry_Int_Tables_number   1
_chemical_formula_structural   Er2B6Ir8Rh
_chemical_formula_sum   'Er2 B6 Ir8 Rh1'
_cell_volume   237.29180524
_cell_formula_units_Z   1
loop_
 _symmetry_equiv_pos_site_id
 _symmetry_equiv_pos_as_xyz
  1  'x, y, z'
loop_
 _atom_site_type_symbol
 _atom_site_label
 _atom_site_symmetry_multiplicity
 _atom_site_fract_x
 _atom_site_fract_y
 _atom_site_fract_z
 _atom_site_occupancy
  Er  Er0  1  0.000000  0.000000  0.701849  1
  Er  Er1  1  0.000000  0.000000  0.299168  1
  B  B2  1  0.666975  0.333025  0.999762  1
  B  B3  1  0.333025  0.666975  0.999762  1
  B  B4  1  0.666742  0.333258  0.667673  1
  B  B5  1  0.333258  0.666742  0.667673  1
  B  B6  1  0.333120  0.666880  0.332081  1
  B  B7  1  0.666880  0.333120  0.332081  1
  Ir  Ir8  1  0.500000  0.500000  0.836193  1
  Ir  Ir9  1  0.500000  0.000000  0.836053  1
  Ir  Ir10  1  0.000000  0.500000  0.836053  1
  Ir  Ir11  1  0.500000  0.000000  0.164295  1
  Ir  Ir12  1  0.000000  0.500000  0.164295  1
  Ir  Ir13  1  0.500000  0.500000  0.498972  1
  Ir  Ir14  1  0.500000  0.000000  0.499797  1
  Ir  Ir15  1  0.000000  0.500000  0.499797  1
  Rh  Rh16  1  0.500000  0.500000  0.164496  1
