# generated using pymatgen
data_NdTh2(AlNi)3
_symmetry_space_group_name_H-M   'P 1'
_cell_length_a   7.13495739
_cell_length_b   7.07769280
_cell_length_c   4.02606700
_cell_angle_alpha   90.00000000
_cell_angle_beta   90.00000000
_cell_angle_gamma   119.73485920
_symmetry_Int_Tables_number   1
_chemical_formula_structural   NdTh2(AlNi)3
_chemical_formula_sum   'Nd1 Th2 Al3 Ni3'
_cell_volume   176.54232953
_cell_formula_units_Z   1
loop_
 _symmetry_equiv_pos_site_id
 _symmetry_equiv_pos_as_xyz
  1  'x, y, z'
loop_
 _atom_site_type_symbol
 _atom_site_label
 _atom_site_symmetry_multiplicity
 _atom_site_fract_x
 _atom_site_fract_y
 _atom_site_fract_z
 _atom_site_occupancy
  Nd  Nd0  1  0.000000  0.417795  0.500000  1
  Th  Th1  1  0.578113  0.578342  0.500000  1
  Th  Th2  1  0.421887  0.000230  0.500000  1
  Al  Al3  1  0.000000  0.768771  0.000000  1
  Al  Al4  1  0.225829  0.227637  0.000000  1
  Al  Al5  1  0.774171  0.001808  0.000000  1
  Ni  Ni6  1  0.351386  0.682825  0.000000  1
  Ni  Ni7  1  0.648614  0.331438  0.000000  1
  Ni  Ni8  1  0.000000  0.991153  0.500000  1
