# generated using pymatgen
data_Ba6Tb2NiIrO12
_symmetry_space_group_name_H-M   'P 1'
_cell_length_a   7.16660504
_cell_length_b   7.16660561
_cell_length_c   7.16660500
_cell_angle_alpha   93.55829046
_cell_angle_beta   93.55829875
_cell_angle_gamma   93.55828383
_symmetry_Int_Tables_number   1
_chemical_formula_structural   Ba6Tb2NiIrO12
_chemical_formula_sum   'Ba6 Tb2 Ni1 Ir1 O12'
_cell_volume   365.85707263
_cell_formula_units_Z   1
loop_
 _symmetry_equiv_pos_site_id
 _symmetry_equiv_pos_as_xyz
  1  'x, y, z'
loop_
 _atom_site_type_symbol
 _atom_site_label
 _atom_site_symmetry_multiplicity
 _atom_site_fract_x
 _atom_site_fract_y
 _atom_site_fract_z
 _atom_site_occupancy
  Ba  Ba0  1  0.377600  0.111976  0.751810  1
  Ba  Ba1  1  0.751810  0.377601  0.111977  1
  Ba  Ba2  1  0.248189  0.622400  0.888024  1
  Ba  Ba3  1  0.622399  0.888023  0.248191  1
  Ba  Ba4  1  0.111977  0.751810  0.377601  1
  Ba  Ba5  1  0.888023  0.248190  0.622400  1
  Tb  Tb6  1  0.756062  0.756063  0.756062  1
  Tb  Tb7  1  0.243939  0.243938  0.243938  1
  Ni  Ni8  1  0.000000  0.000000  0.000000  1
  Ir  Ir9  1  0.500000  0.500000  0.500000  1
  O  O10  1  0.775342  0.587761  0.461812  1
  O  O11  1  0.587762  0.461811  0.775342  1
  O  O12  1  0.461811  0.775342  0.587762  1
  O  O13  1  0.035361  0.899823  0.710358  1
  O  O14  1  0.899822  0.710357  0.035361  1
  O  O15  1  0.710358  0.035361  0.899822  1
  O  O16  1  0.224659  0.412238  0.538189  1
  O  O17  1  0.412238  0.538188  0.224659  1
  O  O18  1  0.538188  0.224659  0.412237  1
  O  O19  1  0.964639  0.100178  0.289643  1
  O  O20  1  0.289643  0.964638  0.100177  1
  O  O21  1  0.100177  0.289642  0.964638  1
