# generated using pymatgen
data_Rb4Na2DyInBi4
_symmetry_space_group_name_H-M   'P 1'
_cell_length_a   10.24330390
_cell_length_b   10.24330319
_cell_length_c   10.24330343
_cell_angle_alpha   136.65423564
_cell_angle_beta   62.25373837
_cell_angle_gamma   137.58953060
_symmetry_Int_Tables_number   1
_chemical_formula_structural   Rb4Na2DyInBi4
_chemical_formula_sum   'Rb4 Na2 Dy1 In1 Bi4'
_cell_volume   491.60257416
_cell_formula_units_Z   1
loop_
 _symmetry_equiv_pos_site_id
 _symmetry_equiv_pos_as_xyz
  1  'x, y, z'
loop_
 _atom_site_type_symbol
 _atom_site_label
 _atom_site_symmetry_multiplicity
 _atom_site_fract_x
 _atom_site_fract_y
 _atom_site_fract_z
 _atom_site_occupancy
  Rb  Rb0  1  0.814366  0.256186  0.092206  1
  Rb  Rb1  1  0.685633  0.777839  0.441820  1
  Rb  Rb2  1  0.336019  0.243814  0.558180  1
  Rb  Rb3  1  0.163981  0.722160  0.907793  1
  Na  Na4  1  0.750000  0.250000  0.500000  1
  Na  Na5  1  0.250000  0.750000  0.500000  1
  Dy  Dy6  1  0.250000  0.250000  0.000000  1
  In  In7  1  0.750001  0.750001  0.000000  1
  Bi  Bi8  1  0.401286  0.728881  0.123027  1
  Bi  Bi9  1  0.098713  0.221740  0.327595  1
  Bi  Bi10  1  0.894144  0.771118  0.672405  1
  Bi  Bi11  1  0.605855  0.278260  0.876973  1
