# generated using pymatgen
data_YZr2F11
_symmetry_space_group_name_H-M   'P 1'
_cell_length_a   8.34539894
_cell_length_b   8.34539907
_cell_length_c   8.34539965
_cell_angle_alpha   123.83985223
_cell_angle_beta   106.11514433
_cell_angle_gamma   99.52964741
_symmetry_Int_Tables_number   1
_chemical_formula_structural   YZr2F11
_chemical_formula_sum   'Y2 Zr4 F22'
_cell_volume   424.83141708
_cell_formula_units_Z   2
loop_
 _symmetry_equiv_pos_site_id
 _symmetry_equiv_pos_as_xyz
  1  'x, y, z'
loop_
 _atom_site_type_symbol
 _atom_site_label
 _atom_site_symmetry_multiplicity
 _atom_site_fract_x
 _atom_site_fract_y
 _atom_site_fract_z
 _atom_site_occupancy
  Y  Y0  1  0.250000  0.750000  0.500000  1
  Y  Y1  1  0.750000  0.250000  0.500000  1
  Zr  Zr2  1  0.181583  0.137080  0.318664  1
  Zr  Zr3  1  0.818417  0.862920  0.681336  1
  Zr  Zr4  1  0.681583  0.362920  0.044503  1
  Zr  Zr5  1  0.318417  0.637080  0.955497  1
  F  F6  1  0.207772  0.403309  0.344656  1
  F  F7  1  0.792228  0.596691  0.655344  1
  F  F8  1  0.058653  0.863116  0.655344  1
  F  F9  1  0.441347  0.096691  0.804463  1
  F  F10  1  0.941347  0.136884  0.344656  1
  F  F11  1  0.558653  0.903309  0.195537  1
  F  F12  1  0.292228  0.636884  0.195537  1
  F  F13  1  0.707772  0.363116  0.804463  1
  F  F14  1  0.000000  0.000000  0.000000  1
  F  F15  1  0.500000  0.500000  0.000000  1
  F  F16  1  0.282505  0.370963  0.653468  1
  F  F17  1  0.717495  0.629037  0.346532  1
  F  F18  1  0.782505  0.129037  0.911543  1
  F  F19  1  0.217495  0.870963  0.088457  1
  F  F20  1  0.460021  0.239445  0.419753  1
  F  F21  1  0.539979  0.760555  0.580247  1
  F  F22  1  0.819692  0.040268  0.580247  1
  F  F23  1  0.680308  0.260555  0.220576  1
  F  F24  1  0.180308  0.959732  0.419753  1
  F  F25  1  0.319692  0.739445  0.779424  1
  F  F26  1  0.039979  0.459732  0.779424  1
  F  F27  1  0.960021  0.540268  0.220576  1
