# generated using pymatgen
data_Tb4Er(CoTe)2
_symmetry_space_group_name_H-M   'P 1'
_cell_length_a   7.80313267
_cell_length_b   7.80313308
_cell_length_c   15.00437200
_cell_angle_alpha   89.99984002
_cell_angle_beta   90.00016091
_cell_angle_gamma   150.39117316
_symmetry_Int_Tables_number   1
_chemical_formula_structural   Tb4Er(CoTe)2
_chemical_formula_sum   'Tb8 Er2 Co4 Te4'
_cell_volume   451.38738906
_cell_formula_units_Z   2
loop_
 _symmetry_equiv_pos_site_id
 _symmetry_equiv_pos_as_xyz
  1  'x, y, z'
loop_
 _atom_site_type_symbol
 _atom_site_label
 _atom_site_symmetry_multiplicity
 _atom_site_fract_x
 _atom_site_fract_y
 _atom_site_fract_z
 _atom_site_occupancy
  Tb  Tb0  1  0.741384  0.258616  0.630764  1
  Tb  Tb1  1  0.961866  0.038134  0.126172  1
  Tb  Tb2  1  0.038125  0.961875  0.873830  1
  Tb  Tb3  1  0.961873  0.038127  0.373795  1
  Tb  Tb4  1  0.038142  0.961858  0.626173  1
  Tb  Tb5  1  0.258621  0.741379  0.130772  1
  Tb  Tb6  1  0.258623  0.741377  0.369195  1
  Tb  Tb7  1  0.741391  0.258609  0.869227  1
  Er  Er8  1  0.606332  0.393668  0.249952  1
  Er  Er9  1  0.393629  0.606371  0.750163  1
  Co  Co10  1  0.412391  0.587609  0.249989  1
  Co  Co11  1  0.587623  0.412377  0.749999  1
  Co  Co12  1  0.819533  0.180467  0.249996  1
  Co  Co13  1  0.180459  0.819541  0.749995  1
  Te  Te14  1  0.618011  0.381989  0.038474  1
  Te  Te15  1  0.618018  0.381982  0.461511  1
  Te  Te16  1  0.381983  0.618017  0.538490  1
  Te  Te17  1  0.381998  0.618002  0.961502  1
