# generated using pymatgen
data_Dy2Pa3Al4Ga11
_symmetry_space_group_name_H-M   'P 1'
_cell_length_a   12.45866425
_cell_length_b   12.46133907
_cell_length_c   12.46133900
_cell_angle_alpha   28.56493664
_cell_angle_beta   28.53779032
_cell_angle_gamma   28.53779474
_symmetry_Int_Tables_number   1
_chemical_formula_structural   Dy2Pa3Al4Ga11
_chemical_formula_sum   'Dy2 Pa3 Al4 Ga11'
_cell_volume   390.52206194
_cell_formula_units_Z   1
loop_
 _symmetry_equiv_pos_site_id
 _symmetry_equiv_pos_as_xyz
  1  'x, y, z'
loop_
 _atom_site_type_symbol
 _atom_site_label
 _atom_site_symmetry_multiplicity
 _atom_site_fract_x
 _atom_site_fract_y
 _atom_site_fract_z
 _atom_site_occupancy
  Dy  Dy0  1  0.402021  0.400555  0.400555  1
  Dy  Dy1  1  0.598557  0.599220  0.599220  1
  Pa  Pa2  1  0.128489  0.132017  0.132017  1
  Pa  Pa3  1  0.869419  0.869657  0.869657  1
  Pa  Pa4  1  0.999273  0.999792  0.999792  1
  Al  Al5  1  0.438543  0.879124  0.879124  1
  Al  Al6  1  0.499153  0.501181  0.000032  1
  Al  Al7  1  0.499153  0.000032  0.501181  1
  Al  Al8  1  0.999362  0.500244  0.500244  1
  Ga  Ga9  1  0.883977  0.880913  0.430675  1
  Ga  Ga10  1  0.883977  0.430675  0.880913  1
  Ga  Ga11  1  0.118533  0.566419  0.119119  1
  Ga  Ga12  1  0.118533  0.119119  0.566419  1
  Ga  Ga13  1  0.566145  0.119043  0.119043  1
  Ga  Ga14  1  0.125132  0.637441  0.637441  1
  Ga  Ga15  1  0.634811  0.639029  0.125088  1
  Ga  Ga16  1  0.634811  0.125088  0.639029  1
  Ga  Ga17  1  0.363934  0.872387  0.363921  1
  Ga  Ga18  1  0.363934  0.363921  0.872387  1
  Ga  Ga19  1  0.872244  0.364144  0.364144  1
