# generated using pymatgen
data_Pr3IO8
_symmetry_space_group_name_H-M   'P 1'
_cell_length_a   5.51846015
_cell_length_b   5.51875235
_cell_length_c   5.51844100
_cell_angle_alpha   85.38901152
_cell_angle_beta   85.44481465
_cell_angle_gamma   85.43602929
_symmetry_Int_Tables_number   1
_chemical_formula_structural   Pr3IO8
_chemical_formula_sum   'Pr3 I1 O8'
_cell_volume   166.53749384
_cell_formula_units_Z   1
loop_
 _symmetry_equiv_pos_site_id
 _symmetry_equiv_pos_as_xyz
  1  'x, y, z'
loop_
 _atom_site_type_symbol
 _atom_site_label
 _atom_site_symmetry_multiplicity
 _atom_site_fract_x
 _atom_site_fract_y
 _atom_site_fract_z
 _atom_site_occupancy
  Pr  Pr0  1  0.513224  0.263358  0.263638  1
  Pr  Pr1  1  0.513447  0.763418  0.763390  1
  Pr  Pr2  1  0.013405  0.763690  0.263402  1
  I  I3  1  0.013178  0.263147  0.763161  1
  O  O4  1  0.156239  0.038376  0.538192  1
  O  O5  1  0.844244  0.483213  0.983446  1
  O  O6  1  0.233323  0.483808  0.594496  1
  O  O7  1  0.788414  0.037829  0.905502  1
  O  O8  1  0.233517  0.094489  0.983648  1
  O  O9  1  0.788185  0.405554  0.538017  1
  O  O10  1  0.305348  0.555729  0.055713  1
  O  O11  1  0.597475  0.847388  0.347393  1
