# generated using pymatgen
data_Zr2UAl3Fe2Co
_symmetry_space_group_name_H-M   'P 1'
_cell_length_a   6.74278639
_cell_length_b   7.13434634
_cell_length_c   3.53591500
_cell_angle_alpha   90.00000000
_cell_angle_beta   90.00000000
_cell_angle_gamma   121.94031914
_symmetry_Int_Tables_number   1
_chemical_formula_structural   Zr2UAl3Fe2Co
_chemical_formula_sum   'Zr2 U1 Al3 Fe2 Co1'
_cell_volume   144.34383396
_cell_formula_units_Z   1
loop_
 _symmetry_equiv_pos_site_id
 _symmetry_equiv_pos_as_xyz
  1  'x, y, z'
loop_
 _atom_site_type_symbol
 _atom_site_label
 _atom_site_symmetry_multiplicity
 _atom_site_fract_x
 _atom_site_fract_y
 _atom_site_fract_z
 _atom_site_occupancy
  Zr  Zr0  1  0.415237  0.406022  0.500000  1
  Zr  Zr1  1  0.584763  0.990786  0.500000  1
  U  U2  1  0.000000  0.570996  0.500000  1
  Al  Al3  1  0.742473  0.753893  0.000000  1
  Al  Al4  1  0.257527  0.011419  0.000000  1
  Al  Al5  1  0.000000  0.229598  0.000000  1
  Fe  Fe6  1  0.708323  0.373838  0.000000  1
  Fe  Fe7  1  0.291677  0.665516  0.000000  1
  Co  Co8  1  0.000000  0.997932  0.500000  1
