# generated using pymatgen
data_K2Ga13Bi
_symmetry_space_group_name_H-M   'P 1'
_cell_length_a   10.44282203
_cell_length_b   10.44282219
_cell_length_c   10.44282379
_cell_angle_alpha   39.20905596
_cell_angle_beta   39.20905607
_cell_angle_gamma   39.20906650
_symmetry_Int_Tables_number   1
_chemical_formula_structural   K2Ga13Bi
_chemical_formula_sum   'K2 Ga13 Bi1'
_cell_volume   409.43012935
_cell_formula_units_Z   1
loop_
 _symmetry_equiv_pos_site_id
 _symmetry_equiv_pos_as_xyz
  1  'x, y, z'
loop_
 _atom_site_type_symbol
 _atom_site_label
 _atom_site_symmetry_multiplicity
 _atom_site_fract_x
 _atom_site_fract_y
 _atom_site_fract_z
 _atom_site_occupancy
  K  K0  1  0.198788  0.198788  0.198788  1
  K  K1  1  0.801249  0.801249  0.801249  1
  Ga  Ga2  1  0.558689  0.558689  0.558689  1
  Ga  Ga3  1  0.574834  0.184559  0.184559  1
  Ga  Ga4  1  0.184559  0.184559  0.574834  1
  Ga  Ga5  1  0.184559  0.574834  0.184559  1
  Ga  Ga6  1  0.813510  0.423108  0.813510  1
  Ga  Ga7  1  0.423108  0.813510  0.813510  1
  Ga  Ga8  1  0.813510  0.813510  0.423108  1
  Ga  Ga9  1  0.808344  0.204613  0.204613  1
  Ga  Ga10  1  0.204613  0.204613  0.808344  1
  Ga  Ga11  1  0.204613  0.808344  0.204613  1
  Ga  Ga12  1  0.791905  0.188600  0.791905  1
  Ga  Ga13  1  0.188600  0.791905  0.791905  1
  Ga  Ga14  1  0.791905  0.791905  0.188600  1
  Bi  Bi15  1  0.457215  0.457215  0.457215  1
