# generated using pymatgen
data_Nd2Pa(ZnIr)3
_symmetry_space_group_name_H-M   'P 1'
_cell_length_a   7.40299000
_cell_length_b   7.29273890
_cell_length_c   3.93099600
_cell_angle_alpha   90.00000000
_cell_angle_beta   90.00000000
_cell_angle_gamma   120.50136990
_symmetry_Int_Tables_number   1
_chemical_formula_structural   Nd2Pa(ZnIr)3
_chemical_formula_sum   'Nd2 Pa1 Zn3 Ir3'
_cell_volume   182.85831000
_cell_formula_units_Z   1
loop_
 _symmetry_equiv_pos_site_id
 _symmetry_equiv_pos_as_xyz
  1  'x, y, z'
loop_
 _atom_site_type_symbol
 _atom_site_label
 _atom_site_symmetry_multiplicity
 _atom_site_fract_x
 _atom_site_fract_y
 _atom_site_fract_z
 _atom_site_occupancy
  Nd  Nd0  1  0.001242  0.594752  0.000000  1
  Nd  Nd1  1  0.406491  0.405248  0.000000  1
  Pa  Pa2  1  0.594041  0.000000  0.000000  1
  Zn  Zn3  1  0.232839  0.000000  0.500000  1
  Zn  Zn4  1  0.005635  0.252392  0.500000  1
  Zn  Zn5  1  0.753243  0.747608  0.500000  1
  Ir  Ir6  1  0.365224  0.702144  0.500000  1
  Ir  Ir7  1  0.663080  0.297856  0.500000  1
  Ir  Ir8  1  0.978204  0.000000  0.000000  1
