# generated using pymatgen
data_DyHo2Al2ZnCu3
_symmetry_space_group_name_H-M   'P 1'
_cell_length_a   7.09496400
_cell_length_b   7.09496388
_cell_length_c   3.89391900
_cell_angle_alpha   90.00000000
_cell_angle_beta   90.00000000
_cell_angle_gamma   119.54993314
_symmetry_Int_Tables_number   1
_chemical_formula_structural   DyHo2Al2ZnCu3
_chemical_formula_sum   'Dy1 Ho2 Al2 Zn1 Cu3'
_cell_volume   170.51779930
_cell_formula_units_Z   1
loop_
 _symmetry_equiv_pos_site_id
 _symmetry_equiv_pos_as_xyz
  1  'x, y, z'
loop_
 _atom_site_type_symbol
 _atom_site_label
 _atom_site_symmetry_multiplicity
 _atom_site_fract_x
 _atom_site_fract_y
 _atom_site_fract_z
 _atom_site_occupancy
  Dy  Dy0  1  0.419578  0.419578  0.500000  1
  Ho  Ho1  1  0.586397  0.995497  0.500000  1
  Ho  Ho2  1  0.995497  0.586397  0.500000  1
  Al  Al3  1  0.239145  0.002554  0.000000  1
  Al  Al4  1  0.002554  0.239145  0.000000  1
  Zn  Zn5  1  0.758192  0.758192  0.000000  1
  Cu  Cu6  1  0.005960  0.005960  0.500000  1
  Cu  Cu7  1  0.666600  0.326075  0.000000  1
  Cu  Cu8  1  0.326075  0.666600  0.000000  1
