# generated using pymatgen
data_Tm8Ga12CoAg3
_symmetry_space_group_name_H-M   'P 1'
_cell_length_a   6.95811400
_cell_length_b   8.88716691
_cell_length_c   8.88716600
_cell_angle_alpha   120.00000405
_cell_angle_beta   90.00000000
_cell_angle_gamma   90.00000000
_symmetry_Int_Tables_number   1
_chemical_formula_structural   Tm8Ga12CoAg3
_chemical_formula_sum   'Tm8 Ga12 Co1 Ag3'
_cell_volume   475.93624843
_cell_formula_units_Z   1
loop_
 _symmetry_equiv_pos_site_id
 _symmetry_equiv_pos_as_xyz
  1  'x, y, z'
loop_
 _atom_site_type_symbol
 _atom_site_label
 _atom_site_symmetry_multiplicity
 _atom_site_fract_x
 _atom_site_fract_y
 _atom_site_fract_z
 _atom_site_occupancy
  Tm  Tm0  1  0.739987  0.000000  0.000000  1
  Tm  Tm1  1  0.251423  0.000000  0.000000  1
  Tm  Tm2  1  0.749297  0.488738  0.511262  1
  Tm  Tm3  1  0.258172  0.522855  0.477145  1
  Tm  Tm4  1  0.749297  0.022523  0.511262  1
  Tm  Tm5  1  0.258172  0.954291  0.477145  1
  Tm  Tm6  1  0.749297  0.488738  0.977477  1
  Tm  Tm7  1  0.258172  0.522855  0.045709  1
  Ga  Ga8  1  0.963530  0.836731  0.163269  1
  Ga  Ga9  1  0.040550  0.165552  0.834448  1
  Ga  Ga10  1  0.963530  0.326539  0.163269  1
  Ga  Ga11  1  0.465243  0.164291  0.835709  1
  Ga  Ga12  1  0.040550  0.668895  0.834448  1
  Ga  Ga13  1  0.539009  0.825946  0.174054  1
  Ga  Ga14  1  0.963530  0.836731  0.673461  1
  Ga  Ga15  1  0.465243  0.671416  0.835709  1
  Ga  Ga16  1  0.040550  0.165552  0.331105  1
  Ga  Ga17  1  0.539009  0.348109  0.174054  1
  Ga  Ga18  1  0.465243  0.164291  0.328584  1
  Ga  Ga19  1  0.539009  0.825946  0.651891  1
  Co  Co20  1  0.512257  0.666667  0.333333  1
  Ag  Ag21  1  0.942130  0.666667  0.333333  1
  Ag  Ag22  1  0.037669  0.333333  0.666667  1
  Ag  Ag23  1  0.469135  0.333333  0.666667  1
