# generated using pymatgen
data_Ho3Lu(CuSi3)2
_symmetry_space_group_name_H-M   'P 1'
_cell_length_a   7.97368208
_cell_length_b   7.97298762
_cell_length_c   5.64272893
_cell_angle_alpha   69.28362902
_cell_angle_beta   69.27043068
_cell_angle_gamma   41.44594798
_symmetry_Int_Tables_number   1
_chemical_formula_structural   Ho3Lu(CuSi3)2
_chemical_formula_sum   'Ho3 Lu1 Cu2 Si6'
_cell_volume   219.79985228
_cell_formula_units_Z   1
loop_
 _symmetry_equiv_pos_site_id
 _symmetry_equiv_pos_as_xyz
  1  'x, y, z'
loop_
 _atom_site_type_symbol
 _atom_site_label
 _atom_site_symmetry_multiplicity
 _atom_site_fract_x
 _atom_site_fract_y
 _atom_site_fract_z
 _atom_site_occupancy
  Ho  Ho0  1  0.249980  0.250020  0.249980  1
  Ho  Ho1  1  0.749980  0.750021  0.749979  1
  Ho  Ho2  1  0.756599  0.243401  0.756599  1
  Lu  Lu3  1  0.243404  0.756596  0.243404  1
  Cu  Cu4  1  0.666278  0.666840  0.333160  1
  Cu  Cu5  1  0.333161  0.333722  0.666277  1
  Si  Si6  1  0.832198  0.831369  0.168630  1
  Si  Si7  1  0.828525  0.339787  0.171359  1
  Si  Si8  1  0.660214  0.171475  0.339670  1
  Si  Si9  1  0.339670  0.828641  0.660213  1
  Si  Si10  1  0.171360  0.660330  0.828525  1
  Si  Si11  1  0.168631  0.167803  0.832197  1
