# generated using pymatgen
data_GaTcSn4
_symmetry_space_group_name_H-M   'P 1'
_cell_length_a   7.34939975
_cell_length_b   7.34939983
_cell_length_c   7.34940006
_cell_angle_alpha   123.04747670
_cell_angle_beta   123.04747924
_cell_angle_gamma   84.79798358
_symmetry_Int_Tables_number   1
_chemical_formula_structural   GaTcSn4
_chemical_formula_sum   'Ga2 Tc2 Sn8'
_cell_volume   266.56891497
_cell_formula_units_Z   2
loop_
 _symmetry_equiv_pos_site_id
 _symmetry_equiv_pos_as_xyz
  1  'x, y, z'
loop_
 _atom_site_type_symbol
 _atom_site_label
 _atom_site_symmetry_multiplicity
 _atom_site_fract_x
 _atom_site_fract_y
 _atom_site_fract_z
 _atom_site_occupancy
  Ga  Ga0  1  0.000000  0.000000  0.000000  1
  Ga  Ga1  1  0.500000  0.500000  0.000000  1
  Tc  Tc2  1  0.250000  0.250000  0.000000  1
  Tc  Tc3  1  0.750000  0.750000  0.000000  1
  Sn  Sn4  1  0.707268  0.514091  0.500000  1
  Sn  Sn5  1  0.514091  0.014091  0.806823  1
  Sn  Sn6  1  0.207268  0.707268  0.193177  1
  Sn  Sn7  1  0.792732  0.292732  0.806823  1
  Sn  Sn8  1  0.485909  0.985909  0.193177  1
  Sn  Sn9  1  0.292732  0.485909  0.500000  1
  Sn  Sn10  1  0.985909  0.792732  0.500000  1
  Sn  Sn11  1  0.014091  0.207268  0.500000  1
