# generated using pymatgen
data_Dy2Y2MnRu7
_symmetry_space_group_name_H-M   'P 1'
_cell_length_a   5.33249104
_cell_length_b   5.33184494
_cell_length_c   8.70583101
_cell_angle_alpha   90.00000015
_cell_angle_beta   89.99889042
_cell_angle_gamma   60.00400692
_symmetry_Int_Tables_number   1
_chemical_formula_structural   Dy2Y2MnRu7
_chemical_formula_sum   'Dy2 Y2 Mn1 Ru7'
_cell_volume   214.37100471
_cell_formula_units_Z   1
loop_
 _symmetry_equiv_pos_site_id
 _symmetry_equiv_pos_as_xyz
  1  'x, y, z'
loop_
 _atom_site_type_symbol
 _atom_site_label
 _atom_site_symmetry_multiplicity
 _atom_site_fract_x
 _atom_site_fract_y
 _atom_site_fract_z
 _atom_site_occupancy
  Dy  Dy0  1  0.333282  0.333360  0.564731  1
  Dy  Dy1  1  0.666718  0.666640  0.435269  1
  Y  Y2  1  0.666686  0.666658  0.068570  1
  Y  Y3  1  0.333314  0.333342  0.931430  1
  Mn  Mn4  1  0.000000  0.000000  0.000000  1
  Ru  Ru5  1  0.000000  0.000000  0.500000  1
  Ru  Ru6  1  0.828939  0.342151  0.752883  1
  Ru  Ru7  1  0.342295  0.828853  0.752833  1
  Ru  Ru8  1  0.828939  0.828910  0.752883  1
  Ru  Ru9  1  0.171061  0.657849  0.247117  1
  Ru  Ru10  1  0.657705  0.171147  0.247167  1
  Ru  Ru11  1  0.171061  0.171090  0.247117  1
