# generated using pymatgen
data_Tb5Y3(MnS4)4
_symmetry_space_group_name_H-M   'P 1'
_cell_length_a   6.41900500
_cell_length_b   7.93018600
_cell_length_c   13.55230500
_cell_angle_alpha   90.00000000
_cell_angle_beta   90.00214223
_cell_angle_gamma   90.00000000
_symmetry_Int_Tables_number   1
_chemical_formula_structural   Tb5Y3(MnS4)4
_chemical_formula_sum   'Tb5 Y3 Mn4 S16'
_cell_volume   689.86522707
_cell_formula_units_Z   1
loop_
 _symmetry_equiv_pos_site_id
 _symmetry_equiv_pos_as_xyz
  1  'x, y, z'
loop_
 _atom_site_type_symbol
 _atom_site_label
 _atom_site_symmetry_multiplicity
 _atom_site_fract_x
 _atom_site_fract_y
 _atom_site_fract_z
 _atom_site_occupancy
  Tb  Tb0  1  0.999982  0.499953  0.000040  1
  Tb  Tb1  1  0.499997  0.000007  0.500023  1
  Tb  Tb2  1  0.999982  0.000047  0.000040  1
  Tb  Tb3  1  0.499997  0.499993  0.500023  1
  Tb  Tb4  1  0.494696  0.250000  0.233817  1
  Y  Y5  1  0.994752  0.750000  0.265961  1
  Y  Y6  1  0.505273  0.750000  0.765975  1
  Y  Y7  1  0.005250  0.250000  0.734024  1
  Mn  Mn8  1  0.411141  0.750000  0.092412  1
  Mn  Mn9  1  0.088767  0.750000  0.592382  1
  Mn  Mn10  1  0.588749  0.250000  0.907649  1
  Mn  Mn11  1  0.911356  0.250000  0.407621  1
  S  S12  1  0.777925  0.750000  0.090316  1
  S  S13  1  0.722086  0.750000  0.590315  1
  S  S14  1  0.222043  0.250000  0.909676  1
  S  S15  1  0.277773  0.250000  0.409828  1
  S  S16  1  0.243466  0.750000  0.430113  1
  S  S17  1  0.256541  0.750000  0.930112  1
  S  S18  1  0.756559  0.250000  0.569887  1
  S  S19  1  0.743853  0.250000  0.069699  1
  S  S20  1  0.742871  0.486845  0.331197  1
  S  S21  1  0.757241  0.013286  0.831171  1
  S  S22  1  0.257250  0.986720  0.668848  1
  S  S23  1  0.242546  0.513535  0.168827  1
  S  S24  1  0.257250  0.513280  0.668848  1
  S  S25  1  0.242546  0.986465  0.168827  1
  S  S26  1  0.742871  0.013155  0.331197  1
  S  S27  1  0.757241  0.486714  0.831171  1
