# generated using pymatgen
data_Th4Si3Ge
_symmetry_space_group_name_H-M   'P 1'
_cell_length_a   4.18887000
_cell_length_b   5.92416098
_cell_length_c   7.95983037
_cell_angle_alpha   89.93342193
_cell_angle_beta   90.00000000
_cell_angle_gamma   90.00000000
_symmetry_Int_Tables_number   1
_chemical_formula_structural   Th4Si3Ge
_chemical_formula_sum   'Th4 Si3 Ge1'
_cell_volume   197.52735722
_cell_formula_units_Z   1
loop_
 _symmetry_equiv_pos_site_id
 _symmetry_equiv_pos_as_xyz
  1  'x, y, z'
loop_
 _atom_site_type_symbol
 _atom_site_label
 _atom_site_symmetry_multiplicity
 _atom_site_fract_x
 _atom_site_fract_y
 _atom_site_fract_z
 _atom_site_occupancy
  Th  Th0  1  0.250000  0.128976  0.181566  1
  Th  Th1  1  0.750000  0.874674  0.816402  1
  Th  Th2  1  0.750000  0.623985  0.324682  1
  Th  Th3  1  0.250000  0.374650  0.678748  1
  Si  Si4  1  0.750000  0.358909  0.957955  1
  Si  Si5  1  0.750000  0.131802  0.460345  1
  Si  Si6  1  0.250000  0.868406  0.538984  1
  Ge  Ge7  1  0.250000  0.638596  0.041319  1
