# generated using pymatgen
data_In5Ni(BIr2)4
_symmetry_space_group_name_H-M   'P 1'
_cell_length_a   5.60315214
_cell_length_b   5.67066486
_cell_length_c   10.35185312
_cell_angle_alpha   90.01727679
_cell_angle_beta   89.99126059
_cell_angle_gamma   120.39938143
_symmetry_Int_Tables_number   1
_chemical_formula_structural   In5Ni(BIr2)4
_chemical_formula_sum   'In5 Ni1 B4 Ir8'
_cell_volume   283.69600151
_cell_formula_units_Z   1
loop_
 _symmetry_equiv_pos_site_id
 _symmetry_equiv_pos_as_xyz
  1  'x, y, z'
loop_
 _atom_site_type_symbol
 _atom_site_label
 _atom_site_symmetry_multiplicity
 _atom_site_fract_x
 _atom_site_fract_y
 _atom_site_fract_z
 _atom_site_occupancy
  In  In0  1  0.000000  0.001374  0.998536  1
  In  In1  1  0.668341  0.333662  0.497969  1
  In  In2  1  0.000000  0.001601  0.658022  1
  In  In3  1  0.000000  0.003890  0.339261  1
  In  In4  1  0.331659  0.665322  0.497969  1
  Ni  Ni5  1  0.000000  0.489499  0.270605  1
  B  B6  1  0.669480  0.334707  0.147674  1
  B  B7  1  0.333310  0.666876  0.853610  1
  B  B8  1  0.666690  0.333566  0.853610  1
  B  B9  1  0.330520  0.665228  0.147674  1
  Ir  Ir10  1  0.476469  0.999503  0.724950  1
  Ir  Ir11  1  0.489415  0.999109  0.276261  1
  Ir  Ir12  1  0.000000  0.480601  0.005895  1
  Ir  Ir13  1  0.523531  0.523034  0.724950  1
  Ir  Ir14  1  0.000000  0.475719  0.724067  1
  Ir  Ir15  1  0.519080  0.517847  0.001343  1
  Ir  Ir16  1  0.480920  0.998767  0.001343  1
  Ir  Ir17  1  0.510585  0.509693  0.276261  1
