# generated using pymatgen
data_TbY2Sn3GeRh2
_symmetry_space_group_name_H-M   'P 1'
_cell_length_a   7.44116825
_cell_length_b   7.43832158
_cell_length_c   4.16763500
_cell_angle_alpha   90.00000000
_cell_angle_beta   90.00000000
_cell_angle_gamma   119.98318962
_symmetry_Int_Tables_number   1
_chemical_formula_structural   TbY2Sn3GeRh2
_chemical_formula_sum   'Tb1 Y2 Sn3 Ge1 Rh2'
_cell_volume   199.80664335
_cell_formula_units_Z   1
loop_
 _symmetry_equiv_pos_site_id
 _symmetry_equiv_pos_as_xyz
  1  'x, y, z'
loop_
 _atom_site_type_symbol
 _atom_site_label
 _atom_site_symmetry_multiplicity
 _atom_site_fract_x
 _atom_site_fract_y
 _atom_site_fract_z
 _atom_site_occupancy
  Tb  Tb0  1  0.596565  0.586909  0.500000  1
  Y  Y1  1  0.412207  0.008575  0.500000  1
  Y  Y2  1  0.990971  0.403247  0.500000  1
  Sn  Sn3  1  0.757691  0.015649  0.000000  1
  Sn  Sn4  1  0.985525  0.742542  0.000000  1
  Sn  Sn5  1  0.257357  0.241931  0.000000  1
  Ge  Ge6  1  0.333098  0.667232  0.000000  1
  Rh  Rh7  1  0.666509  0.334312  0.000000  1
  Rh  Rh8  1  0.000076  0.999603  0.500000  1
