# generated using pymatgen
data_La5Y3(SiBr6)2
_symmetry_space_group_name_H-M   'P 1'
_cell_length_a   4.21768300
_cell_length_b   13.71615531
_cell_length_c   14.59023947
_cell_angle_alpha   89.47706098
_cell_angle_beta   90.00000000
_cell_angle_gamma   90.00000000
_symmetry_Int_Tables_number   1
_chemical_formula_structural   La5Y3(SiBr6)2
_chemical_formula_sum   'La5 Y3 Si2 Br12'
_cell_volume   844.01596224
_cell_formula_units_Z   1
loop_
 _symmetry_equiv_pos_site_id
 _symmetry_equiv_pos_as_xyz
  1  'x, y, z'
loop_
 _atom_site_type_symbol
 _atom_site_label
 _atom_site_symmetry_multiplicity
 _atom_site_fract_x
 _atom_site_fract_y
 _atom_site_fract_z
 _atom_site_occupancy
  La  La0  1  0.500000  0.118969  0.334189  1
  La  La1  1  0.500000  0.873130  0.660939  1
  La  La2  1  0.500000  0.621738  0.162789  1
  La  La3  1  0.500000  0.381981  0.841183  1
  La  La4  1  0.000000  0.119755  0.579176  1
  Y  Y5  1  0.000000  0.883616  0.423353  1
  Y  Y6  1  0.000000  0.614581  0.925994  1
  Y  Y7  1  0.000000  0.387163  0.076708  1
  Si  Si8  1  0.500000  0.996677  0.497980  1
  Si  Si9  1  0.500000  0.501469  0.002217  1
  Br  Br10  1  0.500000  0.254200  0.156491  1
  Br  Br11  1  0.500000  0.744625  0.842689  1
  Br  Br12  1  0.500000  0.753370  0.341118  1
  Br  Br13  1  0.500000  0.260908  0.661224  1
  Br  Br14  1  0.000000  0.256418  0.407784  1
  Br  Br15  1  0.000000  0.741269  0.578534  1
  Br  Br16  1  0.000000  0.755260  0.079302  1
  Br  Br17  1  0.000000  0.246963  0.922254  1
  Br  Br18  1  0.000000  0.991594  0.245293  1
  Br  Br19  1  0.000000  0.993863  0.758192  1
  Br  Br20  1  0.000000  0.493001  0.253246  1
  Br  Br21  1  0.000000  0.509451  0.749345  1
