# generated using pymatgen
data_LiCa3PtO6
_symmetry_space_group_name_H-M   'P 1'
_cell_length_a   6.49307043
_cell_length_b   6.49307033
_cell_length_c   6.49307087
_cell_angle_alpha   91.84618265
_cell_angle_beta   91.84617850
_cell_angle_gamma   91.84618938
_symmetry_Int_Tables_number   1
_chemical_formula_structural   LiCa3PtO6
_chemical_formula_sum   'Li2 Ca6 Pt2 O12'
_cell_volume   273.31194434
_cell_formula_units_Z   2
loop_
 _symmetry_equiv_pos_site_id
 _symmetry_equiv_pos_as_xyz
  1  'x, y, z'
loop_
 _atom_site_type_symbol
 _atom_site_label
 _atom_site_symmetry_multiplicity
 _atom_site_fract_x
 _atom_site_fract_y
 _atom_site_fract_z
 _atom_site_occupancy
  Li  Li0  1  0.250000  0.250000  0.250000  1
  Li  Li1  1  0.750000  0.750000  0.750000  1
  Ca  Ca2  1  0.894667  0.605333  0.250000  1
  Ca  Ca3  1  0.605333  0.250000  0.894667  1
  Ca  Ca4  1  0.750000  0.105333  0.394667  1
  Ca  Ca5  1  0.394667  0.750000  0.105333  1
  Ca  Ca6  1  0.105333  0.394667  0.750000  1
  Ca  Ca7  1  0.250000  0.894667  0.605333  1
  Pt  Pt8  1  0.000000  0.000000  0.000000  1
  Pt  Pt9  1  0.500000  0.500000  0.500000  1
  O  O10  1  0.794526  0.449548  0.577603  1
  O  O11  1  0.922397  0.050452  0.705474  1
  O  O12  1  0.705474  0.922397  0.050452  1
  O  O13  1  0.050452  0.705474  0.922397  1
  O  O14  1  0.577603  0.794526  0.449548  1
  O  O15  1  0.449548  0.577603  0.794526  1
  O  O16  1  0.422397  0.205474  0.550452  1
  O  O17  1  0.550452  0.422397  0.205474  1
  O  O18  1  0.949548  0.294526  0.077603  1
  O  O19  1  0.294526  0.077603  0.949548  1
  O  O20  1  0.077603  0.949548  0.294526  1
  O  O21  1  0.205474  0.550452  0.422397  1
