# generated using pymatgen
data_TbNd4Dy3(B6Ru)4
_symmetry_space_group_name_H-M   'P 1'
_cell_length_a   3.72517800
_cell_length_b   9.24137402
_cell_length_c   11.65583903
_cell_angle_alpha   90.00807188
_cell_angle_beta   90.00000000
_cell_angle_gamma   90.00000000
_symmetry_Int_Tables_number   1
_chemical_formula_structural   TbNd4Dy3(B6Ru)4
_chemical_formula_sum   'Tb1 Nd4 Dy3 B24 Ru4'
_cell_volume   401.26115032
_cell_formula_units_Z   1
loop_
 _symmetry_equiv_pos_site_id
 _symmetry_equiv_pos_as_xyz
  1  'x, y, z'
loop_
 _atom_site_type_symbol
 _atom_site_label
 _atom_site_symmetry_multiplicity
 _atom_site_fract_x
 _atom_site_fract_y
 _atom_site_fract_z
 _atom_site_occupancy
  Tb  Tb0  1  0.000000  0.944016  0.371617  1
  Nd  Nd1  1  0.000000  0.323357  0.414294  1
  Nd  Nd2  1  0.000000  0.676657  0.585833  1
  Nd  Nd3  1  0.000000  0.823232  0.085674  1
  Nd  Nd4  1  0.000000  0.176772  0.914236  1
  Dy  Dy5  1  0.000000  0.056057  0.628599  1
  Dy  Dy6  1  0.000000  0.444017  0.128332  1
  Dy  Dy7  1  0.000000  0.555985  0.871581  1
  B  B8  1  0.500000  0.556229  0.430460  1
  B  B9  1  0.500000  0.443606  0.569591  1
  B  B10  1  0.500000  0.056394  0.069469  1
  B  B11  1  0.500000  0.943634  0.930429  1
  B  B12  1  0.500000  0.748882  0.417487  1
  B  B13  1  0.500000  0.250761  0.582533  1
  B  B14  1  0.500000  0.249333  0.082472  1
  B  B15  1  0.500000  0.750721  0.917485  1
  B  B16  1  0.500000  0.789821  0.266815  1
  B  B17  1  0.500000  0.209829  0.733127  1
  B  B18  1  0.500000  0.290363  0.233051  1
  B  B19  1  0.500000  0.709795  0.766904  1
  B  B20  1  0.500000  0.631087  0.185254  1
  B  B21  1  0.500000  0.368825  0.814685  1
  B  B22  1  0.500000  0.131497  0.314513  1
  B  B23  1  0.500000  0.868794  0.685353  1
  B  B24  1  0.500000  0.986649  0.213479  1
  B  B25  1  0.500000  0.013592  0.786272  1
  B  B26  1  0.500000  0.486304  0.286217  1
  B  B27  1  0.500000  0.513610  0.713759  1
  B  B28  1  0.500000  0.604018  0.028437  1
  B  B29  1  0.500000  0.395969  0.971509  1
  B  B30  1  0.500000  0.104539  0.471764  1
  B  B31  1  0.500000  0.895773  0.528872  1
  Ru  Ru32  1  0.000000  0.639099  0.319703  1
  Ru  Ru33  1  0.000000  0.360548  0.680326  1
  Ru  Ru34  1  0.000000  0.139727  0.180090  1
  Ru  Ru35  1  0.000000  0.860507  0.819777  1
