# generated using pymatgen
data_MgOs4RuO12
_symmetry_space_group_name_H-M   'P 1'
_cell_length_a   4.59225275
_cell_length_b   4.59225275
_cell_length_c   9.41932700
_cell_angle_alpha   90.00000000
_cell_angle_beta   90.00000000
_cell_angle_gamma   90.24796048
_symmetry_Int_Tables_number   1
_chemical_formula_structural   MgOs4RuO12
_chemical_formula_sum   'Mg1 Os4 Ru1 O12'
_cell_volume   198.64030486
_cell_formula_units_Z   1
loop_
 _symmetry_equiv_pos_site_id
 _symmetry_equiv_pos_as_xyz
  1  'x, y, z'
loop_
 _atom_site_type_symbol
 _atom_site_label
 _atom_site_symmetry_multiplicity
 _atom_site_fract_x
 _atom_site_fract_y
 _atom_site_fract_z
 _atom_site_occupancy
  Mg  Mg0  1  0.500000  0.500000  0.500000  1
  Os  Os1  1  0.500000  0.500000  0.831542  1
  Os  Os2  1  0.000000  0.000000  0.332447  1
  Os  Os3  1  0.500000  0.500000  0.168458  1
  Os  Os4  1  0.000000  0.000000  0.667553  1
  Ru  Ru5  1  0.000000  0.000000  0.000000  1
  O  O6  1  0.705971  0.705971  0.678844  1
  O  O7  1  0.294029  0.294029  0.678844  1
  O  O8  1  0.705971  0.705971  0.321156  1
  O  O9  1  0.197642  0.802358  0.167531  1
  O  O10  1  0.802358  0.197642  0.167531  1
  O  O11  1  0.802358  0.197642  0.832469  1
  O  O12  1  0.311251  0.311251  0.000000  1
  O  O13  1  0.185155  0.814845  0.500000  1
  O  O14  1  0.814845  0.185155  0.500000  1
  O  O15  1  0.688749  0.688749  0.000000  1
  O  O16  1  0.294029  0.294029  0.321156  1
  O  O17  1  0.197642  0.802358  0.832469  1
