# generated using pymatgen
data_Dy6MgTaCo14(NiP6)2
_symmetry_space_group_name_H-M   'P 1'
_cell_length_a   3.73889700
_cell_length_b   10.62401600
_cell_length_c   12.30907500
_cell_angle_alpha   90.00000000
_cell_angle_beta   90.00000000
_cell_angle_gamma   90.00000000
_symmetry_Int_Tables_number   1
_chemical_formula_structural   Dy6MgTaCo14(NiP6)2
_chemical_formula_sum   'Dy6 Mg1 Ta1 Co14 Ni2 P12'
_cell_volume   488.94232714
_cell_formula_units_Z   1
loop_
 _symmetry_equiv_pos_site_id
 _symmetry_equiv_pos_as_xyz
  1  'x, y, z'
loop_
 _atom_site_type_symbol
 _atom_site_label
 _atom_site_symmetry_multiplicity
 _atom_site_fract_x
 _atom_site_fract_y
 _atom_site_fract_z
 _atom_site_occupancy
  Dy  Dy0  1  0.000000  0.500000  0.525146  1
  Dy  Dy1  1  0.500000  0.000000  0.476831  1
  Dy  Dy2  1  0.500000  0.818404  0.205004  1
  Dy  Dy3  1  0.500000  0.181596  0.205004  1
  Dy  Dy4  1  0.000000  0.680155  0.795782  1
  Dy  Dy5  1  0.000000  0.319845  0.795782  1
  Mg  Mg6  1  0.000000  0.000000  0.844657  1
  Ta  Ta7  1  0.500000  0.500000  0.156829  1
  Co  Co8  1  0.000000  0.500000  0.988236  1
  Co  Co9  1  0.500000  0.000000  0.012807  1
  Co  Co10  1  0.500000  0.333560  0.993979  1
  Co  Co11  1  0.500000  0.666440  0.993979  1
  Co  Co12  1  0.000000  0.168244  0.004977  1
  Co  Co13  1  0.000000  0.831756  0.004977  1
  Co  Co14  1  0.500000  0.296506  0.431430  1
  Co  Co15  1  0.500000  0.703494  0.431430  1
  Co  Co16  1  0.000000  0.203653  0.566736  1
  Co  Co17  1  0.000000  0.796347  0.566736  1
  Co  Co18  1  0.500000  0.876871  0.706077  1
  Co  Co19  1  0.500000  0.123129  0.706077  1
  Co  Co20  1  0.000000  0.622046  0.293565  1
  Co  Co21  1  0.000000  0.377954  0.293565  1
  Ni  Ni22  1  0.500000  0.500000  0.701714  1
  Ni  Ni23  1  0.000000  0.000000  0.297059  1
  P  P24  1  0.500000  0.500000  0.882683  1
  P  P25  1  0.000000  0.000000  0.115316  1
  P  P26  1  0.500000  0.500000  0.356548  1
  P  P27  1  0.000000  0.000000  0.645968  1
  P  P28  1  0.500000  0.308851  0.615447  1
  P  P29  1  0.500000  0.691149  0.615447  1
  P  P30  1  0.000000  0.190309  0.384998  1
  P  P31  1  0.000000  0.809691  0.384998  1
  P  P32  1  0.500000  0.840473  0.893282  1
  P  P33  1  0.500000  0.159527  0.893282  1
  P  P34  1  0.000000  0.659544  0.106827  1
  P  P35  1  0.000000  0.340456  0.106827  1
