# generated using pymatgen
data_SrY6CoI12
_symmetry_space_group_name_H-M   'P 1'
_cell_length_a   9.81386818
_cell_length_b   9.81386630
_cell_length_c   9.81386700
_cell_angle_alpha   106.47969124
_cell_angle_beta   106.47968407
_cell_angle_gamma   106.47968044
_symmetry_Int_Tables_number   1
_chemical_formula_structural   SrY6CoI12
_chemical_formula_sum   'Sr1 Y6 Co1 I12'
_cell_volume   798.07501999
_cell_formula_units_Z   1
loop_
 _symmetry_equiv_pos_site_id
 _symmetry_equiv_pos_as_xyz
  1  'x, y, z'
loop_
 _atom_site_type_symbol
 _atom_site_label
 _atom_site_symmetry_multiplicity
 _atom_site_fract_x
 _atom_site_fract_y
 _atom_site_fract_z
 _atom_site_occupancy
  Sr  Sr0  1  0.500000  0.500000  0.500000  1
  Y  Y1  1  0.712060  0.981966  0.910539  1
  Y  Y2  1  0.981966  0.910539  0.712060  1
  Y  Y3  1  0.089461  0.287940  0.018034  1
  Y  Y4  1  0.287940  0.018034  0.089461  1
  Y  Y5  1  0.910539  0.712060  0.981966  1
  Y  Y6  1  0.018034  0.089461  0.287940  1
  Co  Co7  1  0.000000  0.000000  0.000000  1
  I  I8  1  0.073806  0.223574  0.678232  1
  I  I9  1  0.366771  0.134488  0.446490  1
  I  I10  1  0.633229  0.865512  0.553510  1
  I  I11  1  0.223574  0.678232  0.073806  1
  I  I12  1  0.776426  0.321768  0.926194  1
  I  I13  1  0.678232  0.073806  0.223574  1
  I  I14  1  0.553510  0.633229  0.865512  1
  I  I15  1  0.865512  0.553510  0.633229  1
  I  I16  1  0.926194  0.776426  0.321768  1
  I  I17  1  0.321768  0.926194  0.776426  1
  I  I18  1  0.446490  0.366771  0.134488  1
  I  I19  1  0.134488  0.446490  0.366771  1
