# generated using pymatgen
data_Hf18ZnCr2CoRe6
_symmetry_space_group_name_H-M   'P 1'
_cell_length_a   8.60680700
_cell_length_b   8.60680718
_cell_length_c   8.41342000
_cell_angle_alpha   90.00000000
_cell_angle_beta   90.00000000
_cell_angle_gamma   119.99999548
_symmetry_Int_Tables_number   1
_chemical_formula_structural   Hf18ZnCr2CoRe6
_chemical_formula_sum   'Hf18 Zn1 Cr2 Co1 Re6'
_cell_volume   539.74342272
_cell_formula_units_Z   1
loop_
 _symmetry_equiv_pos_site_id
 _symmetry_equiv_pos_as_xyz
  1  'x, y, z'
loop_
 _atom_site_type_symbol
 _atom_site_label
 _atom_site_symmetry_multiplicity
 _atom_site_fract_x
 _atom_site_fract_y
 _atom_site_fract_z
 _atom_site_occupancy
  Hf  Hf0  1  0.190784  0.809216  0.448995  1
  Hf  Hf1  1  0.190784  0.381570  0.448995  1
  Hf  Hf2  1  0.618430  0.809216  0.448995  1
  Hf  Hf3  1  0.800772  0.199228  0.557689  1
  Hf  Hf4  1  0.800772  0.601544  0.557689  1
  Hf  Hf5  1  0.398456  0.199228  0.557689  1
  Hf  Hf6  1  0.800772  0.199228  0.942311  1
  Hf  Hf7  1  0.800772  0.601544  0.942311  1
  Hf  Hf8  1  0.398456  0.199228  0.942311  1
  Hf  Hf9  1  0.190784  0.809216  0.051005  1
  Hf  Hf10  1  0.190784  0.381570  0.051005  1
  Hf  Hf11  1  0.618430  0.809216  0.051005  1
  Hf  Hf12  1  0.541062  0.458938  0.250000  1
  Hf  Hf13  1  0.541062  0.082126  0.250000  1
  Hf  Hf14  1  0.917874  0.458938  0.250000  1
  Hf  Hf15  1  0.458836  0.541164  0.750000  1
  Hf  Hf16  1  0.458836  0.917671  0.750000  1
  Hf  Hf17  1  0.082329  0.541164  0.750000  1
  Zn  Zn18  1  0.333333  0.666667  0.250000  1
  Cr  Cr19  1  0.000000  0.000000  0.499267  1
  Cr  Cr20  1  0.000000  0.000000  0.000733  1
  Co  Co21  1  0.666667  0.333333  0.750000  1
  Re  Re22  1  0.891268  0.108732  0.250000  1
  Re  Re23  1  0.891268  0.782537  0.250000  1
  Re  Re24  1  0.217463  0.108732  0.250000  1
  Re  Re25  1  0.107787  0.892213  0.750000  1
  Re  Re26  1  0.107787  0.215573  0.750000  1
  Re  Re27  1  0.784427  0.892213  0.750000  1
