# generated using pymatgen
data_Th2Ga3Cu4Ge
_symmetry_space_group_name_H-M   'P 1'
_cell_length_a   4.19269000
_cell_length_b   4.19269000
_cell_length_c   10.17545000
_cell_angle_alpha   90.00000000
_cell_angle_beta   90.00000000
_cell_angle_gamma   90.00000000
_symmetry_Int_Tables_number   1
_chemical_formula_structural   Th2Ga3Cu4Ge
_chemical_formula_sum   'Th2 Ga3 Cu4 Ge1'
_cell_volume   178.87066840
_cell_formula_units_Z   1
loop_
 _symmetry_equiv_pos_site_id
 _symmetry_equiv_pos_as_xyz
  1  'x, y, z'
loop_
 _atom_site_type_symbol
 _atom_site_label
 _atom_site_symmetry_multiplicity
 _atom_site_fract_x
 _atom_site_fract_y
 _atom_site_fract_z
 _atom_site_occupancy
  Th  Th0  1  0.000000  0.500000  0.244075  1
  Th  Th1  1  0.500000  0.000000  0.753509  1
  Ga  Ga2  1  0.000000  0.000000  0.499872  1
  Ga  Ga3  1  0.500000  0.500000  0.499872  1
  Ga  Ga4  1  0.000000  0.500000  0.869798  1
  Cu  Cu5  1  0.000000  0.000000  0.001021  1
  Cu  Cu6  1  0.500000  0.500000  0.001021  1
  Cu  Cu7  1  0.000000  0.500000  0.632436  1
  Cu  Cu8  1  0.500000  0.000000  0.367546  1
  Ge  Ge9  1  0.500000  0.000000  0.130847  1
