# generated using pymatgen
data_Gd3YHo3RhO12
_symmetry_space_group_name_H-M   'P 1'
_cell_length_a   6.67416775
_cell_length_b   6.67404922
_cell_length_c   6.67180413
_cell_angle_alpha   95.12040307
_cell_angle_beta   95.08582586
_cell_angle_gamma   95.08471850
_symmetry_Int_Tables_number   1
_chemical_formula_structural   Gd3YHo3RhO12
_chemical_formula_sum   'Gd3 Y1 Ho3 Rh1 O12'
_cell_volume   293.43642067
_cell_formula_units_Z   1
loop_
 _symmetry_equiv_pos_site_id
 _symmetry_equiv_pos_as_xyz
  1  'x, y, z'
loop_
 _atom_site_type_symbol
 _atom_site_label
 _atom_site_symmetry_multiplicity
 _atom_site_fract_x
 _atom_site_fract_y
 _atom_site_fract_z
 _atom_site_occupancy
  Gd  Gd0  1  0.911195  0.427500  0.731363  1
  Gd  Gd1  1  0.573025  0.267793  0.089887  1
  Gd  Gd2  1  0.266602  0.086923  0.572235  1
  Y  Y3  1  0.998376  0.997970  0.999819  1
  Ho  Ho4  1  0.735115  0.911102  0.426506  1
  Ho  Ho5  1  0.427243  0.736243  0.914228  1
  Ho  Ho6  1  0.087002  0.573252  0.262927  1
  Rh  Rh7  1  0.500250  0.501463  0.499071  1
  O  O8  1  0.062641  0.908097  0.319539  1
  O  O9  1  0.679163  0.930184  0.089740  1
  O  O10  1  0.461768  0.802424  0.588751  1
  O  O11  1  0.091537  0.679676  0.936196  1
  O  O12  1  0.802063  0.588638  0.451531  1
  O  O13  1  0.410749  0.548063  0.197568  1
  O  O14  1  0.581925  0.460620  0.802972  1
  O  O15  1  0.196632  0.417593  0.538759  1
  O  O16  1  0.915660  0.319595  0.068161  1
  O  O17  1  0.549153  0.196794  0.417314  1
  O  O18  1  0.319054  0.062003  0.913819  1
  O  O19  1  0.930847  0.084065  0.679615  1
