# generated using pymatgen
data_Y5PuU4O20
_symmetry_space_group_name_H-M   'P 1'
_cell_length_a   6.66916455
_cell_length_b   7.51633274
_cell_length_c   8.42977400
_cell_angle_alpha   100.83833590
_cell_angle_beta   97.66890501
_cell_angle_gamma   107.26655206
_symmetry_Int_Tables_number   1
_chemical_formula_structural   Y5PuU4O20
_chemical_formula_sum   'Y5 Pu1 U4 O20'
_cell_volume   388.17040171
_cell_formula_units_Z   1
loop_
 _symmetry_equiv_pos_site_id
 _symmetry_equiv_pos_as_xyz
  1  'x, y, z'
loop_
 _atom_site_type_symbol
 _atom_site_label
 _atom_site_symmetry_multiplicity
 _atom_site_fract_x
 _atom_site_fract_y
 _atom_site_fract_z
 _atom_site_occupancy
  Y  Y0  1  0.609348  0.701410  0.700001  1
  Y  Y1  1  0.390652  0.298590  0.299999  1
  Y  Y2  1  0.198751  0.897466  0.895045  1
  Y  Y3  1  0.000000  0.500000  0.500000  1
  Y  Y4  1  0.801249  0.102534  0.104955  1
  Pu  Pu5  1  0.000000  0.000000  0.500000  1
  U  U6  1  0.400967  0.803010  0.301041  1
  U  U7  1  0.199213  0.399891  0.899751  1
  U  U8  1  0.800787  0.600109  0.100249  1
  U  U9  1  0.599033  0.196990  0.698959  1
  O  O10  1  0.444521  0.535504  0.139521  1
  O  O11  1  0.553837  0.986997  0.841790  1
  O  O12  1  0.262129  0.140141  0.743621  1
  O  O13  1  0.358073  0.592368  0.442879  1
  O  O14  1  0.053080  0.730371  0.336427  1
  O  O15  1  0.446163  0.013003  0.158210  1
  O  O16  1  0.152638  0.184936  0.035433  1
  O  O17  1  0.555479  0.464496  0.860479  1
  O  O18  1  0.854514  0.335335  0.947679  1
  O  O19  1  0.254978  0.608887  0.759425  1
  O  O20  1  0.952722  0.774953  0.650375  1
  O  O21  1  0.351900  0.063331  0.453735  1
  O  O22  1  0.648100  0.936669  0.546265  1
  O  O23  1  0.047278  0.225047  0.349625  1
  O  O24  1  0.745022  0.391113  0.240575  1
  O  O25  1  0.145486  0.664665  0.052321  1
  O  O26  1  0.847362  0.815064  0.964567  1
  O  O27  1  0.946920  0.269629  0.663573  1
  O  O28  1  0.641927  0.407632  0.557121  1
  O  O29  1  0.737871  0.859859  0.256379  1
