# generated using pymatgen
data_Lu3Zn2In3Rh
_symmetry_space_group_name_H-M   'P 1'
_cell_length_a   7.73000000
_cell_length_b   7.73000191
_cell_length_c   3.72476400
_cell_angle_alpha   90.00000000
_cell_angle_beta   90.00000000
_cell_angle_gamma   120.00000038
_symmetry_Int_Tables_number   1
_chemical_formula_structural   Lu3Zn2In3Rh
_chemical_formula_sum   'Lu3 Zn2 In3 Rh1'
_cell_volume   192.74738131
_cell_formula_units_Z   1
loop_
 _symmetry_equiv_pos_site_id
 _symmetry_equiv_pos_as_xyz
  1  'x, y, z'
loop_
 _atom_site_type_symbol
 _atom_site_label
 _atom_site_symmetry_multiplicity
 _atom_site_fract_x
 _atom_site_fract_y
 _atom_site_fract_z
 _atom_site_occupancy
  Lu  Lu0  1  0.970444  0.585070  0.500000  1
  Lu  Lu1  1  0.414930  0.385374  0.500000  1
  Lu  Lu2  1  0.614626  0.029556  0.500000  1
  Zn  Zn3  1  0.333333  0.666667  0.000000  1
  Zn  Zn4  1  0.000000  0.000000  0.500000  1
  In  In5  1  0.009390  0.271482  0.000000  1
  In  In6  1  0.262092  0.990610  0.000000  1
  In  In7  1  0.728518  0.737908  0.000000  1
  Rh  Rh8  1  0.666667  0.333333  0.000000  1
