# generated using pymatgen
data_PrDyTe2(RhO6)2
_symmetry_space_group_name_H-M   'P 1'
_cell_length_a   5.27347300
_cell_length_b   5.27348833
_cell_length_c   10.01629800
_cell_angle_alpha   89.99955035
_cell_angle_beta   90.00035347
_cell_angle_gamma   119.99949723
_symmetry_Int_Tables_number   1
_chemical_formula_structural   PrDyTe2(RhO6)2
_chemical_formula_sum   'Pr1 Dy1 Te2 Rh2 O12'
_cell_volume   241.23192650
_cell_formula_units_Z   1
loop_
 _symmetry_equiv_pos_site_id
 _symmetry_equiv_pos_as_xyz
  1  'x, y, z'
loop_
 _atom_site_type_symbol
 _atom_site_label
 _atom_site_symmetry_multiplicity
 _atom_site_fract_x
 _atom_site_fract_y
 _atom_site_fract_z
 _atom_site_occupancy
  Pr  Pr0  1  0.000003  0.000000  0.999999  1
  Dy  Dy1  1  0.000001  0.000001  0.499999  1
  Te  Te2  1  0.666658  0.333342  0.256508  1
  Te  Te3  1  0.333350  0.666677  0.743523  1
  Rh  Rh4  1  0.333332  0.666661  0.255747  1
  Rh  Rh5  1  0.666668  0.333328  0.744261  1
  O  O6  1  0.637157  0.626716  0.145290  1
  O  O7  1  0.989539  0.362826  0.145289  1
  O  O8  1  0.373274  0.010452  0.145294  1
  O  O9  1  0.357739  0.345300  0.363492  1
  O  O10  1  0.987543  0.642255  0.363497  1
  O  O11  1  0.654690  0.012440  0.363492  1
  O  O12  1  0.345303  0.987555  0.636503  1
  O  O13  1  0.642262  0.654703  0.636501  1
  O  O14  1  0.012453  0.357749  0.636500  1
  O  O15  1  0.010462  0.637172  0.854701  1
  O  O16  1  0.626719  0.989541  0.854702  1
  O  O17  1  0.362843  0.373290  0.854700  1
