# generated using pymatgen
data_Nd12Si7Ni4Sb
_symmetry_space_group_name_H-M   'P 1'
_cell_length_a   4.26318200
_cell_length_b   11.75648026
_cell_length_c   11.78288820
_cell_angle_alpha   89.78058370
_cell_angle_beta   90.00000000
_cell_angle_gamma   90.00000000
_symmetry_Int_Tables_number   1
_chemical_formula_structural   Nd12Si7Ni4Sb
_chemical_formula_sum   'Nd12 Si7 Ni4 Sb1'
_cell_volume   590.55420364
_cell_formula_units_Z   1
loop_
 _symmetry_equiv_pos_site_id
 _symmetry_equiv_pos_as_xyz
  1  'x, y, z'
loop_
 _atom_site_type_symbol
 _atom_site_label
 _atom_site_symmetry_multiplicity
 _atom_site_fract_x
 _atom_site_fract_y
 _atom_site_fract_z
 _atom_site_occupancy
  Nd  Nd0  1  0.250000  0.373645  0.065485  1
  Nd  Nd1  1  0.750000  0.635520  0.952759  1
  Nd  Nd2  1  0.750000  0.876871  0.439159  1
  Nd  Nd3  1  0.250000  0.119565  0.557926  1
  Nd  Nd4  1  0.250000  0.697707  0.212979  1
  Nd  Nd5  1  0.750000  0.288251  0.784064  1
  Nd  Nd6  1  0.750000  0.194757  0.288622  1
  Nd  Nd7  1  0.250000  0.804927  0.712790  1
  Nd  Nd8  1  0.250000  0.440008  0.381826  1
  Nd  Nd9  1  0.750000  0.557481  0.603736  1
  Nd  Nd10  1  0.750000  0.942481  0.117344  1
  Nd  Nd11  1  0.250000  0.059624  0.884610  1
  Si  Si12  1  0.250000  0.688592  0.469712  1
  Si  Si13  1  0.750000  0.311191  0.528157  1
  Si  Si14  1  0.750000  0.186588  0.030506  1
  Si  Si15  1  0.250000  0.819103  0.970531  1
  Si  Si16  1  0.250000  0.008295  0.299868  1
  Si  Si17  1  0.750000  0.993146  0.701252  1
  Si  Si18  1  0.750000  0.511779  0.199524  1
  Ni  Ni19  1  0.250000  0.134549  0.130774  1
  Ni  Ni20  1  0.750000  0.869630  0.871823  1
  Ni  Ni21  1  0.750000  0.635695  0.370190  1
  Ni  Ni22  1  0.250000  0.354241  0.621790  1
  Sb  Sb23  1  0.250000  0.496353  0.804574  1
