# generated using pymatgen
data_Dy4Er5Tm3Ir4
_symmetry_space_group_name_H-M   'P 1'
_cell_length_a   6.34327048
_cell_length_b   7.23576721
_cell_length_c   9.13584340
_cell_angle_alpha   89.99068070
_cell_angle_beta   90.00503020
_cell_angle_gamma   89.98007367
_symmetry_Int_Tables_number   1
_chemical_formula_structural   Dy4Er5Tm3Ir4
_chemical_formula_sum   'Dy4 Er5 Tm3 Ir4'
_cell_volume   419.32082311
_cell_formula_units_Z   1
loop_
 _symmetry_equiv_pos_site_id
 _symmetry_equiv_pos_as_xyz
  1  'x, y, z'
loop_
 _atom_site_type_symbol
 _atom_site_label
 _atom_site_symmetry_multiplicity
 _atom_site_fract_x
 _atom_site_fract_y
 _atom_site_fract_z
 _atom_site_occupancy
  Dy  Dy0  1  0.868518  0.534072  0.250049  1
  Dy  Dy1  1  0.631412  0.034140  0.250007  1
  Dy  Dy2  1  0.131509  0.465933  0.749997  1
  Dy  Dy3  1  0.368523  0.965983  0.749973  1
  Er  Er4  1  0.828584  0.822923  0.937354  1
  Er  Er5  1  0.671202  0.323252  0.937271  1
  Er  Er6  1  0.828869  0.823083  0.562737  1
  Er  Er7  1  0.328814  0.676844  0.437254  1
  Er  Er8  1  0.171261  0.176840  0.062702  1
  Tm  Tm9  1  0.328500  0.676861  0.062723  1
  Tm  Tm10  1  0.171439  0.176985  0.437256  1
  Tm  Tm11  1  0.671410  0.323015  0.562644  1
  Ir  Ir12  1  0.047574  0.882680  0.249983  1
  Ir  Ir13  1  0.452435  0.382649  0.249897  1
  Ir  Ir14  1  0.952511  0.117579  0.750221  1
  Ir  Ir15  1  0.547440  0.617162  0.749931  1
