# generated using pymatgen
data_NaBi3(BrO2)2
_symmetry_space_group_name_H-M   'P 1'
_cell_length_a   7.04609351
_cell_length_b   7.04609351
_cell_length_c   11.07732600
_cell_angle_alpha   90.00000000
_cell_angle_beta   90.00000000
_cell_angle_gamma   133.55594789
_symmetry_Int_Tables_number   1
_chemical_formula_structural   NaBi3(BrO2)2
_chemical_formula_sum   'Na2 Bi6 Br4 O8'
_cell_volume   398.55762390
_cell_formula_units_Z   2
loop_
 _symmetry_equiv_pos_site_id
 _symmetry_equiv_pos_as_xyz
  1  'x, y, z'
loop_
 _atom_site_type_symbol
 _atom_site_label
 _atom_site_symmetry_multiplicity
 _atom_site_fract_x
 _atom_site_fract_y
 _atom_site_fract_z
 _atom_site_occupancy
  Na  Na0  1  0.154819  0.845181  0.750000  1
  Na  Na1  1  0.845181  0.154819  0.250000  1
  Bi  Bi2  1  0.840426  0.159574  0.750000  1
  Bi  Bi3  1  0.338339  0.661661  0.998729  1
  Bi  Bi4  1  0.661661  0.338339  0.001271  1
  Bi  Bi5  1  0.159574  0.840426  0.250000  1
  Bi  Bi6  1  0.338339  0.661661  0.501271  1
  Bi  Bi7  1  0.661661  0.338339  0.498729  1
  Br  Br8  1  0.499468  0.500532  0.750000  1
  Br  Br9  1  0.000000  0.000000  0.000000  1
  Br  Br10  1  0.500532  0.499468  0.250000  1
  Br  Br11  1  0.000000  0.000000  0.500000  1
  O  O12  1  0.994602  0.488357  0.878268  1
  O  O13  1  0.511643  0.005398  0.878268  1
  O  O14  1  0.005398  0.511643  0.121732  1
  O  O15  1  0.488357  0.994602  0.121732  1
  O  O16  1  0.005398  0.511643  0.378268  1
  O  O17  1  0.994602  0.488357  0.621732  1
  O  O18  1  0.488357  0.994602  0.378268  1
  O  O19  1  0.511643  0.005398  0.621732  1
