# generated using pymatgen
data_ThPaMn12P7
_symmetry_space_group_name_H-M   'P 1'
_cell_length_a   9.25911400
_cell_length_b   9.25911505
_cell_length_c   3.68125700
_cell_angle_alpha   90.00000000
_cell_angle_beta   90.00000000
_cell_angle_gamma   120.00001053
_symmetry_Int_Tables_number   1
_chemical_formula_structural   ThPaMn12P7
_chemical_formula_sum   'Th1 Pa1 Mn12 P7'
_cell_volume   273.31636451
_cell_formula_units_Z   1
loop_
 _symmetry_equiv_pos_site_id
 _symmetry_equiv_pos_as_xyz
  1  'x, y, z'
loop_
 _atom_site_type_symbol
 _atom_site_label
 _atom_site_symmetry_multiplicity
 _atom_site_fract_x
 _atom_site_fract_y
 _atom_site_fract_z
 _atom_site_occupancy
  Th  Th0  1  0.000000  0.000000  0.500000  1
  Pa  Pa1  1  0.333333  0.666667  0.000000  1
  Mn  Mn2  1  0.041634  0.283360  0.000000  1
  Mn  Mn3  1  0.716640  0.758274  0.000000  1
  Mn  Mn4  1  0.241726  0.958366  0.000000  1
  Mn  Mn5  1  0.543383  0.057135  0.000000  1
  Mn  Mn6  1  0.942865  0.486249  0.000000  1
  Mn  Mn7  1  0.513751  0.456617  0.000000  1
  Mn  Mn8  1  0.614979  0.891157  0.500000  1
  Mn  Mn9  1  0.108843  0.723823  0.500000  1
  Mn  Mn10  1  0.276177  0.385021  0.500000  1
  Mn  Mn11  1  0.785830  0.225589  0.500000  1
  Mn  Mn12  1  0.774411  0.560241  0.500000  1
  Mn  Mn13  1  0.439759  0.214170  0.500000  1
  P  P14  1  0.776560  0.039714  0.000000  1
  P  P15  1  0.960286  0.736846  0.000000  1
  P  P16  1  0.263154  0.223440  0.000000  1
  P  P17  1  0.385435  0.930510  0.500000  1
  P  P18  1  0.069490  0.454927  0.500000  1
  P  P19  1  0.545073  0.614565  0.500000  1
  P  P20  1  0.666667  0.333333  0.000000  1
