# generated using pymatgen
data_LiSi3Ni4
_symmetry_space_group_name_H-M   'P 1'
_cell_length_a   4.46809463
_cell_length_b   4.46809373
_cell_length_c   4.46809474
_cell_angle_alpha   89.02928838
_cell_angle_beta   89.02928816
_cell_angle_gamma   89.02927814
_symmetry_Int_Tables_number   1
_chemical_formula_structural   LiSi3Ni4
_chemical_formula_sum   'Li1 Si3 Ni4'
_cell_volume   89.16246624
_cell_formula_units_Z   1
loop_
 _symmetry_equiv_pos_site_id
 _symmetry_equiv_pos_as_xyz
  1  'x, y, z'
loop_
 _atom_site_type_symbol
 _atom_site_label
 _atom_site_symmetry_multiplicity
 _atom_site_fract_x
 _atom_site_fract_y
 _atom_site_fract_z
 _atom_site_occupancy
  Li  Li0  1  0.346503  0.346503  0.346503  1
  Si  Si1  1  0.848370  0.644212  0.167229  1
  Si  Si2  1  0.644212  0.167229  0.848370  1
  Si  Si3  1  0.167229  0.848370  0.644212  1
  Ni  Ni4  1  0.653646  0.653646  0.653646  1
  Ni  Ni5  1  0.134989  0.355287  0.849763  1
  Ni  Ni6  1  0.355287  0.849763  0.134989  1
  Ni  Ni7  1  0.849763  0.134989  0.355287  1
