# generated using pymatgen
data_ZrScCo10(AsP)3
_symmetry_space_group_name_H-M   'P 1'
_cell_length_a   3.65637300
_cell_length_b   10.40680900
_cell_length_c   11.89720900
_cell_angle_alpha   90.00000000
_cell_angle_beta   90.00000000
_cell_angle_gamma   90.00000000
_symmetry_Int_Tables_number   1
_chemical_formula_structural   ZrScCo10(AsP)3
_chemical_formula_sum   'Zr2 Sc2 Co20 As6 P6'
_cell_volume   452.70278695
_cell_formula_units_Z   2
loop_
 _symmetry_equiv_pos_site_id
 _symmetry_equiv_pos_as_xyz
  1  'x, y, z'
loop_
 _atom_site_type_symbol
 _atom_site_label
 _atom_site_symmetry_multiplicity
 _atom_site_fract_x
 _atom_site_fract_y
 _atom_site_fract_z
 _atom_site_occupancy
  Zr  Zr0  1  0.250000  0.583403  0.702256  1
  Zr  Zr1  1  0.250000  0.916597  0.202256  1
  Sc  Sc2  1  0.750000  0.421467  0.298494  1
  Sc  Sc3  1  0.750000  0.078533  0.798494  1
  Co  Co4  1  0.250000  0.715608  0.995351  1
  Co  Co5  1  0.250000  0.784392  0.495351  1
  Co  Co6  1  0.750000  0.277184  0.012369  1
  Co  Co7  1  0.750000  0.222816  0.512369  1
  Co  Co8  1  0.250000  0.412499  0.494619  1
  Co  Co9  1  0.250000  0.087501  0.994619  1
  Co  Co10  1  0.750000  0.594277  0.521043  1
  Co  Co11  1  0.750000  0.905723  0.021043  1
  Co  Co12  1  0.250000  0.211741  0.176842  1
  Co  Co13  1  0.250000  0.288260  0.676842  1
  Co  Co14  1  0.750000  0.772052  0.818568  1
  Co  Co15  1  0.750000  0.727948  0.318568  1
  Co  Co16  1  0.250000  0.875767  0.694604  1
  Co  Co17  1  0.250000  0.624233  0.194604  1
  Co  Co18  1  0.750000  0.107124  0.296741  1
  Co  Co19  1  0.750000  0.392876  0.796741  1
  Co  Co20  1  0.250000  0.476212  0.925767  1
  Co  Co21  1  0.250000  0.023788  0.425767  1
  Co  Co22  1  0.750000  0.541089  0.063790  1
  Co  Co23  1  0.750000  0.958911  0.563790  1
  As  As24  1  0.250000  0.415693  0.113895  1
  As  As25  1  0.250000  0.084307  0.613895  1
  As  As26  1  0.250000  0.265025  0.871936  1
  As  As27  1  0.250000  0.234975  0.371936  1
  As  As28  1  0.250000  0.599436  0.387906  1
  As  As29  1  0.250000  0.900564  0.887906  1
  P  P30  1  0.750000  0.582065  0.883575  1
  P  P31  1  0.750000  0.917935  0.383575  1
  P  P32  1  0.750000  0.733524  0.131093  1
  P  P33  1  0.750000  0.766476  0.631093  1
  P  P34  1  0.750000  0.403299  0.611151  1
  P  P35  1  0.750000  0.096701  0.111151  1
