# generated using pymatgen
data_Yb6GaGe3Pt4
_symmetry_space_group_name_H-M   'P 1'
_cell_length_a   5.58066300
_cell_length_b   8.12963300
_cell_length_c   13.34781500
_cell_angle_alpha   90.00000000
_cell_angle_beta   90.00000000
_cell_angle_gamma   90.00000000
_symmetry_Int_Tables_number   1
_chemical_formula_structural   Yb6GaGe3Pt4
_chemical_formula_sum   'Yb12 Ga2 Ge6 Pt8'
_cell_volume   605.57357616
_cell_formula_units_Z   2
loop_
 _symmetry_equiv_pos_site_id
 _symmetry_equiv_pos_as_xyz
  1  'x, y, z'
loop_
 _atom_site_type_symbol
 _atom_site_label
 _atom_site_symmetry_multiplicity
 _atom_site_fract_x
 _atom_site_fract_y
 _atom_site_fract_z
 _atom_site_occupancy
  Yb  Yb0  1  0.146400  0.606872  0.100266  1
  Yb  Yb1  1  0.146400  0.893128  0.899734  1
  Yb  Yb2  1  0.853600  0.106872  0.399734  1
  Yb  Yb3  1  0.853600  0.393128  0.600266  1
  Yb  Yb4  1  0.856243  0.388908  0.900422  1
  Yb  Yb5  1  0.856243  0.111092  0.099578  1
  Yb  Yb6  1  0.143757  0.888908  0.599578  1
  Yb  Yb7  1  0.143757  0.611092  0.400422  1
  Yb  Yb8  1  0.364781  0.248755  0.250163  1
  Yb  Yb9  1  0.364781  0.251245  0.749837  1
  Yb  Yb10  1  0.635219  0.748755  0.249837  1
  Yb  Yb11  1  0.635219  0.751245  0.750163  1
  Ga  Ga12  1  0.631945  0.750000  0.000000  1
  Ga  Ga13  1  0.368055  0.250000  0.500000  1
  Ge  Ge14  1  0.360529  0.250000  0.000000  1
  Ge  Ge15  1  0.639471  0.750000  0.500000  1
  Ge  Ge16  1  0.867848  0.400634  0.250446  1
  Ge  Ge17  1  0.867848  0.099366  0.749554  1
  Ge  Ge18  1  0.132152  0.900634  0.249554  1
  Ge  Ge19  1  0.132152  0.599366  0.750446  1
  Pt  Pt20  1  0.632625  0.465748  0.091749  1
  Pt  Pt21  1  0.632625  0.034252  0.908251  1
  Pt  Pt22  1  0.367375  0.965748  0.408251  1
  Pt  Pt23  1  0.367375  0.534252  0.591749  1
  Pt  Pt24  1  0.367325  0.533958  0.906325  1
  Pt  Pt25  1  0.367325  0.966042  0.093675  1
  Pt  Pt26  1  0.632675  0.033958  0.593675  1
  Pt  Pt27  1  0.632675  0.466042  0.406325  1
