# generated using pymatgen
data_CeSb2O7
_symmetry_space_group_name_H-M   'P 1'
_cell_length_a   7.40554528
_cell_length_b   7.40554486
_cell_length_c   7.40554520
_cell_angle_alpha   119.90837315
_cell_angle_beta   120.09090389
_cell_angle_gamma   90.00069976
_symmetry_Int_Tables_number   1
_chemical_formula_structural   CeSb2O7
_chemical_formula_sum   'Ce2 Sb4 O14'
_cell_volume   287.18191697
_cell_formula_units_Z   2
loop_
 _symmetry_equiv_pos_site_id
 _symmetry_equiv_pos_as_xyz
  1  'x, y, z'
loop_
 _atom_site_type_symbol
 _atom_site_label
 _atom_site_symmetry_multiplicity
 _atom_site_fract_x
 _atom_site_fract_y
 _atom_site_fract_z
 _atom_site_occupancy
  Ce  Ce0  1  0.500000  0.500000  0.000000  1
  Ce  Ce1  1  0.000000  0.500000  0.500000  1
  Sb  Sb2  1  0.000000  0.500000  0.000000  1
  Sb  Sb3  1  0.000000  0.000000  0.500000  1
  Sb  Sb4  1  0.000000  0.000000  0.000000  1
  Sb  Sb5  1  0.500000  0.000000  0.500000  1
  O  O6  1  0.062125  0.328043  0.150814  1
  O  O7  1  0.062125  0.911312  0.734083  1
  O  O8  1  0.317983  0.067983  0.250000  1
  O  O9  1  0.677229  0.911312  0.349186  1
  O  O10  1  0.677229  0.328043  0.765917  1
  O  O11  1  0.661604  0.411604  0.250000  1
  O  O12  1  0.937875  0.671957  0.849186  1
  O  O13  1  0.937875  0.088688  0.265917  1
  O  O14  1  0.682017  0.932017  0.750000  1
  O  O15  1  0.322771  0.088688  0.650814  1
  O  O16  1  0.322771  0.671957  0.234083  1
  O  O17  1  0.338396  0.588396  0.750000  1
  O  O18  1  0.927343  0.677343  0.250000  1
  O  O19  1  0.072657  0.322657  0.750000  1
