# generated using pymatgen
data_LaYb3(Mo2C3)2
_symmetry_space_group_name_H-M   'P 1'
_cell_length_a   6.62872300
_cell_length_b   5.93654813
_cell_length_c   11.96453066
_cell_angle_alpha   66.82035597
_cell_angle_beta   90.00000000
_cell_angle_gamma   90.00000000
_symmetry_Int_Tables_number   1
_chemical_formula_structural   LaYb3(Mo2C3)2
_chemical_formula_sum   'La2 Yb6 Mo8 C12'
_cell_volume   432.81778146
_cell_formula_units_Z   2
loop_
 _symmetry_equiv_pos_site_id
 _symmetry_equiv_pos_as_xyz
  1  'x, y, z'
loop_
 _atom_site_type_symbol
 _atom_site_label
 _atom_site_symmetry_multiplicity
 _atom_site_fract_x
 _atom_site_fract_y
 _atom_site_fract_z
 _atom_site_occupancy
  La  La0  1  0.002012  0.277535  0.365326  1
  La  La1  1  0.502012  0.722465  0.134674  1
  Yb  Yb2  1  0.797541  0.672341  0.902093  1
  Yb  Yb3  1  0.297541  0.327659  0.597907  1
  Yb  Yb4  1  0.201761  0.308628  0.086820  1
  Yb  Yb5  1  0.701761  0.691372  0.413180  1
  Yb  Yb6  1  0.991605  0.731324  0.636195  1
  Yb  Yb7  1  0.491605  0.268676  0.863805  1
  Mo  Mo8  1  0.989185  0.826501  0.116937  1
  Mo  Mo9  1  0.489185  0.173499  0.383063  1
  Mo  Mo10  1  0.009669  0.182026  0.873765  1
  Mo  Mo11  1  0.509669  0.817974  0.626235  1
  Mo  Mo12  1  0.760581  0.180816  0.659200  1
  Mo  Mo13  1  0.238213  0.818085  0.342928  1
  Mo  Mo14  1  0.738213  0.181915  0.157072  1
  Mo  Mo15  1  0.260581  0.819184  0.840800  1
  C  C16  1  0.642421  0.505155  0.653265  1
  C  C17  1  0.142421  0.494845  0.846735  1
  C  C18  1  0.364801  0.491574  0.360250  1
  C  C19  1  0.864801  0.508426  0.139750  1
  C  C20  1  0.215388  0.932282  0.984093  1
  C  C21  1  0.715388  0.067718  0.515907  1
  C  C22  1  0.790316  0.099623  0.006873  1
  C  C23  1  0.290316  0.900377  0.493127  1
  C  C24  1  0.472799  0.043489  0.243614  1
  C  C25  1  0.023709  0.034114  0.741650  1
  C  C26  1  0.972799  0.956511  0.256386  1
  C  C27  1  0.523709  0.965886  0.758350  1
