# generated using pymatgen
data_Sc2GaB2Ru5
_symmetry_space_group_name_H-M   'P 1'
_cell_length_a   9.38352500
_cell_length_b   9.38352500
_cell_length_c   3.03693500
_cell_angle_alpha   90.00000000
_cell_angle_beta   90.00000000
_cell_angle_gamma   90.00000000
_symmetry_Int_Tables_number   1
_chemical_formula_structural   Sc2GaB2Ru5
_chemical_formula_sum   'Sc4 Ga2 B4 Ru10'
_cell_volume   267.40377102
_cell_formula_units_Z   2
loop_
 _symmetry_equiv_pos_site_id
 _symmetry_equiv_pos_as_xyz
  1  'x, y, z'
loop_
 _atom_site_type_symbol
 _atom_site_label
 _atom_site_symmetry_multiplicity
 _atom_site_fract_x
 _atom_site_fract_y
 _atom_site_fract_z
 _atom_site_occupancy
  Sc  Sc0  1  0.674145  0.174145  0.000000  1
  Sc  Sc1  1  0.325855  0.825855  0.000000  1
  Sc  Sc2  1  0.174145  0.325855  0.000000  1
  Sc  Sc3  1  0.825855  0.674145  0.000000  1
  Ga  Ga4  1  0.000000  0.000000  0.000000  1
  Ga  Ga5  1  0.500000  0.500000  0.000000  1
  B  B6  1  0.124538  0.624538  0.000000  1
  B  B7  1  0.875462  0.375462  0.000000  1
  B  B8  1  0.624538  0.875462  0.000000  1
  B  B9  1  0.375462  0.124538  0.000000  1
  Ru  Ru10  1  0.214995  0.071096  0.500000  1
  Ru  Ru11  1  0.785005  0.928904  0.500000  1
  Ru  Ru12  1  0.071096  0.785005  0.500000  1
  Ru  Ru13  1  0.714995  0.428904  0.500000  1
  Ru  Ru14  1  0.928904  0.214995  0.500000  1
  Ru  Ru15  1  0.285005  0.571096  0.500000  1
  Ru  Ru16  1  0.571096  0.714995  0.500000  1
  Ru  Ru17  1  0.428904  0.285005  0.500000  1
  Ru  Ru18  1  0.500000  0.000000  0.500000  1
  Ru  Ru19  1  0.000000  0.500000  0.500000  1
