# generated using pymatgen
data_CeDy2Sn3IrRh2
_symmetry_space_group_name_H-M   'P 1'
_cell_length_a   7.54836780
_cell_length_b   7.53598757
_cell_length_c   3.91659600
_cell_angle_alpha   90.00000000
_cell_angle_beta   90.00000000
_cell_angle_gamma   119.55688312
_symmetry_Int_Tables_number   1
_chemical_formula_structural   CeDy2Sn3IrRh2
_chemical_formula_sum   'Ce1 Dy2 Sn3 Ir1 Rh2'
_cell_volume   193.80034839
_cell_formula_units_Z   1
loop_
 _symmetry_equiv_pos_site_id
 _symmetry_equiv_pos_as_xyz
  1  'x, y, z'
loop_
 _atom_site_type_symbol
 _atom_site_label
 _atom_site_symmetry_multiplicity
 _atom_site_fract_x
 _atom_site_fract_y
 _atom_site_fract_z
 _atom_site_occupancy
  Ce  Ce0  1  0.413583  0.412878  0.500000  1
  Dy  Dy1  1  0.594188  0.002926  0.500000  1
  Dy  Dy2  1  0.996649  0.590779  0.500000  1
  Sn  Sn3  1  0.748712  0.750256  0.000000  1
  Sn  Sn4  1  0.257671  0.990917  0.000000  1
  Sn  Sn5  1  0.993486  0.258418  0.000000  1
  Ir  Ir6  1  0.655467  0.335286  0.000000  1
  Rh  Rh7  1  0.335249  0.654316  0.000000  1
  Rh  Rh8  1  0.004996  0.004225  0.500000  1
