# generated using pymatgen
data_Yb20PtAu15
_symmetry_space_group_name_H-M   'P 1'
_cell_length_a   7.73635476
_cell_length_b   7.87823175
_cell_length_c   14.99793600
_cell_angle_alpha   90.00000000
_cell_angle_beta   90.00000000
_cell_angle_gamma   89.76978797
_symmetry_Int_Tables_number   1
_chemical_formula_structural   Yb20PtAu15
_chemical_formula_sum   'Yb20 Pt1 Au15'
_cell_volume   914.09875832
_cell_formula_units_Z   1
loop_
 _symmetry_equiv_pos_site_id
 _symmetry_equiv_pos_as_xyz
  1  'x, y, z'
loop_
 _atom_site_type_symbol
 _atom_site_label
 _atom_site_symmetry_multiplicity
 _atom_site_fract_x
 _atom_site_fract_y
 _atom_site_fract_z
 _atom_site_occupancy
  Yb  Yb0  1  0.643952  0.162457  0.619020  1
  Yb  Yb1  1  0.145046  0.337017  0.880636  1
  Yb  Yb2  1  0.353955  0.839588  0.121625  1
  Yb  Yb3  1  0.854096  0.654896  0.376536  1
  Yb  Yb4  1  0.353955  0.839588  0.378375  1
  Yb  Yb5  1  0.854096  0.654896  0.123464  1
  Yb  Yb6  1  0.643952  0.162457  0.880980  1
  Yb  Yb7  1  0.145046  0.337017  0.619364  1
  Yb  Yb8  1  0.487524  0.678757  0.597712  1
  Yb  Yb9  1  0.988260  0.819926  0.904233  1
  Yb  Yb10  1  0.522005  0.324710  0.104576  1
  Yb  Yb11  1  0.006924  0.186058  0.397222  1
  Yb  Yb12  1  0.522005  0.324710  0.395424  1
  Yb  Yb13  1  0.006924  0.186058  0.102778  1
  Yb  Yb14  1  0.487524  0.678757  0.902288  1
  Yb  Yb15  1  0.988260  0.819926  0.595767  1
  Yb  Yb16  1  0.807762  0.505799  0.750000  1
  Yb  Yb17  1  0.307309  0.992840  0.750000  1
  Yb  Yb18  1  0.184826  0.493594  0.250000  1
  Yb  Yb19  1  0.693646  0.011548  0.250000  1
  Pt  Pt20  1  0.819776  0.362255  0.250000  1
  Au  Au21  1  0.693711  0.967348  0.453681  1
  Au  Au22  1  0.197772  0.530086  0.046211  1
  Au  Au23  1  0.307436  0.026609  0.954289  1
  Au  Au24  1  0.806990  0.471847  0.545463  1
  Au  Au25  1  0.307436  0.026609  0.545711  1
  Au  Au26  1  0.806990  0.471847  0.954537  1
  Au  Au27  1  0.693711  0.967348  0.046319  1
  Au  Au28  1  0.197772  0.530086  0.453789  1
  Au  Au29  1  0.443811  0.375567  0.750000  1
  Au  Au30  1  0.943734  0.124107  0.750000  1
  Au  Au31  1  0.552672  0.620117  0.250000  1
  Au  Au32  1  0.053069  0.876536  0.250000  1
  Au  Au33  1  0.681928  0.862405  0.750000  1
  Au  Au34  1  0.179523  0.637657  0.750000  1
  Au  Au35  1  0.316600  0.138976  0.250000  1
