# generated using pymatgen
data_CsBa3USe6
_symmetry_space_group_name_H-M   'P 1'
_cell_length_a   9.18182452
_cell_length_b   9.25768572
_cell_length_c   9.18182446
_cell_angle_alpha   89.39392133
_cell_angle_beta   90.64287890
_cell_angle_gamma   89.39392776
_symmetry_Int_Tables_number   1
_chemical_formula_structural   CsBa3USe6
_chemical_formula_sum   'Cs2 Ba6 U2 Se12'
_cell_volume   780.34008770
_cell_formula_units_Z   2
loop_
 _symmetry_equiv_pos_site_id
 _symmetry_equiv_pos_as_xyz
  1  'x, y, z'
loop_
 _atom_site_type_symbol
 _atom_site_label
 _atom_site_symmetry_multiplicity
 _atom_site_fract_x
 _atom_site_fract_y
 _atom_site_fract_z
 _atom_site_occupancy
  Cs  Cs0  1  0.879808  0.619548  0.250222  1
  Cs  Cs1  1  0.249778  0.880452  0.620192  1
  Ba  Ba2  1  0.621249  0.250000  0.878751  1
  Ba  Ba3  1  0.748013  0.121562  0.372630  1
  Ba  Ba4  1  0.376815  0.750000  0.123185  1
  Ba  Ba5  1  0.127370  0.378438  0.751987  1
  Ba  Ba6  1  0.246055  0.250000  0.253945  1
  Ba  Ba7  1  0.749425  0.750000  0.750575  1
  U  U8  1  0.506625  0.499047  0.502602  1
  U  U9  1  0.997398  0.000953  0.993375  1
  Se  Se10  1  0.221252  0.550677  0.426769  1
  Se  Se11  1  0.435457  0.215055  0.562399  1
  Se  Se12  1  0.553571  0.414187  0.214906  1
  Se  Se13  1  0.908888  0.066018  0.709286  1
  Se  Se14  1  0.704191  0.934683  0.053059  1
  Se  Se15  1  0.063209  0.716305  0.922685  1
  Se  Se16  1  0.790714  0.433982  0.591112  1
  Se  Se17  1  0.577315  0.783695  0.436791  1
  Se  Se18  1  0.446941  0.565317  0.795809  1
  Se  Se19  1  0.073231  0.949323  0.278748  1
  Se  Se20  1  0.285094  0.085813  0.946429  1
  Se  Se21  1  0.937601  0.284945  0.064543  1
