# generated using pymatgen
data_Er20Cd6FeCo
_symmetry_space_group_name_H-M   'P 1'
_cell_length_a   9.47475900
_cell_length_b   9.47476013
_cell_length_c   9.73395900
_cell_angle_alpha   90.00000000
_cell_angle_beta   90.00000000
_cell_angle_gamma   119.99999956
_symmetry_Int_Tables_number   1
_chemical_formula_structural   Er20Cd6FeCo
_chemical_formula_sum   'Er20 Cd6 Fe1 Co1'
_cell_volume   756.75716574
_cell_formula_units_Z   1
loop_
 _symmetry_equiv_pos_site_id
 _symmetry_equiv_pos_as_xyz
  1  'x, y, z'
loop_
 _atom_site_type_symbol
 _atom_site_label
 _atom_site_symmetry_multiplicity
 _atom_site_fract_x
 _atom_site_fract_y
 _atom_site_fract_z
 _atom_site_occupancy
  Er  Er0  1  0.000000  0.000000  0.499793  1
  Er  Er1  1  0.000000  0.000000  0.000207  1
  Er  Er2  1  0.541277  0.458723  0.250000  1
  Er  Er3  1  0.541277  0.082554  0.250000  1
  Er  Er4  1  0.917446  0.458723  0.250000  1
  Er  Er5  1  0.457795  0.542205  0.750000  1
  Er  Er6  1  0.457795  0.915590  0.750000  1
  Er  Er7  1  0.084410  0.542205  0.750000  1
  Er  Er8  1  0.211993  0.788007  0.436480  1
  Er  Er9  1  0.211993  0.423988  0.436480  1
  Er  Er10  1  0.576012  0.788007  0.436480  1
  Er  Er11  1  0.787980  0.212020  0.563635  1
  Er  Er12  1  0.787980  0.575959  0.563635  1
  Er  Er13  1  0.424041  0.212020  0.563635  1
  Er  Er14  1  0.787980  0.212020  0.936365  1
  Er  Er15  1  0.787980  0.575959  0.936365  1
  Er  Er16  1  0.424041  0.212020  0.936365  1
  Er  Er17  1  0.211993  0.788007  0.063520  1
  Er  Er18  1  0.211993  0.423988  0.063520  1
  Er  Er19  1  0.576012  0.788007  0.063520  1
  Cd  Cd20  1  0.885805  0.114195  0.250000  1
  Cd  Cd21  1  0.885805  0.771611  0.250000  1
  Cd  Cd22  1  0.228389  0.114195  0.250000  1
  Cd  Cd23  1  0.113964  0.886036  0.750000  1
  Cd  Cd24  1  0.113964  0.227927  0.750000  1
  Cd  Cd25  1  0.772073  0.886036  0.750000  1
  Fe  Fe26  1  0.333333  0.666667  0.250000  1
  Co  Co27  1  0.666667  0.333333  0.750000  1
