# generated using pymatgen
data_ThCoAs2Ir
_symmetry_space_group_name_H-M   'P 1'
_cell_length_a   4.22919100
_cell_length_b   4.22919100
_cell_length_c   9.69287800
_cell_angle_alpha   90.00000000
_cell_angle_beta   90.00000000
_cell_angle_gamma   90.00000000
_symmetry_Int_Tables_number   1
_chemical_formula_structural   ThCoAs2Ir
_chemical_formula_sum   'Th2 Co2 As4 Ir2'
_cell_volume   173.36736370
_cell_formula_units_Z   2
loop_
 _symmetry_equiv_pos_site_id
 _symmetry_equiv_pos_as_xyz
  1  'x, y, z'
loop_
 _atom_site_type_symbol
 _atom_site_label
 _atom_site_symmetry_multiplicity
 _atom_site_fract_x
 _atom_site_fract_y
 _atom_site_fract_z
 _atom_site_occupancy
  Th  Th0  1  0.000000  0.500000  0.257441  1
  Th  Th1  1  0.500000  0.000000  0.742559  1
  Co  Co2  1  0.000000  0.500000  0.610876  1
  Co  Co3  1  0.500000  0.000000  0.389124  1
  As  As4  1  0.000000  0.000000  0.500000  1
  As  As5  1  0.500000  0.500000  0.500000  1
  As  As6  1  0.000000  0.500000  0.847899  1
  As  As7  1  0.500000  0.000000  0.152101  1
  Ir  Ir8  1  0.000000  0.000000  0.000000  1
  Ir  Ir9  1  0.500000  0.500000  0.000000  1
