# generated using pymatgen
data_La2Cd8Pt3Au
_symmetry_space_group_name_H-M   'P 1'
_cell_length_a   8.60188039
_cell_length_b   8.60187975
_cell_length_c   4.31906000
_cell_angle_alpha   90.00000000
_cell_angle_beta   90.00000000
_cell_angle_gamma   91.49838067
_symmetry_Int_Tables_number   1
_chemical_formula_structural   La2Cd8Pt3Au
_chemical_formula_sum   'La2 Cd8 Pt3 Au1'
_cell_volume   319.46808436
_cell_formula_units_Z   1
loop_
 _symmetry_equiv_pos_site_id
 _symmetry_equiv_pos_as_xyz
  1  'x, y, z'
loop_
 _atom_site_type_symbol
 _atom_site_label
 _atom_site_symmetry_multiplicity
 _atom_site_fract_x
 _atom_site_fract_y
 _atom_site_fract_z
 _atom_site_occupancy
  La  La0  1  0.493922  0.506078  0.500000  1
  La  La1  1  0.012919  0.987081  0.000000  1
  Cd  Cd2  1  0.343227  0.100600  0.500000  1
  Cd  Cd3  1  0.654113  0.898206  0.500000  1
  Cd  Cd4  1  0.840032  0.406492  0.000000  1
  Cd  Cd5  1  0.155565  0.596413  0.000000  1
  Cd  Cd6  1  0.101794  0.345887  0.500000  1
  Cd  Cd7  1  0.899400  0.656773  0.500000  1
  Cd  Cd8  1  0.403587  0.844435  0.000000  1
  Cd  Cd9  1  0.593508  0.159968  0.000000  1
  Pt  Pt10  1  0.187844  0.812156  0.500000  1
  Pt  Pt11  1  0.312787  0.315002  0.000000  1
  Pt  Pt12  1  0.684998  0.687213  0.000000  1
  Au  Au13  1  0.816303  0.183697  0.500000  1
