# generated using pymatgen
data_CaU5(Pb2O9)2
_symmetry_space_group_name_H-M   'P 1'
_cell_length_a   6.99336323
_cell_length_b   7.87078378
_cell_length_c   8.80547130
_cell_angle_alpha   101.98713301
_cell_angle_beta   98.19727398
_cell_angle_gamma   107.19692087
_symmetry_Int_Tables_number   1
_chemical_formula_structural   CaU5(Pb2O9)2
_chemical_formula_sum   'Ca1 U5 Pb4 O18'
_cell_volume   441.99439816
_cell_formula_units_Z   1
loop_
 _symmetry_equiv_pos_site_id
 _symmetry_equiv_pos_as_xyz
  1  'x, y, z'
loop_
 _atom_site_type_symbol
 _atom_site_label
 _atom_site_symmetry_multiplicity
 _atom_site_fract_x
 _atom_site_fract_y
 _atom_site_fract_z
 _atom_site_occupancy
  Ca  Ca0  1  0.192481  0.890574  0.416007  1
  U  U1  1  0.000821  0.001869  0.002343  1
  U  U2  1  0.792528  0.577482  0.584631  1
  U  U3  1  0.615579  0.193834  0.195008  1
  U  U4  1  0.378043  0.803928  0.803086  1
  U  U5  1  0.215565  0.421189  0.416432  1
  Pb  Pb6  1  0.803115  0.108875  0.584655  1
  Pb  Pb7  1  0.592720  0.703629  0.204878  1
  Pb  Pb8  1  0.403099  0.292063  0.797919  1
  Pb  Pb9  1  0.003388  0.503713  0.008647  1
  O  O10  1  0.843395  0.773376  0.462728  1
  O  O11  1  0.029580  0.240215  0.179787  1
  O  O12  1  0.672533  0.389303  0.076544  1
  O  O13  1  0.433671  0.991723  0.673416  1
  O  O14  1  0.859708  0.343055  0.413186  1
  O  O15  1  0.498642  0.390657  0.350284  1
  O  O16  1  0.251964  0.619772  0.297487  1
  O  O17  1  0.997461  0.846235  0.159107  1
  O  O18  1  0.667503  0.954701  0.992766  1
  O  O19  1  0.332565  0.053159  0.003229  1
  O  O20  1  0.010438  0.165081  0.849568  1
  O  O21  1  0.745563  0.387579  0.714858  1
  O  O22  1  0.508036  0.619911  0.641948  1
  O  O23  1  0.135658  0.637369  0.592743  1
  O  O24  1  0.520890  0.999568  0.311098  1
  O  O25  1  0.333549  0.613786  0.925872  1
  O  O26  1  0.976382  0.768528  0.820442  1
  O  O27  1  0.185124  0.208825  0.521331  1
