# generated using pymatgen
data_Ho3Al3CuGePt
_symmetry_space_group_name_H-M   'P 1'
_cell_length_a   6.97105800
_cell_length_b   6.97105722
_cell_length_c   4.15083900
_cell_angle_alpha   90.00000000
_cell_angle_beta   90.00000000
_cell_angle_gamma   119.99999419
_symmetry_Int_Tables_number   1
_chemical_formula_structural   Ho3Al3CuGePt
_chemical_formula_sum   'Ho3 Al3 Cu1 Ge1 Pt1'
_cell_volume   174.68832860
_cell_formula_units_Z   1
loop_
 _symmetry_equiv_pos_site_id
 _symmetry_equiv_pos_as_xyz
  1  'x, y, z'
loop_
 _atom_site_type_symbol
 _atom_site_label
 _atom_site_symmetry_multiplicity
 _atom_site_fract_x
 _atom_site_fract_y
 _atom_site_fract_z
 _atom_site_occupancy
  Ho  Ho0  1  0.421483  0.004670  0.000000  1
  Ho  Ho1  1  0.995330  0.416812  0.000000  1
  Ho  Ho2  1  0.583188  0.578516  0.000000  1
  Al  Al3  1  0.770259  0.016530  0.500001  1
  Al  Al4  1  0.246270  0.229741  0.500001  1
  Al  Al5  1  0.983470  0.753729  0.500001  1
  Cu  Cu6  1  0.666666  0.333333  0.500001  1
  Ge  Ge7  1  0.333333  0.666666  0.500001  1
  Pt  Pt8  1  0.000000  0.000000  0.000000  1
