# generated using pymatgen
data_Nd4Y(SnSb)2
_symmetry_space_group_name_H-M   'P 1'
_cell_length_a   8.30009000
_cell_length_b   8.36946600
_cell_length_c   15.87996000
_cell_angle_alpha   90.00000000
_cell_angle_beta   90.00000000
_cell_angle_gamma   90.00000000
_symmetry_Int_Tables_number   1
_chemical_formula_structural   Nd4Y(SnSb)2
_chemical_formula_sum   'Nd16 Y4 Sn8 Sb8'
_cell_volume   1103.13827961
_cell_formula_units_Z   4
loop_
 _symmetry_equiv_pos_site_id
 _symmetry_equiv_pos_as_xyz
  1  'x, y, z'
loop_
 _atom_site_type_symbol
 _atom_site_label
 _atom_site_symmetry_multiplicity
 _atom_site_fract_x
 _atom_site_fract_y
 _atom_site_fract_z
 _atom_site_occupancy
  Nd  Nd0  1  0.393293  0.837964  0.882892  1
  Nd  Nd1  1  0.893293  0.662036  0.617108  1
  Nd  Nd2  1  0.606707  0.162036  0.382892  1
  Nd  Nd3  1  0.106707  0.337964  0.117108  1
  Nd  Nd4  1  0.606707  0.162036  0.117108  1
  Nd  Nd5  1  0.106707  0.337964  0.382892  1
  Nd  Nd6  1  0.393293  0.837964  0.617108  1
  Nd  Nd7  1  0.893293  0.662036  0.882892  1
  Nd  Nd8  1  0.555778  0.328813  0.892839  1
  Nd  Nd9  1  0.055778  0.171187  0.607161  1
  Nd  Nd10  1  0.444222  0.671187  0.392839  1
  Nd  Nd11  1  0.944222  0.828813  0.107161  1
  Nd  Nd12  1  0.444222  0.671187  0.107161  1
  Nd  Nd13  1  0.944222  0.828813  0.392839  1
  Nd  Nd14  1  0.555778  0.328813  0.607161  1
  Nd  Nd15  1  0.055778  0.171187  0.892839  1
  Y  Y16  1  0.223771  0.498276  0.750000  1
  Y  Y17  1  0.723771  0.001724  0.750000  1
  Y  Y18  1  0.776229  0.501724  0.250000  1
  Y  Y19  1  0.276229  0.998276  0.250000  1
  Sn  Sn20  1  0.590631  0.626054  0.750000  1
  Sn  Sn21  1  0.090631  0.873946  0.750000  1
  Sn  Sn22  1  0.409369  0.373946  0.250000  1
  Sn  Sn23  1  0.909369  0.126054  0.250000  1
  Sn  Sn24  1  0.358194  0.140126  0.750000  1
  Sn  Sn25  1  0.858194  0.359874  0.750000  1
  Sn  Sn26  1  0.641806  0.859874  0.250000  1
  Sn  Sn27  1  0.141806  0.640126  0.250000  1
  Sb  Sb28  1  0.266604  0.015619  0.049921  1
  Sb  Sb29  1  0.766604  0.484381  0.450079  1
  Sb  Sb30  1  0.733396  0.984381  0.549921  1
  Sb  Sb31  1  0.233396  0.515619  0.950079  1
  Sb  Sb32  1  0.733396  0.984381  0.950079  1
  Sb  Sb33  1  0.233396  0.515619  0.549921  1
  Sb  Sb34  1  0.266604  0.015619  0.450079  1
  Sb  Sb35  1  0.766604  0.484381  0.049921  1
