# generated using pymatgen
data_Cs(WO3)4
_symmetry_space_group_name_H-M   'P 1'
_cell_length_a   7.51551756
_cell_length_b   7.51551756
_cell_length_c   15.45914900
_cell_angle_alpha   90.00000000
_cell_angle_beta   90.00000000
_cell_angle_gamma   119.99999611
_symmetry_Int_Tables_number   1
_chemical_formula_structural   Cs(WO3)4
_chemical_formula_sum   'Cs3 W12 O36'
_cell_volume   756.19537926
_cell_formula_units_Z   3
loop_
 _symmetry_equiv_pos_site_id
 _symmetry_equiv_pos_as_xyz
  1  'x, y, z'
loop_
 _atom_site_type_symbol
 _atom_site_label
 _atom_site_symmetry_multiplicity
 _atom_site_fract_x
 _atom_site_fract_y
 _atom_site_fract_z
 _atom_site_occupancy
  Cs  Cs0  1  0.000000  0.000000  0.233137  1
  Cs  Cs1  1  0.000000  0.000000  0.502943  1
  Cs  Cs2  1  0.000000  0.000000  0.771585  1
  W  W3  1  0.000017  0.500009  0.377451  1
  W  W4  1  0.999961  0.499980  0.878263  1
  W  W5  1  0.999882  0.499942  0.127137  1
  W  W6  1  0.000139  0.500069  0.627971  1
  W  W7  1  0.500020  0.499980  0.878263  1
  W  W8  1  0.499991  0.500009  0.377451  1
  W  W9  1  0.499931  0.500069  0.627971  1
  W  W10  1  0.500058  0.499942  0.127137  1
  W  W11  1  0.499931  0.999861  0.627971  1
  W  W12  1  0.500058  0.000118  0.127137  1
  W  W13  1  0.500020  0.000039  0.878263  1
  W  W14  1  0.499991  0.999983  0.377451  1
  O  O15  1  0.989070  0.494535  0.002745  1
  O  O16  1  0.989896  0.494947  0.502752  1
  O  O17  1  0.212233  0.787767  0.125763  1
  O  O18  1  0.210811  0.789189  0.624424  1
  O  O19  1  0.212417  0.787583  0.879712  1
  O  O20  1  0.211043  0.788957  0.381201  1
  O  O21  1  0.212417  0.424833  0.879712  1
  O  O22  1  0.211043  0.422086  0.381201  1
  O  O23  1  0.210811  0.421621  0.624424  1
  O  O24  1  0.212233  0.424465  0.125763  1
  O  O25  1  0.505465  0.010930  0.002745  1
  O  O26  1  0.505053  0.010104  0.502752  1
  O  O27  1  0.575167  0.787583  0.879712  1
  O  O28  1  0.577914  0.788957  0.381201  1
  O  O29  1  0.575535  0.787767  0.125763  1
  O  O30  1  0.578379  0.789189  0.624424  1
  O  O31  1  0.505053  0.494947  0.502752  1
  O  O32  1  0.505465  0.494535  0.002745  1
  O  O33  1  0.494848  0.505152  0.253210  1
  O  O34  1  0.494704  0.505296  0.752262  1
  O  O35  1  0.421886  0.210944  0.375063  1
  O  O36  1  0.424221  0.212111  0.873569  1
  O  O37  1  0.424221  0.212111  0.131904  1
  O  O38  1  0.422377  0.211188  0.630569  1
  O  O39  1  0.494848  0.989696  0.253210  1
  O  O40  1  0.494704  0.989408  0.752262  1
  O  O41  1  0.789056  0.578114  0.375063  1
  O  O42  1  0.787889  0.575779  0.873569  1
  O  O43  1  0.787889  0.575779  0.131904  1
  O  O44  1  0.788812  0.577623  0.630569  1
  O  O45  1  0.787889  0.212111  0.131904  1
  O  O46  1  0.788812  0.211188  0.630569  1
  O  O47  1  0.789056  0.210944  0.375063  1
  O  O48  1  0.787889  0.212111  0.873569  1
  O  O49  1  0.010304  0.505152  0.253210  1
  O  O50  1  0.010592  0.505296  0.752262  1
