# generated using pymatgen
data_La4Ho6OsRu3
_symmetry_space_group_name_H-M   'P 1'
_cell_length_a   6.50966071
_cell_length_b   7.28630494
_cell_length_c   8.78424629
_cell_angle_alpha   96.50618603
_cell_angle_beta   112.15596746
_cell_angle_gamma   89.94805702
_symmetry_Int_Tables_number   1
_chemical_formula_structural   La4Ho6OsRu3
_chemical_formula_sum   'La4 Ho6 Os1 Ru3'
_cell_volume   383.00230209
_cell_formula_units_Z   1
loop_
 _symmetry_equiv_pos_site_id
 _symmetry_equiv_pos_as_xyz
  1  'x, y, z'
loop_
 _atom_site_type_symbol
 _atom_site_label
 _atom_site_symmetry_multiplicity
 _atom_site_fract_x
 _atom_site_fract_y
 _atom_site_fract_z
 _atom_site_occupancy
  La  La0  1  0.981963  0.914548  0.194468  1
  La  La1  1  0.783943  0.589767  0.804788  1
  La  La2  1  0.019983  0.089612  0.805411  1
  La  La3  1  0.216386  0.411116  0.195326  1
  Ho  Ho4  1  0.636465  0.813552  0.429667  1
  Ho  Ho5  1  0.202722  0.683155  0.567268  1
  Ho  Ho6  1  0.365421  0.185052  0.569864  1
  Ho  Ho7  1  0.794995  0.315986  0.430860  1
  Ho  Ho8  1  0.429125  0.749050  0.000728  1
  Ho  Ho9  1  0.573803  0.252503  0.001465  1
  Os  Os10  1  0.821551  0.578223  0.225533  1
  Ru  Ru11  1  0.601503  0.919757  0.775484  1
  Ru  Ru12  1  0.172874  0.417265  0.774784  1
  Ru  Ru13  1  0.399266  0.080413  0.224355  1
