# generated using pymatgen
data_HoAs4(Ru2Rh)2
_symmetry_space_group_name_H-M   'P 1'
_cell_length_a   7.17523412
_cell_length_b   7.20227360
_cell_length_c   3.86958900
_cell_angle_alpha   90.00000000
_cell_angle_beta   90.00000000
_cell_angle_gamma   120.12473450
_symmetry_Int_Tables_number   1
_chemical_formula_structural   HoAs4(Ru2Rh)2
_chemical_formula_sum   'Ho1 As4 Ru4 Rh2'
_cell_volume   172.96328375
_cell_formula_units_Z   1
loop_
 _symmetry_equiv_pos_site_id
 _symmetry_equiv_pos_as_xyz
  1  'x, y, z'
loop_
 _atom_site_type_symbol
 _atom_site_label
 _atom_site_symmetry_multiplicity
 _atom_site_fract_x
 _atom_site_fract_y
 _atom_site_fract_z
 _atom_site_occupancy
  Ho  Ho0  1  0.331189  0.665595  0.000000  1
  As  As1  1  0.671607  0.335804  0.000000  1
  As  As2  1  0.720625  0.860313  0.500000  1
  As  As3  1  0.138861  0.282116  0.500000  1
  As  As4  1  0.138861  0.856747  0.500000  1
  Ru  Ru5  1  0.267129  0.133565  0.000000  1
  Ru  Ru6  1  0.867500  0.735724  0.000000  1
  Ru  Ru7  1  0.867500  0.131776  0.000000  1
  Ru  Ru8  1  0.934578  0.467290  0.500000  1
  Rh  Rh9  1  0.531074  0.060374  0.500000  1
  Rh  Rh10  1  0.531074  0.470699  0.500000  1
