# generated using pymatgen
data_ErLu4(Hg2Pd)2
_symmetry_space_group_name_H-M   'P 1'
_cell_length_a   3.54997600
_cell_length_b   7.89728400
_cell_length_c   18.07385400
_cell_angle_alpha   90.00000000
_cell_angle_beta   90.00000000
_cell_angle_gamma   90.00000000
_symmetry_Int_Tables_number   1
_chemical_formula_structural   ErLu4(Hg2Pd)2
_chemical_formula_sum   'Er2 Lu8 Hg8 Pd4'
_cell_volume   506.70354532
_cell_formula_units_Z   2
loop_
 _symmetry_equiv_pos_site_id
 _symmetry_equiv_pos_as_xyz
  1  'x, y, z'
loop_
 _atom_site_type_symbol
 _atom_site_label
 _atom_site_symmetry_multiplicity
 _atom_site_fract_x
 _atom_site_fract_y
 _atom_site_fract_z
 _atom_site_occupancy
  Er  Er0  1  0.000000  0.000000  0.000000  1
  Er  Er1  1  0.000000  0.500000  0.500000  1
  Lu  Lu2  1  0.000000  0.114456  0.415428  1
  Lu  Lu3  1  0.000000  0.885544  0.584572  1
  Lu  Lu4  1  0.000000  0.385544  0.915428  1
  Lu  Lu5  1  0.000000  0.614456  0.084572  1
  Lu  Lu6  1  0.000000  0.240114  0.214981  1
  Lu  Lu7  1  0.000000  0.759886  0.785019  1
  Lu  Lu8  1  0.000000  0.259886  0.714981  1
  Lu  Lu9  1  0.000000  0.740114  0.285019  1
  Hg  Hg10  1  0.500000  0.419849  0.352963  1
  Hg  Hg11  1  0.500000  0.580151  0.647037  1
  Hg  Hg12  1  0.500000  0.080151  0.852963  1
  Hg  Hg13  1  0.500000  0.919849  0.147037  1
  Hg  Hg14  1  0.500000  0.292020  0.063412  1
  Hg  Hg15  1  0.500000  0.707980  0.936588  1
  Hg  Hg16  1  0.500000  0.207980  0.563412  1
  Hg  Hg17  1  0.500000  0.792020  0.436588  1
  Pd  Pd18  1  0.500000  0.028709  0.302774  1
  Pd  Pd19  1  0.500000  0.971291  0.697226  1
  Pd  Pd20  1  0.500000  0.471291  0.802774  1
  Pd  Pd21  1  0.500000  0.528709  0.197226  1
