# generated using pymatgen
data_Tb5Mg3(Ni4As3)4
_symmetry_space_group_name_H-M   'P 1'
_cell_length_a   12.67243212
_cell_length_b   12.67243309
_cell_length_c   3.94126500
_cell_angle_alpha   90.00000000
_cell_angle_beta   90.00000000
_cell_angle_gamma   120.02142358
_symmetry_Int_Tables_number   1
_chemical_formula_structural   Tb5Mg3(Ni4As3)4
_chemical_formula_sum   'Tb5 Mg3 Ni16 As12'
_cell_volume   548.01500999
_cell_formula_units_Z   1
loop_
 _symmetry_equiv_pos_site_id
 _symmetry_equiv_pos_as_xyz
  1  'x, y, z'
loop_
 _atom_site_type_symbol
 _atom_site_label
 _atom_site_symmetry_multiplicity
 _atom_site_fract_x
 _atom_site_fract_y
 _atom_site_fract_z
 _atom_site_occupancy
  Tb  Tb0  1  0.666734  0.333278  0.000000  1
  Tb  Tb1  1  0.333278  0.666734  0.000000  1
  Tb  Tb2  1  0.185882  0.999816  0.500000  1
  Tb  Tb3  1  0.999816  0.185882  0.500000  1
  Tb  Tb4  1  0.814090  0.814090  0.500000  1
  Mg  Mg5  1  0.566222  0.000020  0.000000  1
  Mg  Mg6  1  0.433874  0.433874  0.000000  1
  Mg  Mg7  1  0.000020  0.566222  0.000000  1
  Ni  Ni8  1  0.999960  0.999960  0.000000  1
  Ni  Ni9  1  0.803781  0.182812  0.000000  1
  Ni  Ni10  1  0.379181  0.196345  0.000000  1
  Ni  Ni11  1  0.196345  0.379181  0.000000  1
  Ni  Ni12  1  0.817193  0.620920  0.000000  1
  Ni  Ni13  1  0.182811  0.803781  0.000000  1
  Ni  Ni14  1  0.620920  0.817193  0.000000  1
  Ni  Ni15  1  0.719647  0.999970  0.500000  1
  Ni  Ni16  1  0.483082  0.119110  0.500000  1
  Ni  Ni17  1  0.280327  0.280327  0.500000  1
  Ni  Ni18  1  0.880869  0.363925  0.500000  1
  Ni  Ni19  1  0.119109  0.483082  0.500000  1
  Ni  Ni20  1  0.636065  0.516910  0.500000  1
  Ni  Ni21  1  0.516909  0.636065  0.500000  1
  Ni  Ni22  1  0.999970  0.719647  0.500000  1
  Ni  Ni23  1  0.363925  0.880869  0.500000  1
  As  As24  1  0.359409  0.000001  0.000000  1
  As  As25  1  0.822616  0.999998  0.000000  1
  As  As26  1  0.177417  0.177417  0.000000  1
  As  As27  1  0.000001  0.359409  0.000000  1
  As  As28  1  0.640612  0.640612  0.000000  1
  As  As29  1  0.999998  0.822615  0.000000  1
  As  As30  1  0.694429  0.173552  0.500000  1
  As  As31  1  0.479164  0.305601  0.500000  1
  As  As32  1  0.305601  0.479164  0.500000  1
  As  As33  1  0.826428  0.520833  0.500000  1
  As  As34  1  0.173552  0.694429  0.500000  1
  As  As35  1  0.520832  0.826428  0.500000  1
