# generated using pymatgen
data_Tm4Sc2Fe4Si5Ge
_symmetry_space_group_name_H-M   'P 1'
_cell_length_a   5.51983976
_cell_length_b   5.51984079
_cell_length_c   13.22084700
_cell_angle_alpha   90.00000000
_cell_angle_beta   90.00000000
_cell_angle_gamma   137.06038713
_symmetry_Int_Tables_number   1
_chemical_formula_structural   Tm4Sc2Fe4Si5Ge
_chemical_formula_sum   'Tm4 Sc2 Fe4 Si5 Ge1'
_cell_volume   274.41273395
_cell_formula_units_Z   1
loop_
 _symmetry_equiv_pos_site_id
 _symmetry_equiv_pos_as_xyz
  1  'x, y, z'
loop_
 _atom_site_type_symbol
 _atom_site_label
 _atom_site_symmetry_multiplicity
 _atom_site_fract_x
 _atom_site_fract_y
 _atom_site_fract_z
 _atom_site_occupancy
  Tm  Tm0  1  0.921993  0.078007  0.111484  1
  Tm  Tm1  1  0.078461  0.921539  0.885678  1
  Tm  Tm2  1  0.078461  0.921539  0.614322  1
  Tm  Tm3  1  0.921993  0.078007  0.388516  1
  Sc  Sc4  1  0.642221  0.357779  0.250000  1
  Sc  Sc5  1  0.357755  0.642245  0.750000  1
  Fe  Fe6  1  0.785246  0.214754  0.582844  1
  Fe  Fe7  1  0.212631  0.787369  0.420617  1
  Fe  Fe8  1  0.212631  0.787369  0.079383  1
  Fe  Fe9  1  0.785246  0.214754  0.917156  1
  Si  Si10  1  0.679351  0.320649  0.750000  1
  Si  Si11  1  0.622378  0.377622  0.041335  1
  Si  Si12  1  0.376492  0.623508  0.957143  1
  Si  Si13  1  0.376492  0.623508  0.542857  1
  Si  Si14  1  0.622378  0.377622  0.458665  1
  Ge  Ge15  1  0.326271  0.673729  0.250000  1
