# generated using pymatgen
data_Se9N2
_symmetry_space_group_name_H-M   'P 1'
_cell_length_a   7.96675952
_cell_length_b   7.85708384
_cell_length_c   9.53654831
_cell_angle_alpha   112.54154436
_cell_angle_beta   102.90188108
_cell_angle_gamma   102.70048009
_symmetry_Int_Tables_number   1
_chemical_formula_structural   Se9N2
_chemical_formula_sum   'Se9 N2'
_cell_volume   505.54304049
_cell_formula_units_Z   1
loop_
 _symmetry_equiv_pos_site_id
 _symmetry_equiv_pos_as_xyz
  1  'x, y, z'
loop_
 _atom_site_type_symbol
 _atom_site_label
 _atom_site_symmetry_multiplicity
 _atom_site_fract_x
 _atom_site_fract_y
 _atom_site_fract_z
 _atom_site_occupancy
  Se  Se0  1  0.594220  0.703741  0.599003  1
  Se  Se1  1  0.498154  0.365822  0.481078  1
  Se  Se2  1  0.725896  0.406712  0.936612  1
  Se  Se3  1  0.394181  0.897707  0.090811  1
  Se  Se4  1  0.421981  0.820177  0.457911  1
  Se  Se5  1  0.536534  0.246143  0.197575  1
  Se  Se6  1  0.818833  0.301931  0.130668  1
  Se  Se7  1  0.607348  0.806946  0.232486  1
  Se  Se8  1  0.822752  0.745893  0.073241  1
  N  N9  1  0.143185  0.377533  0.753655  1
  N  N10  1  0.088533  0.298487  0.619210  1
