# generated using pymatgen
data_Li(CrN)2
_symmetry_space_group_name_H-M   'P 1'
_cell_length_a   5.54518709
_cell_length_b   5.54518671
_cell_length_c   5.30781074
_cell_angle_alpha   52.13127925
_cell_angle_beta   52.13128415
_cell_angle_gamma   50.32466833
_symmetry_Int_Tables_number   1
_chemical_formula_structural   Li(CrN)2
_chemical_formula_sum   'Li2 Cr4 N4'
_cell_volume   92.31307597
_cell_formula_units_Z   2
loop_
 _symmetry_equiv_pos_site_id
 _symmetry_equiv_pos_as_xyz
  1  'x, y, z'
loop_
 _atom_site_type_symbol
 _atom_site_label
 _atom_site_symmetry_multiplicity
 _atom_site_fract_x
 _atom_site_fract_y
 _atom_site_fract_z
 _atom_site_occupancy
  Li  Li0  1  0.748123  0.421125  0.079794  1
  Li  Li1  1  0.078875  0.751877  0.420206  1
  Cr  Cr2  1  0.442934  0.057066  0.750000  1
  Cr  Cr3  1  0.565899  0.934101  0.250000  1
  Cr  Cr4  1  0.248115  0.571843  0.928264  1
  Cr  Cr5  1  0.928157  0.251885  0.571736  1
  N  N6  1  0.331977  0.328235  0.354003  1
  N  N7  1  0.845652  0.861496  0.830901  1
  N  N8  1  0.638504  0.654348  0.669099  1
  N  N9  1  0.171765  0.168023  0.145997  1
