# generated using pymatgen
data_MoCl30
_symmetry_space_group_name_H-M   'P 1'
_cell_length_a   13.78048066
_cell_length_b   13.78048007
_cell_length_c   16.13290528
_cell_angle_alpha   83.86162945
_cell_angle_beta   83.86162779
_cell_angle_gamma   125.03673631
_symmetry_Int_Tables_number   1
_chemical_formula_structural   MoCl30
_chemical_formula_sum   'Mo1 Cl30'
_cell_volume   2440.20654929
_cell_formula_units_Z   1
loop_
 _symmetry_equiv_pos_site_id
 _symmetry_equiv_pos_as_xyz
  1  'x, y, z'
loop_
 _atom_site_type_symbol
 _atom_site_label
 _atom_site_symmetry_multiplicity
 _atom_site_fract_x
 _atom_site_fract_y
 _atom_site_fract_z
 _atom_site_occupancy
  Mo  Mo0  1  0.000000  0.000000  0.000000  1
  Cl  Cl1  1  0.946839  0.946839  0.149359  1
  Cl  Cl2  1  0.053161  0.053161  0.850641  1
  Cl  Cl3  1  0.058891  0.192298  0.005264  1
  Cl  Cl4  1  0.941109  0.807702  0.994736  1
  Cl  Cl5  1  0.192298  0.058891  0.005264  1
  Cl  Cl6  1  0.807702  0.941109  0.994736  1
  Cl  Cl7  1  0.203669  0.743505  0.063694  1
  Cl  Cl8  1  0.796331  0.256495  0.936306  1
  Cl  Cl9  1  0.701109  0.076611  0.263376  1
  Cl  Cl10  1  0.256495  0.796331  0.936306  1
  Cl  Cl11  1  0.298891  0.923389  0.736624  1
  Cl  Cl12  1  0.743505  0.203669  0.063694  1
  Cl  Cl13  1  0.976611  0.198774  0.781678  1
  Cl  Cl14  1  0.923389  0.298891  0.736624  1
  Cl  Cl15  1  0.023389  0.801226  0.218322  1
  Cl  Cl16  1  0.076611  0.701109  0.263376  1
  Cl  Cl17  1  0.801226  0.023389  0.218322  1
  Cl  Cl18  1  0.198774  0.976611  0.781678  1
  Cl  Cl19  1  0.464750  0.546384  0.258910  1
  Cl  Cl20  1  0.535250  0.453616  0.741090  1
  Cl  Cl21  1  0.507947  0.206394  0.451180  1
  Cl  Cl22  1  0.453616  0.535250  0.741090  1
  Cl  Cl23  1  0.492053  0.793606  0.548820  1
  Cl  Cl24  1  0.546384  0.464750  0.258910  1
  Cl  Cl25  1  0.240159  0.429691  0.543463  1
  Cl  Cl26  1  0.793606  0.492053  0.548820  1
  Cl  Cl27  1  0.759841  0.570309  0.456537  1
  Cl  Cl28  1  0.206394  0.507947  0.451180  1
  Cl  Cl29  1  0.570309  0.759841  0.456537  1
  Cl  Cl30  1  0.429691  0.240159  0.543463  1
