# generated using pymatgen
data_K5CeUF13
_symmetry_space_group_name_H-M   'P 1'
_cell_length_a   7.34999264
_cell_length_b   7.34999145
_cell_length_c   9.57671800
_cell_angle_alpha   83.21706022
_cell_angle_beta   83.21706132
_cell_angle_gamma   51.31296626
_symmetry_Int_Tables_number   1
_chemical_formula_structural   K5CeUF13
_chemical_formula_sum   'K5 Ce1 U1 F13'
_cell_volume   400.35290511
_cell_formula_units_Z   1
loop_
 _symmetry_equiv_pos_site_id
 _symmetry_equiv_pos_as_xyz
  1  'x, y, z'
loop_
 _atom_site_type_symbol
 _atom_site_label
 _atom_site_symmetry_multiplicity
 _atom_site_fract_x
 _atom_site_fract_y
 _atom_site_fract_z
 _atom_site_occupancy
  K  K0  1  0.222838  0.222838  0.845091  1
  K  K1  1  0.776352  0.776352  0.141463  1
  K  K2  1  0.501127  0.501127  0.980434  1
  K  K3  1  0.662101  0.662101  0.580621  1
  K  K4  1  0.342922  0.342922  0.436584  1
  Ce  Ce5  1  0.926655  0.926655  0.742981  1
  U  U6  1  0.070988  0.070988  0.267652  1
  F  F7  1  0.047481  0.597734  0.642817  1
  F  F8  1  0.597734  0.047481  0.642817  1
  F  F9  1  0.957071  0.396668  0.352012  1
  F  F10  1  0.396668  0.957071  0.352012  1
  F  F11  1  0.647171  0.080807  0.922361  1
  F  F12  1  0.080807  0.647171  0.922361  1
  F  F13  1  0.336559  0.923169  0.085317  1
  F  F14  1  0.923169  0.336559  0.085317  1
  F  F15  1  0.284125  0.827633  0.751854  1
  F  F16  1  0.827633  0.284125  0.751854  1
  F  F17  1  0.725997  0.168325  0.252346  1
  F  F18  1  0.168325  0.725997  0.252346  1
  F  F19  1  0.004275  0.004275  0.491763  1
