# generated using pymatgen
data_Sm4Ga4HgRu3
_symmetry_space_group_name_H-M   'P 1'
_cell_length_a   4.64590500
_cell_length_b   7.35314716
_cell_length_c   7.35572496
_cell_angle_alpha   91.05210746
_cell_angle_beta   90.00000000
_cell_angle_gamma   90.00000000
_symmetry_Int_Tables_number   1
_chemical_formula_structural   Sm4Ga4HgRu3
_chemical_formula_sum   'Sm4 Ga4 Hg1 Ru3'
_cell_volume   251.24408185
_cell_formula_units_Z   1
loop_
 _symmetry_equiv_pos_site_id
 _symmetry_equiv_pos_as_xyz
  1  'x, y, z'
loop_
 _atom_site_type_symbol
 _atom_site_label
 _atom_site_symmetry_multiplicity
 _atom_site_fract_x
 _atom_site_fract_y
 _atom_site_fract_z
 _atom_site_occupancy
  Sm  Sm0  1  0.250000  0.013992  0.313157  1
  Sm  Sm1  1  0.250000  0.530783  0.199975  1
  Sm  Sm2  1  0.750000  0.964628  0.687820  1
  Sm  Sm3  1  0.750000  0.496069  0.796820  1
  Ga  Ga4  1  0.250000  0.697074  0.602111  1
  Ga  Ga5  1  0.250000  0.185092  0.858697  1
  Ga  Ga6  1  0.750000  0.300253  0.425707  1
  Ga  Ga7  1  0.750000  0.794455  0.105533  1
  Hg  Hg8  1  0.750000  0.178372  0.073350  1
  Ru  Ru9  1  0.250000  0.346064  0.558918  1
  Ru  Ru10  1  0.250000  0.838783  0.940672  1
  Ru  Ru11  1  0.750000  0.654436  0.437239  1
