# generated using pymatgen
data_Nd2Be(SiIr2)3
_symmetry_space_group_name_H-M   'P 1'
_cell_length_a   6.65297040
_cell_length_b   6.67383321
_cell_length_c   6.65297039
_cell_angle_alpha   130.43180978
_cell_angle_beta   114.58008091
_cell_angle_gamma   86.19661175
_symmetry_Int_Tables_number   1
_chemical_formula_structural   Nd2Be(SiIr2)3
_chemical_formula_sum   'Nd2 Be1 Si3 Ir6'
_cell_volume   195.44393122
_cell_formula_units_Z   1
loop_
 _symmetry_equiv_pos_site_id
 _symmetry_equiv_pos_as_xyz
  1  'x, y, z'
loop_
 _atom_site_type_symbol
 _atom_site_label
 _atom_site_symmetry_multiplicity
 _atom_site_fract_x
 _atom_site_fract_y
 _atom_site_fract_z
 _atom_site_occupancy
  Nd  Nd0  1  0.245666  0.981946  0.736280  1
  Nd  Nd1  1  0.755153  0.033028  0.277874  1
  Be  Be2  1  0.072969  0.274940  0.201972  1
  Si  Si3  1  0.915174  0.707005  0.791831  1
  Si  Si4  1  0.425350  0.630950  0.205601  1
  Si  Si5  1  0.583671  0.373528  0.789856  1
  Ir  Ir6  1  0.486413  0.499366  0.489216  1
  Ir  Ir7  1  0.010150  0.499366  0.012953  1
  Ir  Ir8  1  0.273001  0.000659  0.273785  1
  Ir  Ir9  1  0.726874  0.000659  0.727658  1
  Ir  Ir10  1  0.224371  0.499277  0.718069  1
  Ir  Ir11  1  0.781208  0.499277  0.274906  1
