# generated using pymatgen
data_Rb12Na8Si4AsP11
_symmetry_space_group_name_H-M   'P 1'
_cell_length_a   10.50363083
_cell_length_b   10.49643597
_cell_length_c   15.30806608
_cell_angle_alpha   89.99142062
_cell_angle_beta   90.00203987
_cell_angle_gamma   142.54958678
_symmetry_Int_Tables_number   1
_chemical_formula_structural   Rb12Na8Si4AsP11
_chemical_formula_sum   'Rb12 Na8 Si4 As1 P11'
_cell_volume   1026.26256209
_cell_formula_units_Z   1
loop_
 _symmetry_equiv_pos_site_id
 _symmetry_equiv_pos_as_xyz
  1  'x, y, z'
loop_
 _atom_site_type_symbol
 _atom_site_label
 _atom_site_symmetry_multiplicity
 _atom_site_fract_x
 _atom_site_fract_y
 _atom_site_fract_z
 _atom_site_occupancy
  Rb  Rb0  1  0.937435  0.608562  0.827427  1
  Rb  Rb1  1  0.563244  0.892453  0.327856  1
  Rb  Rb2  1  0.389176  0.059819  0.174035  1
  Rb  Rb3  1  0.063430  0.391836  0.172735  1
  Rb  Rb4  1  0.891768  0.562773  0.330287  1
  Rb  Rb5  1  0.436775  0.108267  0.671863  1
  Rb  Rb6  1  0.608312  0.936271  0.826681  1
  Rb  Rb7  1  0.264209  0.263553  0.318941  1
  Rb  Rb8  1  0.762374  0.765138  0.182287  1
  Rb  Rb9  1  0.235022  0.235667  0.817485  1
  Rb  Rb10  1  0.735876  0.735796  0.680769  1
  Rb  Rb11  1  0.108292  0.436867  0.672024  1
  Na  Na12  1  0.921202  0.077819  0.999701  1
  Na  Na13  1  0.578164  0.422222  0.500337  1
  Na  Na14  1  0.079418  0.924347  0.998937  1
  Na  Na15  1  0.422001  0.578230  0.500005  1
  Na  Na16  1  0.754115  0.241010  0.998812  1
  Na  Na17  1  0.744937  0.255001  0.500348  1
  Na  Na18  1  0.248835  0.757391  0.999050  1
  Na  Na19  1  0.254918  0.744725  0.500277  1
  Si  Si20  1  0.577949  0.413578  0.998156  1
  Si  Si21  1  0.916461  0.083801  0.500189  1
  Si  Si22  1  0.415643  0.584004  0.999313  1
  Si  Si23  1  0.083896  0.916505  0.500442  1
  As  As24  1  0.854653  0.549942  0.094684  1
  P  P25  1  0.453139  0.153707  0.908830  1
  P  P26  1  0.652776  0.952808  0.589979  1
  P  P27  1  0.952490  0.652420  0.590137  1
  P  P28  1  0.152867  0.452690  0.908937  1
  P  P29  1  0.547720  0.847594  0.089124  1
  P  P30  1  0.347667  0.047866  0.411039  1
  P  P31  1  0.178943  0.179141  0.577920  1
  P  P32  1  0.678108  0.678679  0.921412  1
  P  P33  1  0.319583  0.321014  0.076972  1
  P  P34  1  0.047340  0.347158  0.410346  1
  P  P35  1  0.821263  0.821346  0.422661  1
