# generated using pymatgen
data_K12Li8Zr(SiP4)3
_symmetry_space_group_name_H-M   'P 1'
_cell_length_a   9.77471727
_cell_length_b   9.77471575
_cell_length_c   14.77538842
_cell_angle_alpha   89.96324311
_cell_angle_beta   89.96323937
_cell_angle_gamma   142.95129383
_symmetry_Int_Tables_number   1
_chemical_formula_structural   K12Li8Zr(SiP4)3
_chemical_formula_sum   'K12 Li8 Zr1 Si3 P12'
_cell_volume   850.54810466
_cell_formula_units_Z   1
loop_
 _symmetry_equiv_pos_site_id
 _symmetry_equiv_pos_as_xyz
  1  'x, y, z'
loop_
 _atom_site_type_symbol
 _atom_site_label
 _atom_site_symmetry_multiplicity
 _atom_site_fract_x
 _atom_site_fract_y
 _atom_site_fract_z
 _atom_site_occupancy
  K  K0  1  0.107291  0.443263  0.666202  1
  K  K1  1  0.721002  0.720905  0.674271  1
  K  K2  1  0.213390  0.219066  0.817589  1
  K  K3  1  0.780934  0.786610  0.182411  1
  K  K4  1  0.953740  0.603787  0.824172  1
  K  K5  1  0.556737  0.892709  0.333798  1
  K  K6  1  0.396213  0.046260  0.175828  1
  K  K7  1  0.057251  0.395373  0.171778  1
  K  K8  1  0.894567  0.557436  0.332837  1
  K  K9  1  0.442564  0.105433  0.667163  1
  K  K10  1  0.604627  0.942750  0.828222  1
  K  K11  1  0.279095  0.278998  0.325729  1
  Li  Li12  1  0.914897  0.085103  0.000000  1
  Li  Li13  1  0.580973  0.419027  0.500000  1
  Li  Li14  1  0.080965  0.919035  0.000000  1
  Li  Li15  1  0.419295  0.580705  0.500000  1
  Li  Li16  1  0.755168  0.244832  0.000000  1
  Li  Li17  1  0.747526  0.252474  0.500000  1
  Li  Li18  1  0.249898  0.750102  0.000000  1
  Li  Li19  1  0.252316  0.747684  0.500000  1
  Zr  Zr20  1  0.583029  0.416971  0.000000  1
  Si  Si21  1  0.087031  0.912969  0.500000  1
  Si  Si22  1  0.412695  0.587305  0.000000  1
  Si  Si23  1  0.913059  0.086941  0.500000  1
  P  P24  1  0.895756  0.571237  0.096091  1
  P  P25  1  0.428763  0.104244  0.903909  1
  P  P26  1  0.622840  0.937497  0.587024  1
  P  P27  1  0.937251  0.622434  0.586987  1
  P  P28  1  0.125017  0.438400  0.911051  1
  P  P29  1  0.561600  0.874983  0.088949  1
  P  P30  1  0.377566  0.062749  0.413013  1
  P  P31  1  0.201508  0.201439  0.579983  1
  P  P32  1  0.713894  0.729523  0.911414  1
  P  P33  1  0.270477  0.286106  0.088586  1
  P  P34  1  0.062503  0.377160  0.412976  1
  P  P35  1  0.798561  0.798492  0.420017  1
