# generated using pymatgen
data_Li12Y3Ho9(WO6)8
_symmetry_space_group_name_H-M   'P 1'
_cell_length_a   10.66128671
_cell_length_b   10.66628930
_cell_length_c   10.66628515
_cell_angle_alpha   109.48067986
_cell_angle_beta   109.46167789
_cell_angle_gamma   109.46181515
_symmetry_Int_Tables_number   1
_chemical_formula_structural   Li12Y3Ho9(WO6)8
_chemical_formula_sum   'Li12 Y3 Ho9 W8 O48'
_cell_volume   933.82418402
_cell_formula_units_Z   1
loop_
 _symmetry_equiv_pos_site_id
 _symmetry_equiv_pos_as_xyz
  1  'x, y, z'
loop_
 _atom_site_type_symbol
 _atom_site_label
 _atom_site_symmetry_multiplicity
 _atom_site_fract_x
 _atom_site_fract_y
 _atom_site_fract_z
 _atom_site_occupancy
  Li  Li0  1  0.750015  0.375202  0.125180  1
  Li  Li1  1  0.875165  0.749978  0.125180  1
  Li  Li2  1  0.125173  0.375199  0.250195  1
  Li  Li3  1  0.625022  0.874996  0.250195  1
  Li  Li4  1  0.250015  0.125008  0.375023  1
  Li  Li5  1  0.625008  0.250015  0.375023  1
  Li  Li6  1  0.374824  0.749812  0.624622  1
  Li  Li7  1  0.749798  0.874810  0.624622  1
  Li  Li8  1  0.374997  0.125190  0.749985  1
  Li  Li9  1  0.874988  0.624795  0.749985  1
  Li  Li10  1  0.249799  0.624795  0.874986  1
  Li  Li11  1  0.125188  0.250191  0.874986  1
  Y  Y12  1  0.125002  0.875002  0.750005  1
  Y  Y13  1  0.624925  0.749780  0.875043  1
  Y  Y14  1  0.750118  0.125262  0.875043  1
  Ho  Ho15  1  0.375145  0.250219  0.125263  1
  Ho  Ho16  1  0.250118  0.875044  0.125263  1
  Ho  Ho17  1  0.875211  0.125211  0.250422  1
  Ho  Ho18  1  0.375000  0.625000  0.250001  1
  Ho  Ho19  1  0.749780  0.624858  0.374735  1
  Ho  Ho20  1  0.124955  0.749877  0.374735  1
  Ho  Ho21  1  0.875074  0.250121  0.624849  1
  Ho  Ho22  1  0.249775  0.374728  0.624849  1
  Ho  Ho23  1  0.624882  0.374882  0.749763  1
  W  W24  1  0.000738  0.000386  0.000916  1
  W  W25  1  0.500178  0.000530  0.000916  1
  W  W26  1  0.000286  0.500493  0.000093  1
  W  W27  1  0.499808  0.499600  0.000093  1
  W  W28  1  0.999844  0.000062  0.499571  1
  W  W29  1  0.499753  0.999942  0.499451  1
  W  W30  1  0.999727  0.499509  0.499571  1
  W  W31  1  0.499699  0.499509  0.499451  1
  O  O32  1  0.202161  0.619778  0.028379  1
  O  O33  1  0.326218  0.408601  0.028379  1
  O  O34  1  0.702184  0.174260  0.083738  1
  O  O35  1  0.881554  0.909478  0.083738  1
  O  O36  1  0.619821  0.918398  0.092321  1
  O  O37  1  0.972500  0.173923  0.092321  1
  O  O38  1  0.028451  0.702246  0.119726  1
  O  O39  1  0.591274  0.417479  0.119726  1
  O  O40  1  0.202585  0.082614  0.174043  1
  O  O41  1  0.471458  0.091429  0.174043  1
  O  O42  1  0.119506  0.528184  0.201859  1
  O  O43  1  0.582353  0.673675  0.201859  1
  O  O44  1  0.326175  0.417415  0.297733  1
  O  O45  1  0.471558  0.880318  0.297733  1
  O  O46  1  0.917530  0.797929  0.326133  1
  O  O47  1  0.908603  0.528204  0.326133  1
  O  O48  1  0.582290  0.408480  0.380131  1
  O  O49  1  0.297841  0.971652  0.380131  1
  O  O50  1  0.826225  0.028347  0.408530  1
  O  O51  1  0.082305  0.380183  0.408530  1
  O  O52  1  0.091309  0.119721  0.417493  1
  O  O53  1  0.826185  0.297772  0.417493  1
  O  O54  1  0.591236  0.673622  0.471778  1
  O  O55  1  0.380543  0.798156  0.471778  1
  O  O56  1  0.619596  0.202050  0.528165  1
  O  O57  1  0.408569  0.326115  0.528165  1
  O  O58  1  0.173688  0.701122  0.581584  1
  O  O59  1  0.907896  0.880461  0.581584  1
  O  O60  1  0.916518  0.618299  0.590541  1
  O  O61  1  0.174023  0.972241  0.590541  1
  O  O62  1  0.701746  0.027757  0.618246  1
  O  O63  1  0.416499  0.590489  0.618246  1
  O  O64  1  0.082371  0.201825  0.673638  1
  O  O65  1  0.091269  0.471814  0.673639  1
  O  O66  1  0.527406  0.119575  0.701087  1
  O  O67  1  0.673680  0.581512  0.701087  1
  O  O68  1  0.880448  0.471795  0.797962  1
  O  O69  1  0.417513  0.326166  0.797962  1
  O  O70  1  0.526894  0.908699  0.826068  1
  O  O71  1  0.799174  0.917368  0.826068  1
  O  O72  1  0.972607  0.298899  0.880465  1
  O  O73  1  0.407858  0.581566  0.880465  1
  O  O74  1  0.381652  0.083647  0.909596  1
  O  O75  1  0.027945  0.825949  0.909596  1
  O  O76  1  0.298765  0.826284  0.918498  1
  O  O77  1  0.119733  0.092214  0.918498  1
  O  O78  1  0.798255  0.381662  0.972270  1
  O  O79  1  0.674016  0.590609  0.972271  1
