# generated using pymatgen
data_Tb3Ho17(Bi2As)4
_symmetry_space_group_name_H-M   'P 1'
_cell_length_a   8.03482652
_cell_length_b   9.13407700
_cell_length_c   12.04063979
_cell_angle_alpha   90.00000000
_cell_angle_beta   90.04142213
_cell_angle_gamma   90.00000000
_symmetry_Int_Tables_number   1
_chemical_formula_structural   Tb3Ho17(Bi2As)4
_chemical_formula_sum   'Tb3 Ho17 Bi8 As4'
_cell_volume   883.67104237
_cell_formula_units_Z   1
loop_
 _symmetry_equiv_pos_site_id
 _symmetry_equiv_pos_as_xyz
  1  'x, y, z'
loop_
 _atom_site_type_symbol
 _atom_site_label
 _atom_site_symmetry_multiplicity
 _atom_site_fract_x
 _atom_site_fract_y
 _atom_site_fract_z
 _atom_site_occupancy
  Tb  Tb0  1  0.156575  0.750000  0.211213  1
  Tb  Tb1  1  0.343449  0.750000  0.711181  1
  Tb  Tb2  1  0.843449  0.250000  0.788867  1
  Ho  Ho3  1  0.817145  0.556098  0.062842  1
  Ho  Ho4  1  0.682897  0.943758  0.562791  1
  Ho  Ho5  1  0.182859  0.056183  0.937214  1
  Ho  Ho6  1  0.317103  0.443833  0.437169  1
  Ho  Ho7  1  0.182859  0.443817  0.937214  1
  Ho  Ho8  1  0.317103  0.056167  0.437169  1
  Ho  Ho9  1  0.817145  0.943902  0.062842  1
  Ho  Ho10  1  0.682897  0.556242  0.562791  1
  Ho  Ho11  1  0.656193  0.250000  0.289179  1
  Ho  Ho12  1  0.463861  0.750000  0.999935  1
  Ho  Ho13  1  0.036200  0.750000  0.499894  1
  Ho  Ho14  1  0.536387  0.250000  0.000167  1
  Ho  Ho15  1  0.963731  0.250000  0.500025  1
  Ho  Ho16  1  0.634297  0.750000  0.292801  1
  Ho  Ho17  1  0.865564  0.750000  0.792773  1
  Ho  Ho18  1  0.365668  0.250000  0.707226  1
  Ho  Ho19  1  0.134131  0.250000  0.207265  1
  Bi  Bi20  1  0.925221  0.509677  0.327034  1
  Bi  Bi21  1  0.574421  0.990127  0.827090  1
  Bi  Bi22  1  0.074419  0.009884  0.672877  1
  Bi  Bi23  1  0.425955  0.489814  0.173089  1
  Bi  Bi24  1  0.074419  0.490116  0.672877  1
  Bi  Bi25  1  0.425955  0.010186  0.173089  1
  Bi  Bi26  1  0.925221  0.990323  0.327034  1
  Bi  Bi27  1  0.574421  0.509873  0.827090  1
  As  As28  1  0.412954  0.750000  0.477848  1
  As  As29  1  0.087032  0.750000  0.977914  1
  As  As30  1  0.587348  0.250000  0.521500  1
  As  As31  1  0.913119  0.250000  0.022001  1
