# generated using pymatgen
data_LuSc3CoOs7
_symmetry_space_group_name_H-M   'P 1'
_cell_length_a   5.16218838
_cell_length_b   5.16218752
_cell_length_c   8.56890400
_cell_angle_alpha   90.13525410
_cell_angle_beta   89.86474592
_cell_angle_gamma   119.75247999
_symmetry_Int_Tables_number   1
_chemical_formula_structural   LuSc3CoOs7
_chemical_formula_sum   'Lu1 Sc3 Co1 Os7'
_cell_volume   198.24385275
_cell_formula_units_Z   1
loop_
 _symmetry_equiv_pos_site_id
 _symmetry_equiv_pos_as_xyz
  1  'x, y, z'
loop_
 _atom_site_type_symbol
 _atom_site_label
 _atom_site_symmetry_multiplicity
 _atom_site_fract_x
 _atom_site_fract_y
 _atom_site_fract_z
 _atom_site_occupancy
  Lu  Lu0  1  0.333560  0.666440  0.066766  1
  Sc  Sc1  1  0.333967  0.666033  0.435457  1
  Sc  Sc2  1  0.668987  0.331013  0.563281  1
  Sc  Sc3  1  0.668715  0.331285  0.933288  1
  Co  Co4  1  0.826464  0.173536  0.252269  1
  Os  Os5  1  0.003671  0.996329  0.495821  1
  Os  Os6  1  0.003823  0.996177  0.004153  1
  Os  Os7  1  0.822899  0.654607  0.251777  1
  Os  Os8  1  0.345393  0.177101  0.251777  1
  Os  Os9  1  0.167766  0.832234  0.748522  1
  Os  Os10  1  0.171634  0.346880  0.748445  1
  Os  Os11  1  0.653120  0.828366  0.748445  1
