# generated using pymatgen
data_Dy3Ho(Ga3Ir)6
_symmetry_space_group_name_H-M   'P 1'
_cell_length_a   7.58676500
_cell_length_b   7.58615346
_cell_length_c   9.48726000
_cell_angle_alpha   90.00000000
_cell_angle_beta   90.00000000
_cell_angle_gamma   119.96528074
_symmetry_Int_Tables_number   1
_chemical_formula_structural   Dy3Ho(Ga3Ir)6
_chemical_formula_sum   'Dy3 Ho1 Ga18 Ir6'
_cell_volume   473.04398390
_cell_formula_units_Z   1
loop_
 _symmetry_equiv_pos_site_id
 _symmetry_equiv_pos_as_xyz
  1  'x, y, z'
loop_
 _atom_site_type_symbol
 _atom_site_label
 _atom_site_symmetry_multiplicity
 _atom_site_fract_x
 _atom_site_fract_y
 _atom_site_fract_z
 _atom_site_occupancy
  Dy  Dy0  1  0.002694  0.331889  0.750000  1
  Dy  Dy1  1  0.667973  0.997094  0.250000  1
  Dy  Dy2  1  0.331884  0.002731  0.750000  1
  Ho  Ho3  1  0.997144  0.667994  0.250000  1
  Ga  Ga4  1  0.126655  0.126558  0.250000  1
  Ga  Ga5  1  0.873339  0.873334  0.750000  1
  Ga  Ga6  1  0.999322  0.334173  0.080044  1
  Ga  Ga7  1  0.000754  0.666029  0.920008  1
  Ga  Ga8  1  0.000754  0.666029  0.579992  1
  Ga  Ga9  1  0.333782  0.999155  0.419949  1
  Ga  Ga10  1  0.999322  0.334173  0.419956  1
  Ga  Ga11  1  0.666041  0.000754  0.580118  1
  Ga  Ga12  1  0.666041  0.000754  0.919882  1
  Ga  Ga13  1  0.333782  0.999155  0.080051  1
  Ga  Ga14  1  0.332636  0.332640  0.563925  1
  Ga  Ga15  1  0.667493  0.667314  0.436299  1
  Ga  Ga16  1  0.667493  0.667314  0.063701  1
  Ga  Ga17  1  0.332636  0.332640  0.936075  1
  Ga  Ga18  1  0.339014  0.546385  0.250000  1
  Ga  Ga19  1  0.660949  0.453624  0.750000  1
  Ga  Ga20  1  0.546510  0.339230  0.250000  1
  Ga  Ga21  1  0.453558  0.660900  0.750000  1
  Ir  Ir22  1  0.671630  0.328554  0.000181  1
  Ir  Ir23  1  0.328501  0.671610  0.000183  1
  Ir  Ir24  1  0.328501  0.671610  0.499817  1
  Ir  Ir25  1  0.671630  0.328554  0.499819  1
  Ir  Ir26  1  0.999982  0.999901  0.000144  1
  Ir  Ir27  1  0.999982  0.999901  0.499856  1
