# generated using pymatgen
data_Eu3YSnW3O14
_symmetry_space_group_name_H-M   'P 1'
_cell_length_a   7.52420354
_cell_length_b   7.51291614
_cell_length_c   7.52420418
_cell_angle_alpha   59.98234025
_cell_angle_beta   60.22155736
_cell_angle_gamma   59.98233318
_symmetry_Int_Tables_number   1
_chemical_formula_structural   Eu3YSnW3O14
_chemical_formula_sum   'Eu3 Y1 Sn1 W3 O14'
_cell_volume   301.17587392
_cell_formula_units_Z   1
loop_
 _symmetry_equiv_pos_site_id
 _symmetry_equiv_pos_as_xyz
  1  'x, y, z'
loop_
 _atom_site_type_symbol
 _atom_site_label
 _atom_site_symmetry_multiplicity
 _atom_site_fract_x
 _atom_site_fract_y
 _atom_site_fract_z
 _atom_site_occupancy
  Eu  Eu0  1  0.125000  0.125000  0.125000  1
  Eu  Eu1  1  0.625000  0.125000  0.125000  1
  Eu  Eu2  1  0.125000  0.125000  0.625000  1
  Y  Y3  1  0.125000  0.625000  0.125000  1
  Sn  Sn4  1  0.625000  0.625000  0.625000  1
  W  W5  1  0.125000  0.625000  0.625000  1
  W  W6  1  0.625000  0.125000  0.625000  1
  W  W7  1  0.625000  0.625000  0.125000  1
  O  O8  1  0.948068  0.558877  0.948068  1
  O  O9  1  0.704887  0.308949  0.291530  1
  O  O10  1  0.290290  0.695698  0.713692  1
  O  O11  1  0.705491  0.291489  0.705491  1
  O  O12  1  0.291530  0.308949  0.704887  1
  O  O13  1  0.713692  0.695698  0.290290  1
  O  O14  1  0.958470  0.941051  0.545113  1
  O  O15  1  0.545113  0.941051  0.958470  1
  O  O16  1  0.959710  0.554302  0.536308  1
  O  O17  1  0.536308  0.554302  0.959710  1
  O  O18  1  0.301932  0.691123  0.301932  1
  O  O19  1  0.544509  0.958511  0.544509  1
  O  O20  1  0.006446  0.983162  0.006446  1
  O  O21  1  0.243554  0.266838  0.243554  1
