# generated using pymatgen
data_Mg2ScNb(B4Ru5)2
_symmetry_space_group_name_H-M   'P 1'
_cell_length_a   2.96255200
_cell_length_b   8.52865575
_cell_length_c   10.06518351
_cell_angle_alpha   91.56761819
_cell_angle_beta   90.00000000
_cell_angle_gamma   90.00000000
_symmetry_Int_Tables_number   1
_chemical_formula_structural   Mg2ScNb(B4Ru5)2
_chemical_formula_sum   'Mg2 Sc1 Nb1 B8 Ru10'
_cell_volume   254.21764608
_cell_formula_units_Z   1
loop_
 _symmetry_equiv_pos_site_id
 _symmetry_equiv_pos_as_xyz
  1  'x, y, z'
loop_
 _atom_site_type_symbol
 _atom_site_label
 _atom_site_symmetry_multiplicity
 _atom_site_fract_x
 _atom_site_fract_y
 _atom_site_fract_z
 _atom_site_occupancy
  Mg  Mg0  1  0.500000  0.154421  0.677271  1
  Mg  Mg1  1  0.500000  0.849384  0.315990  1
  Sc  Sc2  1  0.500000  0.344235  0.185508  1
  Nb  Nb3  1  0.500000  0.656803  0.818359  1
  B  B4  1  0.500000  0.856813  0.597599  1
  B  B5  1  0.500000  0.143436  0.397442  1
  B  B6  1  0.500000  0.347991  0.898420  1
  B  B7  1  0.500000  0.649378  0.107657  1
  B  B8  1  0.500000  0.964361  0.910699  1
  B  B9  1  0.500000  0.036158  0.086758  1
  B  B10  1  0.500000  0.460572  0.589599  1
  B  B11  1  0.500000  0.535993  0.413182  1
  Ru  Ru12  1  0.000000  0.401617  0.739324  1
  Ru  Ru13  1  0.000000  0.601356  0.265374  1
  Ru  Ru14  1  0.000000  0.903099  0.761138  1
  Ru  Ru15  1  0.000000  0.096522  0.235810  1
  Ru  Ru16  1  0.000000  0.999824  0.498700  1
  Ru  Ru17  1  0.000000  0.502428  0.998962  1
  Ru  Ru18  1  0.000000  0.657521  0.555191  1
  Ru  Ru19  1  0.000000  0.342245  0.451583  1
  Ru  Ru20  1  0.000000  0.162494  0.952776  1
  Ru  Ru21  1  0.000000  0.833351  0.042660  1
