# generated using pymatgen
data_La2BeSi8Ni17
_symmetry_space_group_name_H-M   'P 1'
_cell_length_a   7.80701924
_cell_length_b   7.80701859
_cell_length_c   8.00314030
_cell_angle_alpha   120.07840955
_cell_angle_beta   120.07840678
_cell_angle_gamma   88.42130493
_symmetry_Int_Tables_number   1
_chemical_formula_structural   La2BeSi8Ni17
_chemical_formula_sum   'La2 Be1 Si8 Ni17'
_cell_volume   348.59224672
_cell_formula_units_Z   1
loop_
 _symmetry_equiv_pos_site_id
 _symmetry_equiv_pos_as_xyz
  1  'x, y, z'
loop_
 _atom_site_type_symbol
 _atom_site_label
 _atom_site_symmetry_multiplicity
 _atom_site_fract_x
 _atom_site_fract_y
 _atom_site_fract_z
 _atom_site_occupancy
  La  La0  1  0.250000  0.250000  0.500000  1
  La  La1  1  0.749999  0.749999  0.500000  1
  Be  Be2  1  0.000000  0.499999  0.000000  1
  Si  Si3  1  0.444387  0.290365  0.234753  1
  Si  Si4  1  0.944323  0.444322  0.233411  1
  Si  Si5  1  0.289088  0.789089  0.233411  1
  Si  Si6  1  0.790366  0.944388  0.234753  1
  Si  Si7  1  0.209634  0.055612  0.765246  1
  Si  Si8  1  0.710911  0.210911  0.766588  1
  Si  Si9  1  0.055677  0.555677  0.766588  1
  Si  Si10  1  0.555612  0.709634  0.765246  1
  Ni  Ni11  1  0.499999  0.000000  0.000000  1
  Ni  Ni12  1  0.798115  0.064601  0.000000  1
  Ni  Ni13  1  0.061520  0.216806  0.000000  1
  Ni  Ni14  1  0.564601  0.298116  0.000000  1
  Ni  Ni15  1  0.283194  0.438480  0.000000  1
  Ni  Ni16  1  0.716806  0.561520  0.000000  1
  Ni  Ni17  1  0.435399  0.701884  0.000000  1
  Ni  Ni18  1  0.938479  0.783193  0.000000  1
  Ni  Ni19  1  0.201884  0.935398  0.000000  1
  Ni  Ni20  1  0.553540  0.053541  0.369001  1
  Ni  Ni21  1  0.815462  0.315462  0.369001  1
  Ni  Ni22  1  0.308388  0.558629  0.367017  1
  Ni  Ni23  1  0.058630  0.808388  0.367017  1
  Ni  Ni24  1  0.941371  0.191612  0.632982  1
  Ni  Ni25  1  0.691611  0.441370  0.632982  1
  Ni  Ni26  1  0.184538  0.684537  0.630998  1
  Ni  Ni27  1  0.446459  0.946460  0.630998  1
