# generated using pymatgen
data_KCe2SbS8
_symmetry_space_group_name_H-M   'P 1'
_cell_length_a   6.86576972
_cell_length_b   6.86576987
_cell_length_c   7.48185100
_cell_angle_alpha   99.25985484
_cell_angle_beta   99.25984660
_cell_angle_gamma   107.80863254
_symmetry_Int_Tables_number   1
_chemical_formula_structural   KCe2SbS8
_chemical_formula_sum   'K1 Ce2 Sb1 S8'
_cell_volume   323.01811003
_cell_formula_units_Z   1
loop_
 _symmetry_equiv_pos_site_id
 _symmetry_equiv_pos_as_xyz
  1  'x, y, z'
loop_
 _atom_site_type_symbol
 _atom_site_label
 _atom_site_symmetry_multiplicity
 _atom_site_fract_x
 _atom_site_fract_y
 _atom_site_fract_z
 _atom_site_occupancy
  K  K0  1  0.539316  0.539316  0.155259  1
  Ce  Ce1  1  0.923257  0.422623  0.692006  1
  Ce  Ce2  1  0.422623  0.923257  0.692006  1
  Sb  Sb3  1  0.996707  0.996707  0.986161  1
  S  S4  1  0.698309  0.028581  0.451174  1
  S  S5  1  0.028581  0.698309  0.451174  1
  S  S6  1  0.512699  0.214630  0.462250  1
  S  S7  1  0.214630  0.512699  0.462250  1
  S  S8  1  0.701002  0.701002  0.780777  1
  S  S9  1  0.190250  0.190250  0.783180  1
  S  S10  1  0.746714  0.229214  0.949535  1
  S  S11  1  0.229214  0.746714  0.949535  1
