# generated using pymatgen
data_Tb2Ho10Tc3Rh
_symmetry_space_group_name_H-M   'P 1'
_cell_length_a   6.28013702
_cell_length_b   7.37656104
_cell_length_c   9.12109900
_cell_angle_alpha   90.00000000
_cell_angle_beta   90.00000000
_cell_angle_gamma   89.91052054
_symmetry_Int_Tables_number   1
_chemical_formula_structural   Tb2Ho10Tc3Rh
_chemical_formula_sum   'Tb2 Ho10 Tc3 Rh1'
_cell_volume   422.54182151
_cell_formula_units_Z   1
loop_
 _symmetry_equiv_pos_site_id
 _symmetry_equiv_pos_as_xyz
  1  'x, y, z'
loop_
 _atom_site_type_symbol
 _atom_site_label
 _atom_site_symmetry_multiplicity
 _atom_site_fract_x
 _atom_site_fract_y
 _atom_site_fract_z
 _atom_site_occupancy
  Tb  Tb0  1  0.130218  0.457017  0.750000  1
  Tb  Tb1  1  0.372494  0.959034  0.750000  1
  Ho  Ho2  1  0.332631  0.676808  0.066170  1
  Ho  Ho3  1  0.162359  0.176474  0.435915  1
  Ho  Ho4  1  0.663135  0.321198  0.560855  1
  Ho  Ho5  1  0.837776  0.825878  0.939056  1
  Ho  Ho6  1  0.663135  0.321198  0.939145  1
  Ho  Ho7  1  0.837776  0.825878  0.560944  1
  Ho  Ho8  1  0.332631  0.676808  0.433830  1
  Ho  Ho9  1  0.162359  0.176474  0.064085  1
  Ho  Ho10  1  0.873463  0.541412  0.250000  1
  Ho  Ho11  1  0.624070  0.038446  0.250000  1
  Tc  Tc12  1  0.039543  0.884439  0.250000  1
  Tc  Tc13  1  0.462909  0.386840  0.250000  1
  Tc  Tc14  1  0.959207  0.116747  0.750000  1
  Rh  Rh15  1  0.546296  0.615345  0.750000  1
