# generated using pymatgen
data_Nd3Cd2Sb3O14
_symmetry_space_group_name_H-M   'P 1'
_cell_length_a   7.44409959
_cell_length_b   7.44409352
_cell_length_c   7.44409564
_cell_angle_alpha   118.02597300
_cell_angle_beta   61.97405453
_cell_angle_gamma   118.02594635
_symmetry_Int_Tables_number   1
_chemical_formula_structural   Nd3Cd2Sb3O14
_chemical_formula_sum   'Nd3 Cd2 Sb3 O14'
_cell_volume   304.57145301
_cell_formula_units_Z   1
loop_
 _symmetry_equiv_pos_site_id
 _symmetry_equiv_pos_as_xyz
  1  'x, y, z'
loop_
 _atom_site_type_symbol
 _atom_site_label
 _atom_site_symmetry_multiplicity
 _atom_site_fract_x
 _atom_site_fract_y
 _atom_site_fract_z
 _atom_site_occupancy
  Nd  Nd0  1  0.999999  0.500001  0.000001  1
  Nd  Nd1  1  0.500000  0.000001  0.999998  1
  Nd  Nd2  1  0.499998  0.500001  0.500000  1
  Cd  Cd3  1  0.500001  0.500004  0.000000  1
  Cd  Cd4  1  0.000002  0.999999  0.500001  1
  Sb  Sb5  1  0.500001  0.000000  0.499999  1
  Sb  Sb6  1  0.000000  0.499999  0.500001  1
  Sb  Sb7  1  0.000000  0.000000  0.000000  1
  O  O8  1  0.619855  0.380146  0.119855  1
  O  O9  1  0.380142  0.619856  0.880144  1
  O  O10  1  0.077851  0.315975  0.184024  1
  O  O11  1  0.684023  0.922146  0.184023  1
  O  O12  1  0.684023  0.315976  0.577852  1
  O  O13  1  0.922149  0.684024  0.815976  1
  O  O14  1  0.315976  0.077849  0.815976  1
  O  O15  1  0.315977  0.684023  0.422149  1
  O  O16  1  0.633304  0.902451  0.597548  1
  O  O17  1  0.097549  0.366697  0.597549  1
  O  O18  1  0.097548  0.902451  0.133304  1
  O  O19  1  0.366700  0.097549  0.402450  1
  O  O20  1  0.902451  0.633302  0.402451  1
  O  O21  1  0.902451  0.097549  0.866699  1
