# generated using pymatgen
data_Pr5CoSn2
_symmetry_space_group_name_H-M   'P 1'
_cell_length_a   8.25035300
_cell_length_b   9.22050200
_cell_length_c   12.72325000
_cell_angle_alpha   90.00000000
_cell_angle_beta   90.00000000
_cell_angle_gamma   90.00000000
_symmetry_Int_Tables_number   1
_chemical_formula_structural   Pr5CoSn2
_chemical_formula_sum   'Pr20 Co4 Sn8'
_cell_volume   967.88811670
_cell_formula_units_Z   4
loop_
 _symmetry_equiv_pos_site_id
 _symmetry_equiv_pos_as_xyz
  1  'x, y, z'
loop_
 _atom_site_type_symbol
 _atom_site_label
 _atom_site_symmetry_multiplicity
 _atom_site_fract_x
 _atom_site_fract_y
 _atom_site_fract_z
 _atom_site_occupancy
  Pr  Pr0  1  0.839510  0.750000  0.792965  1
  Pr  Pr1  1  0.160498  0.250000  0.207034  1
  Pr  Pr2  1  0.339502  0.250000  0.707034  1
  Pr  Pr3  1  0.660490  0.750000  0.292965  1
  Pr  Pr4  1  0.366723  0.750000  0.692404  1
  Pr  Pr5  1  0.633293  0.250000  0.307603  1
  Pr  Pr6  1  0.866707  0.250000  0.807603  1
  Pr  Pr7  1  0.133277  0.750000  0.192404  1
  Pr  Pr8  1  0.949056  0.750000  0.501352  1
  Pr  Pr9  1  0.050952  0.250000  0.498648  1
  Pr  Pr10  1  0.449048  0.250000  0.998648  1
  Pr  Pr11  1  0.550944  0.750000  0.001352  1
  Pr  Pr12  1  0.676729  0.027471  0.571290  1
  Pr  Pr13  1  0.323263  0.972512  0.428699  1
  Pr  Pr14  1  0.176737  0.972512  0.928699  1
  Pr  Pr15  1  0.323263  0.527488  0.428699  1
  Pr  Pr16  1  0.823271  0.027471  0.071290  1
  Pr  Pr17  1  0.676729  0.472529  0.571290  1
  Pr  Pr18  1  0.823271  0.472529  0.071290  1
  Pr  Pr19  1  0.176737  0.527488  0.928699  1
  Co  Co20  1  0.581090  0.750000  0.509489  1
  Co  Co21  1  0.418931  0.250000  0.490522  1
  Co  Co22  1  0.081069  0.250000  0.990522  1
  Co  Co23  1  0.918910  0.750000  0.009489  1
  Sn  Sn24  1  0.561615  0.495368  0.826948  1
  Sn  Sn25  1  0.438383  0.504627  0.173053  1
  Sn  Sn26  1  0.061617  0.504627  0.673053  1
  Sn  Sn27  1  0.438383  0.995373  0.173053  1
  Sn  Sn28  1  0.938385  0.495368  0.326948  1
  Sn  Sn29  1  0.561615  0.004632  0.826948  1
  Sn  Sn30  1  0.938385  0.004632  0.326948  1
  Sn  Sn31  1  0.061617  0.995373  0.673053  1
