# generated using pymatgen
data_SmCo2(Sn3Ru)2
_symmetry_space_group_name_H-M   'P 1'
_cell_length_a   6.75516601
_cell_length_b   6.75516573
_cell_length_c   6.88462417
_cell_angle_alpha   119.75753110
_cell_angle_beta   119.75752190
_cell_angle_gamma   89.33050026
_symmetry_Int_Tables_number   1
_chemical_formula_structural   SmCo2(Sn3Ru)2
_chemical_formula_sum   'Sm1 Co2 Sn6 Ru2'
_cell_volume   224.99989783
_cell_formula_units_Z   1
loop_
 _symmetry_equiv_pos_site_id
 _symmetry_equiv_pos_as_xyz
  1  'x, y, z'
loop_
 _atom_site_type_symbol
 _atom_site_label
 _atom_site_symmetry_multiplicity
 _atom_site_fract_x
 _atom_site_fract_y
 _atom_site_fract_z
 _atom_site_occupancy
  Sm  Sm0  1  0.009727  0.009727  0.000000  1
  Co  Co1  1  0.392667  0.392667  0.638064  1
  Co  Co2  1  0.754604  0.754604  0.361936  1
  Sn  Sn3  1  0.001120  0.501120  0.500000  1
  Sn  Sn4  1  0.475940  0.475940  0.367785  1
  Sn  Sn5  1  0.538502  0.872008  0.000000  1
  Sn  Sn6  1  0.872008  0.538502  0.000000  1
  Sn  Sn7  1  0.108156  0.108156  0.632215  1
  Sn  Sn8  1  0.501120  0.001120  0.500000  1
  Ru  Ru9  1  0.259145  0.587011  0.000000  1
  Ru  Ru10  1  0.587011  0.259145  0.000000  1
