# generated using pymatgen
data_HoTm5LuCo17P12
_symmetry_space_group_name_H-M   'P 1'
_cell_length_a   3.69241200
_cell_length_b   10.56459700
_cell_length_c   12.26318400
_cell_angle_alpha   90.00000000
_cell_angle_beta   90.00000000
_cell_angle_gamma   90.00000000
_symmetry_Int_Tables_number   1
_chemical_formula_structural   HoTm5LuCo17P12
_chemical_formula_sum   'Ho1 Tm5 Lu1 Co17 P12'
_cell_volume   478.37264065
_cell_formula_units_Z   1
loop_
 _symmetry_equiv_pos_site_id
 _symmetry_equiv_pos_as_xyz
  1  'x, y, z'
loop_
 _atom_site_type_symbol
 _atom_site_label
 _atom_site_symmetry_multiplicity
 _atom_site_fract_x
 _atom_site_fract_y
 _atom_site_fract_z
 _atom_site_occupancy
  Ho  Ho0  1  0.500000  0.000000  0.477130  1
  Tm  Tm1  1  0.000000  0.500000  0.531234  1
  Tm  Tm2  1  0.500000  0.823171  0.207795  1
  Tm  Tm3  1  0.500000  0.176829  0.207795  1
  Tm  Tm4  1  0.000000  0.682628  0.795405  1
  Tm  Tm5  1  0.000000  0.317372  0.795405  1
  Lu  Lu6  1  0.500000  0.500000  0.155101  1
  Co  Co7  1  0.000000  0.000000  0.834776  1
  Co  Co8  1  0.500000  0.500000  0.703272  1
  Co  Co9  1  0.000000  0.000000  0.294895  1
  Co  Co10  1  0.000000  0.500000  0.982292  1
  Co  Co11  1  0.500000  0.000000  0.013264  1
  Co  Co12  1  0.500000  0.324747  0.986931  1
  Co  Co13  1  0.500000  0.675253  0.986931  1
  Co  Co14  1  0.000000  0.160204  0.999406  1
  Co  Co15  1  0.000000  0.839796  0.999406  1
  Co  Co16  1  0.500000  0.293786  0.436150  1
  Co  Co17  1  0.500000  0.706214  0.436150  1
  Co  Co18  1  0.000000  0.201707  0.570989  1
  Co  Co19  1  0.000000  0.798293  0.570989  1
  Co  Co20  1  0.500000  0.879967  0.707112  1
  Co  Co21  1  0.500000  0.120033  0.707112  1
  Co  Co22  1  0.000000  0.623620  0.301086  1
  Co  Co23  1  0.000000  0.376380  0.301086  1
  P  P24  1  0.500000  0.500000  0.881493  1
  P  P25  1  0.000000  0.000000  0.116221  1
  P  P26  1  0.500000  0.500000  0.365045  1
  P  P27  1  0.000000  0.000000  0.653240  1
  P  P28  1  0.500000  0.309787  0.619149  1
  P  P29  1  0.500000  0.690213  0.619149  1
  P  P30  1  0.000000  0.187430  0.386358  1
  P  P31  1  0.000000  0.812570  0.386358  1
  P  P32  1  0.500000  0.852782  0.886702  1
  P  P33  1  0.500000  0.147218  0.886702  1
  P  P34  1  0.000000  0.668230  0.098937  1
  P  P35  1  0.000000  0.331770  0.098937  1
