# generated using pymatgen
data_Y4Er4Si12PtRh3
_symmetry_space_group_name_H-M   'P 1'
_cell_length_a   8.17118304
_cell_length_b   8.17429464
_cell_length_c   7.89391900
_cell_angle_alpha   89.99999987
_cell_angle_beta   90.00298882
_cell_angle_gamma   120.01259304
_symmetry_Int_Tables_number   1
_chemical_formula_structural   Y4Er4Si12PtRh3
_chemical_formula_sum   'Y4 Er4 Si12 Pt1 Rh3'
_cell_volume   456.56582415
_cell_formula_units_Z   1
loop_
 _symmetry_equiv_pos_site_id
 _symmetry_equiv_pos_as_xyz
  1  'x, y, z'
loop_
 _atom_site_type_symbol
 _atom_site_label
 _atom_site_symmetry_multiplicity
 _atom_site_fract_x
 _atom_site_fract_y
 _atom_site_fract_z
 _atom_site_occupancy
  Y  Y0  1  0.000118  0.000059  0.249488  1
  Y  Y1  1  0.000202  0.000101  0.751173  1
  Y  Y2  1  0.490069  0.509780  0.247897  1
  Y  Y3  1  0.490069  0.980289  0.247897  1
  Er  Er4  1  0.018057  0.509028  0.247726  1
  Er  Er5  1  0.508430  0.491505  0.751975  1
  Er  Er6  1  0.983052  0.491526  0.752075  1
  Er  Er7  1  0.508430  0.016925  0.751975  1
  Si  Si8  1  0.835650  0.164566  0.501454  1
  Si  Si9  1  0.835650  0.671085  0.501454  1
  Si  Si10  1  0.329385  0.164693  0.501737  1
  Si  Si11  1  0.833204  0.167066  0.998988  1
  Si  Si12  1  0.833204  0.666138  0.998988  1
  Si  Si13  1  0.334323  0.167162  0.998644  1
  Si  Si14  1  0.167143  0.832442  0.999410  1
  Si  Si15  1  0.665341  0.832671  0.998278  1
  Si  Si16  1  0.167143  0.334700  0.999410  1
  Si  Si17  1  0.168032  0.831553  0.500113  1
  Si  Si18  1  0.663529  0.831765  0.501263  1
  Si  Si19  1  0.168032  0.336479  0.500113  1
  Pt  Pt20  1  0.667773  0.333886  0.469708  1
  Rh  Rh21  1  0.667719  0.333859  0.030232  1
  Rh  Rh22  1  0.332744  0.666372  0.960814  1
  Rh  Rh23  1  0.332702  0.666351  0.539187  1
