# generated using pymatgen
data_Ce2ThCo2CuSb4
_symmetry_space_group_name_H-M   'P 1'
_cell_length_a   8.28847644
_cell_length_b   8.28986224
_cell_length_c   8.28717224
_cell_angle_alpha   109.24310339
_cell_angle_beta   109.64860790
_cell_angle_gamma   109.60896184
_symmetry_Int_Tables_number   1
_chemical_formula_structural   Ce2ThCo2CuSb4
_chemical_formula_sum   'Ce4 Th2 Co4 Cu2 Sb8'
_cell_volume   437.85902456
_cell_formula_units_Z   2
loop_
 _symmetry_equiv_pos_site_id
 _symmetry_equiv_pos_as_xyz
  1  'x, y, z'
loop_
 _atom_site_type_symbol
 _atom_site_label
 _atom_site_symmetry_multiplicity
 _atom_site_fract_x
 _atom_site_fract_y
 _atom_site_fract_z
 _atom_site_occupancy
  Ce  Ce0  1  0.380745  0.258011  0.633131  1
  Ce  Ce1  1  0.743012  0.878600  0.114922  1
  Ce  Ce2  1  0.243446  0.615650  0.378629  1
  Ce  Ce3  1  0.624291  0.366148  0.247231  1
  Th  Th4  1  0.880107  0.131771  0.757300  1
  Th  Th5  1  0.124381  0.746702  0.867100  1
  Co  Co6  1  0.875013  0.249761  0.128675  1
  Co  Co7  1  0.254533  0.127466  0.878486  1
  Co  Co8  1  0.749192  0.376111  0.623866  1
  Co  Co9  1  0.376033  0.627193  0.748347  1
  Cu  Cu10  1  0.124393  0.874457  0.249176  1
  Cu  Cu11  1  0.624134  0.747694  0.373208  1
  Sb  Sb12  1  0.999002  0.334724  0.498244  1
  Sb  Sb13  1  0.834322  0.496142  0.998761  1
  Sb  Sb14  1  0.499752  0.000933  0.835985  1
  Sb  Sb15  1  0.657822  0.657006  0.661393  1
  Sb  Sb16  1  0.162507  0.165851  0.162967  1
  Sb  Sb17  1  0.339822  0.497813  0.996860  1
  Sb  Sb18  1  0.503089  0.004350  0.343268  1
  Sb  Sb19  1  0.004407  0.843616  0.502450  1
