# generated using pymatgen
data_Sr2Mn2CrO9
_symmetry_space_group_name_H-M   'P 1'
_cell_length_a   5.10253851
_cell_length_b   7.71055054
_cell_length_c   10.32546272
_cell_angle_alpha   92.37870191
_cell_angle_beta   98.87741927
_cell_angle_gamma   109.29999360
_symmetry_Int_Tables_number   1
_chemical_formula_structural   Sr2Mn2CrO9
_chemical_formula_sum   'Sr4 Mn4 Cr2 O18'
_cell_volume   376.94671876
_cell_formula_units_Z   2
loop_
 _symmetry_equiv_pos_site_id
 _symmetry_equiv_pos_as_xyz
  1  'x, y, z'
loop_
 _atom_site_type_symbol
 _atom_site_label
 _atom_site_symmetry_multiplicity
 _atom_site_fract_x
 _atom_site_fract_y
 _atom_site_fract_z
 _atom_site_occupancy
  Sr  Sr0  1  0.888512  0.954738  0.250154  1
  Sr  Sr1  1  0.111488  0.045262  0.749846  1
  Sr  Sr2  1  0.501406  0.391231  0.189755  1
  Sr  Sr3  1  0.498594  0.608769  0.810245  1
  Mn  Mn4  1  0.400584  0.805013  0.501503  1
  Mn  Mn5  1  0.599416  0.194987  0.498497  1
  Mn  Mn6  1  0.804210  0.606382  0.508371  1
  Mn  Mn7  1  0.195790  0.393618  0.491629  1
  Cr  Cr8  1  0.191314  0.771671  0.047092  1
  Cr  Cr9  1  0.808686  0.228329  0.952908  1
  O  O10  1  0.454521  0.685708  0.068068  1
  O  O11  1  0.545479  0.314292  0.931932  1
  O  O12  1  0.946114  0.655794  0.127619  1
  O  O13  1  0.053886  0.344206  0.872381  1
  O  O14  1  0.057452  0.749665  0.885386  1
  O  O15  1  0.942548  0.250335  0.114614  1
  O  O16  1  0.303820  0.992046  0.108862  1
  O  O17  1  0.696180  0.007954  0.891138  1
  O  O18  1  0.172028  0.611796  0.600727  1
  O  O19  1  0.827972  0.388204  0.399273  1
  O  O20  1  0.553823  0.408287  0.599607  1
  O  O21  1  0.446177  0.591713  0.400393  1
  O  O22  1  0.573360  0.983518  0.393174  1
  O  O23  1  0.426640  0.016482  0.606826  1
  O  O24  1  0.735163  0.783921  0.615075  1
  O  O25  1  0.264837  0.216079  0.384925  1
  O  O26  1  0.029128  0.768004  0.409234  1
  O  O27  1  0.970872  0.231996  0.590766  1
