# generated using pymatgen
data_Lu2Cr(Fe3P2)3
_symmetry_space_group_name_H-M   'P 1'
_cell_length_a   3.63861200
_cell_length_b   10.25187500
_cell_length_c   11.79282300
_cell_angle_alpha   90.00000000
_cell_angle_beta   90.00000000
_cell_angle_gamma   90.00000000
_symmetry_Int_Tables_number   1
_chemical_formula_structural   Lu2Cr(Fe3P2)3
_chemical_formula_sum   'Lu4 Cr2 Fe18 P12'
_cell_volume   439.90290496
_cell_formula_units_Z   2
loop_
 _symmetry_equiv_pos_site_id
 _symmetry_equiv_pos_as_xyz
  1  'x, y, z'
loop_
 _atom_site_type_symbol
 _atom_site_label
 _atom_site_symmetry_multiplicity
 _atom_site_fract_x
 _atom_site_fract_y
 _atom_site_fract_z
 _atom_site_occupancy
  Lu  Lu0  1  0.250000  0.582339  0.704883  1
  Lu  Lu1  1  0.250000  0.917661  0.204883  1
  Lu  Lu2  1  0.750000  0.422194  0.295676  1
  Lu  Lu3  1  0.750000  0.077806  0.795676  1
  Cr  Cr4  1  0.250000  0.701251  0.989948  1
  Cr  Cr5  1  0.250000  0.798749  0.489948  1
  Fe  Fe6  1  0.750000  0.290143  0.010447  1
  Fe  Fe7  1  0.750000  0.209857  0.510447  1
  Fe  Fe8  1  0.250000  0.407834  0.489731  1
  Fe  Fe9  1  0.250000  0.092166  0.989731  1
  Fe  Fe10  1  0.750000  0.596744  0.511469  1
  Fe  Fe11  1  0.750000  0.903256  0.011469  1
  Fe  Fe12  1  0.250000  0.218791  0.176159  1
  Fe  Fe13  1  0.250000  0.281209  0.676159  1
  Fe  Fe14  1  0.750000  0.780091  0.825511  1
  Fe  Fe15  1  0.750000  0.719909  0.325511  1
  Fe  Fe16  1  0.250000  0.877273  0.701288  1
  Fe  Fe17  1  0.250000  0.622727  0.201288  1
  Fe  Fe18  1  0.750000  0.126924  0.298163  1
  Fe  Fe19  1  0.750000  0.373076  0.798163  1
  Fe  Fe20  1  0.250000  0.459268  0.931207  1
  Fe  Fe21  1  0.250000  0.040732  0.431207  1
  Fe  Fe22  1  0.750000  0.532204  0.066079  1
  Fe  Fe23  1  0.750000  0.967796  0.566079  1
  P  P24  1  0.250000  0.421879  0.113749  1
  P  P25  1  0.250000  0.078121  0.613749  1
  P  P26  1  0.750000  0.576094  0.885149  1
  P  P27  1  0.750000  0.923906  0.385149  1
  P  P28  1  0.250000  0.260543  0.871031  1
  P  P29  1  0.250000  0.239457  0.371031  1
  P  P30  1  0.750000  0.732208  0.132694  1
  P  P31  1  0.750000  0.767792  0.632694  1
  P  P32  1  0.250000  0.599153  0.392821  1
  P  P33  1  0.250000  0.900847  0.892821  1
  P  P34  1  0.750000  0.401699  0.603994  1
  P  P35  1  0.750000  0.098301  0.103994  1
