# generated using pymatgen
data_Tb4Ga16Co2Ir
_symmetry_space_group_name_H-M   'P 1'
_cell_length_a   6.09674500
_cell_length_b   6.07750800
_cell_length_c   11.18373800
_cell_angle_alpha   90.00000000
_cell_angle_beta   90.00000000
_cell_angle_gamma   90.00000000
_symmetry_Int_Tables_number   1
_chemical_formula_structural   Tb4Ga16Co2Ir
_chemical_formula_sum   'Tb4 Ga16 Co2 Ir1'
_cell_volume   414.39122877
_cell_formula_units_Z   1
loop_
 _symmetry_equiv_pos_site_id
 _symmetry_equiv_pos_as_xyz
  1  'x, y, z'
loop_
 _atom_site_type_symbol
 _atom_site_label
 _atom_site_symmetry_multiplicity
 _atom_site_fract_x
 _atom_site_fract_y
 _atom_site_fract_z
 _atom_site_occupancy
  Tb  Tb0  1  0.500000  0.000000  0.803750  1
  Tb  Tb1  1  0.000000  0.500000  0.807977  1
  Tb  Tb2  1  0.500000  0.000000  0.196250  1
  Tb  Tb3  1  0.000000  0.500000  0.192023  1
  Ga  Ga4  1  0.241989  0.256582  0.617412  1
  Ga  Ga5  1  0.758011  0.743418  0.617412  1
  Ga  Ga6  1  0.758011  0.256582  0.617412  1
  Ga  Ga7  1  0.241989  0.743418  0.617412  1
  Ga  Ga8  1  0.758011  0.743418  0.382588  1
  Ga  Ga9  1  0.241989  0.256582  0.382588  1
  Ga  Ga10  1  0.241989  0.743418  0.382588  1
  Ga  Ga11  1  0.758011  0.256582  0.382588  1
  Ga  Ga12  1  0.280792  0.279598  0.000000  1
  Ga  Ga13  1  0.719208  0.720402  0.000000  1
  Ga  Ga14  1  0.719208  0.279598  0.000000  1
  Ga  Ga15  1  0.280792  0.720402  0.000000  1
  Ga  Ga16  1  0.500000  0.500000  0.806237  1
  Ga  Ga17  1  0.500000  0.500000  0.193763  1
  Ga  Ga18  1  0.000000  0.000000  0.783605  1
  Ga  Ga19  1  0.000000  0.000000  0.216395  1
  Co  Co20  1  0.000000  0.500000  0.500000  1
  Co  Co21  1  0.000000  0.000000  0.000000  1
  Ir  Ir22  1  0.500000  0.000000  0.500000  1
