# generated using pymatgen
data_Tm2Sc2Co4Si3Ge
_symmetry_space_group_name_H-M   'P 1'
_cell_length_a   4.07781500
_cell_length_b   6.63468491
_cell_length_c   6.96412018
_cell_angle_alpha   89.85931018
_cell_angle_beta   90.00000000
_cell_angle_gamma   90.00000000
_symmetry_Int_Tables_number   1
_chemical_formula_structural   Tm2Sc2Co4Si3Ge
_chemical_formula_sum   'Tm2 Sc2 Co4 Si3 Ge1'
_cell_volume   188.41382633
_cell_formula_units_Z   1
loop_
 _symmetry_equiv_pos_site_id
 _symmetry_equiv_pos_as_xyz
  1  'x, y, z'
loop_
 _atom_site_type_symbol
 _atom_site_label
 _atom_site_symmetry_multiplicity
 _atom_site_fract_x
 _atom_site_fract_y
 _atom_site_fract_z
 _atom_site_occupancy
  Tm  Tm0  1  0.250000  0.499683  0.188567  1
  Tm  Tm1  1  0.250000  0.994516  0.313127  1
  Sc  Sc2  1  0.750000  0.515168  0.798380  1
  Sc  Sc3  1  0.750000  0.012958  0.701038  1
  Co  Co4  1  0.750000  0.347023  0.450557  1
  Co  Co5  1  0.750000  0.834935  0.057049  1
  Co  Co6  1  0.250000  0.645945  0.569726  1
  Co  Co7  1  0.250000  0.143069  0.921179  1
  Si  Si8  1  0.750000  0.703144  0.406411  1
  Si  Si9  1  0.250000  0.797766  0.882951  1
  Si  Si10  1  0.250000  0.299198  0.615500  1
  Ge  Ge11  1  0.750000  0.206596  0.095514  1
