# generated using pymatgen
data_TbErSn(PRh2)6
_symmetry_space_group_name_H-M   'P 1'
_cell_length_a   9.77286200
_cell_length_b   9.77286084
_cell_length_c   3.87110700
_cell_angle_alpha   90.00000000
_cell_angle_beta   90.00000000
_cell_angle_gamma   119.99999715
_symmetry_Int_Tables_number   1
_chemical_formula_structural   TbErSn(PRh2)6
_chemical_formula_sum   'Tb1 Er1 Sn1 P6 Rh12'
_cell_volume   320.19113300
_cell_formula_units_Z   1
loop_
 _symmetry_equiv_pos_site_id
 _symmetry_equiv_pos_as_xyz
  1  'x, y, z'
loop_
 _atom_site_type_symbol
 _atom_site_label
 _atom_site_symmetry_multiplicity
 _atom_site_fract_x
 _atom_site_fract_y
 _atom_site_fract_z
 _atom_site_occupancy
  Tb  Tb0  1  0.333333  0.666667  0.751306  1
  Er  Er1  1  0.666667  0.333333  0.248709  1
  Sn  Sn2  1  0.000000  0.000000  0.499814  1
  P  P3  1  0.406265  0.287583  0.746686  1
  P  P4  1  0.712417  0.118683  0.746686  1
  P  P5  1  0.881317  0.593735  0.746686  1
  P  P6  1  0.594105  0.712572  0.253127  1
  P  P7  1  0.287428  0.881532  0.253127  1
  P  P8  1  0.118468  0.405895  0.253127  1
  Rh  Rh9  1  0.454440  0.068621  0.747636  1
  Rh  Rh10  1  0.931379  0.385818  0.747636  1
  Rh  Rh11  1  0.614182  0.545560  0.747636  1
  Rh  Rh12  1  0.546433  0.932558  0.252477  1
  Rh  Rh13  1  0.067442  0.613876  0.252477  1
  Rh  Rh14  1  0.386124  0.453567  0.252477  1
  Rh  Rh15  1  0.161734  0.287550  0.758655  1
  Rh  Rh16  1  0.712450  0.874184  0.758655  1
  Rh  Rh17  1  0.125816  0.838266  0.758655  1
  Rh  Rh18  1  0.838158  0.712110  0.241476  1
  Rh  Rh19  1  0.287890  0.126048  0.241476  1
  Rh  Rh20  1  0.873952  0.161842  0.241476  1
