# generated using pymatgen
data_Y9ErIn8PdAu3
_symmetry_space_group_name_H-M   'P 1'
_cell_length_a   3.67563800
_cell_length_b   8.22483997
_cell_length_c   18.40561232
_cell_angle_alpha   89.97525370
_cell_angle_beta   90.00000000
_cell_angle_gamma   90.00000000
_symmetry_Int_Tables_number   1
_chemical_formula_structural   Y9ErIn8PdAu3
_chemical_formula_sum   'Y9 Er1 In8 Pd1 Au3'
_cell_volume   556.42984869
_cell_formula_units_Z   1
loop_
 _symmetry_equiv_pos_site_id
 _symmetry_equiv_pos_as_xyz
  1  'x, y, z'
loop_
 _atom_site_type_symbol
 _atom_site_label
 _atom_site_symmetry_multiplicity
 _atom_site_fract_x
 _atom_site_fract_y
 _atom_site_fract_z
 _atom_site_occupancy
  Y  Y0  1  0.000000  0.499967  0.498958  1
  Y  Y1  1  0.000000  0.000548  0.000852  1
  Y  Y2  1  0.000000  0.745163  0.284120  1
  Y  Y3  1  0.000000  0.264323  0.715792  1
  Y  Y4  1  0.000000  0.763947  0.782885  1
  Y  Y5  1  0.000000  0.231956  0.219449  1
  Y  Y6  1  0.000000  0.620234  0.081028  1
  Y  Y7  1  0.000000  0.379910  0.920718  1
  Y  Y8  1  0.000000  0.879799  0.578644  1
  Er  Er9  1  0.000000  0.115255  0.415534  1
  In  In10  1  0.500000  0.710123  0.933288  1
  In  In11  1  0.500000  0.290150  0.068395  1
  In  In12  1  0.500000  0.793111  0.432228  1
  In  In13  1  0.500000  0.208247  0.563923  1
  In  In14  1  0.500000  0.581670  0.646687  1
  In  In15  1  0.500000  0.415266  0.352499  1
  In  In16  1  0.500000  0.921213  0.149821  1
  In  In17  1  0.500000  0.081772  0.852565  1
  Pd  Pd18  1  0.500000  0.025400  0.304980  1
  Au  Au19  1  0.500000  0.526736  0.198408  1
  Au  Au20  1  0.500000  0.472366  0.803164  1
  Au  Au21  1  0.500000  0.972841  0.696062  1
