# generated using pymatgen
data_DyEr11Zn(InFe)2
_symmetry_space_group_name_H-M   'P 1'
_cell_length_a   8.32728997
_cell_length_b   8.32728912
_cell_length_c   8.32673403
_cell_angle_alpha   109.78348454
_cell_angle_beta   109.78348954
_cell_angle_gamma   108.85120704
_symmetry_Int_Tables_number   1
_chemical_formula_structural   DyEr11Zn(InFe)2
_chemical_formula_sum   'Dy1 Er11 Zn1 In2 Fe2'
_cell_volume   444.43395933
_cell_formula_units_Z   1
loop_
 _symmetry_equiv_pos_site_id
 _symmetry_equiv_pos_as_xyz
  1  'x, y, z'
loop_
 _atom_site_type_symbol
 _atom_site_label
 _atom_site_symmetry_multiplicity
 _atom_site_fract_x
 _atom_site_fract_y
 _atom_site_fract_z
 _atom_site_occupancy
  Dy  Dy0  1  0.304890  0.304890  0.609779  1
  Er  Er1  1  0.694690  0.694690  0.389381  1
  Er  Er2  1  0.305333  0.694923  0.000256  1
  Er  Er3  1  0.694923  0.305333  0.000256  1
  Er  Er4  1  0.446484  0.202810  0.243283  1
  Er  Er5  1  0.553909  0.797809  0.756597  1
  Er  Er6  1  0.958788  0.202688  0.756597  1
  Er  Er7  1  0.202688  0.958788  0.756597  1
  Er  Er8  1  0.040473  0.796799  0.243283  1
  Er  Er9  1  0.796799  0.040473  0.243283  1
  Er  Er10  1  0.202810  0.446484  0.243283  1
  Er  Er11  1  0.797809  0.553909  0.756597  1
  Zn  Zn12  1  0.999955  0.999955  0.999910  1
  In  In13  1  0.500062  0.999865  0.499927  1
  In  In14  1  0.999865  0.500062  0.499927  1
  Fe  Fe15  1  0.387245  0.387245  0.000522  1
  Fe  Fe16  1  0.613277  0.613277  0.000522  1
