# generated using pymatgen
data_Pr6RuCl11
_symmetry_space_group_name_H-M   'P 1'
_cell_length_a   8.30007431
_cell_length_b   8.30007450
_cell_length_c   7.44569828
_cell_angle_alpha   86.89252095
_cell_angle_beta   86.89252728
_cell_angle_gamma   100.82744533
_symmetry_Int_Tables_number   1
_chemical_formula_structural   Pr6RuCl11
_chemical_formula_sum   'Pr6 Ru1 Cl11'
_cell_volume   501.98534480
_cell_formula_units_Z   1
loop_
 _symmetry_equiv_pos_site_id
 _symmetry_equiv_pos_as_xyz
  1  'x, y, z'
loop_
 _atom_site_type_symbol
 _atom_site_label
 _atom_site_symmetry_multiplicity
 _atom_site_fract_x
 _atom_site_fract_y
 _atom_site_fract_z
 _atom_site_occupancy
  Pr  Pr0  1  0.710225  0.015230  0.772545  1
  Pr  Pr1  1  0.193941  0.193941  0.761284  1
  Pr  Pr2  1  0.984770  0.289775  0.227455  1
  Pr  Pr3  1  0.015230  0.710225  0.772545  1
  Pr  Pr4  1  0.806059  0.806059  0.238716  1
  Pr  Pr5  1  0.289775  0.984770  0.227455  1
  Ru  Ru6  1  0.000000  0.000000  0.000000  1
  Cl  Cl7  1  0.000000  0.000000  0.500000  1
  Cl  Cl8  1  0.661564  0.092780  0.363676  1
  Cl  Cl9  1  0.490358  0.202164  0.943375  1
  Cl  Cl10  1  0.304309  0.304309  0.364386  1
  Cl  Cl11  1  0.907220  0.338436  0.636324  1
  Cl  Cl12  1  0.202164  0.490358  0.943375  1
  Cl  Cl13  1  0.797836  0.509642  0.056625  1
  Cl  Cl14  1  0.092780  0.661564  0.363676  1
  Cl  Cl15  1  0.695691  0.695691  0.635614  1
  Cl  Cl16  1  0.509642  0.797836  0.056625  1
  Cl  Cl17  1  0.338436  0.907220  0.636324  1
