# generated using pymatgen
data_Lu10Ga4SnSb
_symmetry_space_group_name_H-M   'P 1'
_cell_length_a   8.51109163
_cell_length_b   8.51109289
_cell_length_c   6.41311100
_cell_angle_alpha   90.00000000
_cell_angle_beta   90.00000000
_cell_angle_gamma   120.20498241
_symmetry_Int_Tables_number   1
_chemical_formula_structural   Lu10Ga4SnSb
_chemical_formula_sum   'Lu10 Ga4 Sn1 Sb1'
_cell_volume   401.48490592
_cell_formula_units_Z   1
loop_
 _symmetry_equiv_pos_site_id
 _symmetry_equiv_pos_as_xyz
  1  'x, y, z'
loop_
 _atom_site_type_symbol
 _atom_site_label
 _atom_site_symmetry_multiplicity
 _atom_site_fract_x
 _atom_site_fract_y
 _atom_site_fract_z
 _atom_site_occupancy
  Lu  Lu0  1  0.677382  0.325793  0.001728  1
  Lu  Lu1  1  0.325793  0.677382  0.001728  1
  Lu  Lu2  1  0.325793  0.677382  0.498272  1
  Lu  Lu3  1  0.677382  0.325793  0.498272  1
  Lu  Lu4  1  0.767458  0.767458  0.750000  1
  Lu  Lu5  1  0.236357  0.987501  0.750000  1
  Lu  Lu6  1  0.987501  0.236357  0.750000  1
  Lu  Lu7  1  0.232943  0.232943  0.250000  1
  Lu  Lu8  1  0.762514  0.009671  0.250000  1
  Lu  Lu9  1  0.009671  0.762514  0.250000  1
  Ga  Ga10  1  0.596566  0.994777  0.750000  1
  Ga  Ga11  1  0.994777  0.596566  0.750000  1
  Ga  Ga12  1  0.402170  0.005951  0.250000  1
  Ga  Ga13  1  0.005951  0.402170  0.250000  1
  Sn  Sn14  1  0.602253  0.602253  0.250000  1
  Sb  Sb15  1  0.395487  0.395487  0.750000  1
