# generated using pymatgen
data_CN5Cl
_symmetry_space_group_name_H-M   'P 1'
_cell_length_a   4.12410971
_cell_length_b   4.06517924
_cell_length_c   10.19805752
_cell_angle_alpha   86.61502357
_cell_angle_beta   84.76977894
_cell_angle_gamma   75.44165226
_symmetry_Int_Tables_number   1
_chemical_formula_structural   CN5Cl
_chemical_formula_sum   'C1 N5 Cl1'
_cell_volume   164.67854515
_cell_formula_units_Z   1
loop_
 _symmetry_equiv_pos_site_id
 _symmetry_equiv_pos_as_xyz
  1  'x, y, z'
loop_
 _atom_site_type_symbol
 _atom_site_label
 _atom_site_symmetry_multiplicity
 _atom_site_fract_x
 _atom_site_fract_y
 _atom_site_fract_z
 _atom_site_occupancy
  C  C0  1  0.842587  0.487022  0.473414  1
  N  N1  1  0.565995  0.831541  0.118681  1
  N  N2  1  0.201623  0.896471  0.858683  1
  N  N3  1  0.385169  0.738042  0.190035  1
  N  N4  1  0.006718  0.137022  0.878353  1
  N  N5  1  0.908536  0.320431  0.380461  1
  Cl  Cl6  1  0.748138  0.703034  0.606224  1
