# generated using pymatgen
data_PrSm2CCl5
_symmetry_space_group_name_H-M   'P 1'
_cell_length_a   7.36505264
_cell_length_b   8.76338341
_cell_length_c   8.93210748
_cell_angle_alpha   108.20961690
_cell_angle_beta   96.45213797
_cell_angle_gamma   106.32938814
_symmetry_Int_Tables_number   1
_chemical_formula_structural   PrSm2CCl5
_chemical_formula_sum   'Pr2 Sm4 C2 Cl10'
_cell_volume   512.70630781
_cell_formula_units_Z   2
loop_
 _symmetry_equiv_pos_site_id
 _symmetry_equiv_pos_as_xyz
  1  'x, y, z'
loop_
 _atom_site_type_symbol
 _atom_site_label
 _atom_site_symmetry_multiplicity
 _atom_site_fract_x
 _atom_site_fract_y
 _atom_site_fract_z
 _atom_site_occupancy
  Pr  Pr0  1  0.877249  0.949655  0.235988  1
  Pr  Pr1  1  0.122751  0.050345  0.764012  1
  Sm  Sm2  1  0.025638  0.714593  0.912366  1
  Sm  Sm3  1  0.974362  0.285407  0.087634  1
  Sm  Sm4  1  0.605117  0.842103  0.794122  1
  Sm  Sm5  1  0.394883  0.157897  0.205878  1
  C  C6  1  0.904862  0.965518  0.952326  1
  C  C7  1  0.095138  0.034482  0.047674  1
  Cl  Cl8  1  0.750307  0.914059  0.541908  1
  Cl  Cl9  1  0.249693  0.085941  0.458092  1
  Cl  Cl10  1  0.451364  0.824318  0.076535  1
  Cl  Cl11  1  0.548636  0.175682  0.923465  1
  Cl  Cl12  1  0.813802  0.266290  0.349158  1
  Cl  Cl13  1  0.186198  0.733710  0.650842  1
  Cl  Cl14  1  0.912212  0.622242  0.164318  1
  Cl  Cl15  1  0.087788  0.377758  0.835682  1
  Cl  Cl16  1  0.656515  0.537523  0.721970  1
  Cl  Cl17  1  0.343485  0.462477  0.278030  1
