# generated using pymatgen
data_Er8ReTc2B24Ru
_symmetry_space_group_name_H-M   'P 1'
_cell_length_a   3.65132800
_cell_length_b   9.11456730
_cell_length_c   11.49059337
_cell_angle_alpha   89.94601378
_cell_angle_beta   90.00000000
_cell_angle_gamma   90.00000000
_symmetry_Int_Tables_number   1
_chemical_formula_structural   Er8ReTc2B24Ru
_chemical_formula_sum   'Er8 Re1 Tc2 B24 Ru1'
_cell_volume   382.40993509
_cell_formula_units_Z   1
loop_
 _symmetry_equiv_pos_site_id
 _symmetry_equiv_pos_as_xyz
  1  'x, y, z'
loop_
 _atom_site_type_symbol
 _atom_site_label
 _atom_site_symmetry_multiplicity
 _atom_site_fract_x
 _atom_site_fract_y
 _atom_site_fract_z
 _atom_site_occupancy
  Er  Er0  1  0.000000  0.323667  0.413906  1
  Er  Er1  1  0.000000  0.675172  0.584180  1
  Er  Er2  1  0.000000  0.822424  0.087417  1
  Er  Er3  1  0.000000  0.178129  0.914086  1
  Er  Er4  1  0.000000  0.942224  0.371074  1
  Er  Er5  1  0.000000  0.057651  0.630434  1
  Er  Er6  1  0.000000  0.444098  0.129620  1
  Er  Er7  1  0.000000  0.557745  0.869362  1
  Re  Re8  1  0.000000  0.137654  0.178183  1
  Tc  Tc9  1  0.000000  0.638494  0.320566  1
  Tc  Tc10  1  0.000000  0.361628  0.679969  1
  B  B11  1  0.500000  0.552816  0.433077  1
  B  B12  1  0.500000  0.446990  0.566640  1
  B  B13  1  0.500000  0.052604  0.066321  1
  B  B14  1  0.500000  0.946260  0.932913  1
  B  B15  1  0.500000  0.748606  0.419145  1
  B  B16  1  0.500000  0.250694  0.580986  1
  B  B17  1  0.500000  0.249855  0.080697  1
  B  B18  1  0.500000  0.751217  0.918820  1
  B  B19  1  0.500000  0.792128  0.265535  1
  B  B20  1  0.500000  0.207984  0.735208  1
  B  B21  1  0.500000  0.292458  0.234711  1
  B  B22  1  0.500000  0.708874  0.765100  1
  B  B23  1  0.500000  0.631077  0.185289  1
  B  B24  1  0.500000  0.369077  0.815263  1
  B  B25  1  0.500000  0.130410  0.314624  1
  B  B26  1  0.500000  0.868762  0.685349  1
  B  B27  1  0.500000  0.980980  0.212004  1
  B  B28  1  0.500000  0.017118  0.788239  1
  B  B29  1  0.500000  0.481835  0.287900  1
  B  B30  1  0.500000  0.518246  0.711767  1
  B  B31  1  0.500000  0.602276  0.027948  1
  B  B32  1  0.500000  0.399585  0.971612  1
  B  B33  1  0.500000  0.101526  0.472086  1
  B  B34  1  0.500000  0.898044  0.528964  1
  Ru  Ru35  1  0.000000  0.861692  0.821005  1
