# generated using pymatgen
data_EuGa3Pt
_symmetry_space_group_name_H-M   'P 1'
_cell_length_a   6.18885850
_cell_length_b   6.18885883
_cell_length_c   6.18885825
_cell_angle_alpha   138.45608746
_cell_angle_beta   138.45608980
_cell_angle_gamma   60.20519018
_symmetry_Int_Tables_number   1
_chemical_formula_structural   EuGa3Pt
_chemical_formula_sum   'Eu1 Ga3 Pt1'
_cell_volume   103.17410889
_cell_formula_units_Z   1
loop_
 _symmetry_equiv_pos_site_id
 _symmetry_equiv_pos_as_xyz
  1  'x, y, z'
loop_
 _atom_site_type_symbol
 _atom_site_label
 _atom_site_symmetry_multiplicity
 _atom_site_fract_x
 _atom_site_fract_y
 _atom_site_fract_z
 _atom_site_occupancy
  Eu  Eu0  1  0.990856  0.990856  0.000000  1
  Ga  Ga1  1  0.745816  0.245816  0.500000  1
  Ga  Ga2  1  0.245816  0.745816  0.500000  1
  Ga  Ga3  1  0.392730  0.392730  0.000000  1
  Pt  Pt4  1  0.624783  0.624783  0.000000  1
