# generated using pymatgen
data_HoEr5C3Cl5
_symmetry_space_group_name_H-M   'P 1'
_cell_length_a   3.62113908
_cell_length_b   8.22342299
_cell_length_c   10.15840090
_cell_angle_alpha   85.64078715
_cell_angle_beta   79.63837617
_cell_angle_gamma   77.33368144
_symmetry_Int_Tables_number   1
_chemical_formula_structural   HoEr5C3Cl5
_chemical_formula_sum   'Ho1 Er5 C3 Cl5'
_cell_volume   290.11286442
_cell_formula_units_Z   1
loop_
 _symmetry_equiv_pos_site_id
 _symmetry_equiv_pos_as_xyz
  1  'x, y, z'
loop_
 _atom_site_type_symbol
 _atom_site_label
 _atom_site_symmetry_multiplicity
 _atom_site_fract_x
 _atom_site_fract_y
 _atom_site_fract_z
 _atom_site_occupancy
  Ho  Ho0  1  0.432162  0.922239  0.217805  1
  Er  Er1  1  0.573317  0.075764  0.779414  1
  Er  Er2  1  0.959386  0.428795  0.657175  1
  Er  Er3  1  0.684008  0.179683  0.455603  1
  Er  Er4  1  0.046697  0.569178  0.342199  1
  Er  Er5  1  0.320381  0.819088  0.543021  1
  C  C6  1  0.127606  0.123117  0.625340  1
  C  C7  1  0.876886  0.874951  0.373875  1
  C  C8  1  0.503116  0.498945  0.499637  1
  Cl  Cl9  1  0.748785  0.745895  0.756510  1
  Cl  Cl10  1  0.379343  0.379836  0.869983  1
  Cl  Cl11  1  0.251943  0.252994  0.241339  1
  Cl  Cl12  1  0.630601  0.615803  0.129652  1
  Cl  Cl13  1  0.002991  0.997300  0.997762  1
