# generated using pymatgen
data_La10Pr6MgHg3Rh4
_symmetry_space_group_name_H-M   'P 1'
_cell_length_a   10.03848950
_cell_length_b   10.10982064
_cell_length_c   10.11015955
_cell_angle_alpha   59.96690598
_cell_angle_beta   59.86907708
_cell_angle_gamma   59.87132884
_symmetry_Int_Tables_number   1
_chemical_formula_structural   La10Pr6MgHg3Rh4
_chemical_formula_sum   'La10 Pr6 Mg1 Hg3 Rh4'
_cell_volume   723.92186585
_cell_formula_units_Z   1
loop_
 _symmetry_equiv_pos_site_id
 _symmetry_equiv_pos_as_xyz
  1  'x, y, z'
loop_
 _atom_site_type_symbol
 _atom_site_label
 _atom_site_symmetry_multiplicity
 _atom_site_fract_x
 _atom_site_fract_y
 _atom_site_fract_z
 _atom_site_occupancy
  La  La0  1  0.347031  0.346413  0.346415  1
  La  La1  1  0.348477  0.347649  0.957261  1
  La  La2  1  0.348481  0.957273  0.347666  1
  La  La3  1  0.947748  0.351262  0.351297  1
  La  La4  1  0.806799  0.193176  0.193202  1
  La  La5  1  0.187029  0.809098  0.809065  1
  La  La6  1  0.189117  0.810734  0.189521  1
  La  La7  1  0.804271  0.193960  0.805478  1
  La  La8  1  0.189193  0.189546  0.810668  1
  La  La9  1  0.804261  0.805486  0.193910  1
  Pr  Pr10  1  0.937465  0.564546  0.564538  1
  Pr  Pr11  1  0.562164  0.936721  0.936764  1
  Pr  Pr12  1  0.562314  0.937022  0.564726  1
  Pr  Pr13  1  0.937058  0.563235  0.933854  1
  Pr  Pr14  1  0.562297  0.564745  0.937028  1
  Pr  Pr15  1  0.937039  0.933876  0.563269  1
  Mg  Mg16  1  0.287477  0.570339  0.570346  1
  Hg  Hg17  1  0.581098  0.587459  0.587484  1
  Hg  Hg18  1  0.581251  0.587908  0.243930  1
  Hg  Hg19  1  0.581244  0.243922  0.587929  1
  Rh  Rh20  1  0.139711  0.142163  0.142159  1
  Rh  Rh21  1  0.140961  0.142747  0.578409  1
  Rh  Rh22  1  0.140966  0.578400  0.142751  1
  Rh  Rh23  1  0.576547  0.142320  0.142326  1
