# generated using pymatgen
data_NdZr(Al3Ni)6
_symmetry_space_group_name_H-M   'P 1'
_cell_length_a   10.04786225
_cell_length_b   10.04786316
_cell_length_c   10.04786313
_cell_angle_alpha   42.34733603
_cell_angle_beta   42.34733911
_cell_angle_gamma   42.34733869
_symmetry_Int_Tables_number   1
_chemical_formula_structural   NdZr(Al3Ni)6
_chemical_formula_sum   'Nd1 Zr1 Al18 Ni6'
_cell_volume   416.67829981
_cell_formula_units_Z   1
loop_
 _symmetry_equiv_pos_site_id
 _symmetry_equiv_pos_as_xyz
  1  'x, y, z'
loop_
 _atom_site_type_symbol
 _atom_site_label
 _atom_site_symmetry_multiplicity
 _atom_site_fract_x
 _atom_site_fract_y
 _atom_site_fract_z
 _atom_site_occupancy
  Nd  Nd0  1  0.833001  0.833001  0.833001  1
  Zr  Zr1  1  0.167147  0.167147  0.167147  1
  Al  Al2  1  0.103098  0.429729  0.765368  1
  Al  Al3  1  0.429729  0.765368  0.103098  1
  Al  Al4  1  0.564713  0.899110  0.237941  1
  Al  Al5  1  0.948186  0.948186  0.948186  1
  Al  Al6  1  0.052362  0.052362  0.052362  1
  Al  Al7  1  0.295722  0.716174  0.488108  1
  Al  Al8  1  0.899110  0.237941  0.564713  1
  Al  Al9  1  0.387627  0.387627  0.387627  1
  Al  Al10  1  0.488108  0.295722  0.716174  1
  Al  Al11  1  0.237941  0.564713  0.899110  1
  Al  Al12  1  0.717686  0.717686  0.717686  1
  Al  Al13  1  0.612925  0.612925  0.612925  1
  Al  Al14  1  0.333018  0.001711  0.665220  1
  Al  Al15  1  0.716174  0.488108  0.295722  1
  Al  Al16  1  0.665220  0.333018  0.001711  1
  Al  Al17  1  0.281331  0.281331  0.281331  1
  Al  Al18  1  0.001711  0.665220  0.333018  1
  Al  Al19  1  0.765368  0.103098  0.429729  1
  Ni  Ni20  1  0.417937  0.079275  0.757640  1
  Ni  Ni21  1  0.581460  0.241951  0.921561  1
  Ni  Ni22  1  0.079275  0.757640  0.417937  1
  Ni  Ni23  1  0.757640  0.417937  0.079275  1
  Ni  Ni24  1  0.921561  0.581460  0.241951  1
  Ni  Ni25  1  0.241951  0.921561  0.581460  1
