# generated using pymatgen
data_Cs2NaTaO4
_symmetry_space_group_name_H-M   'P 1'
_cell_length_a   6.46114200
_cell_length_b   6.36562189
_cell_length_c   8.56333464
_cell_angle_alpha   86.65850118
_cell_angle_beta   90.00000000
_cell_angle_gamma   90.00000000
_symmetry_Int_Tables_number   1
_chemical_formula_structural   Cs2NaTaO4
_chemical_formula_sum   'Cs4 Na2 Ta2 O8'
_cell_volume   351.60419757
_cell_formula_units_Z   2
loop_
 _symmetry_equiv_pos_site_id
 _symmetry_equiv_pos_as_xyz
  1  'x, y, z'
loop_
 _atom_site_type_symbol
 _atom_site_label
 _atom_site_symmetry_multiplicity
 _atom_site_fract_x
 _atom_site_fract_y
 _atom_site_fract_z
 _atom_site_occupancy
  Cs  Cs0  1  0.750000  0.143015  0.818121  1
  Cs  Cs1  1  0.250000  0.856985  0.181879  1
  Cs  Cs2  1  0.250000  0.311966  0.480614  1
  Cs  Cs3  1  0.750000  0.688034  0.519386  1
  Na  Na4  1  0.750000  0.626298  0.024145  1
  Na  Na5  1  0.250000  0.373702  0.975855  1
  Ta  Ta6  1  0.250000  0.806147  0.753410  1
  Ta  Ta7  1  0.750000  0.193853  0.246590  1
  O  O8  1  0.517500  0.335191  0.162646  1
  O  O9  1  0.017500  0.664809  0.837353  1
  O  O10  1  0.482500  0.664809  0.837353  1
  O  O11  1  0.982500  0.335191  0.162646  1
  O  O12  1  0.750000  0.201498  0.465372  1
  O  O13  1  0.750000  0.913775  0.188001  1
  O  O14  1  0.250000  0.798502  0.534628  1
  O  O15  1  0.250000  0.086225  0.811999  1
