# generated using pymatgen
data_K2MnVF7
_symmetry_space_group_name_H-M   'P 1'
_cell_length_a   7.86410620
_cell_length_b   7.86410606
_cell_length_c   7.86410679
_cell_angle_alpha   120.72700844
_cell_angle_beta   116.92936574
_cell_angle_gamma   92.07227252
_symmetry_Int_Tables_number   1
_chemical_formula_structural   K2MnVF7
_chemical_formula_sum   'K4 Mn2 V2 F14'
_cell_volume   349.28478251
_cell_formula_units_Z   2
loop_
 _symmetry_equiv_pos_site_id
 _symmetry_equiv_pos_as_xyz
  1  'x, y, z'
loop_
 _atom_site_type_symbol
 _atom_site_label
 _atom_site_symmetry_multiplicity
 _atom_site_fract_x
 _atom_site_fract_y
 _atom_site_fract_z
 _atom_site_occupancy
  K  K0  1  0.500000  0.500000  0.000000  1
  K  K1  1  0.000000  0.000000  0.000000  1
  K  K2  1  0.000000  0.500000  0.000000  1
  K  K3  1  0.000000  0.000000  0.500000  1
  Mn  Mn4  1  0.500000  0.500000  0.500000  1
  Mn  Mn5  1  0.500000  0.000000  0.000000  1
  V  V6  1  0.000000  0.500000  0.500000  1
  V  V7  1  0.500000  0.000000  0.500000  1
  F  F8  1  0.873322  0.587433  0.285888  1
  F  F9  1  0.198454  0.912567  0.285888  1
  F  F10  1  0.185018  0.796335  0.754388  1
  F  F11  1  0.458053  0.703665  0.388683  1
  F  F12  1  0.458053  0.069370  0.754388  1
  F  F13  1  0.185018  0.430630  0.388683  1
  F  F14  1  0.814982  0.569370  0.611317  1
  F  F15  1  0.541947  0.930630  0.245612  1
  F  F16  1  0.541947  0.296335  0.611317  1
  F  F17  1  0.814982  0.203665  0.245612  1
  F  F18  1  0.395464  0.250000  0.145464  1
  F  F19  1  0.126678  0.412567  0.714112  1
  F  F20  1  0.801546  0.087433  0.714112  1
  F  F21  1  0.604536  0.750000  0.854536  1
