# generated using pymatgen
data_Pr3Sn2Pt3Pb
_symmetry_space_group_name_H-M   'P 1'
_cell_length_a   7.71429555
_cell_length_b   7.76402795
_cell_length_c   4.18512000
_cell_angle_alpha   90.00000000
_cell_angle_beta   90.00000000
_cell_angle_gamma   120.21348024
_symmetry_Int_Tables_number   1
_chemical_formula_structural   Pr3Sn2Pt3Pb
_chemical_formula_sum   'Pr3 Sn2 Pt3 Pb1'
_cell_volume   216.61256473
_cell_formula_units_Z   1
loop_
 _symmetry_equiv_pos_site_id
 _symmetry_equiv_pos_as_xyz
  1  'x, y, z'
loop_
 _atom_site_type_symbol
 _atom_site_label
 _atom_site_symmetry_multiplicity
 _atom_site_fract_x
 _atom_site_fract_y
 _atom_site_fract_z
 _atom_site_occupancy
  Pr  Pr0  1  0.588119  0.590282  0.000000  1
  Pr  Pr1  1  0.411881  0.002163  0.000000  1
  Pr  Pr2  1  0.000000  0.409703  0.000000  1
  Sn  Sn3  1  0.251973  0.252619  0.500000  1
  Sn  Sn4  1  0.748027  0.000646  0.500000  1
  Pt  Pt5  1  0.658996  0.322364  0.500000  1
  Pt  Pt6  1  0.000000  0.012374  0.000000  1
  Pt  Pt7  1  0.341004  0.663369  0.500000  1
  Pb  Pb8  1  0.000000  0.746480  0.500000  1
