# generated using pymatgen
data_Tb2ThMn2Co9B4
_symmetry_space_group_name_H-M   'P 1'
_cell_length_a   5.10491615
_cell_length_b   5.10601895
_cell_length_c   9.76484900
_cell_angle_alpha   89.99935712
_cell_angle_beta   90.00076777
_cell_angle_gamma   119.98652303
_symmetry_Int_Tables_number   1
_chemical_formula_structural   Tb2ThMn2Co9B4
_chemical_formula_sum   'Tb2 Th1 Mn2 Co9 B4'
_cell_volume   220.45815101
_cell_formula_units_Z   1
loop_
 _symmetry_equiv_pos_site_id
 _symmetry_equiv_pos_as_xyz
  1  'x, y, z'
loop_
 _atom_site_type_symbol
 _atom_site_label
 _atom_site_symmetry_multiplicity
 _atom_site_fract_x
 _atom_site_fract_y
 _atom_site_fract_z
 _atom_site_occupancy
  Tb  Tb0  1  0.999991  0.000013  0.343966  1
  Tb  Tb1  1  0.999997  0.000011  0.656375  1
  Th  Th2  1  0.999997  0.999971  0.999926  1
  Mn  Mn3  1  0.333398  0.666458  0.999930  1
  Mn  Mn4  1  0.666582  0.333466  0.999887  1
  Co  Co5  1  0.499979  0.999981  0.500084  1
  Co  Co6  1  0.499981  0.500022  0.500062  1
  Co  Co7  1  0.000020  0.500024  0.500085  1
  Co  Co8  1  0.500007  0.000038  0.207263  1
  Co  Co9  1  0.500009  0.499991  0.207356  1
  Co  Co10  1  0.999960  0.499992  0.207334  1
  Co  Co11  1  0.500009  0.000028  0.792554  1
  Co  Co12  1  0.500014  0.499992  0.792484  1
  Co  Co13  1  0.999974  0.499996  0.792543  1
  B  B14  1  0.333238  0.666660  0.350621  1
  B  B15  1  0.666748  0.333351  0.350671  1
  B  B16  1  0.666703  0.333307  0.649409  1
  B  B17  1  0.333292  0.666699  0.649452  1
