# generated using pymatgen
data_ZnSn2(ClO)2
_symmetry_space_group_name_H-M   'P 1'
_cell_length_a   6.17674569
_cell_length_b   6.17674579
_cell_length_c   7.80925314
_cell_angle_alpha   60.12636784
_cell_angle_beta   60.12636974
_cell_angle_gamma   34.67246369
_symmetry_Int_Tables_number   1
_chemical_formula_structural   ZnSn2(ClO)2
_chemical_formula_sum   'Zn1 Sn2 Cl2 O2'
_cell_volume   144.59020134
_cell_formula_units_Z   1
loop_
 _symmetry_equiv_pos_site_id
 _symmetry_equiv_pos_as_xyz
  1  'x, y, z'
loop_
 _atom_site_type_symbol
 _atom_site_label
 _atom_site_symmetry_multiplicity
 _atom_site_fract_x
 _atom_site_fract_y
 _atom_site_fract_z
 _atom_site_occupancy
  Zn  Zn0  1  0.000000  0.000000  0.000000  1
  Sn  Sn1  1  0.191548  0.191548  0.225515  1
  Sn  Sn2  1  0.808452  0.808452  0.774485  1
  Cl  Cl3  1  0.437407  0.437407  0.266821  1
  Cl  Cl4  1  0.562593  0.562593  0.733179  1
  O  O5  1  0.187233  0.187233  0.942455  1
  O  O6  1  0.812767  0.812767  0.057545  1
