# generated using pymatgen
data_AcTa8CdS16
_symmetry_space_group_name_H-M   'P 1'
_cell_length_a   6.74499800
_cell_length_b   6.74499797
_cell_length_c   13.89259400
_cell_angle_alpha   90.00000000
_cell_angle_beta   90.00000000
_cell_angle_gamma   120.00000997
_symmetry_Int_Tables_number   1
_chemical_formula_structural   AcTa8CdS16
_chemical_formula_sum   'Ac1 Ta8 Cd1 S16'
_cell_volume   547.36570116
_cell_formula_units_Z   1
loop_
 _symmetry_equiv_pos_site_id
 _symmetry_equiv_pos_as_xyz
  1  'x, y, z'
loop_
 _atom_site_type_symbol
 _atom_site_label
 _atom_site_symmetry_multiplicity
 _atom_site_fract_x
 _atom_site_fract_y
 _atom_site_fract_z
 _atom_site_occupancy
  Ac  Ac0  1  0.000000  0.000000  0.500000  1
  Ta  Ta1  1  0.505662  0.494338  0.765267  1
  Ta  Ta2  1  0.011324  0.505662  0.234733  1
  Ta  Ta3  1  0.494338  0.988676  0.234733  1
  Ta  Ta4  1  0.505662  0.011324  0.765267  1
  Ta  Ta5  1  0.988676  0.494338  0.765267  1
  Ta  Ta6  1  0.494338  0.505662  0.234733  1
  Ta  Ta7  1  0.000000  0.000000  0.764853  1
  Ta  Ta8  1  0.000000  0.000000  0.235147  1
  Cd  Cd9  1  0.000000  0.000000  0.000000  1
  S  S10  1  0.830623  0.169377  0.345306  1
  S  S11  1  0.830623  0.661243  0.345306  1
  S  S12  1  0.338757  0.169377  0.345306  1
  S  S13  1  0.657563  0.828782  0.874802  1
  S  S14  1  0.169377  0.338757  0.654694  1
  S  S15  1  0.171218  0.828782  0.874802  1
  S  S16  1  0.171218  0.342437  0.874802  1
  S  S17  1  0.828782  0.171218  0.125198  1
  S  S18  1  0.342437  0.171218  0.125198  1
  S  S19  1  0.661243  0.830623  0.654694  1
  S  S20  1  0.333333  0.666667  0.121356  1
  S  S21  1  0.666667  0.333333  0.649070  1
  S  S22  1  0.666667  0.333333  0.878644  1
  S  S23  1  0.333333  0.666667  0.350930  1
  S  S24  1  0.828782  0.657563  0.125198  1
  S  S25  1  0.169377  0.830623  0.654694  1
