# generated using pymatgen
data_Ga11FeRh12
_symmetry_space_group_name_H-M   'P 1'
_cell_length_a   4.28071100
_cell_length_b   6.04492800
_cell_length_c   12.90320500
_cell_angle_alpha   90.00000000
_cell_angle_beta   90.00041492
_cell_angle_gamma   89.99997157
_symmetry_Int_Tables_number   1
_chemical_formula_structural   Ga11FeRh12
_chemical_formula_sum   'Ga11 Fe1 Rh12'
_cell_volume   333.89094268
_cell_formula_units_Z   1
loop_
 _symmetry_equiv_pos_site_id
 _symmetry_equiv_pos_as_xyz
  1  'x, y, z'
loop_
 _atom_site_type_symbol
 _atom_site_label
 _atom_site_symmetry_multiplicity
 _atom_site_fract_x
 _atom_site_fract_y
 _atom_site_fract_z
 _atom_site_occupancy
  Ga  Ga0  1  0.000116  0.999557  0.999926  1
  Ga  Ga1  1  0.499916  0.499972  0.165507  1
  Ga  Ga2  1  0.999884  0.000000  0.333334  1
  Ga  Ga3  1  0.499956  0.500030  0.501161  1
  Ga  Ga4  1  0.999984  0.000444  0.666740  1
  Ga  Ga5  1  0.000174  0.500591  0.992593  1
  Ga  Ga6  1  0.499908  0.999856  0.166700  1
  Ga  Ga7  1  0.999884  0.500001  0.333335  1
  Ga  Ga8  1  0.499966  0.000144  0.499968  1
  Ga  Ga9  1  0.999902  0.499413  0.674070  1
  Ga  Ga10  1  0.500146  0.000000  0.833334  1
  Fe  Fe11  1  0.500156  0.499999  0.833328  1
  Rh  Rh12  1  0.499554  0.250077  0.001129  1
  Rh  Rh13  1  0.500488  0.747992  0.001224  1
  Rh  Rh14  1  0.999893  0.250740  0.166645  1
  Rh  Rh15  1  0.000074  0.749604  0.166878  1
  Rh  Rh16  1  0.499956  0.250012  0.333328  1
  Rh  Rh17  1  0.499814  0.749988  0.333341  1
  Rh  Rh18  1  0.999808  0.250396  0.499790  1
  Rh  Rh19  1  0.999993  0.749263  0.500026  1
  Rh  Rh20  1  0.499580  0.252006  0.665441  1
  Rh  Rh21  1  0.500525  0.749925  0.665536  1
  Rh  Rh22  1  0.000532  0.246960  0.834411  1
  Rh  Rh23  1  0.999792  0.753040  0.832254  1
