# generated using pymatgen
data_TbY(Fe5P3)2
_symmetry_space_group_name_H-M   'P 1'
_cell_length_a   3.65882700
_cell_length_b   10.32712400
_cell_length_c   11.84669200
_cell_angle_alpha   90.00000000
_cell_angle_beta   90.00000000
_cell_angle_gamma   90.00000000
_symmetry_Int_Tables_number   1
_chemical_formula_structural   TbY(Fe5P3)2
_chemical_formula_sum   'Tb2 Y2 Fe20 P12'
_cell_volume   447.62915415
_cell_formula_units_Z   2
loop_
 _symmetry_equiv_pos_site_id
 _symmetry_equiv_pos_as_xyz
  1  'x, y, z'
loop_
 _atom_site_type_symbol
 _atom_site_label
 _atom_site_symmetry_multiplicity
 _atom_site_fract_x
 _atom_site_fract_y
 _atom_site_fract_z
 _atom_site_occupancy
  Tb  Tb0  1  0.750000  0.419271  0.295584  1
  Tb  Tb1  1  0.750000  0.080729  0.795584  1
  Y  Y2  1  0.250000  0.581088  0.704521  1
  Y  Y3  1  0.250000  0.918912  0.204521  1
  Fe  Fe4  1  0.250000  0.707939  0.988722  1
  Fe  Fe5  1  0.250000  0.792061  0.488722  1
  Fe  Fe6  1  0.750000  0.292093  0.011311  1
  Fe  Fe7  1  0.750000  0.207907  0.511311  1
  Fe  Fe8  1  0.250000  0.405098  0.490619  1
  Fe  Fe9  1  0.250000  0.094902  0.990619  1
  Fe  Fe10  1  0.750000  0.595099  0.509462  1
  Fe  Fe11  1  0.750000  0.904901  0.009462  1
  Fe  Fe12  1  0.250000  0.218967  0.176591  1
  Fe  Fe13  1  0.250000  0.281033  0.676591  1
  Fe  Fe14  1  0.750000  0.780736  0.823547  1
  Fe  Fe15  1  0.750000  0.719264  0.323547  1
  Fe  Fe16  1  0.250000  0.875721  0.701104  1
  Fe  Fe17  1  0.250000  0.624279  0.201104  1
  Fe  Fe18  1  0.750000  0.124175  0.298790  1
  Fe  Fe19  1  0.750000  0.375825  0.798790  1
  Fe  Fe20  1  0.250000  0.463429  0.932360  1
  Fe  Fe21  1  0.250000  0.036571  0.432360  1
  Fe  Fe22  1  0.750000  0.536733  0.067392  1
  Fe  Fe23  1  0.750000  0.963267  0.567392  1
  P  P24  1  0.250000  0.421987  0.111894  1
  P  P25  1  0.250000  0.078013  0.611894  1
  P  P26  1  0.750000  0.578192  0.887904  1
  P  P27  1  0.750000  0.921808  0.387904  1
  P  P28  1  0.250000  0.266818  0.872108  1
  P  P29  1  0.250000  0.233182  0.372108  1
  P  P30  1  0.750000  0.733283  0.128157  1
  P  P31  1  0.750000  0.766717  0.628157  1
  P  P32  1  0.250000  0.601536  0.396750  1
  P  P33  1  0.250000  0.898464  0.896750  1
  P  P34  1  0.750000  0.398955  0.603184  1
  P  P35  1  0.750000  0.101045  0.103184  1
