# generated using pymatgen
data_La2Pr3Sn2Ru3
_symmetry_space_group_name_H-M   'P 1'
_cell_length_a   8.77723357
_cell_length_b   8.77723411
_cell_length_c   8.77723400
_cell_angle_alpha   109.47122270
_cell_angle_beta   109.47122394
_cell_angle_gamma   109.47121283
_symmetry_Int_Tables_number   1
_chemical_formula_structural   La2Pr3Sn2Ru3
_chemical_formula_sum   'La4 Pr6 Sn4 Ru6'
_cell_volume   520.53643874
_cell_formula_units_Z   2
loop_
 _symmetry_equiv_pos_site_id
 _symmetry_equiv_pos_as_xyz
  1  'x, y, z'
loop_
 _atom_site_type_symbol
 _atom_site_label
 _atom_site_symmetry_multiplicity
 _atom_site_fract_x
 _atom_site_fract_y
 _atom_site_fract_z
 _atom_site_occupancy
  La  La0  1  0.200738  0.200738  0.200738  1
  La  La1  1  0.500001  0.000000  0.299262  1
  La  La2  1  0.299262  0.500001  0.000000  1
  La  La3  1  0.000000  0.299262  0.500001  1
  Pr  Pr4  1  0.250000  0.688825  0.438826  1
  Pr  Pr5  1  0.750000  0.811175  0.061175  1
  Pr  Pr6  1  0.438826  0.250000  0.688825  1
  Pr  Pr7  1  0.688825  0.438826  0.250000  1
  Pr  Pr8  1  0.061175  0.750000  0.811175  1
  Pr  Pr9  1  0.811175  0.061175  0.750000  1
  Sn  Sn10  1  0.500001  0.000000  0.904817  1
  Sn  Sn11  1  0.595183  0.595183  0.595183  1
  Sn  Sn12  1  0.904817  0.500001  0.000000  1
  Sn  Sn13  1  0.000000  0.904817  0.500001  1
  Ru  Ru14  1  0.250001  0.133590  0.883590  1
  Ru  Ru15  1  0.750000  0.366409  0.616409  1
  Ru  Ru16  1  0.883590  0.250001  0.133590  1
  Ru  Ru17  1  0.133590  0.883590  0.250001  1
  Ru  Ru18  1  0.616409  0.750000  0.366409  1
  Ru  Ru19  1  0.366409  0.616409  0.750000  1
