# generated using pymatgen
data_ErTm3(NiB4)4
_symmetry_space_group_name_H-M   'P 1'
_cell_length_a   6.78572202
_cell_length_b   6.78572097
_cell_length_c   6.78572107
_cell_angle_alpha   112.99557003
_cell_angle_beta   112.99556259
_cell_angle_gamma   102.63152218
_symmetry_Int_Tables_number   1
_chemical_formula_structural   ErTm3(NiB4)4
_chemical_formula_sum   'Er1 Tm3 Ni4 B16'
_cell_volume   238.00016719
_cell_formula_units_Z   1
loop_
 _symmetry_equiv_pos_site_id
 _symmetry_equiv_pos_as_xyz
  1  'x, y, z'
loop_
 _atom_site_type_symbol
 _atom_site_label
 _atom_site_symmetry_multiplicity
 _atom_site_fract_x
 _atom_site_fract_y
 _atom_site_fract_z
 _atom_site_occupancy
  Er  Er0  1  0.203597  0.203597  0.000000  1
  Tm  Tm1  1  0.250040  0.750040  0.500000  1
  Tm  Tm2  1  0.750040  0.250040  0.500000  1
  Tm  Tm3  1  0.796458  0.796458  0.000000  1
  Ni  Ni4  1  0.499384  0.727387  0.228003  1
  Ni  Ni5  1  0.727387  0.499384  0.228003  1
  Ni  Ni6  1  0.271381  0.499384  0.771997  1
  Ni  Ni7  1  0.499384  0.271381  0.771997  1
  B  B8  1  0.113295  0.113295  0.532904  1
  B  B9  1  0.580391  0.580391  0.467096  1
  B  B10  1  0.886031  0.886031  0.465610  1
  B  B11  1  0.580391  0.113295  0.000000  1
  B  B12  1  0.113295  0.580391  0.000000  1
  B  B13  1  0.886031  0.420422  0.000000  1
  B  B14  1  0.420422  0.886031  0.000000  1
  B  B15  1  0.420422  0.420422  0.534390  1
  B  B16  1  0.111676  0.275902  0.387065  1
  B  B17  1  0.275902  0.888836  0.164226  1
  B  B18  1  0.724611  0.111676  0.835774  1
  B  B19  1  0.111676  0.724611  0.835774  1
  B  B20  1  0.888836  0.275902  0.164226  1
  B  B21  1  0.888836  0.724611  0.612935  1
  B  B22  1  0.724611  0.888836  0.612935  1
  B  B23  1  0.275902  0.111676  0.387065  1
