# generated using pymatgen
data_Yb3In2HgPt3
_symmetry_space_group_name_H-M   'P 1'
_cell_length_a   7.62825500
_cell_length_b   7.56449631
_cell_length_c   4.01948000
_cell_angle_alpha   90.00000000
_cell_angle_beta   90.00000000
_cell_angle_gamma   120.27920787
_symmetry_Int_Tables_number   1
_chemical_formula_structural   Yb3In2HgPt3
_chemical_formula_sum   'Yb3 In2 Hg1 Pt3'
_cell_volume   200.29815673
_cell_formula_units_Z   1
loop_
 _symmetry_equiv_pos_site_id
 _symmetry_equiv_pos_as_xyz
  1  'x, y, z'
loop_
 _atom_site_type_symbol
 _atom_site_label
 _atom_site_symmetry_multiplicity
 _atom_site_fract_x
 _atom_site_fract_y
 _atom_site_fract_z
 _atom_site_occupancy
  Yb  Yb0  1  0.411390  0.000000  0.000000  1
  Yb  Yb1  1  0.992524  0.394295  0.000000  1
  Yb  Yb2  1  0.598229  0.605705  0.000000  1
  In  In3  1  0.000600  0.739732  0.500000  1
  In  In4  1  0.260868  0.260268  0.500000  1
  Hg  Hg5  1  0.736098  0.000000  0.500000  1
  Pt  Pt6  1  0.317471  0.653592  0.500000  1
  Pt  Pt7  1  0.663880  0.346408  0.500000  1
  Pt  Pt8  1  0.018939  0.000000  0.000000  1
