# generated using pymatgen
data_Lu2ZrScAl15(GaIr2)3
_symmetry_space_group_name_H-M   'P 1'
_cell_length_a   7.50396600
_cell_length_b   7.50150517
_cell_length_c   9.36507200
_cell_angle_alpha   90.00000000
_cell_angle_beta   90.00000000
_cell_angle_gamma   119.67883949
_symmetry_Int_Tables_number   1
_chemical_formula_structural   Lu2ZrScAl15(GaIr2)3
_chemical_formula_sum   'Lu2 Zr1 Sc1 Al15 Ga3 Ir6'
_cell_volume   458.01259476
_cell_formula_units_Z   1
loop_
 _symmetry_equiv_pos_site_id
 _symmetry_equiv_pos_as_xyz
  1  'x, y, z'
loop_
 _atom_site_type_symbol
 _atom_site_label
 _atom_site_symmetry_multiplicity
 _atom_site_fract_x
 _atom_site_fract_y
 _atom_site_fract_z
 _atom_site_occupancy
  Lu  Lu0  1  0.007025  0.326307  0.750000  1
  Lu  Lu1  1  0.328806  0.008736  0.750000  1
  Zr  Zr2  1  0.999450  0.670421  0.250000  1
  Sc  Sc3  1  0.670741  0.999599  0.250000  1
  Al  Al4  1  0.122050  0.120802  0.250000  1
  Al  Al5  1  0.997034  0.334251  0.080350  1
  Al  Al6  1  0.998093  0.664766  0.928797  1
  Al  Al7  1  0.998093  0.664766  0.571203  1
  Al  Al8  1  0.335153  0.997771  0.419595  1
  Al  Al9  1  0.997034  0.334251  0.419650  1
  Al  Al10  1  0.664519  0.997347  0.571226  1
  Al  Al11  1  0.664519  0.997347  0.928774  1
  Al  Al12  1  0.335153  0.997771  0.080405  1
  Al  Al13  1  0.335672  0.335906  0.545381  1
  Al  Al14  1  0.671109  0.671639  0.430532  1
  Al  Al15  1  0.671109  0.671639  0.069468  1
  Al  Al16  1  0.335672  0.335906  0.954619  1
  Al  Al17  1  0.335967  0.552580  0.250000  1
  Al  Al18  1  0.554638  0.339054  0.250000  1
  Ga  Ga19  1  0.868634  0.868405  0.750000  1
  Ga  Ga20  1  0.657714  0.451228  0.750000  1
  Ga  Ga21  1  0.450009  0.657678  0.750000  1
  Ir  Ir22  1  0.672751  0.327712  0.002492  1
  Ir  Ir23  1  0.327198  0.672459  0.003105  1
  Ir  Ir24  1  0.327198  0.672459  0.496895  1
  Ir  Ir25  1  0.672751  0.327712  0.497508  1
  Ir  Ir26  1  0.000952  0.000744  0.002017  1
  Ir  Ir27  1  0.000952  0.000744  0.497983  1
