# generated using pymatgen
data_PrGd3(As4O9)2
_symmetry_space_group_name_H-M   'P 1'
_cell_length_a   6.88602760
_cell_length_b   7.67379448
_cell_length_c   9.92071562
_cell_angle_alpha   94.95588717
_cell_angle_beta   104.05253979
_cell_angle_gamma   104.85970187
_symmetry_Int_Tables_number   1
_chemical_formula_structural   PrGd3(As4O9)2
_chemical_formula_sum   'Pr1 Gd3 As8 O18'
_cell_volume   485.31716551
_cell_formula_units_Z   1
loop_
 _symmetry_equiv_pos_site_id
 _symmetry_equiv_pos_as_xyz
  1  'x, y, z'
loop_
 _atom_site_type_symbol
 _atom_site_label
 _atom_site_symmetry_multiplicity
 _atom_site_fract_x
 _atom_site_fract_y
 _atom_site_fract_z
 _atom_site_occupancy
  Pr  Pr0  1  0.246608  0.941236  0.615626  1
  Gd  Gd1  1  0.753450  0.061929  0.383289  1
  Gd  Gd2  1  0.718546  0.530076  0.406073  1
  Gd  Gd3  1  0.281198  0.468667  0.592411  1
  As  As4  1  0.679022  0.778203  0.076256  1
  As  As5  1  0.321669  0.224814  0.927436  1
  As  As6  1  0.175894  0.753193  0.914500  1
  As  As7  1  0.823412  0.245632  0.086795  1
  As  As8  1  0.748300  0.915105  0.707667  1
  As  As9  1  0.253809  0.083777  0.289199  1
  As  As10  1  0.809299  0.349446  0.699960  1
  As  As11  1  0.192145  0.648933  0.298641  1
  O  O12  1  0.720374  0.751368  0.254832  1
  O  O13  1  0.279551  0.254361  0.749269  1
  O  O14  1  0.316911  0.980728  0.878202  1
  O  O15  1  0.683188  0.021029  0.127735  1
  O  O16  1  0.606100  0.319275  0.985763  1
  O  O17  1  0.394805  0.680885  0.015249  1
  O  O18  1  0.135986  0.651132  0.740874  1
  O  O19  1  0.863479  0.349487  0.259308  1
  O  O20  1  0.840338  0.871598  0.555661  1
  O  O21  1  0.151363  0.132529  0.435342  1
  O  O22  1  0.494713  0.767386  0.669064  1
  O  O23  1  0.510455  0.228642  0.333417  1
  O  O24  1  0.373860  0.538660  0.378711  1
  O  O25  1  0.626441  0.458877  0.619318  1
  O  O26  1  0.087156  0.661728  0.449543  1
  O  O27  1  0.911027  0.331076  0.547649  1
  O  O28  1  0.367419  0.899070  0.360398  1
  O  O29  1  0.633481  0.101156  0.641813  1
