# generated using pymatgen
data_SmLu3Hf4F28
_symmetry_space_group_name_H-M   'P 1'
_cell_length_a   5.67263330
_cell_length_b   8.97718052
_cell_length_c   12.06507888
_cell_angle_alpha   62.47091891
_cell_angle_beta   89.95494264
_cell_angle_gamma   90.04202612
_symmetry_Int_Tables_number   1
_chemical_formula_structural   SmLu3Hf4F28
_chemical_formula_sum   'Sm1 Lu3 Hf4 F28'
_cell_volume   544.83935631
_cell_formula_units_Z   1
loop_
 _symmetry_equiv_pos_site_id
 _symmetry_equiv_pos_as_xyz
  1  'x, y, z'
loop_
 _atom_site_type_symbol
 _atom_site_label
 _atom_site_symmetry_multiplicity
 _atom_site_fract_x
 _atom_site_fract_y
 _atom_site_fract_z
 _atom_site_occupancy
  Sm  Sm0  1  0.756982  0.817300  0.766397  1
  Lu  Lu1  1  0.743695  0.818435  0.265855  1
  Lu  Lu2  1  0.243555  0.183899  0.234254  1
  Lu  Lu3  1  0.258145  0.188825  0.733452  1
  Hf  Hf4  1  0.743105  0.277928  0.452317  1
  Hf  Hf5  1  0.244187  0.725265  0.050294  1
  Hf  Hf6  1  0.255153  0.725460  0.540178  1
  Hf  Hf7  1  0.755930  0.269536  0.956996  1
  F  F8  1  0.460309  0.708333  0.925677  1
  F  F9  1  0.965887  0.289236  0.577025  1
  F  F10  1  0.531478  0.287133  0.078806  1
  F  F11  1  0.030759  0.710398  0.417951  1
  F  F12  1  0.453951  0.280790  0.549791  1
  F  F13  1  0.955191  0.715757  0.957429  1
  F  F14  1  0.548856  0.720628  0.446670  1
  F  F15  1  0.045053  0.277432  0.052870  1
  F  F16  1  0.770681  0.518955  0.860109  1
  F  F17  1  0.267908  0.473989  0.639709  1
  F  F18  1  0.234693  0.473370  0.144444  1
  F  F19  1  0.732454  0.528044  0.355913  1
  F  F20  1  0.759119  0.019480  0.059670  1
  F  F21  1  0.258216  0.976198  0.440139  1
  F  F22  1  0.240496  0.974700  0.943517  1
  F  F23  1  0.739878  0.027474  0.552995  1
  F  F24  1  0.984474  0.730951  0.644191  1
  F  F25  1  0.484619  0.266208  0.850859  1
  F  F26  1  0.011395  0.264902  0.347780  1
  F  F27  1  0.514509  0.735567  0.153964  1
  F  F28  1  0.030625  0.747503  0.176114  1
  F  F29  1  0.528262  0.253867  0.326746  1
  F  F30  1  0.969455  0.250522  0.828778  1
  F  F31  1  0.458742  0.743026  0.670187  1
  F  F32  1  0.434301  0.977252  0.235919  1
  F  F33  1  0.934551  0.024304  0.264377  1
  F  F34  1  0.567758  0.037420  0.765656  1
  F  F35  1  0.085629  0.979912  0.732969  1
