# generated using pymatgen
data_TmLu2Ga3Ge2Ir
_symmetry_space_group_name_H-M   'P 1'
_cell_length_a   6.90734100
_cell_length_b   6.92711911
_cell_length_c   4.14995400
_cell_angle_alpha   90.00000000
_cell_angle_beta   90.00000000
_cell_angle_gamma   119.90559180
_symmetry_Int_Tables_number   1
_chemical_formula_structural   TmLu2Ga3Ge2Ir
_chemical_formula_sum   'Tm1 Lu2 Ga3 Ge2 Ir1'
_cell_volume   172.12733058
_cell_formula_units_Z   1
loop_
 _symmetry_equiv_pos_site_id
 _symmetry_equiv_pos_as_xyz
  1  'x, y, z'
loop_
 _atom_site_type_symbol
 _atom_site_label
 _atom_site_symmetry_multiplicity
 _atom_site_fract_x
 _atom_site_fract_y
 _atom_site_fract_z
 _atom_site_occupancy
  Tm  Tm0  1  0.411951  0.000000  0.000000  1
  Lu  Lu1  1  0.000640  0.410794  0.000000  1
  Lu  Lu2  1  0.589844  0.589205  0.000000  1
  Ga  Ga3  1  0.764542  0.000000  0.500001  1
  Ga  Ga4  1  0.234701  0.234317  0.500001  1
  Ga  Ga5  1  0.000382  0.765682  0.500001  1
  Ge  Ge6  1  0.667602  0.334899  0.500001  1
  Ge  Ge7  1  0.332703  0.665102  0.500001  1
  Ir  Ir8  1  0.997633  0.000000  0.000000  1
