# generated using pymatgen
data_Tb3Al2GaNiPd2
_symmetry_space_group_name_H-M   'P 1'
_cell_length_a   7.30874900
_cell_length_b   7.22560075
_cell_length_c   3.85440000
_cell_angle_alpha   90.00000000
_cell_angle_beta   90.00000000
_cell_angle_gamma   120.38138537
_symmetry_Int_Tables_number   1
_chemical_formula_structural   Tb3Al2GaNiPd2
_chemical_formula_sum   'Tb3 Al2 Ga1 Ni1 Pd2'
_cell_volume   175.59919779
_cell_formula_units_Z   1
loop_
 _symmetry_equiv_pos_site_id
 _symmetry_equiv_pos_as_xyz
  1  'x, y, z'
loop_
 _atom_site_type_symbol
 _atom_site_label
 _atom_site_symmetry_multiplicity
 _atom_site_fract_x
 _atom_site_fract_y
 _atom_site_fract_z
 _atom_site_occupancy
  Tb  Tb0  1  0.411529  0.000000  0.500000  1
  Tb  Tb1  1  0.996839  0.402926  0.500000  1
  Tb  Tb2  1  0.593914  0.597074  0.500000  1
  Al  Al3  1  0.001251  0.768657  0.000000  1
  Al  Al4  1  0.232594  0.231343  0.000000  1
  Ga  Ga5  1  0.763764  0.000000  0.000000  1
  Ni  Ni6  1  0.007604  0.000000  0.500000  1
  Pd  Pd7  1  0.327119  0.661735  0.000000  1
  Pd  Pd8  1  0.665386  0.338265  0.000000  1
