# generated using pymatgen
data_FeBiAsO5
_symmetry_space_group_name_H-M   'P 1'
_cell_length_a   6.98215418
_cell_length_b   7.84224274
_cell_length_c   9.32515197
_cell_angle_alpha   77.34025116
_cell_angle_beta   94.16620158
_cell_angle_gamma   68.09839568
_symmetry_Int_Tables_number   1
_chemical_formula_structural   FeBiAsO5
_chemical_formula_sum   'Fe4 Bi4 As4 O20'
_cell_volume   455.46283661
_cell_formula_units_Z   4
loop_
 _symmetry_equiv_pos_site_id
 _symmetry_equiv_pos_as_xyz
  1  'x, y, z'
loop_
 _atom_site_type_symbol
 _atom_site_label
 _atom_site_symmetry_multiplicity
 _atom_site_fract_x
 _atom_site_fract_y
 _atom_site_fract_z
 _atom_site_occupancy
  Fe  Fe0  1  0.374457  0.851080  0.520126  1
  Fe  Fe1  1  0.625543  0.148920  0.479874  1
  Fe  Fe2  1  0.874457  0.351080  0.020126  1
  Fe  Fe3  1  0.125543  0.648920  0.979874  1
  Bi  Bi4  1  0.104024  0.424846  0.333334  1
  Bi  Bi5  1  0.604024  0.924846  0.833334  1
  Bi  Bi6  1  0.895976  0.575154  0.666666  1
  Bi  Bi7  1  0.395976  0.075154  0.166666  1
  As  As8  1  0.468419  0.415224  0.765615  1
  As  As9  1  0.968419  0.915224  0.265615  1
  As  As10  1  0.531581  0.584776  0.234385  1
  As  As11  1  0.031581  0.084776  0.734385  1
  O  O12  1  0.161965  0.387008  0.117434  1
  O  O13  1  0.661965  0.887008  0.617434  1
  O  O14  1  0.838035  0.612992  0.882566  1
  O  O15  1  0.338035  0.112992  0.382566  1
  O  O16  1  0.036343  0.255155  0.824942  1
  O  O17  1  0.536343  0.755155  0.324942  1
  O  O18  1  0.963657  0.744845  0.175058  1
  O  O19  1  0.463657  0.244845  0.675058  1
  O  O20  1  0.216293  0.555828  0.783165  1
  O  O21  1  0.716293  0.055828  0.283165  1
  O  O22  1  0.783707  0.444172  0.216835  1
  O  O23  1  0.283707  0.944172  0.716835  1
  O  O24  1  0.386562  0.700236  0.060231  1
  O  O25  1  0.886562  0.200236  0.560231  1
  O  O26  1  0.613438  0.299764  0.939769  1
  O  O27  1  0.113438  0.799764  0.439769  1
  O  O28  1  0.558934  0.566703  0.654150  1
  O  O29  1  0.058934  0.066703  0.154150  1
  O  O30  1  0.441066  0.433297  0.345850  1
  O  O31  1  0.941066  0.933297  0.845850  1
