# generated using pymatgen
data_NdLu(TcO4)6
_symmetry_space_group_name_H-M   'P 1'
_cell_length_a   10.10169100
_cell_length_b   10.10168996
_cell_length_c   6.25017800
_cell_angle_alpha   90.00000000
_cell_angle_beta   90.00000000
_cell_angle_gamma   120.00000142
_symmetry_Int_Tables_number   1
_chemical_formula_structural   NdLu(TcO4)6
_chemical_formula_sum   'Nd1 Lu1 Tc6 O24'
_cell_volume   552.34588917
_cell_formula_units_Z   1
loop_
 _symmetry_equiv_pos_site_id
 _symmetry_equiv_pos_as_xyz
  1  'x, y, z'
loop_
 _atom_site_type_symbol
 _atom_site_label
 _atom_site_symmetry_multiplicity
 _atom_site_fract_x
 _atom_site_fract_y
 _atom_site_fract_z
 _atom_site_occupancy
  Nd  Nd0  1  0.333333  0.666667  0.250000  1
  Lu  Lu1  1  0.666667  0.333333  0.750000  1
  Tc  Tc2  1  0.612252  0.701489  0.750000  1
  Tc  Tc3  1  0.089237  0.387748  0.750000  1
  Tc  Tc4  1  0.298511  0.910763  0.750000  1
  Tc  Tc5  1  0.403193  0.297454  0.250000  1
  Tc  Tc6  1  0.894260  0.596807  0.250000  1
  Tc  Tc7  1  0.702546  0.105740  0.250000  1
  O  O8  1  0.567253  0.510448  0.750000  1
  O  O9  1  0.943194  0.432747  0.750000  1
  O  O10  1  0.489552  0.056806  0.750000  1
  O  O11  1  0.444084  0.486654  0.250000  1
  O  O12  1  0.042571  0.555916  0.250000  1
  O  O13  1  0.513346  0.957429  0.250000  1
  O  O14  1  0.481924  0.263247  0.019822  1
  O  O15  1  0.781323  0.518076  0.019822  1
  O  O16  1  0.736753  0.218677  0.019822  1
  O  O17  1  0.534168  0.739750  0.523277  1
  O  O18  1  0.205584  0.465832  0.523277  1
  O  O19  1  0.260250  0.794416  0.523277  1
  O  O20  1  0.534168  0.739750  0.976723  1
  O  O21  1  0.205584  0.465832  0.976723  1
  O  O22  1  0.260250  0.794416  0.976723  1
  O  O23  1  0.481924  0.263247  0.480178  1
  O  O24  1  0.781323  0.518076  0.480178  1
  O  O25  1  0.736753  0.218677  0.480178  1
  O  O26  1  0.805560  0.818096  0.750000  1
  O  O27  1  0.012536  0.194440  0.750000  1
  O  O28  1  0.181904  0.987464  0.750000  1
  O  O29  1  0.210145  0.178281  0.250000  1
  O  O30  1  0.968136  0.789855  0.250000  1
  O  O31  1  0.821719  0.031864  0.250000  1
