# generated using pymatgen
data_PrNd5(Bi4Au3)2
_symmetry_space_group_name_H-M   'P 1'
_cell_length_a   8.97226557
_cell_length_b   8.97226536
_cell_length_c   8.97226493
_cell_angle_alpha   109.44514298
_cell_angle_beta   109.52337837
_cell_angle_gamma   109.44515356
_symmetry_Int_Tables_number   1
_chemical_formula_structural   PrNd5(Bi4Au3)2
_chemical_formula_sum   'Pr1 Nd5 Bi8 Au6'
_cell_volume   556.01198788
_cell_formula_units_Z   1
loop_
 _symmetry_equiv_pos_site_id
 _symmetry_equiv_pos_as_xyz
  1  'x, y, z'
loop_
 _atom_site_type_symbol
 _atom_site_label
 _atom_site_symmetry_multiplicity
 _atom_site_fract_x
 _atom_site_fract_y
 _atom_site_fract_z
 _atom_site_occupancy
  Pr  Pr0  1  0.875000  0.250000  0.125000  1
  Nd  Nd1  1  0.625000  0.750000  0.375000  1
  Nd  Nd2  1  0.249956  0.124922  0.874896  1
  Nd  Nd3  1  0.749974  0.375078  0.625034  1
  Nd  Nd4  1  0.125104  0.875060  0.250026  1
  Nd  Nd5  1  0.374966  0.624940  0.750044  1
  Bi  Bi6  1  0.678067  0.500009  0.999821  1
  Bi  Bi7  1  0.499812  0.999991  0.678058  1
  Bi  Bi8  1  0.000155  0.678812  0.500290  1
  Bi  Bi9  1  0.821478  0.821188  0.821344  1
  Bi  Bi10  1  0.499710  0.999865  0.178522  1
  Bi  Bi11  1  0.178656  0.500135  0.999845  1
  Bi  Bi12  1  0.000179  0.178246  0.500188  1
  Bi  Bi13  1  0.321942  0.321754  0.321933  1
  Au  Au14  1  0.375000  0.250000  0.625000  1
  Au  Au15  1  0.125000  0.750000  0.875000  1
  Au  Au16  1  0.251237  0.626067  0.375639  1
  Au  Au17  1  0.749572  0.873933  0.125170  1
  Au  Au18  1  0.624361  0.375598  0.250428  1
  Au  Au19  1  0.874830  0.124402  0.748763  1
