# generated using pymatgen
data_Li4Tb3ErSi8
_symmetry_space_group_name_H-M   'P 1'
_cell_length_a   3.79842600
_cell_length_b   7.58552953
_cell_length_c   10.18278204
_cell_angle_alpha   90.07199129
_cell_angle_beta   90.00000000
_cell_angle_gamma   90.00000000
_symmetry_Int_Tables_number   1
_chemical_formula_structural   Li4Tb3ErSi8
_chemical_formula_sum   'Li4 Tb3 Er1 Si8'
_cell_volume   293.39700635
_cell_formula_units_Z   1
loop_
 _symmetry_equiv_pos_site_id
 _symmetry_equiv_pos_as_xyz
  1  'x, y, z'
loop_
 _atom_site_type_symbol
 _atom_site_label
 _atom_site_symmetry_multiplicity
 _atom_site_fract_x
 _atom_site_fract_y
 _atom_site_fract_z
 _atom_site_occupancy
  Li  Li0  1  0.250000  0.989523  0.391825  1
  Li  Li1  1  0.250000  0.490775  0.108166  1
  Li  Li2  1  0.750000  0.009767  0.607964  1
  Li  Li3  1  0.750000  0.509328  0.891832  1
  Tb  Tb4  1  0.250000  0.140036  0.864317  1
  Tb  Tb5  1  0.250000  0.639136  0.635542  1
  Tb  Tb6  1  0.750000  0.860474  0.136263  1
  Er  Er7  1  0.750000  0.362139  0.364133  1
  Si  Si8  1  0.250000  0.232888  0.565762  1
  Si  Si9  1  0.250000  0.731502  0.931474  1
  Si  Si10  1  0.750000  0.766552  0.431255  1
  Si  Si11  1  0.750000  0.270031  0.070602  1
  Si  Si12  1  0.250000  0.653869  0.320729  1
  Si  Si13  1  0.250000  0.158633  0.181746  1
  Si  Si14  1  0.750000  0.342897  0.678166  1
  Si  Si15  1  0.750000  0.842449  0.820223  1
