# generated using pymatgen
data_Hf11Th8Si16Tc
_symmetry_space_group_name_H-M   'P 1'
_cell_length_a   7.36692042
_cell_length_b   7.36692112
_cell_length_c   13.55361489
_cell_angle_alpha   89.77233153
_cell_angle_beta   90.22767094
_cell_angle_gamma   89.98828855
_symmetry_Int_Tables_number   1
_chemical_formula_structural   Hf11Th8Si16Tc
_chemical_formula_sum   'Hf11 Th8 Si16 Tc1'
_cell_volume   735.56367111
_cell_formula_units_Z   1
loop_
 _symmetry_equiv_pos_site_id
 _symmetry_equiv_pos_as_xyz
  1  'x, y, z'
loop_
 _atom_site_type_symbol
 _atom_site_label
 _atom_site_symmetry_multiplicity
 _atom_site_fract_x
 _atom_site_fract_y
 _atom_site_fract_z
 _atom_site_occupancy
  Hf  Hf0  1  0.826975  0.826975  0.500000  1
  Hf  Hf1  1  0.324782  0.672781  0.248175  1
  Hf  Hf2  1  0.672781  0.324782  0.751825  1
  Hf  Hf3  1  0.153413  0.997237  0.372824  1
  Hf  Hf4  1  0.848581  0.002192  0.877630  1
  Hf  Hf5  1  0.502981  0.653636  0.625626  1
  Hf  Hf6  1  0.348152  0.494236  0.877931  1
  Hf  Hf7  1  0.494236  0.348152  0.122069  1
  Hf  Hf8  1  0.653636  0.502981  0.374374  1
  Hf  Hf9  1  0.997237  0.153413  0.627176  1
  Hf  Hf10  1  0.002192  0.848581  0.122370  1
  Th  Th11  1  0.999039  0.341600  0.214603  1
  Th  Th12  1  0.005480  0.657480  0.718171  1
  Th  Th13  1  0.157200  0.496169  0.466983  1
  Th  Th14  1  0.500307  0.844283  0.033424  1
  Th  Th15  1  0.844283  0.500307  0.966576  1
  Th  Th16  1  0.496169  0.157200  0.533017  1
  Th  Th17  1  0.341600  0.999039  0.785397  1
  Th  Th18  1  0.657480  0.005480  0.281829  1
  Si  Si19  1  0.366501  0.299063  0.314767  1
  Si  Si20  1  0.633385  0.701839  0.816096  1
  Si  Si21  1  0.201797  0.866768  0.566252  1
  Si  Si22  1  0.132077  0.798137  0.933073  1
  Si  Si23  1  0.798137  0.132077  0.066927  1
  Si  Si24  1  0.866768  0.201797  0.433748  1
  Si  Si25  1  0.299063  0.366501  0.685233  1
  Si  Si26  1  0.701839  0.633385  0.183904  1
  Si  Si27  1  0.288951  0.050453  0.181740  1
  Si  Si28  1  0.707935  0.954089  0.685785  1
  Si  Si29  1  0.453708  0.791060  0.434183  1
  Si  Si30  1  0.209632  0.547083  0.064515  1
  Si  Si31  1  0.547083  0.209632  0.935485  1
  Si  Si32  1  0.791060  0.453708  0.565817  1
  Si  Si33  1  0.050453  0.288951  0.818260  1
  Si  Si34  1  0.954089  0.707935  0.314215  1
  Tc  Tc35  1  0.170997  0.170997  0.000000  1
