# generated using pymatgen
data_CaDyErGa8Ag3
_symmetry_space_group_name_H-M   'P 1'
_cell_length_a   4.35993800
_cell_length_b   8.38772686
_cell_length_c   8.38772748
_cell_angle_alpha   70.03913338
_cell_angle_beta   74.93587631
_cell_angle_gamma   74.93587021
_symmetry_Int_Tables_number   1
_chemical_formula_structural   CaDyErGa8Ag3
_chemical_formula_sum   'Ca1 Dy1 Er1 Ga8 Ag3'
_cell_volume   273.40812139
_cell_formula_units_Z   1
loop_
 _symmetry_equiv_pos_site_id
 _symmetry_equiv_pos_as_xyz
  1  'x, y, z'
loop_
 _atom_site_type_symbol
 _atom_site_label
 _atom_site_symmetry_multiplicity
 _atom_site_fract_x
 _atom_site_fract_y
 _atom_site_fract_z
 _atom_site_occupancy
  Ca  Ca0  1  0.500105  0.499895  0.499895  1
  Dy  Dy1  1  0.202312  0.797688  0.797688  1
  Er  Er2  1  0.797856  0.202144  0.202144  1
  Ga  Ga3  1  0.355432  0.361825  0.927310  1
  Ga  Ga4  1  0.644558  0.637823  0.073064  1
  Ga  Ga5  1  0.355432  0.927310  0.361825  1
  Ga  Ga6  1  0.644558  0.073064  0.637823  1
  Ga  Ga7  1  0.160229  0.471565  0.207979  1
  Ga  Ga8  1  0.839925  0.528123  0.792026  1
  Ga  Ga9  1  0.160229  0.207979  0.471565  1
  Ga  Ga10  1  0.839925  0.792026  0.528123  1
  Ag  Ag11  1  0.499809  0.000191  0.000191  1
  Ag  Ag12  1  0.999816  0.810295  0.190072  1
  Ag  Ag13  1  0.999816  0.190072  0.810295  1
