# generated using pymatgen
data_NaNp6(NCl)6
_symmetry_space_group_name_H-M   'P 1'
_cell_length_a   6.57935761
_cell_length_b   6.58033401
_cell_length_c   10.73453073
_cell_angle_alpha   84.12715336
_cell_angle_beta   84.14270681
_cell_angle_gamma   119.99603117
_symmetry_Int_Tables_number   1
_chemical_formula_structural   NaNp6(NCl)6
_chemical_formula_sum   'Na1 Np6 N6 Cl6'
_cell_volume   394.00248297
_cell_formula_units_Z   1
loop_
 _symmetry_equiv_pos_site_id
 _symmetry_equiv_pos_as_xyz
  1  'x, y, z'
loop_
 _atom_site_type_symbol
 _atom_site_label
 _atom_site_symmetry_multiplicity
 _atom_site_fract_x
 _atom_site_fract_y
 _atom_site_fract_z
 _atom_site_occupancy
  Na  Na0  1  0.000000  0.000000  0.000000  1
  Np  Np1  1  0.211115  0.211122  0.366205  1
  Np  Np2  1  0.544602  0.878083  0.366203  1
  Np  Np3  1  0.878086  0.544618  0.366217  1
  Np  Np4  1  0.121914  0.455382  0.633783  1
  Np  Np5  1  0.455398  0.121917  0.633797  1
  Np  Np6  1  0.788885  0.788878  0.633795  1
  N  N7  1  0.139529  0.139537  0.581331  1
  N  N8  1  0.472739  0.806081  0.581677  1
  N  N9  1  0.806093  0.472748  0.581668  1
  N  N10  1  0.193907  0.527252  0.418332  1
  N  N11  1  0.527261  0.193919  0.418323  1
  N  N12  1  0.860471  0.860463  0.418669  1
  Cl  Cl13  1  0.060220  0.729384  0.819374  1
  Cl  Cl14  1  0.391002  0.391001  0.819312  1
  Cl  Cl15  1  0.729386  0.060220  0.819374  1
  Cl  Cl16  1  0.270614  0.939780  0.180626  1
  Cl  Cl17  1  0.608998  0.608999  0.180688  1
  Cl  Cl18  1  0.939780  0.270616  0.180626  1
