# generated using pymatgen
data_In2Ni(RhS)2
_symmetry_space_group_name_H-M   'P 1'
_cell_length_a   5.62560039
_cell_length_b   5.62560090
_cell_length_c   5.66048864
_cell_angle_alpha   58.75705694
_cell_angle_beta   58.75704810
_cell_angle_gamma   61.00414202
_symmetry_Int_Tables_number   1
_chemical_formula_structural   In2Ni(RhS)2
_chemical_formula_sum   'In2 Ni1 Rh2 S2'
_cell_volume   125.11560879
_cell_formula_units_Z   1
loop_
 _symmetry_equiv_pos_site_id
 _symmetry_equiv_pos_as_xyz
  1  'x, y, z'
loop_
 _atom_site_type_symbol
 _atom_site_label
 _atom_site_symmetry_multiplicity
 _atom_site_fract_x
 _atom_site_fract_y
 _atom_site_fract_z
 _atom_site_occupancy
  In  In0  1  0.000000  0.000000  0.000000  1
  In  In1  1  0.500000  0.500000  0.500000  1
  Ni  Ni2  1  0.000000  0.000000  0.500000  1
  Rh  Rh3  1  0.500000  0.000000  0.000000  1
  Rh  Rh4  1  0.000000  0.500000  0.000000  1
  S  S5  1  0.727553  0.727553  0.703516  1
  S  S6  1  0.272447  0.272447  0.296484  1
