# generated using pymatgen
data_Yb3Al2Si3Ge
_symmetry_space_group_name_H-M   'P 1'
_cell_length_a   6.17280061
_cell_length_b   6.17279968
_cell_length_c   8.36979578
_cell_angle_alpha   71.66814502
_cell_angle_beta   71.66814904
_cell_angle_gamma   39.03253788
_symmetry_Int_Tables_number   1
_chemical_formula_structural   Yb3Al2Si3Ge
_chemical_formula_sum   'Yb3 Al2 Si3 Ge1'
_cell_volume   189.33058763
_cell_formula_units_Z   1
loop_
 _symmetry_equiv_pos_site_id
 _symmetry_equiv_pos_as_xyz
  1  'x, y, z'
loop_
 _atom_site_type_symbol
 _atom_site_label
 _atom_site_symmetry_multiplicity
 _atom_site_fract_x
 _atom_site_fract_y
 _atom_site_fract_z
 _atom_site_occupancy
  Yb  Yb0  1  0.607783  0.607783  0.313018  1
  Yb  Yb1  1  0.999744  0.999744  0.000452  1
  Yb  Yb2  1  0.392919  0.392919  0.687735  1
  Al  Al3  1  0.702411  0.702411  0.651638  1
  Al  Al4  1  0.301492  0.301492  0.345941  1
  Si  Si5  1  0.718067  0.718067  0.946034  1
  Si  Si6  1  0.281237  0.281237  0.053928  1
  Si  Si7  1  0.902403  0.902403  0.394713  1
  Ge  Ge8  1  0.093941  0.093941  0.606543  1
