# generated using pymatgen
data_Li5Be(SiNi2)6
_symmetry_space_group_name_H-M   'P 1'
_cell_length_a   3.84333500
_cell_length_b   5.56148003
_cell_length_c   11.60274205
_cell_angle_alpha   90.01095267
_cell_angle_beta   89.99976717
_cell_angle_gamma   90.00008219
_symmetry_Int_Tables_number   1
_chemical_formula_structural   Li5Be(SiNi2)6
_chemical_formula_sum   'Li5 Be1 Si6 Ni12'
_cell_volume   248.00432351
_cell_formula_units_Z   1
loop_
 _symmetry_equiv_pos_site_id
 _symmetry_equiv_pos_as_xyz
  1  'x, y, z'
loop_
 _atom_site_type_symbol
 _atom_site_label
 _atom_site_symmetry_multiplicity
 _atom_site_fract_x
 _atom_site_fract_y
 _atom_site_fract_z
 _atom_site_occupancy
  Li  Li0  1  0.000004  0.499918  0.998544  1
  Li  Li1  1  0.499982  0.000136  0.166009  1
  Li  Li2  1  0.999990  0.500097  0.333530  1
  Li  Li3  1  0.499998  0.999167  0.500782  1
  Li  Li4  1  0.000020  0.500917  0.667970  1
  Be  Be5  1  0.500011  0.999646  0.833263  1
  Si  Si6  1  0.000001  0.000204  0.002523  1
  Si  Si7  1  0.499987  0.499804  0.165401  1
  Si  Si8  1  0.999995  0.999956  0.333372  1
  Si  Si9  1  0.499990  0.500035  0.501210  1
  Si  Si10  1  0.000012  0.999970  0.664101  1
  Si  Si11  1  0.500008  0.500122  0.833304  1
  Ni  Ni12  1  0.499997  0.244619  0.994676  1
  Ni  Ni13  1  0.500003  0.755406  0.994790  1
  Ni  Ni14  1  0.999980  0.251103  0.166373  1
  Ni  Ni15  1  0.999993  0.749008  0.166467  1
  Ni  Ni16  1  0.499981  0.250126  0.333411  1
  Ni  Ni17  1  0.499966  0.749744  0.333355  1
  Ni  Ni18  1  0.000014  0.251040  0.500361  1
  Ni  Ni19  1  0.999994  0.748940  0.500058  1
  Ni  Ni20  1  0.500012  0.244670  0.671874  1
  Ni  Ni21  1  0.500024  0.755383  0.671876  1
  Ni  Ni22  1  0.000026  0.236835  0.833293  1
  Ni  Ni23  1  0.000015  0.763153  0.833455  1
