# generated using pymatgen
data_La4Ga24NiAg
_symmetry_space_group_name_H-M   'P 1'
_cell_length_a   6.25137200
_cell_length_b   6.25137200
_cell_length_c   15.54053800
_cell_angle_alpha   90.00000000
_cell_angle_beta   90.00000000
_cell_angle_gamma   90.00000000
_symmetry_Int_Tables_number   1
_chemical_formula_structural   La4Ga24NiAg
_chemical_formula_sum   'La4 Ga24 Ni1 Ag1'
_cell_volume   607.31881510
_cell_formula_units_Z   1
loop_
 _symmetry_equiv_pos_site_id
 _symmetry_equiv_pos_as_xyz
  1  'x, y, z'
loop_
 _atom_site_type_symbol
 _atom_site_label
 _atom_site_symmetry_multiplicity
 _atom_site_fract_x
 _atom_site_fract_y
 _atom_site_fract_z
 _atom_site_occupancy
  La  La0  1  0.500000  0.000000  0.242246  1
  La  La1  1  0.000000  0.500000  0.248414  1
  La  La2  1  0.000000  0.500000  0.751586  1
  La  La3  1  0.500000  0.000000  0.757754  1
  Ga  Ga4  1  0.500000  0.500000  0.819140  1
  Ga  Ga5  1  0.000000  0.000000  0.819140  1
  Ga  Ga6  1  0.763339  0.736661  0.914808  1
  Ga  Ga7  1  0.236737  0.736737  0.914963  1
  Ga  Ga8  1  0.000000  0.000000  0.342100  1
  Ga  Ga9  1  0.236661  0.736661  0.085192  1
  Ga  Ga10  1  0.822465  0.322465  0.568748  1
  Ga  Ga11  1  0.500000  0.500000  0.342100  1
  Ga  Ga12  1  0.236661  0.263339  0.914808  1
  Ga  Ga13  1  0.763263  0.736737  0.085037  1
  Ga  Ga14  1  0.328300  0.171700  0.570902  1
  Ga  Ga15  1  0.671700  0.171700  0.429098  1
  Ga  Ga16  1  0.000000  0.000000  0.657900  1
  Ga  Ga17  1  0.177535  0.322465  0.431252  1
  Ga  Ga18  1  0.236737  0.263263  0.085037  1
  Ga  Ga19  1  0.822465  0.677535  0.431252  1
  Ga  Ga20  1  0.671700  0.828300  0.570902  1
  Ga  Ga21  1  0.000000  0.000000  0.180860  1
  Ga  Ga22  1  0.177535  0.677535  0.568748  1
  Ga  Ga23  1  0.500000  0.500000  0.657900  1
  Ga  Ga24  1  0.763263  0.263263  0.914963  1
  Ga  Ga25  1  0.500000  0.500000  0.180860  1
  Ga  Ga26  1  0.328300  0.828300  0.429098  1
  Ga  Ga27  1  0.763339  0.263339  0.085192  1
  Ni  Ni28  1  0.000000  0.500000  0.000000  1
  Ag  Ag29  1  0.500000  0.000000  0.000000  1
