# generated using pymatgen
data_USeN
_symmetry_space_group_name_H-M   'P 1'
_cell_length_a   3.81832000
_cell_length_b   3.81832000
_cell_length_c   7.04445200
_cell_angle_alpha   90.00000000
_cell_angle_beta   90.00000000
_cell_angle_gamma   90.00000000
_symmetry_Int_Tables_number   1
_chemical_formula_structural   USeN
_chemical_formula_sum   'U2 Se2 N2'
_cell_volume   102.70506430
_cell_formula_units_Z   2
loop_
 _symmetry_equiv_pos_site_id
 _symmetry_equiv_pos_as_xyz
  1  'x, y, z'
loop_
 _atom_site_type_symbol
 _atom_site_label
 _atom_site_symmetry_multiplicity
 _atom_site_fract_x
 _atom_site_fract_y
 _atom_site_fract_z
 _atom_site_occupancy
  U  U0  1  0.500000  0.000000  0.170656  1
  U  U1  1  0.000000  0.500000  0.829344  1
  Se  Se2  1  0.500000  0.000000  0.630383  1
  Se  Se3  1  0.000000  0.500000  0.369617  1
  N  N4  1  0.500000  0.500000  0.000000  1
  N  N5  1  0.000000  0.000000  0.000000  1
