# generated using pymatgen
data_KSc2S3
_symmetry_space_group_name_H-M   'P 1'
_cell_length_a   3.77243134
_cell_length_b   3.77923045
_cell_length_c   15.36405723
_cell_angle_alpha   68.34280600
_cell_angle_beta   137.61732322
_cell_angle_gamma   120.05042395
_symmetry_Int_Tables_number   1
_chemical_formula_structural   KSc2S3
_chemical_formula_sum   'K1 Sc2 S3'
_cell_volume   127.80586346
_cell_formula_units_Z   1
loop_
 _symmetry_equiv_pos_site_id
 _symmetry_equiv_pos_as_xyz
  1  'x, y, z'
loop_
 _atom_site_type_symbol
 _atom_site_label
 _atom_site_symmetry_multiplicity
 _atom_site_fract_x
 _atom_site_fract_y
 _atom_site_fract_z
 _atom_site_occupancy
  K  K0  1  0.816067  0.304603  0.430225  1
  Sc  Sc1  1  0.091680  0.967045  0.077081  1
  Sc  Sc2  1  0.529295  0.634147  0.782902  1
  S  S3  1  0.792154  0.965339  0.647432  1
  S  S4  1  0.311373  0.299339  0.930246  1
  S  S5  1  0.830693  0.633933  0.212373  1
