# generated using pymatgen
data_Cd3SnAu2
_symmetry_space_group_name_H-M   'P 1'
_cell_length_a   8.10307013
_cell_length_b   8.10307063
_cell_length_c   8.10307158
_cell_angle_alpha   33.61300297
_cell_angle_beta   33.61299618
_cell_angle_gamma   33.61300412
_symmetry_Int_Tables_number   1
_chemical_formula_structural   Cd3SnAu2
_chemical_formula_sum   'Cd3 Sn1 Au2'
_cell_volume   145.24234587
_cell_formula_units_Z   1
loop_
 _symmetry_equiv_pos_site_id
 _symmetry_equiv_pos_as_xyz
  1  'x, y, z'
loop_
 _atom_site_type_symbol
 _atom_site_label
 _atom_site_symmetry_multiplicity
 _atom_site_fract_x
 _atom_site_fract_y
 _atom_site_fract_z
 _atom_site_occupancy
  Cd  Cd0  1  0.374755  0.374755  0.374755  1
  Cd  Cd1  1  0.119863  0.119863  0.119863  1
  Cd  Cd2  1  0.632333  0.632333  0.632333  1
  Sn  Sn3  1  0.873996  0.873996  0.873996  1
  Au  Au4  1  0.996919  0.996919  0.996919  1
  Au  Au5  1  0.502135  0.502135  0.502135  1
