# generated using pymatgen
data_Y3HoReB12Rh
_symmetry_space_group_name_H-M   'P 1'
_cell_length_a   3.68362100
_cell_length_b   9.16078788
_cell_length_c   11.55658018
_cell_angle_alpha   90.45965853
_cell_angle_beta   90.00000000
_cell_angle_gamma   90.00000000
_symmetry_Int_Tables_number   1
_chemical_formula_structural   Y3HoReB12Rh
_chemical_formula_sum   'Y6 Ho2 Re2 B24 Rh2'
_cell_volume   389.96275343
_cell_formula_units_Z   2
loop_
 _symmetry_equiv_pos_site_id
 _symmetry_equiv_pos_as_xyz
  1  'x, y, z'
loop_
 _atom_site_type_symbol
 _atom_site_label
 _atom_site_symmetry_multiplicity
 _atom_site_fract_x
 _atom_site_fract_y
 _atom_site_fract_z
 _atom_site_occupancy
  Y  Y0  1  0.000000  0.318976  0.410681  1
  Y  Y1  1  0.000000  0.681024  0.589319  1
  Y  Y2  1  0.000000  0.826102  0.082777  1
  Y  Y3  1  0.000000  0.173898  0.917223  1
  Y  Y4  1  0.000000  0.945141  0.371794  1
  Y  Y5  1  0.000000  0.054859  0.628206  1
  Ho  Ho6  1  0.000000  0.442235  0.126693  1
  Ho  Ho7  1  0.000000  0.557765  0.873307  1
  Re  Re8  1  0.000000  0.139422  0.179419  1
  Re  Re9  1  0.000000  0.860578  0.820581  1
  B  B10  1  0.500000  0.554401  0.433809  1
  B  B11  1  0.500000  0.445599  0.566191  1
  B  B12  1  0.500000  0.053217  0.067763  1
  B  B13  1  0.500000  0.946783  0.932237  1
  B  B14  1  0.500000  0.748227  0.421133  1
  B  B15  1  0.500000  0.251773  0.578867  1
  B  B16  1  0.500000  0.248403  0.081675  1
  B  B17  1  0.500000  0.751597  0.918325  1
  B  B18  1  0.500000  0.790494  0.265356  1
  B  B19  1  0.500000  0.209506  0.734644  1
  B  B20  1  0.500000  0.292695  0.234273  1
  B  B21  1  0.500000  0.707305  0.765727  1
  B  B22  1  0.500000  0.632126  0.183748  1
  B  B23  1  0.500000  0.367874  0.816252  1
  B  B24  1  0.500000  0.132293  0.314208  1
  B  B25  1  0.500000  0.867707  0.685792  1
  B  B26  1  0.500000  0.983696  0.212845  1
  B  B27  1  0.500000  0.016304  0.787155  1
  B  B28  1  0.500000  0.483747  0.287470  1
  B  B29  1  0.500000  0.516253  0.712530  1
  B  B30  1  0.500000  0.606117  0.029526  1
  B  B31  1  0.500000  0.393883  0.970474  1
  B  B32  1  0.500000  0.108830  0.470641  1
  B  B33  1  0.500000  0.891170  0.529359  1
  Rh  Rh34  1  0.000000  0.637153  0.320991  1
  Rh  Rh35  1  0.000000  0.362847  0.679009  1
