# generated using pymatgen
data_Hf2Ti3Si4
_symmetry_space_group_name_H-M   'P 1'
_cell_length_a   6.80483300
_cell_length_b   6.80483300
_cell_length_c   12.45060900
_cell_angle_alpha   90.00000000
_cell_angle_beta   90.00000000
_cell_angle_gamma   90.00000000
_symmetry_Int_Tables_number   1
_chemical_formula_structural   Hf2Ti3Si4
_chemical_formula_sum   'Hf8 Ti12 Si16'
_cell_volume   576.53481457
_cell_formula_units_Z   4
loop_
 _symmetry_equiv_pos_site_id
 _symmetry_equiv_pos_as_xyz
  1  'x, y, z'
loop_
 _atom_site_type_symbol
 _atom_site_label
 _atom_site_symmetry_multiplicity
 _atom_site_fract_x
 _atom_site_fract_y
 _atom_site_fract_z
 _atom_site_occupancy
  Hf  Hf0  1  0.999913  0.345241  0.217620  1
  Hf  Hf1  1  0.000088  0.654758  0.717620  1
  Hf  Hf2  1  0.499912  0.154759  0.532380  1
  Hf  Hf3  1  0.500088  0.845242  0.032380  1
  Hf  Hf4  1  0.654758  0.000088  0.282381  1
  Hf  Hf5  1  0.345241  0.999913  0.782380  1
  Hf  Hf6  1  0.845242  0.500088  0.967620  1
  Hf  Hf7  1  0.154759  0.499912  0.467620  1
  Ti  Ti8  1  0.171597  0.171597  0.000000  1
  Ti  Ti9  1  0.828401  0.828401  0.500000  1
  Ti  Ti10  1  0.671598  0.328401  0.750000  1
  Ti  Ti11  1  0.328401  0.671598  0.250001  1
  Ti  Ti12  1  0.996786  0.151791  0.622977  1
  Ti  Ti13  1  0.003215  0.848210  0.122977  1
  Ti  Ti14  1  0.496785  0.348210  0.127024  1
  Ti  Ti15  1  0.503215  0.651791  0.627023  1
  Ti  Ti16  1  0.848210  0.003215  0.877024  1
  Ti  Ti17  1  0.151791  0.996786  0.377023  1
  Ti  Ti18  1  0.651791  0.503215  0.372977  1
  Ti  Ti19  1  0.348210  0.496785  0.872977  1
  Si  Si20  1  0.294934  0.363199  0.677210  1
  Si  Si21  1  0.705065  0.636801  0.177210  1
  Si  Si22  1  0.794935  0.136800  0.072790  1
  Si  Si23  1  0.205064  0.863200  0.572789  1
  Si  Si24  1  0.636801  0.705065  0.822790  1
  Si  Si25  1  0.363199  0.294934  0.322790  1
  Si  Si26  1  0.863200  0.205064  0.427210  1
  Si  Si27  1  0.136800  0.794935  0.927210  1
  Si  Si28  1  0.046154  0.293214  0.814137  1
  Si  Si29  1  0.953844  0.706785  0.314136  1
  Si  Si30  1  0.546155  0.206786  0.935864  1
  Si  Si31  1  0.453845  0.793215  0.435864  1
  Si  Si32  1  0.706785  0.953844  0.685864  1
  Si  Si33  1  0.293214  0.046154  0.185864  1
  Si  Si34  1  0.793215  0.453845  0.564136  1
  Si  Si35  1  0.206786  0.546155  0.064137  1
