# generated using pymatgen
data_Pr6EuCoI12
_symmetry_space_group_name_H-M   'P 1'
_cell_length_a   10.15444058
_cell_length_b   10.15443941
_cell_length_c   10.15444079
_cell_angle_alpha   106.80027119
_cell_angle_beta   106.80027773
_cell_angle_gamma   106.80027793
_symmetry_Int_Tables_number   1
_chemical_formula_structural   Pr6EuCoI12
_chemical_formula_sum   'Pr6 Eu1 Co1 I12'
_cell_volume   876.70182041
_cell_formula_units_Z   1
loop_
 _symmetry_equiv_pos_site_id
 _symmetry_equiv_pos_as_xyz
  1  'x, y, z'
loop_
 _atom_site_type_symbol
 _atom_site_label
 _atom_site_symmetry_multiplicity
 _atom_site_fract_x
 _atom_site_fract_y
 _atom_site_fract_z
 _atom_site_occupancy
  Pr  Pr0  1  0.519529  0.593976  0.794822  1
  Pr  Pr1  1  0.794822  0.519529  0.593976  1
  Pr  Pr2  1  0.593976  0.794822  0.519529  1
  Pr  Pr3  1  0.478698  0.404097  0.203615  1
  Pr  Pr4  1  0.203615  0.478698  0.404097  1
  Pr  Pr5  1  0.404097  0.203615  0.478698  1
  Eu  Eu6  1  0.996597  0.996597  0.996597  1
  Co  Co7  1  0.499274  0.499274  0.499274  1
  I  I8  1  0.276404  0.820286  0.427655  1
  I  I9  1  0.427655  0.276404  0.820286  1
  I  I10  1  0.820286  0.427655  0.276404  1
  I  I11  1  0.721925  0.178217  0.570677  1
  I  I12  1  0.570677  0.721925  0.178217  1
  I  I13  1  0.178217  0.570677  0.721925  1
  I  I14  1  0.044800  0.124029  0.346432  1
  I  I15  1  0.346432  0.044800  0.124029  1
  I  I16  1  0.124029  0.346432  0.044800  1
  I  I17  1  0.952981  0.873219  0.648139  1
  I  I18  1  0.648139  0.952981  0.873219  1
  I  I19  1  0.873219  0.648139  0.952981  1
