# generated using pymatgen
data_Pr3Gd2Sn3
_symmetry_space_group_name_H-M   'P 1'
_cell_length_a   6.67649700
_cell_length_b   9.18053082
_cell_length_c   9.18091300
_cell_angle_alpha   119.99861339
_cell_angle_beta   90.00000000
_cell_angle_gamma   90.00000000
_symmetry_Int_Tables_number   1
_chemical_formula_structural   Pr3Gd2Sn3
_chemical_formula_sum   'Pr6 Gd4 Sn6'
_cell_volume   487.34781460
_cell_formula_units_Z   2
loop_
 _symmetry_equiv_pos_site_id
 _symmetry_equiv_pos_as_xyz
  1  'x, y, z'
loop_
 _atom_site_type_symbol
 _atom_site_label
 _atom_site_symmetry_multiplicity
 _atom_site_fract_x
 _atom_site_fract_y
 _atom_site_fract_z
 _atom_site_occupancy
  Pr  Pr0  1  0.750002  0.242346  0.000000  1
  Pr  Pr1  1  0.749998  0.757571  0.757579  1
  Pr  Pr2  1  0.749998  0.999990  0.242421  1
  Pr  Pr3  1  0.250002  0.757654  0.000000  1
  Pr  Pr4  1  0.249998  0.242429  0.242421  1
  Pr  Pr5  1  0.249998  0.000010  0.757579  1
  Gd  Gd6  1  0.499999  0.333267  0.666557  1
  Gd  Gd7  1  0.499999  0.666709  0.333443  1
  Gd  Gd8  1  0.999999  0.666733  0.333443  1
  Gd  Gd9  1  0.999999  0.333291  0.666557  1
  Sn  Sn10  1  0.750000  0.601218  0.000000  1
  Sn  Sn11  1  0.750002  0.398746  0.398753  1
  Sn  Sn12  1  0.750002  0.999993  0.601247  1
  Sn  Sn13  1  0.250000  0.398782  0.000000  1
  Sn  Sn14  1  0.250002  0.601254  0.601247  1
  Sn  Sn15  1  0.250002  0.000007  0.398753  1
