# generated using pymatgen
data_GdNiH4
_symmetry_space_group_name_H-M   'P 1'
_cell_length_a   3.66875998
_cell_length_b   4.74582300
_cell_length_c   6.06055203
_cell_angle_alpha   90.00000000
_cell_angle_beta   107.49760821
_cell_angle_gamma   90.00000000
_symmetry_Int_Tables_number   1
_chemical_formula_structural   GdNiH4
_chemical_formula_sum   'Gd2 Ni2 H8'
_cell_volume   100.63944610
_cell_formula_units_Z   2
loop_
 _symmetry_equiv_pos_site_id
 _symmetry_equiv_pos_as_xyz
  1  'x, y, z'
loop_
 _atom_site_type_symbol
 _atom_site_label
 _atom_site_symmetry_multiplicity
 _atom_site_fract_x
 _atom_site_fract_y
 _atom_site_fract_z
 _atom_site_occupancy
  Gd  Gd0  1  0.867088  0.750000  0.234356  1
  Gd  Gd1  1  0.132911  0.250000  0.765644  1
  Ni  Ni2  1  0.400699  0.250000  0.306192  1
  Ni  Ni3  1  0.599301  0.750000  0.693809  1
  H  H4  1  0.306123  0.504835  0.111866  1
  H  H5  1  0.306123  0.995165  0.111866  1
  H  H6  1  0.914230  0.250000  0.328124  1
  H  H7  1  0.500000  0.000000  0.500000  1
  H  H8  1  0.500000  0.500000  0.500000  1
  H  H9  1  0.085769  0.750000  0.671875  1
  H  H10  1  0.693877  0.004835  0.888133  1
  H  H11  1  0.693877  0.495165  0.888133  1
