# generated using pymatgen
data_Th3Al3IrRuAu
_symmetry_space_group_name_H-M   'P 1'
_cell_length_a   7.27988600
_cell_length_b   7.27988582
_cell_length_c   4.20122100
_cell_angle_alpha   90.00000000
_cell_angle_beta   90.00000000
_cell_angle_gamma   120.00000084
_symmetry_Int_Tables_number   1
_chemical_formula_structural   Th3Al3IrRuAu
_chemical_formula_sum   'Th3 Al3 Ir1 Ru1 Au1'
_cell_volume   192.82143104
_cell_formula_units_Z   1
loop_
 _symmetry_equiv_pos_site_id
 _symmetry_equiv_pos_as_xyz
  1  'x, y, z'
loop_
 _atom_site_type_symbol
 _atom_site_label
 _atom_site_symmetry_multiplicity
 _atom_site_fract_x
 _atom_site_fract_y
 _atom_site_fract_z
 _atom_site_occupancy
  Th  Th0  1  0.421681  0.015749  0.500000  1
  Th  Th1  1  0.984251  0.405932  0.500000  1
  Th  Th2  1  0.594068  0.578319  0.500000  1
  Al  Al3  1  0.775879  0.007535  0.000000  1
  Al  Al4  1  0.992465  0.768345  0.000000  1
  Al  Al5  1  0.231655  0.224121  0.000000  1
  Ir  Ir6  1  0.000000  0.000000  0.500000  1
  Ru  Ru7  1  0.666667  0.333333  0.000000  1
  Au  Au8  1  0.333333  0.666667  0.000000  1
