# generated using pymatgen
data_Cs5Al2GaSe7
_symmetry_space_group_name_H-M   'P 1'
_cell_length_a   11.35951881
_cell_length_b   11.35951920
_cell_length_c   9.78711512
_cell_angle_alpha   76.38512176
_cell_angle_beta   76.38512292
_cell_angle_gamma   72.41208837
_symmetry_Int_Tables_number   1
_chemical_formula_structural   Cs5Al2GaSe7
_chemical_formula_sum   'Cs10 Al4 Ga2 Se14'
_cell_volume   1151.51350381
_cell_formula_units_Z   2
loop_
 _symmetry_equiv_pos_site_id
 _symmetry_equiv_pos_as_xyz
  1  'x, y, z'
loop_
 _atom_site_type_symbol
 _atom_site_label
 _atom_site_symmetry_multiplicity
 _atom_site_fract_x
 _atom_site_fract_y
 _atom_site_fract_z
 _atom_site_occupancy
  Cs  Cs0  1  0.025580  0.437477  0.719229  1
  Cs  Cs1  1  0.437477  0.025580  0.719229  1
  Cs  Cs2  1  0.974420  0.562523  0.280771  1
  Cs  Cs3  1  0.562523  0.974420  0.280771  1
  Cs  Cs4  1  0.289603  0.710397  0.000000  1
  Cs  Cs5  1  0.710397  0.289603  0.000000  1
  Cs  Cs6  1  0.846726  0.153274  0.500000  1
  Cs  Cs7  1  0.153274  0.846726  0.500000  1
  Cs  Cs8  1  0.426945  0.426945  0.690683  1
  Cs  Cs9  1  0.573055  0.573055  0.309317  1
  Al  Al10  1  0.211830  0.211830  0.181611  1
  Al  Al11  1  0.788170  0.788170  0.818389  1
  Al  Al12  1  0.071089  0.071089  0.057105  1
  Al  Al13  1  0.928911  0.928911  0.942895  1
  Ga  Ga14  1  0.346099  0.346099  0.334073  1
  Ga  Ga15  1  0.653901  0.653901  0.665927  1
  Se  Se16  1  0.004573  0.280782  0.113450  1
  Se  Se17  1  0.280782  0.004573  0.113450  1
  Se  Se18  1  0.995427  0.719218  0.886550  1
  Se  Se19  1  0.719218  0.995427  0.886550  1
  Se  Se20  1  0.203180  0.203180  0.430617  1
  Se  Se21  1  0.796820  0.796820  0.569383  1
  Se  Se22  1  0.063514  0.063514  0.814391  1
  Se  Se23  1  0.936486  0.936486  0.185609  1
  Se  Se24  1  0.347898  0.347898  0.074390  1
  Se  Se25  1  0.652102  0.652102  0.925610  1
  Se  Se26  1  0.251972  0.551072  0.394686  1
  Se  Se27  1  0.551072  0.251972  0.394686  1
  Se  Se28  1  0.748028  0.448928  0.605314  1
  Se  Se29  1  0.448928  0.748028  0.605314  1
