# generated using pymatgen
data_YbCdB2O5
_symmetry_space_group_name_H-M   'P 1'
_cell_length_a   3.54668545
_cell_length_b   6.32287700
_cell_length_c   10.17928160
_cell_angle_alpha   107.09324678
_cell_angle_beta   91.65109920
_cell_angle_gamma   92.02560672
_symmetry_Int_Tables_number   1
_chemical_formula_structural   YbCdB2O5
_chemical_formula_sum   'Yb2 Cd2 B4 O10'
_cell_volume   217.86959672
_cell_formula_units_Z   2
loop_
 _symmetry_equiv_pos_site_id
 _symmetry_equiv_pos_as_xyz
  1  'x, y, z'
loop_
 _atom_site_type_symbol
 _atom_site_label
 _atom_site_symmetry_multiplicity
 _atom_site_fract_x
 _atom_site_fract_y
 _atom_site_fract_z
 _atom_site_occupancy
  Yb  Yb0  1  0.742652  0.250058  0.878311  1
  Yb  Yb1  1  0.257348  0.749942  0.121689  1
  Cd  Cd2  1  0.780770  0.659391  0.414900  1
  Cd  Cd3  1  0.219230  0.340609  0.585100  1
  B  B4  1  0.669411  0.112461  0.309761  1
  B  B5  1  0.330589  0.887539  0.690239  1
  B  B6  1  0.675576  0.669712  0.836943  1
  B  B7  1  0.324424  0.330288  0.163057  1
  O  O8  1  0.465852  0.141128  0.192965  1
  O  O9  1  0.534148  0.858872  0.807035  1
  O  O10  1  0.280092  0.718998  0.569320  1
  O  O11  1  0.719908  0.281002  0.430680  1
  O  O12  1  0.209746  0.097516  0.714097  1
  O  O13  1  0.790254  0.902484  0.285903  1
  O  O14  1  0.253525  0.320812  0.029042  1
  O  O15  1  0.746475  0.679188  0.970958  1
  O  O16  1  0.274955  0.523738  0.264602  1
  O  O17  1  0.725045  0.476262  0.735398  1
