# generated using pymatgen
data_BaEuTaN3
_symmetry_space_group_name_H-M   'P 1'
_cell_length_a   6.54562700
_cell_length_b   6.54562668
_cell_length_c   12.95939300
_cell_angle_alpha   90.00000000
_cell_angle_beta   90.00000000
_cell_angle_gamma   125.64822545
_symmetry_Int_Tables_number   1
_chemical_formula_structural   BaEuTaN3
_chemical_formula_sum   'Ba4 Eu4 Ta4 N12'
_cell_volume   451.20050637
_cell_formula_units_Z   4
loop_
 _symmetry_equiv_pos_site_id
 _symmetry_equiv_pos_as_xyz
  1  'x, y, z'
loop_
 _atom_site_type_symbol
 _atom_site_label
 _atom_site_symmetry_multiplicity
 _atom_site_fract_x
 _atom_site_fract_y
 _atom_site_fract_z
 _atom_site_occupancy
  Ba  Ba0  1  0.455273  0.544727  0.358965  1
  Ba  Ba1  1  0.544727  0.455273  0.641035  1
  Ba  Ba2  1  0.044727  0.955273  0.858965  1
  Ba  Ba3  1  0.955273  0.044727  0.141035  1
  Eu  Eu4  1  0.138476  0.861524  0.420775  1
  Eu  Eu5  1  0.861524  0.138476  0.579225  1
  Eu  Eu6  1  0.361524  0.638476  0.920775  1
  Eu  Eu7  1  0.638476  0.361524  0.079225  1
  Ta  Ta8  1  0.262089  0.737911  0.159188  1
  Ta  Ta9  1  0.737911  0.262089  0.840812  1
  Ta  Ta10  1  0.237911  0.762089  0.659188  1
  Ta  Ta11  1  0.762089  0.237911  0.340812  1
  N  N12  1  0.167860  0.832140  0.037796  1
  N  N13  1  0.832140  0.167860  0.962204  1
  N  N14  1  0.332140  0.667860  0.537796  1
  N  N15  1  0.667860  0.332140  0.462204  1
  N  N16  1  0.424227  0.575773  0.119924  1
  N  N17  1  0.575773  0.424227  0.880076  1
  N  N18  1  0.075773  0.924227  0.619924  1
  N  N19  1  0.924227  0.075773  0.380076  1
  N  N20  1  0.967473  0.532527  0.250000  1
  N  N21  1  0.532527  0.967473  0.750000  1
  N  N22  1  0.032527  0.467473  0.750000  1
  N  N23  1  0.467473  0.032527  0.250000  1
