# generated using pymatgen
data_PrNdDyGa2
_symmetry_space_group_name_H-M   'P 1'
_cell_length_a   7.74141200
_cell_length_b   7.74158600
_cell_length_c   4.59672900
_cell_angle_alpha   90.00000000
_cell_angle_beta   90.00000000
_cell_angle_gamma   90.00000000
_symmetry_Int_Tables_number   1
_chemical_formula_structural   PrNdDyGa2
_chemical_formula_sum   'Pr2 Nd2 Dy2 Ga4'
_cell_volume   275.48567742
_cell_formula_units_Z   2
loop_
 _symmetry_equiv_pos_site_id
 _symmetry_equiv_pos_as_xyz
  1  'x, y, z'
loop_
 _atom_site_type_symbol
 _atom_site_label
 _atom_site_symmetry_multiplicity
 _atom_site_fract_x
 _atom_site_fract_y
 _atom_site_fract_z
 _atom_site_occupancy
  Pr  Pr0  1  0.326345  0.173610  0.500000  1
  Pr  Pr1  1  0.826345  0.326389  0.500000  1
  Nd  Nd2  1  0.173677  0.673717  0.500000  1
  Nd  Nd3  1  0.673677  0.826282  0.500000  1
  Dy  Dy4  1  0.999937  0.999884  0.000000  1
  Dy  Dy5  1  0.499937  0.500116  0.000000  1
  Ga  Ga6  1  0.619802  0.119625  0.000000  1
  Ga  Ga7  1  0.119802  0.380374  0.000000  1
  Ga  Ga8  1  0.880238  0.619941  0.000000  1
  Ga  Ga9  1  0.380237  0.880059  0.000000  1
