# generated using pymatgen
data_Ba6Mg(SbO6)2
_symmetry_space_group_name_H-M   'P 1'
_cell_length_a   9.28019552
_cell_length_b   9.28019640
_cell_length_c   7.36645137
_cell_angle_alpha   67.89781757
_cell_angle_beta   67.89781704
_cell_angle_gamma   36.99105554
_symmetry_Int_Tables_number   1
_chemical_formula_structural   Ba6Mg(SbO6)2
_chemical_formula_sum   'Ba6 Mg1 Sb2 O12'
_cell_volume   350.39117833
_cell_formula_units_Z   1
loop_
 _symmetry_equiv_pos_site_id
 _symmetry_equiv_pos_as_xyz
  1  'x, y, z'
loop_
 _atom_site_type_symbol
 _atom_site_label
 _atom_site_symmetry_multiplicity
 _atom_site_fract_x
 _atom_site_fract_y
 _atom_site_fract_z
 _atom_site_occupancy
  Ba  Ba0  1  0.206261  0.206261  0.708051  1
  Ba  Ba1  1  0.889096  0.889096  0.706048  1
  Ba  Ba2  1  0.548072  0.548072  0.713732  1
  Ba  Ba3  1  0.793739  0.793739  0.291949  1
  Ba  Ba4  1  0.451928  0.451928  0.286268  1
  Ba  Ba5  1  0.110904  0.110904  0.293952  1
  Mg  Mg6  1  0.000000  0.000000  0.000000  1
  Sb  Sb7  1  0.666158  0.666158  0.000905  1
  Sb  Sb8  1  0.333842  0.333842  0.999095  1
  O  O9  1  0.280764  0.280764  0.298320  1
  O  O10  1  0.945855  0.945855  0.319500  1
  O  O11  1  0.620360  0.620360  0.298919  1
  O  O12  1  0.719236  0.719236  0.701680  1
  O  O13  1  0.379640  0.379640  0.701081  1
  O  O14  1  0.054145  0.054145  0.680500  1
  O  O15  1  0.000000  0.500000  0.000000  1
  O  O16  1  0.654016  0.172177  0.001169  1
  O  O17  1  0.345984  0.827823  0.998831  1
  O  O18  1  0.500000  0.000000  0.000000  1
  O  O19  1  0.172177  0.654016  0.001169  1
  O  O20  1  0.827823  0.345984  0.998831  1
