# generated using pymatgen
data_TbSc5Co16(P6Ru)2
_symmetry_space_group_name_H-M   'P 1'
_cell_length_a   3.64182600
_cell_length_b   10.40680600
_cell_length_c   12.05789700
_cell_angle_alpha   90.00000000
_cell_angle_beta   90.00000000
_cell_angle_gamma   90.00000000
_symmetry_Int_Tables_number   1
_chemical_formula_structural   TbSc5Co16(P6Ru)2
_chemical_formula_sum   'Tb1 Sc5 Co16 P12 Ru2'
_cell_volume   456.99160338
_cell_formula_units_Z   1
loop_
 _symmetry_equiv_pos_site_id
 _symmetry_equiv_pos_as_xyz
  1  'x, y, z'
loop_
 _atom_site_type_symbol
 _atom_site_label
 _atom_site_symmetry_multiplicity
 _atom_site_fract_x
 _atom_site_fract_y
 _atom_site_fract_z
 _atom_site_occupancy
  Tb  Tb0  1  0.500000  0.000000  0.472494  1
  Sc  Sc1  1  0.000000  0.500000  0.527070  1
  Sc  Sc2  1  0.500000  0.817819  0.206443  1
  Sc  Sc3  1  0.500000  0.182181  0.206443  1
  Sc  Sc4  1  0.000000  0.680220  0.792117  1
  Sc  Sc5  1  0.000000  0.319780  0.792117  1
  Co  Co6  1  0.500000  0.500000  0.703151  1
  Co  Co7  1  0.000000  0.000000  0.293980  1
  Co  Co8  1  0.000000  0.500000  0.985923  1
  Co  Co9  1  0.500000  0.000000  0.013481  1
  Co  Co10  1  0.500000  0.332773  0.989434  1
  Co  Co11  1  0.500000  0.667227  0.989434  1
  Co  Co12  1  0.000000  0.168370  0.010513  1
  Co  Co13  1  0.000000  0.831630  0.010513  1
  Co  Co14  1  0.500000  0.300065  0.431949  1
  Co  Co15  1  0.500000  0.699935  0.431949  1
  Co  Co16  1  0.000000  0.205416  0.569059  1
  Co  Co17  1  0.000000  0.794584  0.569059  1
  Co  Co18  1  0.500000  0.875578  0.708169  1
  Co  Co19  1  0.500000  0.124422  0.708169  1
  Co  Co20  1  0.000000  0.622533  0.292987  1
  Co  Co21  1  0.000000  0.377467  0.292987  1
  P  P22  1  0.500000  0.500000  0.878420  1
  P  P23  1  0.000000  0.000000  0.119967  1
  P  P24  1  0.500000  0.500000  0.355890  1
  P  P25  1  0.000000  0.000000  0.649076  1
  P  P26  1  0.500000  0.316122  0.618244  1
  P  P27  1  0.500000  0.683878  0.618244  1
  P  P28  1  0.000000  0.188037  0.379920  1
  P  P29  1  0.000000  0.811963  0.379920  1
  P  P30  1  0.500000  0.843005  0.890986  1
  P  P31  1  0.500000  0.156995  0.890986  1
  P  P32  1  0.000000  0.655590  0.109331  1
  P  P33  1  0.000000  0.344410  0.109331  1
  Ru  Ru34  1  0.500000  0.500000  0.160949  1
  Ru  Ru35  1  0.000000  0.000000  0.841290  1
