# generated using pymatgen
data_Y3Er5Cd2IrPt
_symmetry_space_group_name_H-M   'P 1'
_cell_length_a   9.62642521
_cell_length_b   9.62642557
_cell_length_c   9.62318800
_cell_angle_alpha   60.01113166
_cell_angle_beta   60.01113041
_cell_angle_gamma   60.06621760
_symmetry_Int_Tables_number   1
_chemical_formula_structural   Y3Er5Cd2IrPt
_chemical_formula_sum   'Y6 Er10 Cd4 Ir2 Pt2'
_cell_volume   630.99229829
_cell_formula_units_Z   2
loop_
 _symmetry_equiv_pos_site_id
 _symmetry_equiv_pos_as_xyz
  1  'x, y, z'
loop_
 _atom_site_type_symbol
 _atom_site_label
 _atom_site_symmetry_multiplicity
 _atom_site_fract_x
 _atom_site_fract_y
 _atom_site_fract_z
 _atom_site_occupancy
  Y  Y0  1  0.938437  0.563245  0.561000  1
  Y  Y1  1  0.563245  0.938437  0.937318  1
  Y  Y2  1  0.563245  0.938437  0.561000  1
  Y  Y3  1  0.938437  0.563245  0.937318  1
  Y  Y4  1  0.562177  0.562177  0.937823  1
  Y  Y5  1  0.937842  0.937842  0.562158  1
  Er  Er6  1  0.350470  0.350470  0.346134  1
  Er  Er7  1  0.350470  0.350470  0.952927  1
  Er  Er8  1  0.355029  0.946332  0.349320  1
  Er  Er9  1  0.946332  0.355029  0.349320  1
  Er  Er10  1  0.807256  0.189289  0.190236  1
  Er  Er11  1  0.189289  0.807256  0.813218  1
  Er  Er12  1  0.189289  0.807256  0.190236  1
  Er  Er13  1  0.807256  0.189289  0.813218  1
  Er  Er14  1  0.190651  0.190651  0.809349  1
  Er  Er15  1  0.811538  0.811538  0.188462  1
  Cd  Cd16  1  0.580745  0.580745  0.581132  1
  Cd  Cd17  1  0.580745  0.580745  0.257378  1
  Cd  Cd18  1  0.580796  0.257106  0.581049  1
  Cd  Cd19  1  0.257106  0.580796  0.581049  1
  Ir  Ir20  1  0.141586  0.573703  0.142356  1
  Ir  Ir21  1  0.573703  0.141586  0.142356  1
  Pt  Pt22  1  0.142177  0.142177  0.143735  1
  Pt  Pt23  1  0.142177  0.142177  0.571911  1
