# generated using pymatgen
data_Er4AlGa5Ru2
_symmetry_space_group_name_H-M   'P 1'
_cell_length_a   5.46040300
_cell_length_b   5.42556775
_cell_length_c   8.71599900
_cell_angle_alpha   90.00000000
_cell_angle_beta   90.00000000
_cell_angle_gamma   120.21262521
_symmetry_Int_Tables_number   1
_chemical_formula_structural   Er4AlGa5Ru2
_chemical_formula_sum   'Er4 Al1 Ga5 Ru2'
_cell_volume   223.14296477
_cell_formula_units_Z   1
loop_
 _symmetry_equiv_pos_site_id
 _symmetry_equiv_pos_as_xyz
  1  'x, y, z'
loop_
 _atom_site_type_symbol
 _atom_site_label
 _atom_site_symmetry_multiplicity
 _atom_site_fract_x
 _atom_site_fract_y
 _atom_site_fract_z
 _atom_site_occupancy
  Er  Er0  1  0.667432  0.334864  0.052031  1
  Er  Er1  1  0.667432  0.334864  0.447970  1
  Er  Er2  1  0.333705  0.667412  0.553695  1
  Er  Er3  1  0.333705  0.667412  0.946306  1
  Al  Al4  1  0.159774  0.319549  0.249999  1
  Ga  Ga5  1  0.162374  0.828442  0.249999  1
  Ga  Ga6  1  0.666069  0.828442  0.249999  1
  Ga  Ga7  1  0.331104  0.165256  0.750000  1
  Ga  Ga8  1  0.834152  0.165256  0.750000  1
  Ga  Ga9  1  0.835531  0.671063  0.750000  1
  Ru  Ru10  1  0.004360  0.008719  0.000505  1
  Ru  Ru11  1  0.004360  0.008719  0.499495  1
