# generated using pymatgen
data_Nd16Lu4(Ir3Ru)3
_symmetry_space_group_name_H-M   'P 1'
_cell_length_a   11.13522300
_cell_length_b   11.13522300
_cell_length_c   6.51388000
_cell_angle_alpha   90.00000000
_cell_angle_beta   90.00000000
_cell_angle_gamma   90.00000000
_symmetry_Int_Tables_number   1
_chemical_formula_structural   Nd16Lu4(Ir3Ru)3
_chemical_formula_sum   'Nd16 Lu4 Ir9 Ru3'
_cell_volume   807.67676868
_cell_formula_units_Z   1
loop_
 _symmetry_equiv_pos_site_id
 _symmetry_equiv_pos_as_xyz
  1  'x, y, z'
loop_
 _atom_site_type_symbol
 _atom_site_label
 _atom_site_symmetry_multiplicity
 _atom_site_fract_x
 _atom_site_fract_y
 _atom_site_fract_z
 _atom_site_occupancy
  Nd  Nd0  1  0.087120  0.289185  0.118619  1
  Nd  Nd1  1  0.789185  0.412880  0.118619  1
  Nd  Nd2  1  0.210815  0.587120  0.118619  1
  Nd  Nd3  1  0.912880  0.710815  0.118619  1
  Nd  Nd4  1  0.413489  0.790473  0.382414  1
  Nd  Nd5  1  0.586511  0.209527  0.382414  1
  Nd  Nd6  1  0.290473  0.086511  0.382414  1
  Nd  Nd7  1  0.709527  0.913489  0.382414  1
  Nd  Nd8  1  0.413375  0.209598  0.882158  1
  Nd  Nd9  1  0.709598  0.086625  0.882158  1
  Nd  Nd10  1  0.290402  0.913375  0.882158  1
  Nd  Nd11  1  0.586625  0.790402  0.882158  1
  Nd  Nd12  1  0.087098  0.710729  0.616701  1
  Nd  Nd13  1  0.912902  0.289271  0.616701  1
  Nd  Nd14  1  0.210729  0.412902  0.616701  1
  Nd  Nd15  1  0.789271  0.587098  0.616701  1
  Lu  Lu16  1  0.000000  0.000000  0.999830  1
  Lu  Lu17  1  0.500000  0.500000  0.999830  1
  Lu  Lu18  1  0.500000  0.500000  0.499829  1
  Lu  Lu19  1  0.000000  0.000000  0.499829  1
  Ir  Ir20  1  0.146305  0.853279  0.249889  1
  Ir  Ir21  1  0.353279  0.353695  0.249889  1
  Ir  Ir22  1  0.646721  0.646305  0.249889  1
  Ir  Ir23  1  0.853695  0.146721  0.249889  1
  Ir  Ir24  1  0.353399  0.646123  0.750163  1
  Ir  Ir25  1  0.146123  0.146601  0.750163  1
  Ir  Ir26  1  0.853877  0.853399  0.750163  1
  Ir  Ir27  1  0.646601  0.353877  0.750163  1
  Ir  Ir28  1  0.000000  0.500000  0.879511  1
  Ru  Ru29  1  0.000000  0.500000  0.379814  1
  Ru  Ru30  1  0.500000  0.000000  0.120677  1
  Ru  Ru31  1  0.500000  0.000000  0.620904  1
