# generated using pymatgen
data_Sc2Ga10Ru3
_symmetry_space_group_name_H-M   'P 1'
_cell_length_a   8.87545400
_cell_length_b   8.87545400
_cell_length_c   6.17469300
_cell_angle_alpha   90.00000000
_cell_angle_beta   90.00000000
_cell_angle_gamma   90.00000000
_symmetry_Int_Tables_number   1
_chemical_formula_structural   Sc2Ga10Ru3
_chemical_formula_sum   'Sc4 Ga20 Ru6'
_cell_volume   486.40331336
_cell_formula_units_Z   2
loop_
 _symmetry_equiv_pos_site_id
 _symmetry_equiv_pos_as_xyz
  1  'x, y, z'
loop_
 _atom_site_type_symbol
 _atom_site_label
 _atom_site_symmetry_multiplicity
 _atom_site_fract_x
 _atom_site_fract_y
 _atom_site_fract_z
 _atom_site_occupancy
  Sc  Sc0  1  0.183405  0.683405  0.000000  1
  Sc  Sc1  1  0.816595  0.316595  0.000000  1
  Sc  Sc2  1  0.683405  0.816595  0.000000  1
  Sc  Sc3  1  0.316595  0.183405  0.000000  1
  Ga  Ga4  1  0.062160  0.208195  0.713670  1
  Ga  Ga5  1  0.937840  0.791805  0.713670  1
  Ga  Ga6  1  0.562160  0.291805  0.713670  1
  Ga  Ga7  1  0.437840  0.708195  0.713670  1
  Ga  Ga8  1  0.791805  0.062160  0.713670  1
  Ga  Ga9  1  0.208195  0.937840  0.713670  1
  Ga  Ga10  1  0.708195  0.562160  0.713670  1
  Ga  Ga11  1  0.291805  0.437840  0.713670  1
  Ga  Ga12  1  0.937840  0.791805  0.286330  1
  Ga  Ga13  1  0.062160  0.208195  0.286330  1
  Ga  Ga14  1  0.437840  0.708195  0.286330  1
  Ga  Ga15  1  0.562160  0.291805  0.286330  1
  Ga  Ga16  1  0.208195  0.937840  0.286330  1
  Ga  Ga17  1  0.791805  0.062160  0.286330  1
  Ga  Ga18  1  0.291805  0.437840  0.286330  1
  Ga  Ga19  1  0.708195  0.562160  0.286330  1
  Ga  Ga20  1  0.000000  0.500000  0.727933  1
  Ga  Ga21  1  0.500000  0.000000  0.727933  1
  Ga  Ga22  1  0.000000  0.500000  0.272067  1
  Ga  Ga23  1  0.500000  0.000000  0.272067  1
  Ru  Ru24  1  0.176902  0.676902  0.500000  1
  Ru  Ru25  1  0.823098  0.323098  0.500000  1
  Ru  Ru26  1  0.676902  0.823098  0.500000  1
  Ru  Ru27  1  0.323098  0.176902  0.500000  1
  Ru  Ru28  1  0.000000  0.000000  0.000000  1
  Ru  Ru29  1  0.500000  0.500000  0.000000  1
