# generated using pymatgen
data_Cs4Na2LuInP4
_symmetry_space_group_name_H-M   'P 1'
_cell_length_a   9.61787373
_cell_length_b   9.61787251
_cell_length_c   9.61787312
_cell_angle_alpha   138.95687361
_cell_angle_beta   137.58269515
_cell_angle_gamma   60.49713210
_symmetry_Int_Tables_number   1
_chemical_formula_structural   Cs4Na2LuInP4
_chemical_formula_sum   'Cs4 Na2 Lu1 In1 P4'
_cell_volume   389.87347684
_cell_formula_units_Z   1
loop_
 _symmetry_equiv_pos_site_id
 _symmetry_equiv_pos_as_xyz
  1  'x, y, z'
loop_
 _atom_site_type_symbol
 _atom_site_label
 _atom_site_symmetry_multiplicity
 _atom_site_fract_x
 _atom_site_fract_y
 _atom_site_fract_z
 _atom_site_occupancy
  Cs  Cs0  1  0.543117  0.318110  0.217486  1
  Cs  Cs1  1  0.456883  0.674369  0.774992  1
  Cs  Cs2  1  0.100625  0.825631  0.282514  1
  Cs  Cs3  1  0.899375  0.181890  0.725008  1
  Na  Na4  1  0.500000  0.250000  0.750000  1
  Na  Na5  1  0.500000  0.750000  0.250000  1
  Lu  Lu6  1  0.000000  0.750000  0.750000  1
  In  In7  1  0.000000  0.250000  0.250000  1
  P  P8  1  0.303562  0.091185  0.217020  1
  P  P9  1  0.696438  0.913459  0.787623  1
  P  P10  1  0.874165  0.586541  0.282980  1
  P  P11  1  0.125835  0.408815  0.712377  1
