# generated using pymatgen
data_Tm20Cd6RuRh
_symmetry_space_group_name_H-M   'P 1'
_cell_length_a   9.48921700
_cell_length_b   9.48921426
_cell_length_c   9.69386400
_cell_angle_alpha   90.00000000
_cell_angle_beta   90.00000000
_cell_angle_gamma   119.99994100
_symmetry_Int_Tables_number   1
_chemical_formula_structural   Tm20Cd6RuRh
_chemical_formula_sum   'Tm20 Cd6 Ru1 Rh1'
_cell_volume   755.94194476
_cell_formula_units_Z   1
loop_
 _symmetry_equiv_pos_site_id
 _symmetry_equiv_pos_as_xyz
  1  'x, y, z'
loop_
 _atom_site_type_symbol
 _atom_site_label
 _atom_site_symmetry_multiplicity
 _atom_site_fract_x
 _atom_site_fract_y
 _atom_site_fract_z
 _atom_site_occupancy
  Tm  Tm0  1  0.000000  0.000000  0.499718  1
  Tm  Tm1  1  0.000000  0.000000  0.000282  1
  Tm  Tm2  1  0.209216  0.790785  0.440753  1
  Tm  Tm3  1  0.209216  0.418431  0.440753  1
  Tm  Tm4  1  0.581569  0.790784  0.440753  1
  Tm  Tm5  1  0.790425  0.209575  0.559746  1
  Tm  Tm6  1  0.790425  0.580847  0.559746  1
  Tm  Tm7  1  0.419152  0.209575  0.559746  1
  Tm  Tm8  1  0.790425  0.209575  0.940254  1
  Tm  Tm9  1  0.790425  0.580847  0.940254  1
  Tm  Tm10  1  0.419152  0.209575  0.940254  1
  Tm  Tm11  1  0.209216  0.790785  0.059247  1
  Tm  Tm12  1  0.209216  0.418431  0.059247  1
  Tm  Tm13  1  0.581569  0.790784  0.059247  1
  Tm  Tm14  1  0.542073  0.457927  0.250000  1
  Tm  Tm15  1  0.542073  0.084148  0.250000  1
  Tm  Tm16  1  0.915852  0.457927  0.250000  1
  Tm  Tm17  1  0.458653  0.541347  0.750000  1
  Tm  Tm18  1  0.458653  0.917307  0.750000  1
  Tm  Tm19  1  0.082693  0.541347  0.750000  1
  Cd  Cd20  1  0.885292  0.114707  0.250000  1
  Cd  Cd21  1  0.885292  0.770586  0.250000  1
  Cd  Cd22  1  0.229414  0.114708  0.250000  1
  Cd  Cd23  1  0.114739  0.885262  0.750000  1
  Cd  Cd24  1  0.114739  0.229475  0.750000  1
  Cd  Cd25  1  0.770525  0.885262  0.750000  1
  Ru  Ru26  1  0.666667  0.333333  0.750000  1
  Rh  Rh27  1  0.333334  0.666667  0.250000  1
