# generated using pymatgen
data_Zr3Nb3(B2Ru5)2
_symmetry_space_group_name_H-M   'P 1'
_cell_length_a   9.50108150
_cell_length_b   9.50108150
_cell_length_c   3.09768300
_cell_angle_alpha   90.00000000
_cell_angle_beta   90.00000000
_cell_angle_gamma   90.08307546
_symmetry_Int_Tables_number   1
_chemical_formula_structural   Zr3Nb3(B2Ru5)2
_chemical_formula_sum   'Zr3 Nb3 B4 Ru10'
_cell_volume   279.62925299
_cell_formula_units_Z   1
loop_
 _symmetry_equiv_pos_site_id
 _symmetry_equiv_pos_as_xyz
  1  'x, y, z'
loop_
 _atom_site_type_symbol
 _atom_site_label
 _atom_site_symmetry_multiplicity
 _atom_site_fract_x
 _atom_site_fract_y
 _atom_site_fract_z
 _atom_site_occupancy
  Zr  Zr0  1  0.823905  0.676609  0.000000  1
  Zr  Zr1  1  0.176609  0.323905  0.000000  1
  Zr  Zr2  1  0.323996  0.823996  0.000000  1
  Nb  Nb3  1  0.676908  0.176908  0.000000  1
  Nb  Nb4  1  0.500118  0.499763  0.000000  1
  Nb  Nb5  1  0.999763  0.000118  0.000000  1
  B  B6  1  0.621090  0.878649  0.000000  1
  B  B7  1  0.378649  0.121090  0.000000  1
  B  B8  1  0.120942  0.620942  0.000000  1
  B  B9  1  0.878111  0.378111  0.000000  1
  Ru  Ru10  1  0.570746  0.719125  0.500000  1
  Ru  Ru11  1  0.433564  0.280463  0.500000  1
  Ru  Ru12  1  0.070103  0.781225  0.500000  1
  Ru  Ru13  1  0.925130  0.216954  0.500000  1
  Ru  Ru14  1  0.281225  0.570103  0.500000  1
  Ru  Ru15  1  0.716954  0.425130  0.500000  1
  Ru  Ru16  1  0.219125  0.070746  0.500000  1
  Ru  Ru17  1  0.780463  0.933564  0.500000  1
  Ru  Ru18  1  0.503577  0.003577  0.500000  1
  Ru  Ru19  1  0.999023  0.499023  0.500000  1
