# generated using pymatgen
data_Na(SiPt)4
_symmetry_space_group_name_H-M   'P 1'
_cell_length_a   6.34927533
_cell_length_b   6.34927469
_cell_length_c   6.34927542
_cell_angle_alpha   97.75554233
_cell_angle_beta   97.75554180
_cell_angle_gamma   136.89531377
_symmetry_Int_Tables_number   1
_chemical_formula_structural   Na(SiPt)4
_chemical_formula_sum   'Na1 Si4 Pt4'
_cell_volume   162.67715656
_cell_formula_units_Z   1
loop_
 _symmetry_equiv_pos_site_id
 _symmetry_equiv_pos_as_xyz
  1  'x, y, z'
loop_
 _atom_site_type_symbol
 _atom_site_label
 _atom_site_symmetry_multiplicity
 _atom_site_fract_x
 _atom_site_fract_y
 _atom_site_fract_z
 _atom_site_occupancy
  Na  Na0  1  0.298262  0.298262  0.000000  1
  Si  Si1  1  0.385847  0.886093  0.271564  1
  Si  Si2  1  0.614528  0.114282  0.728436  1
  Si  Si3  1  0.114282  0.385847  0.499754  1
  Si  Si4  1  0.886093  0.614528  0.500246  1
  Pt  Pt5  1  0.174729  0.675957  0.850193  1
  Pt  Pt6  1  0.825765  0.324536  0.149807  1
  Pt  Pt7  1  0.324536  0.174729  0.498771  1
  Pt  Pt8  1  0.675957  0.825765  0.501229  1
