# generated using pymatgen
data_CeHg3(SeCl3)2
_symmetry_space_group_name_H-M   'P 1'
_cell_length_a   7.72843400
_cell_length_b   6.99241694
_cell_length_c   13.67300106
_cell_angle_alpha   88.76768662
_cell_angle_beta   90.00000000
_cell_angle_gamma   90.00000000
_symmetry_Int_Tables_number   1
_chemical_formula_structural   CeHg3(SeCl3)2
_chemical_formula_sum   'Ce2 Hg6 Se4 Cl12'
_cell_volume   738.72399908
_cell_formula_units_Z   2
loop_
 _symmetry_equiv_pos_site_id
 _symmetry_equiv_pos_as_xyz
  1  'x, y, z'
loop_
 _atom_site_type_symbol
 _atom_site_label
 _atom_site_symmetry_multiplicity
 _atom_site_fract_x
 _atom_site_fract_y
 _atom_site_fract_z
 _atom_site_occupancy
  Ce  Ce0  1  0.500000  0.500000  0.500000  1
  Ce  Ce1  1  0.000000  0.500000  0.000000  1
  Hg  Hg2  1  0.789932  0.991285  0.756706  1
  Hg  Hg3  1  0.210068  0.008715  0.243294  1
  Hg  Hg4  1  0.289932  0.008715  0.743294  1
  Hg  Hg5  1  0.710068  0.991285  0.256706  1
  Hg  Hg6  1  0.000000  0.000000  0.500000  1
  Hg  Hg7  1  0.500000  0.000000  0.000000  1
  Se  Se8  1  0.961926  0.172039  0.332471  1
  Se  Se9  1  0.461926  0.827961  0.167529  1
  Se  Se10  1  0.538074  0.172039  0.832471  1
  Se  Se11  1  0.038074  0.827961  0.667529  1
  Cl  Cl12  1  0.952208  0.657691  0.171096  1
  Cl  Cl13  1  0.293599  0.356096  0.065710  1
  Cl  Cl14  1  0.706401  0.643904  0.934290  1
  Cl  Cl15  1  0.547792  0.657691  0.671096  1
  Cl  Cl16  1  0.793599  0.643904  0.434290  1
  Cl  Cl17  1  0.844153  0.181397  0.062083  1
  Cl  Cl18  1  0.452208  0.342309  0.328904  1
  Cl  Cl19  1  0.047792  0.342309  0.828904  1
  Cl  Cl20  1  0.155847  0.818603  0.937917  1
  Cl  Cl21  1  0.206401  0.356096  0.565710  1
  Cl  Cl22  1  0.655847  0.181397  0.562083  1
  Cl  Cl23  1  0.344153  0.818603  0.437917  1
