# generated using pymatgen
data_Nd2SiP(Ru2C)2
_symmetry_space_group_name_H-M   'P 1'
_cell_length_a   5.86452934
_cell_length_b   5.86452880
_cell_length_c   7.20329900
_cell_angle_alpha   90.00000000
_cell_angle_beta   90.00000000
_cell_angle_gamma   140.91850809
_symmetry_Int_Tables_number   1
_chemical_formula_structural   Nd2SiP(Ru2C)2
_chemical_formula_sum   'Nd2 Si1 P1 Ru4 C2'
_cell_volume   156.18208576
_cell_formula_units_Z   1
loop_
 _symmetry_equiv_pos_site_id
 _symmetry_equiv_pos_as_xyz
  1  'x, y, z'
loop_
 _atom_site_type_symbol
 _atom_site_label
 _atom_site_symmetry_multiplicity
 _atom_site_fract_x
 _atom_site_fract_y
 _atom_site_fract_z
 _atom_site_occupancy
  Nd  Nd0  1  0.548034  0.451966  0.250000  1
  Nd  Nd1  1  0.450953  0.549047  0.750000  1
  Si  Si2  1  0.728603  0.271397  0.750000  1
  P  P3  1  0.271266  0.728734  0.250000  1
  Ru  Ru4  1  0.834450  0.165550  0.059700  1
  Ru  Ru5  1  0.166492  0.833508  0.947075  1
  Ru  Ru6  1  0.166492  0.833508  0.552925  1
  Ru  Ru7  1  0.834450  0.165550  0.440300  1
  C  C8  1  0.999630  0.000370  0.998511  1
  C  C9  1  0.999630  0.000370  0.501489  1
