# generated using pymatgen
data_Sm2ErAl12CuRu3
_symmetry_space_group_name_H-M   'P 1'
_cell_length_a   8.85053910
_cell_length_b   8.85053625
_cell_length_c   9.50119600
_cell_angle_alpha   90.00000000
_cell_angle_beta   90.00000000
_cell_angle_gamma   119.63033042
_symmetry_Int_Tables_number   1
_chemical_formula_structural   Sm2ErAl12CuRu3
_chemical_formula_sum   'Sm4 Er2 Al24 Cu2 Ru6'
_cell_volume   646.92503620
_cell_formula_units_Z   2
loop_
 _symmetry_equiv_pos_site_id
 _symmetry_equiv_pos_as_xyz
  1  'x, y, z'
loop_
 _atom_site_type_symbol
 _atom_site_label
 _atom_site_symmetry_multiplicity
 _atom_site_fract_x
 _atom_site_fract_y
 _atom_site_fract_z
 _atom_site_occupancy
  Sm  Sm0  1  0.189085  0.381874  0.250000  1
  Sm  Sm1  1  0.810915  0.618126  0.750000  1
  Sm  Sm2  1  0.618126  0.810915  0.250000  1
  Sm  Sm3  1  0.381874  0.189085  0.750000  1
  Er  Er4  1  0.194376  0.805624  0.250000  1
  Er  Er5  1  0.805624  0.194376  0.750000  1
  Al  Al6  1  0.331481  0.668519  0.019452  1
  Al  Al7  1  0.668519  0.331481  0.980548  1
  Al  Al8  1  0.668519  0.331481  0.519452  1
  Al  Al9  1  0.331481  0.668519  0.480548  1
  Al  Al10  1  0.155786  0.323762  0.578110  1
  Al  Al11  1  0.844214  0.676238  0.421890  1
  Al  Al12  1  0.676238  0.844214  0.578110  1
  Al  Al13  1  0.844214  0.676238  0.078110  1
  Al  Al14  1  0.323762  0.155786  0.421890  1
  Al  Al15  1  0.155786  0.323762  0.921890  1
  Al  Al16  1  0.164137  0.835863  0.575227  1
  Al  Al17  1  0.323762  0.155786  0.078110  1
  Al  Al18  1  0.835863  0.164137  0.424773  1
  Al  Al19  1  0.676238  0.844214  0.921890  1
  Al  Al20  1  0.835863  0.164137  0.075227  1
  Al  Al21  1  0.164137  0.835863  0.924773  1
  Al  Al22  1  0.559286  0.122435  0.250000  1
  Al  Al23  1  0.440714  0.877565  0.750000  1
  Al  Al24  1  0.877565  0.440714  0.250000  1
  Al  Al25  1  0.122435  0.559286  0.750000  1
  Al  Al26  1  0.562042  0.437958  0.250000  1
  Al  Al27  1  0.437958  0.562042  0.750000  1
  Al  Al28  1  0.999576  0.000424  0.250000  1
  Al  Al29  1  0.000424  0.999576  0.750000  1
  Cu  Cu30  1  0.500000  0.500000  0.000000  1
  Cu  Cu31  1  0.500000  0.500000  0.500000  1
  Ru  Ru32  1  0.500000  0.000000  0.000000  1
  Ru  Ru33  1  0.000000  0.500000  0.000000  1
  Ru  Ru34  1  0.500000  0.000000  0.500000  1
  Ru  Ru35  1  0.000000  0.500000  0.500000  1
  Ru  Ru36  1  0.000000  0.000000  0.000000  1
  Ru  Ru37  1  0.000000  0.000000  0.500000  1
