# generated using pymatgen
data_Nd4ZnGa23Pt9
_symmetry_space_group_name_H-M   'P 1'
_cell_length_a   7.59920442
_cell_length_b   7.64607010
_cell_length_c   13.42106998
_cell_angle_alpha   84.59222753
_cell_angle_beta   79.20690321
_cell_angle_gamma   60.09231126
_symmetry_Int_Tables_number   1
_chemical_formula_structural   Nd4ZnGa23Pt9
_chemical_formula_sum   'Nd4 Zn1 Ga23 Pt9'
_cell_volume   664.01158643
_cell_formula_units_Z   1
loop_
 _symmetry_equiv_pos_site_id
 _symmetry_equiv_pos_as_xyz
  1  'x, y, z'
loop_
 _atom_site_type_symbol
 _atom_site_label
 _atom_site_symmetry_multiplicity
 _atom_site_fract_x
 _atom_site_fract_y
 _atom_site_fract_z
 _atom_site_occupancy
  Nd  Nd0  1  0.393590  0.168775  0.808649  1
  Nd  Nd1  1  0.605069  0.832202  0.190677  1
  Nd  Nd2  1  0.731333  0.497768  0.809560  1
  Nd  Nd3  1  0.268953  0.500870  0.189341  1
  Zn  Zn4  1  0.688022  0.833930  0.941569  1
  Ga  Ga5  1  0.319242  0.160766  0.056965  1
  Ga  Ga6  1  0.145763  0.832123  0.561309  1
  Ga  Ga7  1  0.854091  0.167895  0.439349  1
  Ga  Ga8  1  0.480747  0.166180  0.557149  1
  Ga  Ga9  1  0.519876  0.833560  0.442941  1
  Ga  Ga10  1  0.218998  0.164958  0.327841  1
  Ga  Ga11  1  0.781461  0.834654  0.672241  1
  Ga  Ga12  1  0.435991  0.505836  0.672106  1
  Ga  Ga13  1  0.563017  0.495145  0.328486  1
  Ga  Ga14  1  0.108085  0.160782  0.670477  1
  Ga  Ga15  1  0.891725  0.838613  0.330277  1
  Ga  Ga16  1  0.355848  0.500041  0.940837  1
  Ga  Ga17  1  0.646375  0.505770  0.056449  1
  Ga  Ga18  1  0.019212  0.167166  0.949507  1
  Ga  Ga19  1  0.978701  0.832372  0.048032  1
  Ga  Ga20  1  0.185754  0.499814  0.442319  1
  Ga  Ga21  1  0.814517  0.501058  0.557951  1
  Ga  Ga22  1  0.737366  0.165089  0.183067  1
  Ga  Ga23  1  0.261523  0.835979  0.816859  1
  Ga  Ga24  1  0.053965  0.636070  0.817854  1
  Ga  Ga25  1  0.940103  0.365535  0.183736  1
  Ga  Ga26  1  0.854749  0.035451  0.817837  1
  Ga  Ga27  1  0.140271  0.961187  0.184024  1
  Pt  Pt28  1  0.119644  0.494983  0.638127  1
  Pt  Pt29  1  0.881896  0.504591  0.361887  1
  Pt  Pt30  1  0.660678  0.175531  0.000603  1
  Pt  Pt31  1  0.336031  0.830265  0.000832  1
  Pt  Pt32  1  0.540706  0.167586  0.361617  1
  Pt  Pt33  1  0.459516  0.832563  0.638181  1
  Pt  Pt34  1  0.781127  0.172461  0.636443  1
  Pt  Pt35  1  0.219139  0.828096  0.364175  1
  Pt  Pt36  1  0.006918  0.494336  0.000730  1
