# generated using pymatgen
data_Sc4Ga2AgOs
_symmetry_space_group_name_H-M   'P 1'
_cell_length_a   6.80267100
_cell_length_b   6.50782900
_cell_length_c   6.80010300
_cell_angle_alpha   90.00000000
_cell_angle_beta   90.00045490
_cell_angle_gamma   90.00000000
_symmetry_Int_Tables_number   1
_chemical_formula_structural   Sc4Ga2AgOs
_chemical_formula_sum   'Sc8 Ga4 Ag2 Os2'
_cell_volume   301.04477323
_cell_formula_units_Z   2
loop_
 _symmetry_equiv_pos_site_id
 _symmetry_equiv_pos_as_xyz
  1  'x, y, z'
loop_
 _atom_site_type_symbol
 _atom_site_label
 _atom_site_symmetry_multiplicity
 _atom_site_fract_x
 _atom_site_fract_y
 _atom_site_fract_z
 _atom_site_occupancy
  Sc  Sc0  1  0.763690  0.500569  0.263698  1
  Sc  Sc1  1  0.763690  0.999431  0.263698  1
  Sc  Sc2  1  0.236309  0.000571  0.263702  1
  Sc  Sc3  1  0.236309  0.499429  0.263702  1
  Sc  Sc4  1  0.763691  0.500570  0.736298  1
  Sc  Sc5  1  0.763691  0.999430  0.736298  1
  Sc  Sc6  1  0.236308  0.000570  0.736301  1
  Sc  Sc7  1  0.236308  0.499430  0.736301  1
  Ga  Ga8  1  0.999009  0.250000  0.999999  1
  Ga  Ga9  1  0.000990  0.750000  0.000001  1
  Ga  Ga10  1  0.498871  0.750000  0.499999  1
  Ga  Ga11  1  0.501129  0.250000  0.500000  1
  Ag  Ag12  1  0.500923  0.250000  0.000000  1
  Ag  Ag13  1  0.499078  0.750000  0.000000  1
  Os  Os14  1  0.999362  0.250000  0.500002  1
  Os  Os15  1  0.000639  0.750000  0.499998  1
