# generated using pymatgen
data_Nb12Al8Os3AuC4
_symmetry_space_group_name_H-M   'P 1'
_cell_length_a   8.35244101
_cell_length_b   8.38181452
_cell_length_c   8.38181400
_cell_angle_alpha   60.00000993
_cell_angle_beta   59.88360824
_cell_angle_gamma   59.88360256
_symmetry_Int_Tables_number   1
_chemical_formula_structural   Nb12Al8Os3AuC4
_chemical_formula_sum   'Nb12 Al8 Os3 Au1 C4'
_cell_volume   414.19820880
_cell_formula_units_Z   1
loop_
 _symmetry_equiv_pos_site_id
 _symmetry_equiv_pos_as_xyz
  1  'x, y, z'
loop_
 _atom_site_type_symbol
 _atom_site_label
 _atom_site_symmetry_multiplicity
 _atom_site_fract_x
 _atom_site_fract_y
 _atom_site_fract_z
 _atom_site_occupancy
  Nb  Nb0  1  0.807696  0.809823  0.191240  1
  Nb  Nb1  1  0.195472  0.179371  0.812578  1
  Nb  Nb2  1  0.807696  0.191240  0.809823  1
  Nb  Nb3  1  0.195472  0.812578  0.179371  1
  Nb  Nb4  1  0.195472  0.812578  0.812578  1
  Nb  Nb5  1  0.807696  0.191240  0.191240  1
  Nb  Nb6  1  0.442304  0.440177  0.058760  1
  Nb  Nb7  1  0.054528  0.070629  0.437422  1
  Nb  Nb8  1  0.442304  0.058760  0.440177  1
  Nb  Nb9  1  0.054528  0.437422  0.070629  1
  Nb  Nb10  1  0.054528  0.437422  0.437422  1
  Nb  Nb11  1  0.442304  0.058760  0.058760  1
  Al  Al12  1  0.745739  0.418087  0.418087  1
  Al  Al13  1  0.420080  0.754895  0.412512  1
  Al  Al14  1  0.420080  0.412512  0.754895  1
  Al  Al15  1  0.420080  0.412512  0.412512  1
  Al  Al16  1  0.504261  0.831913  0.831913  1
  Al  Al17  1  0.829920  0.495105  0.837488  1
  Al  Al18  1  0.829920  0.837488  0.495105  1
  Al  Al19  1  0.829920  0.837488  0.837488  1
  Os  Os20  1  0.625000  0.125000  0.625000  1
  Os  Os21  1  0.625000  0.625000  0.125000  1
  Os  Os22  1  0.625000  0.625000  0.625000  1
  Au  Au23  1  0.125000  0.625000  0.625000  1
  C  C24  1  0.625000  0.125000  0.125000  1
  C  C25  1  0.125000  0.625000  0.125000  1
  C  C26  1  0.125000  0.125000  0.625000  1
  C  C27  1  0.125000  0.125000  0.125000  1
