# generated using pymatgen
data_DyHo3(Lu2Co)4
_symmetry_space_group_name_H-M   'P 1'
_cell_length_a   6.13466727
_cell_length_b   6.88678228
_cell_length_c   9.15555300
_cell_angle_alpha   90.00000000
_cell_angle_beta   90.00000000
_cell_angle_gamma   90.03305071
_symmetry_Int_Tables_number   1
_chemical_formula_structural   DyHo3(Lu2Co)4
_chemical_formula_sum   'Dy1 Ho3 Lu8 Co4'
_cell_volume   386.80481732
_cell_formula_units_Z   1
loop_
 _symmetry_equiv_pos_site_id
 _symmetry_equiv_pos_as_xyz
  1  'x, y, z'
loop_
 _atom_site_type_symbol
 _atom_site_label
 _atom_site_symmetry_multiplicity
 _atom_site_fract_x
 _atom_site_fract_y
 _atom_site_fract_z
 _atom_site_occupancy
  Dy  Dy0  1  0.634408  0.041441  0.250000  1
  Ho  Ho1  1  0.135415  0.459078  0.750000  1
  Ho  Ho2  1  0.365055  0.958651  0.750000  1
  Ho  Ho3  1  0.865920  0.540620  0.250000  1
  Lu  Lu4  1  0.675388  0.325622  0.933275  1
  Lu  Lu5  1  0.174628  0.174714  0.434067  1
  Lu  Lu6  1  0.825011  0.824878  0.566603  1
  Lu  Lu7  1  0.174628  0.174714  0.065933  1
  Lu  Lu8  1  0.825011  0.824878  0.933397  1
  Lu  Lu9  1  0.675388  0.325622  0.566725  1
  Lu  Lu10  1  0.324740  0.674722  0.066447  1
  Lu  Lu11  1  0.324740  0.674722  0.433553  1
  Co  Co12  1  0.546974  0.613061  0.750000  1
  Co  Co13  1  0.953156  0.113073  0.750000  1
  Co  Co14  1  0.048002  0.886772  0.250000  1
  Co  Co15  1  0.451535  0.387433  0.250000  1
