# generated using pymatgen
data_Ta2Nb10Al3Ga(PtN)4
_symmetry_space_group_name_H-M   'P 1'
_cell_length_a   7.07210320
_cell_length_b   7.07210341
_cell_length_c   7.07210400
_cell_angle_alpha   90.08172958
_cell_angle_beta   89.91827042
_cell_angle_gamma   89.91826556
_symmetry_Int_Tables_number   1
_chemical_formula_structural   Ta2Nb10Al3Ga(PtN)4
_chemical_formula_sum   'Ta2 Nb10 Al3 Ga1 Pt4 N4'
_cell_volume   353.70769125
_cell_formula_units_Z   1
loop_
 _symmetry_equiv_pos_site_id
 _symmetry_equiv_pos_as_xyz
  1  'x, y, z'
loop_
 _atom_site_type_symbol
 _atom_site_label
 _atom_site_symmetry_multiplicity
 _atom_site_fract_x
 _atom_site_fract_y
 _atom_site_fract_z
 _atom_site_occupancy
  Ta  Ta0  1  0.789835  0.956453  0.376893  1
  Ta  Ta1  1  0.709264  0.044363  0.877393  1
  Nb  Nb2  1  0.210678  0.455221  0.124389  1
  Nb  Nb3  1  0.290565  0.544036  0.623581  1
  Nb  Nb4  1  0.955124  0.376895  0.789790  1
  Nb  Nb5  1  0.045265  0.876744  0.711955  1
  Nb  Nb6  1  0.454917  0.123137  0.210990  1
  Nb  Nb7  1  0.544466  0.624361  0.288566  1
  Nb  Nb8  1  0.376622  0.788505  0.955672  1
  Nb  Nb9  1  0.877220  0.708278  0.043710  1
  Nb  Nb10  1  0.122588  0.211472  0.456147  1
  Nb  Nb11  1  0.622364  0.291736  0.544844  1
  Al  Al12  1  0.427146  0.928331  0.570373  1
  Al  Al13  1  0.928290  0.571354  0.427374  1
  Al  Al14  1  0.072685  0.070882  0.071318  1
  Ga  Ga15  1  0.571157  0.430252  0.928827  1
  Pt  Pt16  1  0.175728  0.822644  0.322385  1
  Pt  Pt17  1  0.321443  0.174955  0.821230  1
  Pt  Pt18  1  0.823967  0.317920  0.179859  1
  Pt  Pt19  1  0.679559  0.683674  0.674654  1
  N  N20  1  0.871875  0.122238  0.625452  1
  N  N21  1  0.627548  0.877669  0.123828  1
  N  N22  1  0.125174  0.623273  0.875673  1
  N  N23  1  0.376519  0.375605  0.375098  1
