# generated using pymatgen
data_Ti3Cr2ReP3
_symmetry_space_group_name_H-M   'P 1'
_cell_length_a   6.47675322
_cell_length_b   6.52928863
_cell_length_c   3.25276500
_cell_angle_alpha   90.00000000
_cell_angle_beta   90.00000000
_cell_angle_gamma   120.26868872
_symmetry_Int_Tables_number   1
_chemical_formula_structural   Ti3Cr2ReP3
_chemical_formula_sum   'Ti3 Cr2 Re1 P3'
_cell_volume   118.80215312
_cell_formula_units_Z   1
loop_
 _symmetry_equiv_pos_site_id
 _symmetry_equiv_pos_as_xyz
  1  'x, y, z'
loop_
 _atom_site_type_symbol
 _atom_site_label
 _atom_site_symmetry_multiplicity
 _atom_site_fract_x
 _atom_site_fract_y
 _atom_site_fract_z
 _atom_site_occupancy
  Ti  Ti0  1  0.409380  0.407935  0.500000  1
  Ti  Ti1  1  0.590620  0.998555  0.500000  1
  Ti  Ti2  1  0.000000  0.599807  0.500000  1
  Cr  Cr3  1  0.255940  0.000487  0.000000  1
  Cr  Cr4  1  0.744060  0.744547  0.000000  1
  Re  Re5  1  0.000000  0.253581  0.000000  1
  P  P6  1  0.662556  0.336007  0.000000  1
  P  P7  1  0.337444  0.673452  0.000000  1
  P  P8  1  0.000000  0.985629  0.500000  1
