# generated using pymatgen
data_Dy4ZnSb5Rh7
_symmetry_space_group_name_H-M   'P 1'
_cell_length_a   7.55261592
_cell_length_b   7.55262614
_cell_length_c   7.55262535
_cell_angle_alpha   108.92349073
_cell_angle_beta   109.74729223
_cell_angle_gamma   109.74730172
_symmetry_Int_Tables_number   1
_chemical_formula_structural   Dy4ZnSb5Rh7
_chemical_formula_sum   'Dy4 Zn1 Sb5 Rh7'
_cell_volume   331.60825710
_cell_formula_units_Z   1
loop_
 _symmetry_equiv_pos_site_id
 _symmetry_equiv_pos_as_xyz
  1  'x, y, z'
loop_
 _atom_site_type_symbol
 _atom_site_label
 _atom_site_symmetry_multiplicity
 _atom_site_fract_x
 _atom_site_fract_y
 _atom_site_fract_z
 _atom_site_occupancy
  Dy  Dy0  1  0.999965  0.987124  0.508933  1
  Dy  Dy1  1  0.999965  0.508933  0.987124  1
  Dy  Dy2  1  0.478241  0.987199  0.987199  1
  Dy  Dy3  1  0.521849  0.508948  0.508948  1
  Zn  Zn4  1  0.000008  0.677666  0.677666  1
  Sb  Sb5  1  0.685103  0.686316  0.001219  1
  Sb  Sb6  1  0.314890  0.001231  0.316128  1
  Sb  Sb7  1  0.999999  0.320952  0.320952  1
  Sb  Sb8  1  0.314890  0.316128  0.001231  1
  Sb  Sb9  1  0.685103  0.001219  0.686316  1
  Rh  Rh10  1  0.751143  0.251738  0.500587  1
  Rh  Rh11  1  0.751143  0.500587  0.251738  1
  Rh  Rh12  1  0.500011  0.250306  0.750371  1
  Rh  Rh13  1  0.248809  0.500585  0.749429  1
  Rh  Rh14  1  0.248809  0.749429  0.500585  1
  Rh  Rh15  1  0.500011  0.750371  0.250306  1
  Rh  Rh16  1  0.000061  0.001269  0.001269  1
