# generated using pymatgen
data_Dy4Y9Ho3(InRh)4
_symmetry_space_group_name_H-M   'P 1'
_cell_length_a   9.66179201
_cell_length_b   9.66179199
_cell_length_c   9.66655434
_cell_angle_alpha   60.02757804
_cell_angle_beta   60.02758162
_cell_angle_gamma   60.09185540
_symmetry_Int_Tables_number   1
_chemical_formula_structural   Dy4Y9Ho3(InRh)4
_chemical_formula_sum   'Dy4 Y9 Ho3 In4 Rh4'
_cell_volume   638.78368480
_cell_formula_units_Z   1
loop_
 _symmetry_equiv_pos_site_id
 _symmetry_equiv_pos_as_xyz
  1  'x, y, z'
loop_
 _atom_site_type_symbol
 _atom_site_label
 _atom_site_symmetry_multiplicity
 _atom_site_fract_x
 _atom_site_fract_y
 _atom_site_fract_z
 _atom_site_occupancy
  Dy  Dy0  1  0.147815  0.550579  0.148622  1
  Dy  Dy1  1  0.311438  0.689295  0.689018  1
  Dy  Dy2  1  0.689295  0.311438  0.689018  1
  Dy  Dy3  1  0.550579  0.147815  0.148622  1
  Y  Y4  1  0.937241  0.937241  0.561644  1
  Y  Y5  1  0.147530  0.147530  0.552678  1
  Y  Y6  1  0.561020  0.937809  0.559977  1
  Y  Y7  1  0.151644  0.151644  0.152074  1
  Y  Y8  1  0.310554  0.310554  0.689970  1
  Y  Y9  1  0.937809  0.561020  0.559977  1
  Y  Y10  1  0.559744  0.559744  0.939224  1
  Y  Y11  1  0.562046  0.936776  0.938009  1
  Y  Y12  1  0.936776  0.562046  0.938009  1
  Ho  Ho13  1  0.689905  0.311035  0.310383  1
  Ho  Ho14  1  0.689478  0.689478  0.310668  1
  Ho  Ho15  1  0.311035  0.689905  0.310383  1
  In  In16  1  0.917955  0.917955  0.248326  1
  In  In17  1  0.248607  0.918173  0.918333  1
  In  In18  1  0.918173  0.248607  0.918333  1
  In  In19  1  0.916824  0.916824  0.917020  1
  Rh  Rh20  1  0.358749  0.358749  0.354117  1
  Rh  Rh21  1  0.924527  0.360615  0.359368  1
  Rh  Rh22  1  0.360639  0.360639  0.926859  1
  Rh  Rh23  1  0.360615  0.924527  0.359368  1
