# generated using pymatgen
data_CeNp7NiSe17
_symmetry_space_group_name_H-M   'P 1'
_cell_length_a   8.20539924
_cell_length_b   8.20231969
_cell_length_c   10.85652371
_cell_angle_alpha   80.11097959
_cell_angle_beta   80.15889121
_cell_angle_gamma   64.98600934
_symmetry_Int_Tables_number   1
_chemical_formula_structural   CeNp7NiSe17
_chemical_formula_sum   'Ce1 Np7 Ni1 Se17'
_cell_volume   648.34124930
_cell_formula_units_Z   1
loop_
 _symmetry_equiv_pos_site_id
 _symmetry_equiv_pos_as_xyz
  1  'x, y, z'
loop_
 _atom_site_type_symbol
 _atom_site_label
 _atom_site_symmetry_multiplicity
 _atom_site_fract_x
 _atom_site_fract_y
 _atom_site_fract_z
 _atom_site_occupancy
  Ce  Ce0  1  0.182368  0.694117  0.703223  1
  Np  Np1  1  0.693808  0.180585  0.702581  1
  Np  Np2  1  0.818811  0.305736  0.297646  1
  Np  Np3  1  0.305968  0.819536  0.295933  1
  Np  Np4  1  0.795266  0.795577  0.453045  1
  Np  Np5  1  0.201174  0.205636  0.545915  1
  Np  Np6  1  0.321368  0.318176  0.019358  1
  Np  Np7  1  0.681431  0.678836  0.980865  1
  Ni  Ni8  1  0.000115  0.999375  0.999745  1
  Se  Se9  1  0.178704  0.567445  0.460887  1
  Se  Se10  1  0.565991  0.181022  0.463075  1
  Se  Se11  1  0.820774  0.434407  0.536297  1
  Se  Se12  1  0.431863  0.826374  0.532884  1
  Se  Se13  1  0.051610  0.676614  0.978332  1
  Se  Se14  1  0.679557  0.049095  0.973451  1
  Se  Se15  1  0.950415  0.320492  0.028034  1
  Se  Se16  1  0.322719  0.947260  0.025474  1
  Se  Se17  1  0.780266  0.788100  0.720395  1
  Se  Se18  1  0.212442  0.215606  0.280459  1
  Se  Se19  1  0.948867  0.951649  0.222142  1
  Se  Se20  1  0.047299  0.056370  0.777725  1
  Se  Se21  1  0.701249  0.698862  0.241709  1
  Se  Se22  1  0.302450  0.293374  0.758850  1
  Se  Se23  1  0.481303  0.478115  0.170852  1
  Se  Se24  1  0.526416  0.514666  0.832166  1
  Se  Se25  1  0.997767  0.002974  0.498960  1
