# generated using pymatgen
data_Ce3Ho(GaIr)4
_symmetry_space_group_name_H-M   'P 1'
_cell_length_a   4.36815100
_cell_length_b   6.84309802
_cell_length_c   7.86658354
_cell_angle_alpha   90.63592973
_cell_angle_beta   90.00000000
_cell_angle_gamma   90.00000000
_symmetry_Int_Tables_number   1
_chemical_formula_structural   Ce3Ho(GaIr)4
_chemical_formula_sum   'Ce3 Ho1 Ga4 Ir4'
_cell_volume   235.13095734
_cell_formula_units_Z   1
loop_
 _symmetry_equiv_pos_site_id
 _symmetry_equiv_pos_as_xyz
  1  'x, y, z'
loop_
 _atom_site_type_symbol
 _atom_site_label
 _atom_site_symmetry_multiplicity
 _atom_site_fract_x
 _atom_site_fract_y
 _atom_site_fract_z
 _atom_site_occupancy
  Ce  Ce0  1  0.750000  0.470108  0.815723  1
  Ce  Ce1  1  0.750000  0.968242  0.689161  1
  Ce  Ce2  1  0.250000  0.031475  0.309921  1
  Ho  Ho3  1  0.250000  0.531590  0.190888  1
  Ga  Ga4  1  0.250000  0.648192  0.563194  1
  Ga  Ga5  1  0.750000  0.354254  0.430593  1
  Ga  Ga6  1  0.750000  0.845143  0.069296  1
  Ga  Ga7  1  0.250000  0.152497  0.935051  1
  Ir  Ir8  1  0.250000  0.760752  0.884708  1
  Ir  Ir9  1  0.750000  0.236850  0.109956  1
  Ir  Ir10  1  0.750000  0.740624  0.389647  1
  Ir  Ir11  1  0.250000  0.260272  0.611865  1
