# generated using pymatgen
data_YbCeVIr3
_symmetry_space_group_name_H-M   'P 1'
_cell_length_a   5.60230523
_cell_length_b   5.11471287
_cell_length_c   5.60230600
_cell_angle_alpha   56.79299361
_cell_angle_beta   60.00000724
_cell_angle_gamma   56.79298314
_symmetry_Int_Tables_number   1
_chemical_formula_structural   YbCeVIr3
_chemical_formula_sum   'Yb1 Ce1 V1 Ir3'
_cell_volume   107.69392946
_cell_formula_units_Z   1
loop_
 _symmetry_equiv_pos_site_id
 _symmetry_equiv_pos_as_xyz
  1  'x, y, z'
loop_
 _atom_site_type_symbol
 _atom_site_label
 _atom_site_symmetry_multiplicity
 _atom_site_fract_x
 _atom_site_fract_y
 _atom_site_fract_z
 _atom_site_occupancy
  Yb  Yb0  1  0.750116  0.749653  0.750116  1
  Ce  Ce1  1  0.499878  0.500364  0.499878  1
  V  V2  1  0.125453  0.623642  0.125453  1
  Ir  Ir3  1  0.626103  0.125447  0.124225  1
  Ir  Ir4  1  0.124225  0.125447  0.124225  1
  Ir  Ir5  1  0.124225  0.125447  0.626103  1
