# generated using pymatgen
data_Tm4Ga18Ir3PtRh2
_symmetry_space_group_name_H-M   'P 1'
_cell_length_a   7.57497856
_cell_length_b   7.57494173
_cell_length_c   9.46651900
_cell_angle_alpha   89.98295091
_cell_angle_beta   89.98311292
_cell_angle_gamma   119.79706201
_symmetry_Int_Tables_number   1
_chemical_formula_structural   Tm4Ga18Ir3PtRh2
_chemical_formula_sum   'Tm4 Ga18 Ir3 Pt1 Rh2'
_cell_volume   471.37446126
_cell_formula_units_Z   1
loop_
 _symmetry_equiv_pos_site_id
 _symmetry_equiv_pos_as_xyz
  1  'x, y, z'
loop_
 _atom_site_type_symbol
 _atom_site_label
 _atom_site_symmetry_multiplicity
 _atom_site_fract_x
 _atom_site_fract_y
 _atom_site_fract_z
 _atom_site_occupancy
  Tm  Tm0  1  0.995963  0.668377  0.250705  1
  Tm  Tm1  1  0.003420  0.331232  0.749455  1
  Tm  Tm2  1  0.668767  0.996581  0.250543  1
  Tm  Tm3  1  0.331622  0.004038  0.749295  1
  Ga  Ga4  1  0.125524  0.124686  0.250353  1
  Ga  Ga5  1  0.875315  0.874477  0.749647  1
  Ga  Ga6  1  0.002553  0.333761  0.081677  1
  Ga  Ga7  1  0.004275  0.669569  0.918426  1
  Ga  Ga8  1  0.001543  0.666114  0.579703  1
  Ga  Ga9  1  0.333885  0.998454  0.420296  1
  Ga  Ga10  1  0.998912  0.333668  0.419905  1
  Ga  Ga11  1  0.666329  0.001086  0.580092  1
  Ga  Ga12  1  0.666241  0.997450  0.918324  1
  Ga  Ga13  1  0.330434  0.995727  0.081574  1
  Ga  Ga14  1  0.331035  0.331095  0.565913  1
  Ga  Ga15  1  0.668904  0.668965  0.434088  1
  Ga  Ga16  1  0.668485  0.671597  0.068264  1
  Ga  Ga17  1  0.328405  0.331516  0.931739  1
  Ga  Ga18  1  0.339149  0.547595  0.250484  1
  Ga  Ga19  1  0.661241  0.455467  0.747350  1
  Ga  Ga20  1  0.544531  0.338758  0.252649  1
  Ga  Ga21  1  0.452405  0.660852  0.749517  1
  Ir  Ir22  1  0.328516  0.671479  0.000002  1
  Ir  Ir23  1  0.328190  0.671802  0.500000  1
  Ir  Ir24  1  0.672287  0.327708  0.499998  1
  Pt  Pt25  1  0.671900  0.328110  0.000003  1
  Rh  Rh26  1  0.000099  0.999909  0.000000  1
  Rh  Rh27  1  0.000071  0.999928  0.499999  1
