# generated using pymatgen
data_Lu10In8PtAu3
_symmetry_space_group_name_H-M   'P 1'
_cell_length_a   3.58010700
_cell_length_b   8.10260529
_cell_length_c   18.11696527
_cell_angle_alpha   89.99461255
_cell_angle_beta   90.00000000
_cell_angle_gamma   90.00000000
_symmetry_Int_Tables_number   1
_chemical_formula_structural   Lu10In8PtAu3
_chemical_formula_sum   'Lu10 In8 Pt1 Au3'
_cell_volume   525.54043902
_cell_formula_units_Z   1
loop_
 _symmetry_equiv_pos_site_id
 _symmetry_equiv_pos_as_xyz
  1  'x, y, z'
loop_
 _atom_site_type_symbol
 _atom_site_label
 _atom_site_symmetry_multiplicity
 _atom_site_fract_x
 _atom_site_fract_y
 _atom_site_fract_z
 _atom_site_occupancy
  Lu  Lu0  1  0.000000  0.119688  0.419047  1
  Lu  Lu1  1  0.000000  0.879068  0.579498  1
  Lu  Lu2  1  0.000000  0.379215  0.920651  1
  Lu  Lu3  1  0.000000  0.616556  0.084366  1
  Lu  Lu4  1  0.000000  0.253544  0.217876  1
  Lu  Lu5  1  0.000000  0.760972  0.782489  1
  Lu  Lu6  1  0.000000  0.260789  0.718169  1
  Lu  Lu7  1  0.000000  0.730951  0.278701  1
  Lu  Lu8  1  0.000000  0.999919  0.000709  1
  Lu  Lu9  1  0.000000  0.500502  0.499398  1
  In  In10  1  0.500000  0.422749  0.352929  1
  In  In11  1  0.500000  0.578528  0.646241  1
  In  In12  1  0.500000  0.078667  0.853910  1
  In  In13  1  0.500000  0.922515  0.147029  1
  In  In14  1  0.500000  0.290543  0.066382  1
  In  In15  1  0.500000  0.709029  0.935708  1
  In  In16  1  0.500000  0.210390  0.565594  1
  In  In17  1  0.500000  0.789389  0.432900  1
  Pt  Pt18  1  0.500000  0.527369  0.195979  1
  Au  Au19  1  0.500000  0.027791  0.302302  1
  Au  Au20  1  0.500000  0.970439  0.696606  1
  Au  Au21  1  0.500000  0.471385  0.803516  1
