# generated using pymatgen
data_CePa6Cd3O20
_symmetry_space_group_name_H-M   'P 1'
_cell_length_a   10.14263954
_cell_length_b   10.14264041
_cell_length_c   6.62439247
_cell_angle_alpha   83.67017612
_cell_angle_beta   83.67017829
_cell_angle_gamma   141.54744460
_symmetry_Int_Tables_number   1
_chemical_formula_structural   CePa6Cd3O20
_chemical_formula_sum   'Ce1 Pa6 Cd3 O20'
_cell_volume   399.32667244
_cell_formula_units_Z   1
loop_
 _symmetry_equiv_pos_site_id
 _symmetry_equiv_pos_as_xyz
  1  'x, y, z'
loop_
 _atom_site_type_symbol
 _atom_site_label
 _atom_site_symmetry_multiplicity
 _atom_site_fract_x
 _atom_site_fract_y
 _atom_site_fract_z
 _atom_site_occupancy
  Ce  Ce0  1  0.000000  0.000000  0.500000  1
  Pa  Pa1  1  0.900696  0.099304  0.000000  1
  Pa  Pa2  1  0.399673  0.600327  0.500000  1
  Pa  Pa3  1  0.099304  0.900696  0.000000  1
  Pa  Pa4  1  0.699169  0.300831  0.000000  1
  Pa  Pa5  1  0.600327  0.399673  0.500000  1
  Pa  Pa6  1  0.300831  0.699169  0.000000  1
  Cd  Cd7  1  0.500000  0.500000  0.000000  1
  Cd  Cd8  1  0.202682  0.797318  0.500000  1
  Cd  Cd9  1  0.797318  0.202682  0.500000  1
  O  O10  1  0.266999  0.469766  0.874550  1
  O  O11  1  0.888263  0.888263  0.875284  1
  O  O12  1  0.770032  0.967298  0.365060  1
  O  O13  1  0.032702  0.229968  0.634940  1
  O  O14  1  0.469766  0.266999  0.874550  1
  O  O15  1  0.375147  0.375147  0.389293  1
  O  O16  1  0.624853  0.624853  0.610707  1
  O  O17  1  0.066001  0.667871  0.898669  1
  O  O18  1  0.530234  0.733001  0.125450  1
  O  O19  1  0.967298  0.770032  0.365060  1
  O  O20  1  0.229968  0.032702  0.634940  1
  O  O21  1  0.667871  0.066001  0.898669  1
  O  O22  1  0.111737  0.111737  0.124716  1
  O  O23  1  0.581257  0.192319  0.357028  1
  O  O24  1  0.807681  0.418743  0.642972  1
  O  O25  1  0.418743  0.807681  0.642972  1
  O  O26  1  0.733001  0.530234  0.125450  1
  O  O27  1  0.192319  0.581257  0.357028  1
  O  O28  1  0.332129  0.933999  0.101331  1
  O  O29  1  0.933999  0.332129  0.101331  1
