# generated using pymatgen
data_La16CdIn3Rh4
_symmetry_space_group_name_H-M   'P 1'
_cell_length_a   10.12732035
_cell_length_b   10.12732076
_cell_length_c   10.12731939
_cell_angle_alpha   60.14635340
_cell_angle_beta   60.14635119
_cell_angle_gamma   60.14635135
_symmetry_Int_Tables_number   1
_chemical_formula_structural   La16CdIn3Rh4
_chemical_formula_sum   'La16 Cd1 In3 Rh4'
_cell_volume   736.89560595
_cell_formula_units_Z   1
loop_
 _symmetry_equiv_pos_site_id
 _symmetry_equiv_pos_as_xyz
  1  'x, y, z'
loop_
 _atom_site_type_symbol
 _atom_site_label
 _atom_site_symmetry_multiplicity
 _atom_site_fract_x
 _atom_site_fract_y
 _atom_site_fract_z
 _atom_site_occupancy
  La  La0  1  0.347580  0.347580  0.347580  1
  La  La1  1  0.348330  0.348330  0.955116  1
  La  La2  1  0.348330  0.955116  0.348330  1
  La  La3  1  0.955116  0.348330  0.348330  1
  La  La4  1  0.808331  0.191737  0.191737  1
  La  La5  1  0.191422  0.809131  0.809131  1
  La  La6  1  0.191737  0.808330  0.191737  1
  La  La7  1  0.809131  0.191423  0.809131  1
  La  La8  1  0.191737  0.191737  0.808331  1
  La  La9  1  0.809130  0.809131  0.191423  1
  La  La10  1  0.939605  0.561278  0.561278  1
  La  La11  1  0.560293  0.938932  0.938932  1
  La  La12  1  0.561278  0.939605  0.561278  1
  La  La13  1  0.938932  0.560293  0.938932  1
  La  La14  1  0.561278  0.561278  0.939605  1
  La  La15  1  0.938932  0.938932  0.560293  1
  Cd  Cd16  1  0.579080  0.579080  0.579080  1
  In  In17  1  0.579754  0.579754  0.260594  1
  In  In18  1  0.579754  0.260594  0.579754  1
  In  In19  1  0.260594  0.579754  0.579754  1
  Rh  Rh20  1  0.141066  0.141066  0.141066  1
  Rh  Rh21  1  0.140765  0.140765  0.577063  1
  Rh  Rh22  1  0.140765  0.577063  0.140765  1
  Rh  Rh23  1  0.577063  0.140765  0.140765  1
