# generated using pymatgen
data_TbDy2Al12(OsRh)2
_symmetry_space_group_name_H-M   'P 1'
_cell_length_a   8.77699200
_cell_length_b   8.84503897
_cell_length_c   9.57704600
_cell_angle_alpha   90.00000000
_cell_angle_beta   90.00000000
_cell_angle_gamma   119.74582697
_symmetry_Int_Tables_number   1
_chemical_formula_structural   TbDy2Al12(OsRh)2
_chemical_formula_sum   'Tb2 Dy4 Al24 Os4 Rh4'
_cell_volume   645.52682237
_cell_formula_units_Z   2
loop_
 _symmetry_equiv_pos_site_id
 _symmetry_equiv_pos_as_xyz
  1  'x, y, z'
loop_
 _atom_site_type_symbol
 _atom_site_label
 _atom_site_symmetry_multiplicity
 _atom_site_fract_x
 _atom_site_fract_y
 _atom_site_fract_z
 _atom_site_occupancy
  Tb  Tb0  1  0.190891  0.381781  0.250000  1
  Tb  Tb1  1  0.809109  0.618219  0.750000  1
  Dy  Dy2  1  0.613626  0.812874  0.250000  1
  Dy  Dy3  1  0.386374  0.187126  0.750000  1
  Dy  Dy4  1  0.199247  0.812874  0.250000  1
  Dy  Dy5  1  0.800753  0.187126  0.750000  1
  Al  Al6  1  0.333781  0.667562  0.024691  1
  Al  Al7  1  0.666219  0.332438  0.975309  1
  Al  Al8  1  0.666219  0.332438  0.524691  1
  Al  Al9  1  0.333781  0.667562  0.475309  1
  Al  Al10  1  0.162701  0.325405  0.577768  1
  Al  Al11  1  0.837299  0.674595  0.422232  1
  Al  Al12  1  0.672175  0.836823  0.576030  1
  Al  Al13  1  0.837299  0.674595  0.077768  1
  Al  Al14  1  0.327825  0.163177  0.423970  1
  Al  Al15  1  0.162701  0.325405  0.922232  1
  Al  Al16  1  0.164647  0.836823  0.576030  1
  Al  Al17  1  0.327825  0.163177  0.076030  1
  Al  Al18  1  0.835353  0.163177  0.423970  1
  Al  Al19  1  0.672175  0.836823  0.923970  1
  Al  Al20  1  0.835353  0.163177  0.076030  1
  Al  Al21  1  0.164647  0.836823  0.923970  1
  Al  Al22  1  0.563659  0.127318  0.250000  1
  Al  Al23  1  0.436341  0.872682  0.750000  1
  Al  Al24  1  0.877665  0.439985  0.250000  1
  Al  Al25  1  0.122335  0.560015  0.750000  1
  Al  Al26  1  0.562320  0.439985  0.250000  1
  Al  Al27  1  0.437680  0.560015  0.750000  1
  Al  Al28  1  0.000703  0.001406  0.250000  1
  Al  Al29  1  0.999297  0.998594  0.750000  1
  Os  Os30  1  0.500000  0.000000  0.000000  1
  Os  Os31  1  0.500000  0.000000  0.500000  1
  Os  Os32  1  0.000000  0.000000  0.000000  1
  Os  Os33  1  0.000000  0.000000  0.500000  1
  Rh  Rh34  1  0.000000  0.500000  0.000000  1
  Rh  Rh35  1  0.500000  0.500000  0.000000  1
  Rh  Rh36  1  0.000000  0.500000  0.500000  1
  Rh  Rh37  1  0.500000  0.500000  0.500000  1
