# generated using pymatgen
data_Dy8Zr10TiSi16Hg
_symmetry_space_group_name_H-M   'P 1'
_cell_length_a   7.34157596
_cell_length_b   7.34157527
_cell_length_c   13.34651312
_cell_angle_alpha   89.87606418
_cell_angle_beta   90.12393777
_cell_angle_gamma   89.90479798
_symmetry_Int_Tables_number   1
_chemical_formula_structural   Dy8Zr10TiSi16Hg
_chemical_formula_sum   'Dy8 Zr10 Ti1 Si16 Hg1'
_cell_volume   719.35577681
_cell_formula_units_Z   1
loop_
 _symmetry_equiv_pos_site_id
 _symmetry_equiv_pos_as_xyz
  1  'x, y, z'
loop_
 _atom_site_type_symbol
 _atom_site_label
 _atom_site_symmetry_multiplicity
 _atom_site_fract_x
 _atom_site_fract_y
 _atom_site_fract_z
 _atom_site_occupancy
  Dy  Dy0  1  0.997749  0.653028  0.035638  1
  Dy  Dy1  1  0.998276  0.348856  0.534255  1
  Dy  Dy2  1  0.653028  0.997749  0.964362  1
  Dy  Dy3  1  0.154855  0.503725  0.786251  1
  Dy  Dy4  1  0.848800  0.497175  0.288370  1
  Dy  Dy5  1  0.503725  0.154855  0.213749  1
  Dy  Dy6  1  0.497175  0.848800  0.711630  1
  Dy  Dy7  1  0.348856  0.998276  0.465745  1
  Zr  Zr8  1  0.358509  0.502331  0.377660  1
  Zr  Zr9  1  0.857912  0.990889  0.376747  1
  Zr  Zr10  1  0.006134  0.144716  0.125516  1
  Zr  Zr11  1  0.990889  0.857912  0.623253  1
  Zr  Zr12  1  0.502331  0.358509  0.622340  1
  Zr  Zr13  1  0.144716  0.006134  0.874484  1
  Zr  Zr14  1  0.821411  0.178387  0.750562  1
  Zr  Zr15  1  0.178387  0.821411  0.249438  1
  Zr  Zr16  1  0.497112  0.640993  0.123154  1
  Zr  Zr17  1  0.640993  0.497112  0.876846  1
  Ti  Ti18  1  0.322508  0.322508  0.000000  1
  Si  Si19  1  0.070814  0.709923  0.436159  1
  Si  Si20  1  0.950975  0.296703  0.938148  1
  Si  Si21  1  0.709923  0.070814  0.563841  1
  Si  Si22  1  0.206724  0.445549  0.184344  1
  Si  Si23  1  0.798509  0.551850  0.693773  1
  Si  Si24  1  0.445549  0.206724  0.815656  1
  Si  Si25  1  0.551850  0.798509  0.306227  1
  Si  Si26  1  0.296703  0.950975  0.061852  1
  Si  Si27  1  0.794781  0.857634  0.182109  1
  Si  Si28  1  0.271121  0.632475  0.574465  1
  Si  Si29  1  0.708319  0.358300  0.068372  1
  Si  Si30  1  0.632475  0.271121  0.425535  1
  Si  Si31  1  0.358300  0.708319  0.931628  1
  Si  Si32  1  0.142767  0.205212  0.318634  1
  Si  Si33  1  0.205212  0.142767  0.681366  1
  Si  Si34  1  0.857634  0.794781  0.817891  1
  Hg  Hg35  1  0.674980  0.674980  0.500000  1
