# generated using pymatgen
data_Er3Mg2ZnIrPd2
_symmetry_space_group_name_H-M   'P 1'
_cell_length_a   7.32612312
_cell_length_b   7.37484421
_cell_length_c   3.92502700
_cell_angle_alpha   90.00000000
_cell_angle_beta   90.00000000
_cell_angle_gamma   119.46591772
_symmetry_Int_Tables_number   1
_chemical_formula_structural   Er3Mg2ZnIrPd2
_chemical_formula_sum   'Er3 Mg2 Zn1 Ir1 Pd2'
_cell_volume   184.63436956
_cell_formula_units_Z   1
loop_
 _symmetry_equiv_pos_site_id
 _symmetry_equiv_pos_as_xyz
  1  'x, y, z'
loop_
 _atom_site_type_symbol
 _atom_site_label
 _atom_site_symmetry_multiplicity
 _atom_site_fract_x
 _atom_site_fract_y
 _atom_site_fract_z
 _atom_site_occupancy
  Er  Er0  1  0.584578  0.975675  0.000000  1
  Er  Er1  1  0.004871  0.599371  0.000000  1
  Er  Er2  1  0.422640  0.435050  0.000000  1
  Mg  Mg3  1  0.250326  0.005312  0.500000  1
  Mg  Mg4  1  0.003894  0.250056  0.500000  1
  Zn  Zn5  1  0.744824  0.745626  0.500000  1
  Ir  Ir6  1  0.329902  0.666282  0.500000  1
  Pd  Pd7  1  0.991214  0.991203  0.000000  1
  Pd  Pd8  1  0.667749  0.331425  0.500000  1
