# generated using pymatgen
data_Tb3DyGa12Ag
_symmetry_space_group_name_H-M   'P 1'
_cell_length_a   7.57647055
_cell_length_b   7.56337780
_cell_length_c   7.56337842
_cell_angle_alpha   109.43612860
_cell_angle_beta   109.50628580
_cell_angle_gamma   109.50628646
_symmetry_Int_Tables_number   1
_chemical_formula_structural   Tb3DyGa12Ag
_chemical_formula_sum   'Tb3 Dy1 Ga12 Ag1'
_cell_volume   333.49441637
_cell_formula_units_Z   1
loop_
 _symmetry_equiv_pos_site_id
 _symmetry_equiv_pos_as_xyz
  1  'x, y, z'
loop_
 _atom_site_type_symbol
 _atom_site_label
 _atom_site_symmetry_multiplicity
 _atom_site_fract_x
 _atom_site_fract_y
 _atom_site_fract_z
 _atom_site_occupancy
  Tb  Tb0  1  0.500000  0.500000  0.500000  1
  Tb  Tb1  1  0.000000  0.000000  0.500000  1
  Tb  Tb2  1  0.000000  0.500000  0.000000  1
  Dy  Dy3  1  0.500000  0.000000  0.000000  1
  Ga  Ga4  1  0.500000  0.750020  0.249980  1
  Ga  Ga5  1  0.500000  0.249980  0.750020  1
  Ga  Ga6  1  0.250020  0.500040  0.750020  1
  Ga  Ga7  1  0.749980  0.499960  0.249980  1
  Ga  Ga8  1  0.749980  0.249980  0.499960  1
  Ga  Ga9  1  0.250020  0.750020  0.500040  1
  Ga  Ga10  1  0.999688  0.305512  0.305512  1
  Ga  Ga11  1  0.000312  0.694488  0.694488  1
  Ga  Ga12  1  0.305824  0.000000  0.305512  1
  Ga  Ga13  1  0.694176  0.000000  0.694488  1
  Ga  Ga14  1  0.305824  0.305512  0.000000  1
  Ga  Ga15  1  0.694176  0.694488  0.000000  1
  Ag  Ag16  1  0.000000  0.000000  0.000000  1
