# generated using pymatgen
data_TbCe2Zn2Pd3Au
_symmetry_space_group_name_H-M   'P 1'
_cell_length_a   7.40196813
_cell_length_b   7.59299669
_cell_length_c   3.86647500
_cell_angle_alpha   90.00000000
_cell_angle_beta   90.00000000
_cell_angle_gamma   120.85744446
_symmetry_Int_Tables_number   1
_chemical_formula_structural   TbCe2Zn2Pd3Au
_chemical_formula_sum   'Tb1 Ce2 Zn2 Pd3 Au1'
_cell_volume   186.54716640
_cell_formula_units_Z   1
loop_
 _symmetry_equiv_pos_site_id
 _symmetry_equiv_pos_as_xyz
  1  'x, y, z'
loop_
 _atom_site_type_symbol
 _atom_site_label
 _atom_site_symmetry_multiplicity
 _atom_site_fract_x
 _atom_site_fract_y
 _atom_site_fract_z
 _atom_site_occupancy
  Tb  Tb0  1  0.000000  0.404597  0.000000  1
  Ce  Ce1  1  0.605202  0.598135  0.000000  1
  Ce  Ce2  1  0.394798  0.992933  0.000000  1
  Zn  Zn3  1  0.249459  0.255873  0.500000  1
  Zn  Zn4  1  0.750541  0.006414  0.500000  1
  Pd  Pd5  1  0.000000  0.023245  0.000000  1
  Pd  Pd6  1  0.650218  0.314913  0.500000  1
  Pd  Pd7  1  0.349782  0.664696  0.500000  1
  Au  Au8  1  0.000000  0.739195  0.500000  1
