# generated using pymatgen
data_Mg3TiZn2(B2Rh5)2
_symmetry_space_group_name_H-M   'P 1'
_cell_length_a   2.93689600
_cell_length_b   9.41793406
_cell_length_c   9.41771606
_cell_angle_alpha   90.01297666
_cell_angle_beta   90.00000000
_cell_angle_gamma   90.00000608
_symmetry_Int_Tables_number   1
_chemical_formula_structural   Mg3TiZn2(B2Rh5)2
_chemical_formula_sum   'Mg3 Ti1 Zn2 B4 Rh10'
_cell_volume   260.48924354
_cell_formula_units_Z   1
loop_
 _symmetry_equiv_pos_site_id
 _symmetry_equiv_pos_as_xyz
  1  'x, y, z'
loop_
 _atom_site_type_symbol
 _atom_site_label
 _atom_site_symmetry_multiplicity
 _atom_site_fract_x
 _atom_site_fract_y
 _atom_site_fract_z
 _atom_site_occupancy
  Mg  Mg0  1  0.000000  0.822559  0.177435  1
  Mg  Mg1  1  0.000001  0.324691  0.322732  1
  Mg  Mg2  1  0.000000  0.677032  0.675660  1
  Ti  Ti3  1  0.000000  0.175206  0.824890  1
  Zn  Zn4  1  0.000000  0.502180  0.000142  1
  Zn  Zn5  1  0.000001  0.999856  0.497822  1
  B  B6  1  0.000001  0.128246  0.126339  1
  B  B7  1  0.000001  0.626044  0.373957  1
  B  B8  1  0.000000  0.373639  0.626345  1
  B  B9  1  0.000001  0.873636  0.871760  1
  Rh  Rh10  1  0.500001  0.002465  0.997536  1
  Rh  Rh11  1  0.500001  0.282206  0.062355  1
  Rh  Rh12  1  0.500000  0.569776  0.217003  1
  Rh  Rh13  1  0.500001  0.072857  0.282331  1
  Rh  Rh14  1  0.500001  0.782991  0.430228  1
  Rh  Rh15  1  0.500001  0.498027  0.501964  1
  Rh  Rh16  1  0.500000  0.213162  0.579769  1
  Rh  Rh17  1  0.500001  0.937547  0.717783  1
  Rh  Rh18  1  0.500000  0.420237  0.786784  1
  Rh  Rh19  1  0.500000  0.717650  0.927172  1
