# generated using pymatgen
data_Br7(NCl)2
_symmetry_space_group_name_H-M   'P 1'
_cell_length_a   6.47984570
_cell_length_b   9.92922695
_cell_length_c   8.71217578
_cell_angle_alpha   110.06475821
_cell_angle_beta   88.47486370
_cell_angle_gamma   95.37840932
_symmetry_Int_Tables_number   1
_chemical_formula_structural   Br7(NCl)2
_chemical_formula_sum   'Br7 N2 Cl2'
_cell_volume   524.19114747
_cell_formula_units_Z   1
loop_
 _symmetry_equiv_pos_site_id
 _symmetry_equiv_pos_as_xyz
  1  'x, y, z'
loop_
 _atom_site_type_symbol
 _atom_site_label
 _atom_site_symmetry_multiplicity
 _atom_site_fract_x
 _atom_site_fract_y
 _atom_site_fract_z
 _atom_site_occupancy
  Br  Br0  1  0.177539  0.274735  0.363790  1
  Br  Br1  1  0.525030  0.825206  0.849069  1
  Br  Br2  1  0.551550  0.589405  0.180187  1
  Br  Br3  1  0.549402  0.122868  0.899928  1
  Br  Br4  1  0.001240  0.484699  0.581390  1
  Br  Br5  1  0.354536  0.074070  0.171341  1
  Br  Br6  1  0.795707  0.543863  0.357418  1
  N  N7  1  0.206084  0.873800  0.470043  1
  N  N8  1  0.142339  0.929075  0.593307  1
  Cl  Cl9  1  0.481062  0.594884  0.835470  1
  Cl  Cl10  1  0.702520  0.152597  0.677740  1
