# generated using pymatgen
data_Tb9Er(GaSb)4
_symmetry_space_group_name_H-M   'P 1'
_cell_length_a   8.68009971
_cell_length_b   8.68009972
_cell_length_c   7.95468798
_cell_angle_alpha   89.93041220
_cell_angle_beta   89.93041363
_cell_angle_gamma   125.42344292
_symmetry_Int_Tables_number   1
_chemical_formula_structural   Tb9Er(GaSb)4
_chemical_formula_sum   'Tb9 Er1 Ga4 Sb4'
_cell_volume   488.39411413
_cell_formula_units_Z   1
loop_
 _symmetry_equiv_pos_site_id
 _symmetry_equiv_pos_as_xyz
  1  'x, y, z'
loop_
 _atom_site_type_symbol
 _atom_site_label
 _atom_site_symmetry_multiplicity
 _atom_site_fract_x
 _atom_site_fract_y
 _atom_site_fract_z
 _atom_site_occupancy
  Tb  Tb0  1  0.039375  0.302204  0.332080  1
  Tb  Tb1  1  0.960625  0.697796  0.667920  1
  Tb  Tb2  1  0.461237  0.199064  0.831793  1
  Tb  Tb3  1  0.800936  0.538763  0.168207  1
  Tb  Tb4  1  0.538763  0.800936  0.168207  1
  Tb  Tb5  1  0.199064  0.461237  0.831793  1
  Tb  Tb6  1  0.697796  0.960625  0.667920  1
  Tb  Tb7  1  0.302204  0.039375  0.332080  1
  Tb  Tb8  1  0.000000  0.000000  0.000000  1
  Er  Er9  1  0.500000  0.500000  0.500000  1
  Ga  Ga10  1  0.376595  0.376595  0.124695  1
  Ga  Ga11  1  0.623405  0.623405  0.875305  1
  Ga  Ga12  1  0.125464  0.125464  0.622734  1
  Ga  Ga13  1  0.874536  0.874536  0.377266  1
  Sb  Sb14  1  0.794800  0.205200  0.000000  1
  Sb  Sb15  1  0.205200  0.794800  0.000000  1
  Sb  Sb16  1  0.704092  0.295908  0.500000  1
  Sb  Sb17  1  0.295908  0.704092  0.500000  1
