# generated using pymatgen
data_K3Mn(BO2)5
_symmetry_space_group_name_H-M   'P 1'
_cell_length_a   19.82246500
_cell_length_b   7.90464562
_cell_length_c   8.32117800
_cell_angle_alpha   58.55152783
_cell_angle_beta   90.00000000
_cell_angle_gamma   90.00000000
_symmetry_Int_Tables_number   1
_chemical_formula_structural   K3Mn(BO2)5
_chemical_formula_sum   'K12 Mn4 B20 O40'
_cell_volume   1112.32005043
_cell_formula_units_Z   4
loop_
 _symmetry_equiv_pos_site_id
 _symmetry_equiv_pos_as_xyz
  1  'x, y, z'
loop_
 _atom_site_type_symbol
 _atom_site_label
 _atom_site_symmetry_multiplicity
 _atom_site_fract_x
 _atom_site_fract_y
 _atom_site_fract_z
 _atom_site_occupancy
  K  K0  1  0.578540  0.334241  0.013343  1
  K  K1  1  0.921460  0.334241  0.513343  1
  K  K2  1  0.421460  0.665759  0.986657  1
  K  K3  1  0.078540  0.665759  0.486657  1
  K  K4  1  0.563924  0.318649  0.473808  1
  K  K5  1  0.936076  0.318649  0.973808  1
  K  K6  1  0.436076  0.681351  0.526192  1
  K  K7  1  0.063924  0.681351  0.026192  1
  K  K8  1  0.753341  0.760811  0.775549  1
  K  K9  1  0.746659  0.760811  0.275549  1
  K  K10  1  0.246659  0.239189  0.224451  1
  K  K11  1  0.253341  0.239189  0.724451  1
  Mn  Mn12  1  0.607672  0.827580  0.495069  1
  Mn  Mn13  1  0.892328  0.827580  0.995069  1
  Mn  Mn14  1  0.392328  0.172420  0.504931  1
  Mn  Mn15  1  0.107672  0.172420  0.004931  1
  B  B16  1  0.579355  0.826459  0.141193  1
  B  B17  1  0.920645  0.826459  0.641193  1
  B  B18  1  0.420645  0.173541  0.858807  1
  B  B19  1  0.079355  0.173541  0.358807  1
  B  B20  1  0.661372  0.052624  0.875624  1
  B  B21  1  0.838628  0.052624  0.375624  1
  B  B22  1  0.338628  0.947376  0.124376  1
  B  B23  1  0.161372  0.947376  0.624376  1
  B  B24  1  0.714082  0.159485  0.326675  1
  B  B25  1  0.785918  0.159485  0.826675  1
  B  B26  1  0.285918  0.840515  0.673325  1
  B  B27  1  0.214082  0.840515  0.173325  1
  B  B28  1  0.577950  0.825741  0.842797  1
  B  B29  1  0.922050  0.825741  0.342797  1
  B  B30  1  0.422050  0.174259  0.157203  1
  B  B31  1  0.077950  0.174259  0.657203  1
  B  B32  1  0.696548  0.415717  0.697589  1
  B  B33  1  0.803452  0.415717  0.197589  1
  B  B34  1  0.303452  0.584283  0.302411  1
  B  B35  1  0.196548  0.584283  0.802411  1
  O  O36  1  0.647896  0.113724  0.350781  1
  O  O37  1  0.852104  0.113724  0.850781  1
  O  O38  1  0.352104  0.886276  0.649219  1
  O  O39  1  0.147896  0.886276  0.149219  1
  O  O40  1  0.555964  0.753805  0.317939  1
  O  O41  1  0.944036  0.753805  0.817939  1
  O  O42  1  0.444036  0.246195  0.682061  1
  O  O43  1  0.055964  0.246195  0.182061  1
  O  O44  1  0.680350  0.608734  0.609915  1
  O  O45  1  0.819650  0.608734  0.109915  1
  O  O46  1  0.319650  0.391266  0.390085  1
  O  O47  1  0.180350  0.391266  0.890085  1
  O  O48  1  0.869714  0.967813  0.565026  1
  O  O49  1  0.630286  0.967813  0.065026  1
  O  O50  1  0.130286  0.032187  0.434974  1
  O  O51  1  0.369714  0.032187  0.934974  1
  O  O52  1  0.549856  0.759904  0.736833  1
  O  O53  1  0.950144  0.759904  0.236833  1
  O  O54  1  0.450144  0.240096  0.263167  1
  O  O55  1  0.049856  0.240096  0.763167  1
  O  O56  1  0.734296  0.361649  0.224695  1
  O  O57  1  0.765704  0.361649  0.724695  1
  O  O58  1  0.265704  0.638351  0.775305  1
  O  O59  1  0.234296  0.638351  0.275305  1
  O  O60  1  0.647359  0.268711  0.763494  1
  O  O61  1  0.852641  0.268711  0.263494  1
  O  O62  1  0.352641  0.731289  0.236506  1
  O  O63  1  0.147359  0.731289  0.736506  1
  O  O64  1  0.735071  0.016417  0.896902  1
  O  O65  1  0.764929  0.016417  0.396902  1
  O  O66  1  0.264929  0.983583  0.103098  1
  O  O67  1  0.235071  0.983583  0.603098  1
  O  O68  1  0.446795  0.246426  0.971409  1
  O  O69  1  0.053205  0.246426  0.471409  1
  O  O70  1  0.553205  0.753574  0.028591  1
  O  O71  1  0.946795  0.753574  0.528591  1
  O  O72  1  0.631597  0.957691  0.778090  1
  O  O73  1  0.868403  0.957691  0.278090  1
  O  O74  1  0.368403  0.042309  0.221910  1
  O  O75  1  0.131597  0.042309  0.721910  1
