# generated using pymatgen
data_CaNd2Mg3AgSn2
_symmetry_space_group_name_H-M   'P 1'
_cell_length_a   7.71282900
_cell_length_b   7.67880070
_cell_length_c   4.64071500
_cell_angle_alpha   90.00000000
_cell_angle_beta   90.00000000
_cell_angle_gamma   120.14670442
_symmetry_Int_Tables_number   1
_chemical_formula_structural   CaNd2Mg3AgSn2
_chemical_formula_sum   'Ca1 Nd2 Mg3 Ag1 Sn2'
_cell_volume   237.67237970
_cell_formula_units_Z   1
loop_
 _symmetry_equiv_pos_site_id
 _symmetry_equiv_pos_as_xyz
  1  'x, y, z'
loop_
 _atom_site_type_symbol
 _atom_site_label
 _atom_site_symmetry_multiplicity
 _atom_site_fract_x
 _atom_site_fract_y
 _atom_site_fract_z
 _atom_site_occupancy
  Ca  Ca0  1  0.587643  0.000000  0.000000  1
  Nd  Nd1  1  0.998840  0.585323  0.000000  1
  Nd  Nd2  1  0.413517  0.414677  0.000000  1
  Mg  Mg3  1  0.236418  0.000000  0.500000  1
  Mg  Mg4  1  0.000071  0.237306  0.500000  1
  Mg  Mg5  1  0.762765  0.762694  0.500000  1
  Ag  Ag6  1  0.000947  0.000000  0.000000  1
  Sn  Sn7  1  0.331750  0.663703  0.500000  1
  Sn  Sn8  1  0.668048  0.336297  0.500000  1
