# generated using pymatgen
data_Th2U2ReB12Mo
_symmetry_space_group_name_H-M   'P 1'
_cell_length_a   3.76389400
_cell_length_b   9.40831450
_cell_length_c   11.54183761
_cell_angle_alpha   89.96255406
_cell_angle_beta   90.00000000
_cell_angle_gamma   90.00000000
_symmetry_Int_Tables_number   1
_chemical_formula_structural   Th2U2ReB12Mo
_chemical_formula_sum   'Th4 U4 Re2 B24 Mo2'
_cell_volume   408.71829494
_cell_formula_units_Z   2
loop_
 _symmetry_equiv_pos_site_id
 _symmetry_equiv_pos_as_xyz
  1  'x, y, z'
loop_
 _atom_site_type_symbol
 _atom_site_label
 _atom_site_symmetry_multiplicity
 _atom_site_fract_x
 _atom_site_fract_y
 _atom_site_fract_z
 _atom_site_occupancy
  Th  Th0  1  0.000000  0.335867  0.408018  1
  Th  Th1  1  0.000000  0.664133  0.591982  1
  Th  Th2  1  0.000000  0.835041  0.092310  1
  Th  Th3  1  0.000000  0.164959  0.907690  1
  U  U4  1  0.000000  0.956805  0.397307  1
  U  U5  1  0.000000  0.043195  0.602693  1
  U  U6  1  0.000000  0.459164  0.103573  1
  U  U7  1  0.000000  0.540836  0.896427  1
  Re  Re8  1  0.000000  0.147455  0.181932  1
  Re  Re9  1  0.000000  0.852545  0.818068  1
  B  B10  1  0.500000  0.555868  0.428161  1
  B  B11  1  0.500000  0.444132  0.571839  1
  B  B12  1  0.500000  0.056241  0.072777  1
  B  B13  1  0.500000  0.943759  0.927223  1
  B  B14  1  0.500000  0.746613  0.421495  1
  B  B15  1  0.500000  0.253387  0.578505  1
  B  B16  1  0.500000  0.246032  0.079080  1
  B  B17  1  0.500000  0.753968  0.920920  1
  B  B18  1  0.500000  0.803755  0.274687  1
  B  B19  1  0.500000  0.196245  0.725313  1
  B  B20  1  0.500000  0.302368  0.225086  1
  B  B21  1  0.500000  0.697632  0.774914  1
  B  B22  1  0.500000  0.644079  0.187069  1
  B  B23  1  0.500000  0.355921  0.812931  1
  B  B24  1  0.500000  0.144092  0.311603  1
  B  B25  1  0.500000  0.855908  0.688397  1
  B  B26  1  0.500000  0.992252  0.220637  1
  B  B27  1  0.500000  0.007748  0.779363  1
  B  B28  1  0.500000  0.491352  0.278353  1
  B  B29  1  0.500000  0.508648  0.721647  1
  B  B30  1  0.500000  0.636255  0.036507  1
  B  B31  1  0.500000  0.363745  0.963493  1
  B  B32  1  0.500000  0.135648  0.462303  1
  B  B33  1  0.500000  0.864352  0.537697  1
  Mo  Mo34  1  0.000000  0.648143  0.317171  1
  Mo  Mo35  1  0.000000  0.351857  0.682829  1
