# generated using pymatgen
data_Dy6NpFe22
_symmetry_space_group_name_H-M   'P 1'
_cell_length_a   8.51862205
_cell_length_b   8.52051146
_cell_length_c   8.51862211
_cell_angle_alpha   120.00768384
_cell_angle_beta   89.98535080
_cell_angle_gamma   120.00767554
_symmetry_Int_Tables_number   1
_chemical_formula_structural   Dy6NpFe22
_chemical_formula_sum   'Dy6 Np1 Fe22'
_cell_volume   437.16365699
_cell_formula_units_Z   1
loop_
 _symmetry_equiv_pos_site_id
 _symmetry_equiv_pos_as_xyz
  1  'x, y, z'
loop_
 _atom_site_type_symbol
 _atom_site_label
 _atom_site_symmetry_multiplicity
 _atom_site_fract_x
 _atom_site_fract_y
 _atom_site_fract_z
 _atom_site_occupancy
  Dy  Dy0  1  0.706366  0.000074  0.293594  1
  Dy  Dy1  1  0.293715  0.000116  0.293715  1
  Dy  Dy2  1  0.293549  0.587168  0.293549  1
  Dy  Dy3  1  0.706449  0.000031  0.706449  1
  Dy  Dy4  1  0.293594  0.000074  0.706366  1
  Dy  Dy5  1  0.706284  0.412725  0.706284  1
  Np  Np6  1  0.999963  0.000208  0.999963  1
  Fe  Fe7  1  0.500103  0.000095  0.000094  1
  Fe  Fe8  1  0.000012  0.499922  0.000012  1
  Fe  Fe9  1  0.499890  0.499927  0.999893  1
  Fe  Fe10  1  0.675531  0.350947  0.026483  1
  Fe  Fe11  1  0.367828  0.245206  0.122621  1
  Fe  Fe12  1  0.877400  0.245235  0.122596  1
  Fe  Fe13  1  0.877419  0.754774  0.122595  1
  Fe  Fe14  1  0.675512  0.350986  0.324497  1
  Fe  Fe15  1  0.675493  0.648978  0.324536  1
  Fe  Fe16  1  0.973519  0.648948  0.324481  1
  Fe  Fe17  1  0.122621  0.245206  0.367828  1
  Fe  Fe18  1  0.000094  0.000095  0.500103  1
  Fe  Fe19  1  0.999893  0.499927  0.499890  1
  Fe  Fe20  1  0.500019  0.499937  0.500019  1
  Fe  Fe21  1  0.877384  0.754771  0.632171  1
  Fe  Fe22  1  0.026483  0.350947  0.675531  1
  Fe  Fe23  1  0.324497  0.350986  0.675512  1
  Fe  Fe24  1  0.324536  0.648978  0.675493  1
  Fe  Fe25  1  0.122596  0.245235  0.877400  1
  Fe  Fe26  1  0.122595  0.754774  0.877419  1
  Fe  Fe27  1  0.632171  0.754771  0.877384  1
  Fe  Fe28  1  0.324481  0.648948  0.973519  1
