# generated using pymatgen
data_TaFe3(SO4)6
_symmetry_space_group_name_H-M   'P 1'
_cell_length_a   8.62109964
_cell_length_b   8.62110048
_cell_length_c   9.03225887
_cell_angle_alpha   118.50525954
_cell_angle_beta   61.49473256
_cell_angle_gamma   120.00000025
_symmetry_Int_Tables_number   1
_chemical_formula_structural   TaFe3(SO4)6
_chemical_formula_sum   'Ta1 Fe3 S6 O24'
_cell_volume   485.12967358
_cell_formula_units_Z   1
loop_
 _symmetry_equiv_pos_site_id
 _symmetry_equiv_pos_as_xyz
  1  'x, y, z'
loop_
 _atom_site_type_symbol
 _atom_site_label
 _atom_site_symmetry_multiplicity
 _atom_site_fract_x
 _atom_site_fract_y
 _atom_site_fract_z
 _atom_site_occupancy
  Ta  Ta0  1  0.645271  0.354728  0.064183  1
  Fe  Fe1  1  0.850944  0.149056  0.447167  1
  Fe  Fe2  1  0.148525  0.851475  0.554425  1
  Fe  Fe3  1  0.357266  0.642733  0.928200  1
  S  S4  1  0.257308  0.473112  0.250985  1
  S  S5  1  0.526888  0.035182  0.250985  1
  S  S6  1  0.964818  0.742692  0.250985  1
  S  S7  1  0.041004  0.239765  0.743489  1
  S  S8  1  0.455272  0.958997  0.743489  1
  S  S9  1  0.760235  0.544729  0.743489  1
  O  O10  1  0.107565  0.697693  0.082760  1
  O  O11  1  0.302306  0.492631  0.082760  1
  O  O12  1  0.507369  0.892435  0.082760  1
  O  O13  1  0.412039  0.412844  0.225787  1
  O  O14  1  0.587156  0.224983  0.225787  1
  O  O15  1  0.775017  0.587960  0.225787  1
  O  O16  1  0.076219  0.326815  0.294987  1
  O  O17  1  0.673184  0.044389  0.294987  1
  O  O18  1  0.955611  0.923782  0.294987  1
  O  O19  1  0.278381  0.656126  0.397557  1
  O  O20  1  0.343875  0.019814  0.397557  1
  O  O21  1  0.980186  0.721617  0.397557  1
  O  O22  1  0.027696  0.264358  0.601605  1
  O  O23  1  0.635056  0.972304  0.601605  1
  O  O24  1  0.735644  0.364944  0.601605  1
  O  O25  1  0.011651  0.041629  0.708781  1
  O  O26  1  0.321198  0.988349  0.708781  1
  O  O27  1  0.958370  0.678802  0.708781  1
  O  O28  1  0.215800  0.369657  0.783515  1
  O  O29  1  0.370341  0.784199  0.783515  1
  O  O30  1  0.630344  0.629659  0.783515  1
  O  O31  1  0.495797  0.126710  0.912545  1
  O  O32  1  0.718371  0.504203  0.912545  1
  O  O33  1  0.873289  0.281630  0.912545  1
