# generated using pymatgen
data_Ho4Pt3Au
_symmetry_space_group_name_H-M   'P 1'
_cell_length_a   4.59445700
_cell_length_b   5.59834703
_cell_length_c   6.97940754
_cell_angle_alpha   89.88659804
_cell_angle_beta   90.00000000
_cell_angle_gamma   90.00000000
_symmetry_Int_Tables_number   1
_chemical_formula_structural   Ho4Pt3Au
_chemical_formula_sum   'Ho4 Pt3 Au1'
_cell_volume   179.51953507
_cell_formula_units_Z   1
loop_
 _symmetry_equiv_pos_site_id
 _symmetry_equiv_pos_as_xyz
  1  'x, y, z'
loop_
 _atom_site_type_symbol
 _atom_site_label
 _atom_site_symmetry_multiplicity
 _atom_site_fract_x
 _atom_site_fract_y
 _atom_site_fract_z
 _atom_site_occupancy
  Ho  Ho0  1  0.500000  0.645353  0.686047  1
  Ho  Ho1  1  0.500000  0.854348  0.179373  1
  Ho  Ho2  1  0.000000  0.364572  0.309396  1
  Ho  Ho3  1  0.000000  0.138789  0.826630  1
  Pt  Pt4  1  0.500000  0.340747  0.041392  1
  Pt  Pt5  1  0.000000  0.845400  0.460402  1
  Pt  Pt6  1  0.000000  0.655760  0.956188  1
  Au  Au7  1  0.500000  0.155030  0.540574  1
