# generated using pymatgen
data_Pr4Nd4Re3OsC8
_symmetry_space_group_name_H-M   'P 1'
_cell_length_a   5.39820700
_cell_length_b   6.73436137
_cell_length_c   10.21720233
_cell_angle_alpha   90.07017626
_cell_angle_beta   90.00000000
_cell_angle_gamma   90.00000000
_symmetry_Int_Tables_number   1
_chemical_formula_structural   Pr4Nd4Re3OsC8
_chemical_formula_sum   'Pr4 Nd4 Re3 Os1 C8'
_cell_volume   371.43054806
_cell_formula_units_Z   1
loop_
 _symmetry_equiv_pos_site_id
 _symmetry_equiv_pos_as_xyz
  1  'x, y, z'
loop_
 _atom_site_type_symbol
 _atom_site_label
 _atom_site_symmetry_multiplicity
 _atom_site_fract_x
 _atom_site_fract_y
 _atom_site_fract_z
 _atom_site_occupancy
  Pr  Pr0  1  0.250000  0.473750  0.788526  1
  Pr  Pr1  1  0.750000  0.027678  0.289679  1
  Pr  Pr2  1  0.250000  0.973634  0.710996  1
  Pr  Pr3  1  0.750000  0.526005  0.209590  1
  Nd  Nd4  1  0.250000  0.816107  0.049818  1
  Nd  Nd5  1  0.750000  0.685764  0.550519  1
  Nd  Nd6  1  0.250000  0.314549  0.449618  1
  Nd  Nd7  1  0.750000  0.186212  0.949113  1
  Re  Re8  1  0.750000  0.230679  0.642846  1
  Re  Re9  1  0.250000  0.768495  0.355455  1
  Re  Re10  1  0.750000  0.730995  0.857267  1
  Os  Os11  1  0.250000  0.268222  0.144393  1
  C  C12  1  0.250000  0.684966  0.535263  1
  C  C13  1  0.750000  0.815271  0.037194  1
  C  C14  1  0.250000  0.185261  0.965925  1
  C  C15  1  0.750000  0.314995  0.463157  1
  C  C16  1  0.250000  0.033314  0.258666  1
  C  C17  1  0.750000  0.466210  0.758729  1
  C  C18  1  0.250000  0.531883  0.241858  1
  C  C19  1  0.750000  0.966009  0.741385  1
