# generated using pymatgen
data_NdHo2Pa(ReB6)2
_symmetry_space_group_name_H-M   'P 1'
_cell_length_a   3.72213400
_cell_length_b   9.20548603
_cell_length_c   11.60229800
_cell_angle_alpha   90.34300847
_cell_angle_beta   90.00000000
_cell_angle_gamma   90.00000000
_symmetry_Int_Tables_number   1
_chemical_formula_structural   NdHo2Pa(ReB6)2
_chemical_formula_sum   'Nd2 Ho4 Pa2 Re4 B24'
_cell_volume   397.53462449
_cell_formula_units_Z   2
loop_
 _symmetry_equiv_pos_site_id
 _symmetry_equiv_pos_as_xyz
  1  'x, y, z'
loop_
 _atom_site_type_symbol
 _atom_site_label
 _atom_site_symmetry_multiplicity
 _atom_site_fract_x
 _atom_site_fract_y
 _atom_site_fract_z
 _atom_site_occupancy
  Nd  Nd0  1  0.000000  0.823525  0.086221  1
  Nd  Nd1  1  0.000000  0.176475  0.913779  1
  Ho  Ho2  1  0.000000  0.944807  0.373565  1
  Ho  Ho3  1  0.000000  0.055193  0.626435  1
  Ho  Ho4  1  0.000000  0.444096  0.127825  1
  Ho  Ho5  1  0.000000  0.555904  0.872175  1
  Pa  Pa6  1  0.000000  0.321827  0.413536  1
  Pa  Pa7  1  0.000000  0.678173  0.586464  1
  Re  Re8  1  0.000000  0.634450  0.325990  1
  Re  Re9  1  0.000000  0.365550  0.674010  1
  Re  Re10  1  0.000000  0.142708  0.184652  1
  Re  Re11  1  0.000000  0.857292  0.815348  1
  B  B12  1  0.500000  0.553262  0.433373  1
  B  B13  1  0.500000  0.446738  0.566627  1
  B  B14  1  0.500000  0.055482  0.070294  1
  B  B15  1  0.500000  0.944518  0.929706  1
  B  B16  1  0.500000  0.747657  0.420338  1
  B  B17  1  0.500000  0.252343  0.579662  1
  B  B18  1  0.500000  0.249470  0.083337  1
  B  B19  1  0.500000  0.750530  0.916663  1
  B  B20  1  0.500000  0.790119  0.268372  1
  B  B21  1  0.500000  0.209881  0.731628  1
  B  B22  1  0.500000  0.292933  0.235520  1
  B  B23  1  0.500000  0.707067  0.764480  1
  B  B24  1  0.500000  0.629737  0.187584  1
  B  B25  1  0.500000  0.370263  0.812416  1
  B  B26  1  0.500000  0.133218  0.315611  1
  B  B27  1  0.500000  0.866782  0.684389  1
  B  B28  1  0.500000  0.984742  0.214882  1
  B  B29  1  0.500000  0.015258  0.785118  1
  B  B30  1  0.500000  0.482665  0.287962  1
  B  B31  1  0.500000  0.517335  0.712038  1
  B  B32  1  0.500000  0.600338  0.028151  1
  B  B33  1  0.500000  0.399662  0.971849  1
  B  B34  1  0.500000  0.111872  0.469457  1
  B  B35  1  0.500000  0.888128  0.530543  1
