# generated using pymatgen
data_Pr7ThSc11Si16Ag
_symmetry_space_group_name_H-M   'P 1'
_cell_length_a   7.19714600
_cell_length_b   7.55535895
_cell_length_c   14.26284600
_cell_angle_alpha   90.01305872
_cell_angle_beta   90.00092346
_cell_angle_gamma   90.15808484
_symmetry_Int_Tables_number   1
_chemical_formula_structural   Pr7ThSc11Si16Ag
_chemical_formula_sum   'Pr7 Th1 Sc11 Si16 Ag1'
_cell_volume   775.56811105
_cell_formula_units_Z   1
loop_
 _symmetry_equiv_pos_site_id
 _symmetry_equiv_pos_as_xyz
  1  'x, y, z'
loop_
 _atom_site_type_symbol
 _atom_site_label
 _atom_site_symmetry_multiplicity
 _atom_site_fract_x
 _atom_site_fract_y
 _atom_site_fract_z
 _atom_site_occupancy
  Pr  Pr0  1  0.510053  0.330184  0.402671  1
  Pr  Pr1  1  0.490954  0.681498  0.898782  1
  Pr  Pr2  1  0.490822  0.681890  0.601265  1
  Pr  Pr3  1  0.980830  0.828067  0.601284  1
  Pr  Pr4  1  0.979909  0.827335  0.898163  1
  Pr  Pr5  1  0.511002  0.330021  0.097735  1
  Pr  Pr6  1  0.011956  0.172965  0.097978  1
  Th  Th7  1  0.012137  0.173189  0.401967  1
  Sc  Sc8  1  0.335347  0.172161  0.624986  1
  Sc  Sc9  1  0.671723  0.822475  0.374024  1
  Sc  Sc10  1  0.170622  0.676775  0.375632  1
  Sc  Sc11  1  0.827261  0.315134  0.874624  1
  Sc  Sc12  1  0.827484  0.314760  0.625041  1
  Sc  Sc13  1  0.840692  0.501525  0.250087  1
  Sc  Sc14  1  0.340504  0.998410  0.250346  1
  Sc  Sc15  1  0.335245  0.172631  0.874703  1
  Sc  Sc16  1  0.171302  0.676651  0.124694  1
  Sc  Sc17  1  0.671471  0.822331  0.126156  1
  Sc  Sc18  1  0.158116  0.494575  0.749928  1
  Si  Si19  1  0.278224  0.883888  0.749911  1
  Si  Si20  1  0.466979  0.624139  0.250157  1
  Si  Si21  1  0.043227  0.124177  0.750338  1
  Si  Si22  1  0.531562  0.384967  0.750045  1
  Si  Si23  1  0.153616  0.463948  0.540189  1
  Si  Si24  1  0.967733  0.875035  0.250542  1
  Si  Si25  1  0.710764  0.118195  0.250765  1
  Si  Si26  1  0.849882  0.536849  0.037921  1
  Si  Si27  1  0.349225  0.963299  0.039665  1
  Si  Si28  1  0.152895  0.465341  0.959100  1
  Si  Si29  1  0.656796  0.041389  0.530651  1
  Si  Si30  1  0.346703  0.964799  0.459983  1
  Si  Si31  1  0.850541  0.534572  0.461196  1
  Si  Si32  1  0.791243  0.594584  0.749849  1
  Si  Si33  1  0.209833  0.383198  0.251097  1
  Si  Si34  1  0.653606  0.041033  0.968500  1
  Ag  Ag35  1  0.649743  0.008008  0.750027  1
