# generated using pymatgen
data_TbPuS2
_symmetry_space_group_name_H-M   'P 1'
_cell_length_a   6.81173850
_cell_length_b   6.81173856
_cell_length_c   6.81173905
_cell_angle_alpha   131.76191083
_cell_angle_beta   131.76190513
_cell_angle_gamma   70.60532528
_symmetry_Int_Tables_number   1
_chemical_formula_structural   TbPuS2
_chemical_formula_sum   'Tb2 Pu2 S4'
_cell_volume   172.28670350
_cell_formula_units_Z   2
loop_
 _symmetry_equiv_pos_site_id
 _symmetry_equiv_pos_as_xyz
  1  'x, y, z'
loop_
 _atom_site_type_symbol
 _atom_site_label
 _atom_site_symmetry_multiplicity
 _atom_site_fract_x
 _atom_site_fract_y
 _atom_site_fract_z
 _atom_site_occupancy
  Tb  Tb0  1  0.759847  0.759847  0.000000  1
  Tb  Tb1  1  0.509847  0.009847  0.500000  1
  Pu  Pu2  1  0.260180  0.260180  0.000000  1
  Pu  Pu3  1  0.010180  0.510180  0.500000  1
  S  S4  1  0.010669  0.010669  0.000000  1
  S  S5  1  0.760669  0.260669  0.500000  1
  S  S6  1  0.509303  0.509303  0.000000  1
  S  S7  1  0.259303  0.759303  0.500000  1
