# generated using pymatgen
data_Y7Sn22BiOs6
_symmetry_space_group_name_H-M   'P 1'
_cell_length_a   9.89149000
_cell_length_b   9.89149083
_cell_length_c   10.15354500
_cell_angle_alpha   90.00000000
_cell_angle_beta   90.00000000
_cell_angle_gamma   120.00000392
_symmetry_Int_Tables_number   1
_chemical_formula_structural   Y7Sn22BiOs6
_chemical_formula_sum   'Y7 Sn22 Bi1 Os6'
_cell_volume   860.34330084
_cell_formula_units_Z   1
loop_
 _symmetry_equiv_pos_site_id
 _symmetry_equiv_pos_as_xyz
  1  'x, y, z'
loop_
 _atom_site_type_symbol
 _atom_site_label
 _atom_site_symmetry_multiplicity
 _atom_site_fract_x
 _atom_site_fract_y
 _atom_site_fract_z
 _atom_site_occupancy
  Y  Y0  1  0.000000  0.000000  0.000000  1
  Y  Y1  1  0.031701  0.515850  0.302600  1
  Y  Y2  1  0.484150  0.968299  0.302600  1
  Y  Y3  1  0.484150  0.515850  0.302600  1
  Y  Y4  1  0.968299  0.484150  0.697400  1
  Y  Y5  1  0.515850  0.031701  0.697400  1
  Y  Y6  1  0.515850  0.484150  0.697400  1
  Sn  Sn7  1  0.118308  0.881692  0.273942  1
  Sn  Sn8  1  0.763382  0.881692  0.273942  1
  Sn  Sn9  1  0.118308  0.236618  0.273942  1
  Sn  Sn10  1  0.881692  0.118308  0.726058  1
  Sn  Sn11  1  0.236618  0.118308  0.726058  1
  Sn  Sn12  1  0.881692  0.763382  0.726058  1
  Sn  Sn13  1  0.349928  0.000000  0.000000  1
  Sn  Sn14  1  0.650072  0.650072  0.000000  1
  Sn  Sn15  1  0.000000  0.349928  0.000000  1
  Sn  Sn16  1  0.349928  0.349928  0.000000  1
  Sn  Sn17  1  0.000000  0.650072  0.000000  1
  Sn  Sn18  1  0.650072  0.000000  0.000000  1
  Sn  Sn19  1  0.779512  0.559026  0.461346  1
  Sn  Sn20  1  0.779512  0.220488  0.461346  1
  Sn  Sn21  1  0.440974  0.220488  0.461346  1
  Sn  Sn22  1  0.220488  0.440974  0.538654  1
  Sn  Sn23  1  0.220488  0.779512  0.538654  1
  Sn  Sn24  1  0.559026  0.779512  0.538654  1
  Sn  Sn25  1  0.666667  0.333333  0.176123  1
  Sn  Sn26  1  0.333333  0.666667  0.823877  1
  Sn  Sn27  1  0.666667  0.333333  0.872001  1
  Sn  Sn28  1  0.333333  0.666667  0.127999  1
  Bi  Bi29  1  0.000000  0.000000  0.500000  1
  Os  Os30  1  0.169724  0.830276  0.798309  1
  Os  Os31  1  0.660553  0.830276  0.798309  1
  Os  Os32  1  0.169724  0.339447  0.798309  1
  Os  Os33  1  0.830276  0.169724  0.201691  1
  Os  Os34  1  0.339447  0.169724  0.201691  1
  Os  Os35  1  0.830276  0.660553  0.201691  1
