# generated using pymatgen
data_Hf8Ti8ReSi16Mo3
_symmetry_space_group_name_H-M   'P 1'
_cell_length_a   6.54378300
_cell_length_b   6.72009629
_cell_length_c   12.94453600
_cell_angle_alpha   90.00000000
_cell_angle_beta   90.00000000
_cell_angle_gamma   89.98396753
_symmetry_Int_Tables_number   1
_chemical_formula_structural   Hf8Ti8ReSi16Mo3
_chemical_formula_sum   'Hf8 Ti8 Re1 Si16 Mo3'
_cell_volume   569.23403090
_cell_formula_units_Z   1
loop_
 _symmetry_equiv_pos_site_id
 _symmetry_equiv_pos_as_xyz
  1  'x, y, z'
loop_
 _atom_site_type_symbol
 _atom_site_label
 _atom_site_symmetry_multiplicity
 _atom_site_fract_x
 _atom_site_fract_y
 _atom_site_fract_z
 _atom_site_occupancy
  Hf  Hf0  1  0.995591  0.171876  0.091890  1
  Hf  Hf1  1  0.004639  0.828845  0.908724  1
  Hf  Hf2  1  0.505816  0.672101  0.908268  1
  Hf  Hf3  1  0.004639  0.828845  0.591276  1
  Hf  Hf4  1  0.495156  0.328188  0.091846  1
  Hf  Hf5  1  0.995591  0.171876  0.408110  1
  Hf  Hf6  1  0.495156  0.328188  0.408154  1
  Hf  Hf7  1  0.505816  0.672101  0.591732  1
  Ti  Ti8  1  0.335004  0.166504  0.624944  1
  Ti  Ti9  1  0.665429  0.831980  0.375288  1
  Ti  Ti10  1  0.165094  0.667973  0.375753  1
  Ti  Ti11  1  0.665429  0.831980  0.124712  1
  Ti  Ti12  1  0.833455  0.331986  0.625014  1
  Ti  Ti13  1  0.335004  0.166504  0.875056  1
  Ti  Ti14  1  0.833455  0.331986  0.874986  1
  Ti  Ti15  1  0.165094  0.667973  0.124247  1
  Re  Re16  1  0.161206  0.495717  0.750000  1
  Si  Si17  1  0.036246  0.116758  0.750000  1
  Si  Si18  1  0.964834  0.884564  0.250000  1
  Si  Si19  1  0.464402  0.615549  0.250000  1
  Si  Si20  1  0.532814  0.385606  0.750000  1
  Si  Si21  1  0.296904  0.857583  0.750000  1
  Si  Si22  1  0.702354  0.140450  0.250000  1
  Si  Si23  1  0.202297  0.359868  0.250000  1
  Si  Si24  1  0.799731  0.640378  0.750000  1
  Si  Si25  1  0.171278  0.459683  0.539442  1
  Si  Si26  1  0.829153  0.539780  0.461690  1
  Si  Si27  1  0.328902  0.960139  0.461238  1
  Si  Si28  1  0.829153  0.539780  0.038310  1
  Si  Si29  1  0.670761  0.039754  0.538481  1
  Si  Si30  1  0.171278  0.459683  0.960558  1
  Si  Si31  1  0.670761  0.039754  0.961519  1
  Si  Si32  1  0.328902  0.960139  0.038762  1
  Mo  Mo33  1  0.838269  0.505454  0.250000  1
  Mo  Mo34  1  0.338576  0.995027  0.250000  1
  Mo  Mo35  1  0.661812  0.005426  0.750000  1
