# generated using pymatgen
data_TiReP
_symmetry_space_group_name_H-M   'P 1'
_cell_length_a   6.65471000
_cell_length_b   6.65470957
_cell_length_c   3.29514100
_cell_angle_alpha   90.00000000
_cell_angle_beta   90.00000000
_cell_angle_gamma   119.99999218
_symmetry_Int_Tables_number   1
_chemical_formula_structural   TiReP
_chemical_formula_sum   'Ti3 Re3 P3'
_cell_volume   126.37550672
_cell_formula_units_Z   3
loop_
 _symmetry_equiv_pos_site_id
 _symmetry_equiv_pos_as_xyz
  1  'x, y, z'
loop_
 _atom_site_type_symbol
 _atom_site_label
 _atom_site_symmetry_multiplicity
 _atom_site_fract_x
 _atom_site_fract_y
 _atom_site_fract_z
 _atom_site_occupancy
  Ti  Ti0  1  0.402956  0.402956  0.500000  1
  Ti  Ti1  1  0.597044  0.000000  0.500000  1
  Ti  Ti2  1  0.000000  0.597044  0.500000  1
  Re  Re3  1  0.743739  0.743739  0.000000  1
  Re  Re4  1  0.256261  0.000000  0.000000  1
  Re  Re5  1  0.000000  0.256261  0.000000  1
  P  P6  1  0.666667  0.333333  0.000000  1
  P  P7  1  0.333333  0.666667  0.000000  1
  P  P8  1  0.000000  0.000000  0.500000  1
