# generated using pymatgen
data_Tb2CeMg3Ir2Au
_symmetry_space_group_name_H-M   'P 1'
_cell_length_a   7.64855200
_cell_length_b   7.42450909
_cell_length_c   3.98505000
_cell_angle_alpha   90.00000000
_cell_angle_beta   90.00000000
_cell_angle_gamma   121.00333238
_symmetry_Int_Tables_number   1
_chemical_formula_structural   Tb2CeMg3Ir2Au
_chemical_formula_sum   'Tb2 Ce1 Mg3 Ir2 Au1'
_cell_volume   193.96847825
_cell_formula_units_Z   1
loop_
 _symmetry_equiv_pos_site_id
 _symmetry_equiv_pos_as_xyz
  1  'x, y, z'
loop_
 _atom_site_type_symbol
 _atom_site_label
 _atom_site_symmetry_multiplicity
 _atom_site_fract_x
 _atom_site_fract_y
 _atom_site_fract_z
 _atom_site_occupancy
  Tb  Tb0  1  0.999608  0.582138  0.000000  1
  Tb  Tb1  1  0.417470  0.417862  0.000000  1
  Ce  Ce2  1  0.569532  0.000000  0.000000  1
  Mg  Mg3  1  0.002080  0.255934  0.500000  1
  Mg  Mg4  1  0.244525  0.000000  0.500000  1
  Mg  Mg5  1  0.746146  0.744066  0.500000  1
  Ir  Ir6  1  0.349852  0.680864  0.500000  1
  Ir  Ir7  1  0.668989  0.319136  0.500000  1
  Au  Au8  1  0.001798  0.000000  0.000000  1
