# generated using pymatgen
data_PrEr5Pa2(ReB6)4
_symmetry_space_group_name_H-M   'P 1'
_cell_length_a   3.70228800
_cell_length_b   9.16656014
_cell_length_c   11.55335503
_cell_angle_alpha   90.33628901
_cell_angle_beta   90.00000000
_cell_angle_gamma   90.00000000
_symmetry_Int_Tables_number   1
_chemical_formula_structural   PrEr5Pa2(ReB6)4
_chemical_formula_sum   'Pr1 Er5 Pa2 Re4 B24'
_cell_volume   392.08229346
_cell_formula_units_Z   1
loop_
 _symmetry_equiv_pos_site_id
 _symmetry_equiv_pos_as_xyz
  1  'x, y, z'
loop_
 _atom_site_type_symbol
 _atom_site_label
 _atom_site_symmetry_multiplicity
 _atom_site_fract_x
 _atom_site_fract_y
 _atom_site_fract_z
 _atom_site_occupancy
  Pr  Pr0  1  0.000000  0.823438  0.085953  1
  Er  Er1  1  0.000000  0.176461  0.913975  1
  Er  Er2  1  0.000000  0.945179  0.373055  1
  Er  Er3  1  0.000000  0.055396  0.627023  1
  Er  Er4  1  0.000000  0.443433  0.126765  1
  Er  Er5  1  0.000000  0.555374  0.872515  1
  Pa  Pa6  1  0.000000  0.321471  0.413707  1
  Pa  Pa7  1  0.000000  0.678575  0.586901  1
  Re  Re8  1  0.000000  0.634310  0.325868  1
  Re  Re9  1  0.000000  0.364381  0.675500  1
  Re  Re10  1  0.000000  0.142865  0.182862  1
  Re  Re11  1  0.000000  0.859409  0.816223  1
  B  B12  1  0.500000  0.553224  0.433640  1
  B  B13  1  0.500000  0.445999  0.567336  1
  B  B14  1  0.500000  0.056525  0.067577  1
  B  B15  1  0.500000  0.947823  0.929992  1
  B  B16  1  0.500000  0.748349  0.420505  1
  B  B17  1  0.500000  0.251410  0.580653  1
  B  B18  1  0.500000  0.249438  0.080118  1
  B  B19  1  0.500000  0.751274  0.916160  1
  B  B20  1  0.500000  0.790305  0.268166  1
  B  B21  1  0.500000  0.208155  0.734323  1
  B  B22  1  0.500000  0.292895  0.234282  1
  B  B23  1  0.500000  0.707469  0.764653  1
  B  B24  1  0.500000  0.628975  0.187280  1
  B  B25  1  0.500000  0.368169  0.814629  1
  B  B26  1  0.500000  0.133143  0.315146  1
  B  B27  1  0.500000  0.868293  0.684948  1
  B  B28  1  0.500000  0.985307  0.214084  1
  B  B29  1  0.500000  0.018646  0.786506  1
  B  B30  1  0.500000  0.482038  0.287475  1
  B  B31  1  0.500000  0.516526  0.713329  1
  B  B32  1  0.500000  0.599210  0.027728  1
  B  B33  1  0.500000  0.396105  0.970846  1
  B  B34  1  0.500000  0.110014  0.470008  1
  B  B35  1  0.500000  0.890417  0.530268  1
