# generated using pymatgen
data_Tb3Gd(WO6)2
_symmetry_space_group_name_H-M   'P 1'
_cell_length_a   5.43611700
_cell_length_b   7.74868508
_cell_length_c   11.55417441
_cell_angle_alpha   75.58759137
_cell_angle_beta   90.00000000
_cell_angle_gamma   90.00000000
_symmetry_Int_Tables_number   1
_chemical_formula_structural   Tb3Gd(WO6)2
_chemical_formula_sum   'Tb6 Gd2 W4 O24'
_cell_volume   471.37709871
_cell_formula_units_Z   2
loop_
 _symmetry_equiv_pos_site_id
 _symmetry_equiv_pos_as_xyz
  1  'x, y, z'
loop_
 _atom_site_type_symbol
 _atom_site_label
 _atom_site_symmetry_multiplicity
 _atom_site_fract_x
 _atom_site_fract_y
 _atom_site_fract_z
 _atom_site_occupancy
  Tb  Tb0  1  0.738854  0.000000  0.750000  1
  Tb  Tb1  1  0.261146  0.000000  0.250000  1
  Tb  Tb2  1  0.188011  0.796401  0.577288  1
  Tb  Tb3  1  0.811989  0.796401  0.077288  1
  Tb  Tb4  1  0.188011  0.203599  0.922712  1
  Tb  Tb5  1  0.811989  0.203599  0.422712  1
  Gd  Gd6  1  0.683666  0.500000  0.750000  1
  Gd  Gd7  1  0.316334  0.500000  0.250000  1
  W  W8  1  0.253732  0.723685  0.885518  1
  W  W9  1  0.746268  0.723685  0.385518  1
  W  W10  1  0.253732  0.276315  0.614482  1
  W  W11  1  0.746268  0.276315  0.114482  1
  O  O12  1  0.040964  0.938685  0.895489  1
  O  O13  1  0.526524  0.849960  0.930598  1
  O  O14  1  0.959036  0.938685  0.395489  1
  O  O15  1  0.458978  0.788862  0.728940  1
  O  O16  1  0.473476  0.849960  0.430598  1
  O  O17  1  0.985350  0.711265  0.771406  1
  O  O18  1  0.541022  0.788862  0.228940  1
  O  O19  1  0.852114  0.636481  0.546645  1
  O  O20  1  0.360385  0.491384  0.887624  1
  O  O21  1  0.014650  0.711265  0.271406  1
  O  O22  1  0.360385  0.508616  0.612376  1
  O  O23  1  0.852114  0.363519  0.953355  1
  O  O24  1  0.147886  0.636481  0.046645  1
  O  O25  1  0.639615  0.491384  0.387624  1
  O  O26  1  0.985350  0.288735  0.728594  1
  O  O27  1  0.639615  0.508616  0.112376  1
  O  O28  1  0.147886  0.363519  0.453355  1
  O  O29  1  0.458978  0.211138  0.771060  1
  O  O30  1  0.014650  0.288735  0.228594  1
  O  O31  1  0.526524  0.150040  0.569402  1
  O  O32  1  0.541022  0.211138  0.271060  1
  O  O33  1  0.040964  0.061315  0.604511  1
  O  O34  1  0.473476  0.150040  0.069402  1
  O  O35  1  0.959036  0.061315  0.104511  1
