# generated using pymatgen
data_Hf3Zr3BeSnBi
_symmetry_space_group_name_H-M   'P 1'
_cell_length_a   7.68912600
_cell_length_b   7.68912511
_cell_length_c   3.79982300
_cell_angle_alpha   90.00000000
_cell_angle_beta   90.00000000
_cell_angle_gamma   119.99999522
_symmetry_Int_Tables_number   1
_chemical_formula_structural   Hf3Zr3BeSnBi
_chemical_formula_sum   'Hf3 Zr3 Be1 Sn1 Bi1'
_cell_volume   194.55747661
_cell_formula_units_Z   1
loop_
 _symmetry_equiv_pos_site_id
 _symmetry_equiv_pos_as_xyz
  1  'x, y, z'
loop_
 _atom_site_type_symbol
 _atom_site_label
 _atom_site_symmetry_multiplicity
 _atom_site_fract_x
 _atom_site_fract_y
 _atom_site_fract_z
 _atom_site_occupancy
  Hf  Hf0  1  0.227110  0.996402  0.000000  1
  Hf  Hf1  1  0.769292  0.772890  0.000000  1
  Hf  Hf2  1  0.003598  0.230708  0.000000  1
  Zr  Zr3  1  0.607653  0.995591  0.500000  1
  Zr  Zr4  1  0.387937  0.392347  0.500000  1
  Zr  Zr5  1  0.004409  0.612063  0.500000  1
  Be  Be6  1  0.000000  0.000000  0.500000  1
  Sn  Sn7  1  0.333333  0.666667  0.000000  1
  Bi  Bi8  1  0.666667  0.333333  0.000000  1
