# generated using pymatgen
data_Tb7Th13(Ir2Ru)4
_symmetry_space_group_name_H-M   'P 1'
_cell_length_a   11.27342127
_cell_length_b   11.16057691
_cell_length_c   6.40235497
_cell_angle_alpha   89.68177123
_cell_angle_beta   89.97318678
_cell_angle_gamma   89.90305736
_symmetry_Int_Tables_number   1
_chemical_formula_structural   Tb7Th13(Ir2Ru)4
_chemical_formula_sum   'Tb7 Th13 Ir8 Ru4'
_cell_volume   805.51709890
_cell_formula_units_Z   1
loop_
 _symmetry_equiv_pos_site_id
 _symmetry_equiv_pos_as_xyz
  1  'x, y, z'
loop_
 _atom_site_type_symbol
 _atom_site_label
 _atom_site_symmetry_multiplicity
 _atom_site_fract_x
 _atom_site_fract_y
 _atom_site_fract_z
 _atom_site_occupancy
  Tb  Tb0  1  0.912344  0.285794  0.613684  1
  Tb  Tb1  1  0.089366  0.713479  0.617128  1
  Tb  Tb2  1  0.088345  0.287998  0.115348  1
  Tb  Tb3  1  0.999028  0.998863  0.494555  1
  Tb  Tb4  1  0.001888  0.004211  0.993452  1
  Tb  Tb5  1  0.502989  0.499242  0.016000  1
  Tb  Tb6  1  0.498305  0.500641  0.515191  1
  Th  Th7  1  0.288321  0.091534  0.379195  1
  Th  Th8  1  0.290501  0.909017  0.879006  1
  Th  Th9  1  0.709636  0.090839  0.879785  1
  Th  Th10  1  0.711613  0.910765  0.381123  1
  Th  Th11  1  0.591001  0.788292  0.883436  1
  Th  Th12  1  0.588633  0.212620  0.382595  1
  Th  Th13  1  0.410454  0.789628  0.382111  1
  Th  Th14  1  0.407484  0.213371  0.882618  1
  Th  Th15  1  0.198856  0.410964  0.615402  1
  Th  Th16  1  0.207531  0.588103  0.115965  1
  Th  Th17  1  0.798824  0.404455  0.115561  1
  Th  Th18  1  0.796676  0.585467  0.617931  1
  Th  Th19  1  0.914453  0.711388  0.116543  1
  Ir  Ir20  1  0.841345  0.149908  0.245070  1
  Ir  Ir21  1  0.842755  0.847118  0.753540  1
  Ir  Ir22  1  0.156562  0.153066  0.740703  1
  Ir  Ir23  1  0.155630  0.845194  0.239562  1
  Ir  Ir24  1  0.653250  0.341847  0.760364  1
  Ir  Ir25  1  0.656142  0.657280  0.258895  1
  Ir  Ir26  1  0.344348  0.343575  0.261195  1
  Ir  Ir27  1  0.347943  0.657656  0.759589  1
  Ru  Ru28  1  0.498020  0.000348  0.111253  1
  Ru  Ru29  1  0.500323  0.000258  0.610613  1
  Ru  Ru30  1  0.999511  0.503117  0.883407  1
  Ru  Ru31  1  0.997924  0.503960  0.379179  1
