# generated using pymatgen
data_Mn3BiCl7O
_symmetry_space_group_name_H-M   'P 1'
_cell_length_a   7.62967050
_cell_length_b   7.94773542
_cell_length_c   7.62969496
_cell_angle_alpha   58.35768774
_cell_angle_beta   56.36993541
_cell_angle_gamma   58.35825816
_symmetry_Int_Tables_number   1
_chemical_formula_structural   Mn3BiCl7O
_chemical_formula_sum   'Mn3 Bi1 Cl7 O1'
_cell_volume   309.55902539
_cell_formula_units_Z   1
loop_
 _symmetry_equiv_pos_site_id
 _symmetry_equiv_pos_as_xyz
  1  'x, y, z'
loop_
 _atom_site_type_symbol
 _atom_site_label
 _atom_site_symmetry_multiplicity
 _atom_site_fract_x
 _atom_site_fract_y
 _atom_site_fract_z
 _atom_site_occupancy
  Mn  Mn0  1  0.478660  0.520336  0.008674  1
  Mn  Mn1  1  0.498144  0.000496  0.498099  1
  Mn  Mn2  1  0.008672  0.520325  0.478677  1
  Bi  Bi3  1  0.471039  0.516954  0.471054  1
  Cl  Cl4  1  0.748899  0.303358  0.748904  1
  Cl  Cl5  1  0.756385  0.769094  0.249671  1
  Cl  Cl6  1  0.262208  0.251873  0.262212  1
  Cl  Cl7  1  0.249675  0.769094  0.756386  1
  Cl  Cl8  1  0.752525  0.236006  0.252731  1
  Cl  Cl9  1  0.737468  0.751158  0.737478  1
  Cl  Cl10  1  0.252737  0.236005  0.752520  1
  O  O11  1  0.283590  0.625301  0.283596  1
