# generated using pymatgen
data_La9Ce11Si16
_symmetry_space_group_name_H-M   'P 1'
_cell_length_a   7.93759450
_cell_length_b   7.93740256
_cell_length_c   15.36833900
_cell_angle_alpha   89.97921807
_cell_angle_beta   89.97967332
_cell_angle_gamma   89.99428283
_symmetry_Int_Tables_number   1
_chemical_formula_structural   La9Ce11Si16
_chemical_formula_sum   'La9 Ce11 Si16'
_cell_volume   968.26490149
_cell_formula_units_Z   1
loop_
 _symmetry_equiv_pos_site_id
 _symmetry_equiv_pos_as_xyz
  1  'x, y, z'
loop_
 _atom_site_type_symbol
 _atom_site_label
 _atom_site_symmetry_multiplicity
 _atom_site_fract_x
 _atom_site_fract_y
 _atom_site_fract_z
 _atom_site_occupancy
  La  La0  1  0.990707  0.623418  0.050666  1
  La  La1  1  0.008878  0.376467  0.551628  1
  La  La2  1  0.623625  0.992260  0.949819  1
  La  La3  1  0.124266  0.509653  0.800530  1
  La  La4  1  0.876590  0.490597  0.300459  1
  La  La5  1  0.507199  0.122294  0.197940  1
  La  La6  1  0.491119  0.877016  0.699357  1
  La  La7  1  0.376440  0.008197  0.449433  1
  La  La8  1  0.370825  0.481597  0.373587  1
  Ce  Ce9  1  0.870026  0.012673  0.376742  1
  Ce  Ce10  1  0.985501  0.128766  0.122443  1
  Ce  Ce11  1  0.013915  0.870182  0.623451  1
  Ce  Ce12  1  0.629519  0.515086  0.873679  1
  Ce  Ce13  1  0.486225  0.369764  0.626835  1
  Ce  Ce14  1  0.512328  0.631342  0.126656  1
  Ce  Ce15  1  0.129776  0.986357  0.876850  1
  Ce  Ce16  1  0.694748  0.695092  0.500684  1
  Ce  Ce17  1  0.809297  0.190411  0.750420  1
  Ce  Ce18  1  0.193224  0.808330  0.248604  1
  Ce  Ce19  1  0.308593  0.309710  0.999762  1
  Si  Si20  1  0.075259  0.715767  0.440402  1
  Si  Si21  1  0.923018  0.287320  0.939352  1
  Si  Si22  1  0.713960  0.076547  0.561391  1
  Si  Si23  1  0.210764  0.420564  0.187704  1
  Si  Si24  1  0.786205  0.576331  0.690071  1
  Si  Si25  1  0.423844  0.214104  0.810149  1
  Si  Si26  1  0.579456  0.788353  0.309641  1
  Si  Si27  1  0.285515  0.924068  0.060042  1
  Si  Si28  1  0.835562  0.804380  0.798786  1
  Si  Si29  1  0.160463  0.191000  0.295944  1
  Si  Si30  1  0.804163  0.835199  0.200960  1
  Si  Si31  1  0.303668  0.666159  0.550183  1
  Si  Si32  1  0.695188  0.337404  0.048723  1
  Si  Si33  1  0.669386  0.302909  0.453614  1
  Si  Si34  1  0.335469  0.695978  0.951725  1
  Si  Si35  1  0.195277  0.164704  0.701769  1
