# generated using pymatgen
data_Dy5Er5(CoBi2)2
_symmetry_space_group_name_H-M   'P 1'
_cell_length_a   7.93536505
_cell_length_b   8.88232400
_cell_length_c   12.37405105
_cell_angle_alpha   90.00000000
_cell_angle_beta   90.05522929
_cell_angle_gamma   90.00000000
_symmetry_Int_Tables_number   1
_chemical_formula_structural   Dy5Er5(CoBi2)2
_chemical_formula_sum   'Dy10 Er10 Co4 Bi8'
_cell_volume   872.17819052
_cell_formula_units_Z   2
loop_
 _symmetry_equiv_pos_site_id
 _symmetry_equiv_pos_as_xyz
  1  'x, y, z'
loop_
 _atom_site_type_symbol
 _atom_site_label
 _atom_site_symmetry_multiplicity
 _atom_site_fract_x
 _atom_site_fract_y
 _atom_site_fract_z
 _atom_site_occupancy
  Dy  Dy0  1  0.847090  0.250000  0.799964  1
  Dy  Dy1  1  0.152910  0.750000  0.200036  1
  Dy  Dy2  1  0.885028  0.750000  0.811251  1
  Dy  Dy3  1  0.114972  0.250000  0.188749  1
  Dy  Dy4  1  0.384673  0.250000  0.688745  1
  Dy  Dy5  1  0.615327  0.750000  0.311255  1
  Dy  Dy6  1  0.053352  0.750000  0.498029  1
  Dy  Dy7  1  0.946648  0.250000  0.501971  1
  Dy  Dy8  1  0.553025  0.250000  0.002131  1
  Dy  Dy9  1  0.446975  0.750000  0.997869  1
  Er  Er10  1  0.347516  0.750000  0.699468  1
  Er  Er11  1  0.652484  0.250000  0.300532  1
  Er  Er12  1  0.674289  0.538326  0.563059  1
  Er  Er13  1  0.325711  0.461674  0.436941  1
  Er  Er14  1  0.174374  0.461892  0.937094  1
  Er  Er15  1  0.325711  0.038326  0.436941  1
  Er  Er16  1  0.825626  0.538108  0.062906  1
  Er  Er17  1  0.674289  0.961674  0.563059  1
  Er  Er18  1  0.825626  0.961892  0.062906  1
  Er  Er19  1  0.174374  0.038108  0.937094  1
  Co  Co20  1  0.065459  0.750000  0.992189  1
  Co  Co21  1  0.934541  0.250000  0.007811  1
  Co  Co22  1  0.565387  0.250000  0.507654  1
  Co  Co23  1  0.434613  0.750000  0.492346  1
  Bi  Bi24  1  0.570973  0.509747  0.826561  1
  Bi  Bi25  1  0.429027  0.490253  0.173439  1
  Bi  Bi26  1  0.072002  0.490863  0.673319  1
  Bi  Bi27  1  0.429027  0.009747  0.173439  1
  Bi  Bi28  1  0.927998  0.509137  0.326681  1
  Bi  Bi29  1  0.570973  0.990253  0.826561  1
  Bi  Bi30  1  0.927998  0.990863  0.326681  1
  Bi  Bi31  1  0.072002  0.009137  0.673319  1
