# generated using pymatgen
data_Sm8Er9Sc3Si15Se
_symmetry_space_group_name_H-M   'P 1'
_cell_length_a   7.44770458
_cell_length_b   7.62661844
_cell_length_c   14.48202464
_cell_angle_alpha   89.82550200
_cell_angle_beta   87.22394199
_cell_angle_gamma   90.03308598
_symmetry_Int_Tables_number   1
_chemical_formula_structural   Sm8Er9Sc3Si15Se
_chemical_formula_sum   'Sm8 Er9 Sc3 Si15 Se1'
_cell_volume   821.62123416
_cell_formula_units_Z   1
loop_
 _symmetry_equiv_pos_site_id
 _symmetry_equiv_pos_as_xyz
  1  'x, y, z'
loop_
 _atom_site_type_symbol
 _atom_site_label
 _atom_site_symmetry_multiplicity
 _atom_site_fract_x
 _atom_site_fract_y
 _atom_site_fract_z
 _atom_site_occupancy
  Sm  Sm0  1  0.014103  0.178237  0.096485  1
  Sm  Sm1  1  0.989222  0.826336  0.903841  1
  Sm  Sm2  1  0.487586  0.679165  0.902643  1
  Sm  Sm3  1  0.004851  0.825287  0.602193  1
  Sm  Sm4  1  0.511592  0.322806  0.095168  1
  Sm  Sm5  1  0.990141  0.172334  0.396631  1
  Sm  Sm6  1  0.496255  0.313478  0.397687  1
  Sm  Sm7  1  0.512369  0.684245  0.603083  1
  Er  Er8  1  0.173927  0.504753  0.756931  1
  Er  Er9  1  0.825600  0.494262  0.251156  1
  Er  Er10  1  0.322348  0.002704  0.249289  1
  Er  Er11  1  0.677221  0.997925  0.751062  1
  Er  Er12  1  0.360152  0.164192  0.624654  1
  Er  Er13  1  0.641529  0.831621  0.377483  1
  Er  Er14  1  0.141125  0.665834  0.379424  1
  Er  Er15  1  0.665293  0.820687  0.119646  1
  Er  Er16  1  0.853341  0.333810  0.620923  1
  Sc  Sc17  1  0.334520  0.178351  0.875290  1
  Sc  Sc18  1  0.835737  0.324775  0.875681  1
  Sc  Sc19  1  0.166189  0.676852  0.122819  1
  Si  Si20  1  0.051109  0.121758  0.754885  1
  Si  Si21  1  0.951158  0.880144  0.245382  1
  Si  Si22  1  0.445006  0.613149  0.245539  1
  Si  Si23  1  0.550785  0.384507  0.754557  1
  Si  Si24  1  0.294286  0.876900  0.755027  1
  Si  Si25  1  0.706836  0.123453  0.244992  1
  Si  Si26  1  0.207201  0.377035  0.245350  1
  Si  Si27  1  0.795698  0.623848  0.754494  1
  Si  Si28  1  0.791867  0.533815  0.455881  1
  Si  Si29  1  0.298525  0.962557  0.458641  1
  Si  Si30  1  0.853224  0.529582  0.036711  1
  Si  Si31  1  0.698524  0.036162  0.544084  1
  Si  Si32  1  0.154871  0.466247  0.961480  1
  Si  Si33  1  0.649293  0.040137  0.957396  1
  Si  Si34  1  0.340263  0.967240  0.035694  1
  Se  Se35  1  0.208256  0.465812  0.547800  1
