# generated using pymatgen
data_Ti4V6Si6C
_symmetry_space_group_name_H-M   'P 1'
_cell_length_a   7.27926465
_cell_length_b   7.26824530
_cell_length_c   4.91237571
_cell_angle_alpha   89.56892440
_cell_angle_beta   90.21521384
_cell_angle_gamma   119.94993395
_symmetry_Int_Tables_number   1
_chemical_formula_structural   Ti4V6Si6C
_chemical_formula_sum   'Ti4 V6 Si6 C1'
_cell_volume   225.18833042
_cell_formula_units_Z   1
loop_
 _symmetry_equiv_pos_site_id
 _symmetry_equiv_pos_as_xyz
  1  'x, y, z'
loop_
 _atom_site_type_symbol
 _atom_site_label
 _atom_site_symmetry_multiplicity
 _atom_site_fract_x
 _atom_site_fract_y
 _atom_site_fract_z
 _atom_site_occupancy
  Ti  Ti0  1  0.000000  0.764248  0.248333  1
  Ti  Ti1  1  0.238046  0.237388  0.256829  1
  Ti  Ti2  1  0.761954  0.999341  0.256829  1
  Ti  Ti3  1  0.000000  0.238427  0.750791  1
  V  V4  1  0.761138  0.761236  0.742657  1
  V  V5  1  0.238862  0.000098  0.742657  1
  V  V6  1  0.332570  0.666068  0.000242  1
  V  V7  1  0.667430  0.333497  0.000242  1
  V  V8  1  0.667215  0.333575  0.498474  1
  V  V9  1  0.332785  0.666360  0.498474  1
  Si  Si10  1  0.000000  0.404334  0.244258  1
  Si  Si11  1  0.595250  0.595433  0.241856  1
  Si  Si12  1  0.404750  0.000184  0.241856  1
  Si  Si13  1  0.000000  0.600824  0.754654  1
  Si  Si14  1  0.406235  0.404861  0.756103  1
  Si  Si15  1  0.593765  0.998626  0.756103  1
  C  C16  1  0.000000  0.995498  0.509644  1
