# generated using pymatgen
data_Tb2Fe2Si5Ir
_symmetry_space_group_name_H-M   'P 1'
_cell_length_a   7.96496426
_cell_length_b   7.96203779
_cell_length_c   5.60546070
_cell_angle_alpha   70.71516518
_cell_angle_beta   70.68818618
_cell_angle_gamma   93.87550740
_symmetry_Int_Tables_number   1
_chemical_formula_structural   Tb2Fe2Si5Ir
_chemical_formula_sum   'Tb4 Fe4 Si10 Ir2'
_cell_volume   310.35645568
_cell_formula_units_Z   2
loop_
 _symmetry_equiv_pos_site_id
 _symmetry_equiv_pos_as_xyz
  1  'x, y, z'
loop_
 _atom_site_type_symbol
 _atom_site_label
 _atom_site_symmetry_multiplicity
 _atom_site_fract_x
 _atom_site_fract_y
 _atom_site_fract_z
 _atom_site_occupancy
  Tb  Tb0  1  0.868480  0.596535  0.768432  1
  Tb  Tb1  1  0.404727  0.137231  0.728194  1
  Tb  Tb2  1  0.128763  0.401075  0.248634  1
  Tb  Tb3  1  0.598630  0.870983  0.253470  1
  Fe  Fe4  1  0.995599  0.000973  0.251799  1
  Fe  Fe5  1  0.456867  0.740049  0.874298  1
  Fe  Fe6  1  0.739515  0.455301  0.373402  1
  Fe  Fe7  1  0.543686  0.255438  0.129608  1
  Si  Si8  1  0.059488  0.256706  0.853339  1
  Si  Si9  1  0.730604  0.929443  0.656820  1
  Si  Si10  1  0.927264  0.730396  0.185221  1
  Si  Si11  1  0.266670  0.070269  0.316883  1
  Si  Si12  1  0.519279  0.487756  0.759367  1
  Si  Si13  1  0.501286  0.510383  0.227010  1
  Si  Si14  1  0.767713  0.232403  0.751766  1
  Si  Si15  1  0.786629  0.211738  0.252738  1
  Si  Si16  1  0.217100  0.794468  0.756909  1
  Si  Si17  1  0.225801  0.781073  0.235938  1
  Ir  Ir18  1  0.999942  0.994715  0.750642  1
  Ir  Ir19  1  0.261957  0.543066  0.625525  1
