# generated using pymatgen
data_ErTm3ZnSi6Rh
_symmetry_space_group_name_H-M   'P 1'
_cell_length_a   8.09621800
_cell_length_b   8.09621847
_cell_length_c   7.88363600
_cell_angle_alpha   90.00000000
_cell_angle_beta   90.00000000
_cell_angle_gamma   119.99999810
_symmetry_Int_Tables_number   1
_chemical_formula_structural   ErTm3ZnSi6Rh
_chemical_formula_sum   'Er2 Tm6 Zn2 Si12 Rh2'
_cell_volume   447.52944629
_cell_formula_units_Z   2
loop_
 _symmetry_equiv_pos_site_id
 _symmetry_equiv_pos_as_xyz
  1  'x, y, z'
loop_
 _atom_site_type_symbol
 _atom_site_label
 _atom_site_symmetry_multiplicity
 _atom_site_fract_x
 _atom_site_fract_y
 _atom_site_fract_z
 _atom_site_occupancy
  Er  Er0  1  0.000000  0.000000  0.749760  1
  Er  Er1  1  0.000000  0.000000  0.250240  1
  Tm  Tm2  1  0.984874  0.492438  0.256854  1
  Tm  Tm3  1  0.507562  0.492438  0.256854  1
  Tm  Tm4  1  0.492438  0.984874  0.743146  1
  Tm  Tm5  1  0.015126  0.507562  0.743146  1
  Tm  Tm6  1  0.492438  0.507562  0.743146  1
  Tm  Tm7  1  0.507562  0.015126  0.256854  1
  Zn  Zn8  1  0.333333  0.666667  0.039835  1
  Zn  Zn9  1  0.666667  0.333333  0.960165  1
  Si  Si10  1  0.166702  0.833298  0.492759  1
  Si  Si11  1  0.166702  0.333401  0.492759  1
  Si  Si12  1  0.666599  0.833298  0.492759  1
  Si  Si13  1  0.333483  0.166743  0.006781  1
  Si  Si14  1  0.833298  0.666599  0.507241  1
  Si  Si15  1  0.833257  0.166743  0.006781  1
  Si  Si16  1  0.833257  0.666517  0.006781  1
  Si  Si17  1  0.166743  0.333483  0.993219  1
  Si  Si18  1  0.666517  0.833257  0.993219  1
  Si  Si19  1  0.333401  0.166702  0.507241  1
  Si  Si20  1  0.833298  0.166702  0.507241  1
  Si  Si21  1  0.166743  0.833257  0.993219  1
  Rh  Rh22  1  0.666667  0.333333  0.517062  1
  Rh  Rh23  1  0.333333  0.666667  0.482938  1
