# generated using pymatgen
data_Nb6Co4IrWC2
_symmetry_space_group_name_H-M   'P 1'
_cell_length_a   8.16040245
_cell_length_b   8.16040269
_cell_length_c   8.13425200
_cell_angle_alpha   60.10595027
_cell_angle_beta   60.10594929
_cell_angle_gamma   60.20874761
_symmetry_Int_Tables_number   1
_chemical_formula_structural   Nb6Co4IrWC2
_chemical_formula_sum   'Nb12 Co8 Ir2 W2 C4'
_cell_volume   384.23957450
_cell_formula_units_Z   2
loop_
 _symmetry_equiv_pos_site_id
 _symmetry_equiv_pos_as_xyz
  1  'x, y, z'
loop_
 _atom_site_type_symbol
 _atom_site_label
 _atom_site_symmetry_multiplicity
 _atom_site_fract_x
 _atom_site_fract_y
 _atom_site_fract_z
 _atom_site_occupancy
  Nb  Nb0  1  0.690005  0.307721  0.695497  1
  Nb  Nb1  1  0.942279  0.559995  0.554503  1
  Nb  Nb2  1  0.559995  0.942279  0.943222  1
  Nb  Nb3  1  0.942279  0.559995  0.943222  1
  Nb  Nb4  1  0.554191  0.554191  0.945809  1
  Nb  Nb5  1  0.939536  0.939536  0.560464  1
  Nb  Nb6  1  0.695809  0.695809  0.304191  1
  Nb  Nb7  1  0.307721  0.690005  0.695497  1
  Nb  Nb8  1  0.690005  0.307721  0.306778  1
  Nb  Nb9  1  0.310464  0.310464  0.689536  1
  Nb  Nb10  1  0.559995  0.942279  0.554503  1
  Nb  Nb11  1  0.307721  0.690005  0.306778  1
  Co  Co12  1  0.325181  0.325181  0.328805  1
  Co  Co13  1  0.235161  0.922009  0.921415  1
  Co  Co14  1  0.922009  0.235161  0.921415  1
  Co  Co15  1  0.924819  0.924819  0.229167  1
  Co  Co16  1  0.327991  0.014839  0.328585  1
  Co  Co17  1  0.325181  0.325181  0.020833  1
  Co  Co18  1  0.014839  0.327991  0.328585  1
  Co  Co19  1  0.924819  0.924819  0.921195  1
  Ir  Ir20  1  0.625000  0.125000  0.125000  1
  Ir  Ir21  1  0.125000  0.625000  0.125000  1
  W  W22  1  0.125000  0.125000  0.125000  1
  W  W23  1  0.125000  0.125000  0.625000  1
  C  C24  1  0.625000  0.625000  0.625000  1
  C  C25  1  0.125000  0.625000  0.625000  1
  C  C26  1  0.625000  0.125000  0.625000  1
  C  C27  1  0.625000  0.625000  0.125000  1
