# generated using pymatgen
data_Nd4Ga24CoRh
_symmetry_space_group_name_H-M   'P 1'
_cell_length_a   6.08069600
_cell_length_b   6.08069600
_cell_length_c   15.65428600
_cell_angle_alpha   90.00000000
_cell_angle_beta   90.00000000
_cell_angle_gamma   90.00000000
_symmetry_Int_Tables_number   1
_chemical_formula_structural   Nd4Ga24CoRh
_chemical_formula_sum   'Nd4 Ga24 Co1 Rh1'
_cell_volume   578.81509343
_cell_formula_units_Z   1
loop_
 _symmetry_equiv_pos_site_id
 _symmetry_equiv_pos_as_xyz
  1  'x, y, z'
loop_
 _atom_site_type_symbol
 _atom_site_label
 _atom_site_symmetry_multiplicity
 _atom_site_fract_x
 _atom_site_fract_y
 _atom_site_fract_z
 _atom_site_occupancy
  Nd  Nd0  1  0.500000  0.000000  0.242738  1
  Nd  Nd1  1  0.500000  0.000000  0.757262  1
  Nd  Nd2  1  0.000000  0.500000  0.759169  1
  Nd  Nd3  1  0.000000  0.500000  0.240831  1
  Ga  Ga4  1  0.331310  0.831310  0.431182  1
  Ga  Ga5  1  0.668690  0.168690  0.431182  1
  Ga  Ga6  1  0.331310  0.168690  0.568818  1
  Ga  Ga7  1  0.668690  0.831310  0.568818  1
  Ga  Ga8  1  0.167586  0.667586  0.569387  1
  Ga  Ga9  1  0.832414  0.332414  0.569387  1
  Ga  Ga10  1  0.832414  0.667586  0.430613  1
  Ga  Ga11  1  0.167586  0.332414  0.430613  1
  Ga  Ga12  1  0.256678  0.756678  0.915737  1
  Ga  Ga13  1  0.743322  0.243322  0.915737  1
  Ga  Ga14  1  0.256678  0.243322  0.084263  1
  Ga  Ga15  1  0.743322  0.756678  0.084263  1
  Ga  Ga16  1  0.256442  0.756442  0.084117  1
  Ga  Ga17  1  0.743558  0.243558  0.084117  1
  Ga  Ga18  1  0.743558  0.756442  0.915883  1
  Ga  Ga19  1  0.256442  0.243558  0.915883  1
  Ga  Ga20  1  0.500000  0.500000  0.343316  1
  Ga  Ga21  1  0.500000  0.500000  0.656684  1
  Ga  Ga22  1  0.000000  0.000000  0.656684  1
  Ga  Ga23  1  0.000000  0.000000  0.343316  1
  Ga  Ga24  1  0.500000  0.500000  0.185951  1
  Ga  Ga25  1  0.500000  0.500000  0.814049  1
  Ga  Ga26  1  0.000000  0.000000  0.814049  1
  Ga  Ga27  1  0.000000  0.000000  0.185951  1
  Co  Co28  1  0.500000  0.000000  0.000000  1
  Rh  Rh29  1  0.000000  0.500000  0.000000  1
