# generated using pymatgen
data_DyLu7Os2(WC4)2
_symmetry_space_group_name_H-M   'P 1'
_cell_length_a   4.99654300
_cell_length_b   6.52020691
_cell_length_c   9.73297694
_cell_angle_alpha   89.04701592
_cell_angle_beta   90.00000000
_cell_angle_gamma   90.00000000
_symmetry_Int_Tables_number   1
_chemical_formula_structural   DyLu7Os2(WC4)2
_chemical_formula_sum   'Dy1 Lu7 Os2 W2 C8'
_cell_volume   317.04187318
_cell_formula_units_Z   1
loop_
 _symmetry_equiv_pos_site_id
 _symmetry_equiv_pos_as_xyz
  1  'x, y, z'
loop_
 _atom_site_type_symbol
 _atom_site_label
 _atom_site_symmetry_multiplicity
 _atom_site_fract_x
 _atom_site_fract_y
 _atom_site_fract_z
 _atom_site_occupancy
  Dy  Dy0  1  0.250000  0.030787  0.283908  1
  Lu  Lu1  1  0.250000  0.676661  0.558831  1
  Lu  Lu2  1  0.750000  0.324134  0.442175  1
  Lu  Lu3  1  0.750000  0.825804  0.058934  1
  Lu  Lu4  1  0.250000  0.173787  0.940429  1
  Lu  Lu5  1  0.250000  0.539560  0.219001  1
  Lu  Lu6  1  0.750000  0.459646  0.780032  1
  Lu  Lu7  1  0.750000  0.969311  0.718476  1
  Os  Os8  1  0.750000  0.778626  0.369329  1
  Os  Os9  1  0.250000  0.220938  0.630981  1
  W  W10  1  0.250000  0.714655  0.869634  1
  W  W11  1  0.750000  0.285065  0.129300  1
  C  C12  1  0.250000  0.448558  0.759088  1
  C  C13  1  0.750000  0.550816  0.241072  1
  C  C14  1  0.750000  0.047953  0.259662  1
  C  C15  1  0.250000  0.951824  0.739209  1
  C  C16  1  0.250000  0.826628  0.056949  1
  C  C17  1  0.750000  0.171470  0.941477  1
  C  C18  1  0.750000  0.672487  0.553944  1
  C  C19  1  0.250000  0.331290  0.447570  1
