# generated using pymatgen
data_Dy2YHo3(AlC3)2
_symmetry_space_group_name_H-M   'P 1'
_cell_length_a   3.56273800
_cell_length_b   7.03721705
_cell_length_c   9.97079870
_cell_angle_alpha   90.01476385
_cell_angle_beta   90.00000000
_cell_angle_gamma   90.00000000
_symmetry_Int_Tables_number   1
_chemical_formula_structural   Dy2YHo3(AlC3)2
_chemical_formula_sum   'Dy2 Y1 Ho3 Al2 C6'
_cell_volume   249.98546947
_cell_formula_units_Z   1
loop_
 _symmetry_equiv_pos_site_id
 _symmetry_equiv_pos_as_xyz
  1  'x, y, z'
loop_
 _atom_site_type_symbol
 _atom_site_label
 _atom_site_symmetry_multiplicity
 _atom_site_fract_x
 _atom_site_fract_y
 _atom_site_fract_z
 _atom_site_occupancy
  Dy  Dy0  1  0.000000  0.750004  0.458522  1
  Dy  Dy1  1  0.000000  0.250025  0.541767  1
  Y  Y2  1  0.500000  0.008969  0.800577  1
  Ho  Ho3  1  0.500000  0.510921  0.200254  1
  Ho  Ho4  1  0.500000  0.489036  0.799907  1
  Ho  Ho5  1  0.500000  0.988859  0.199848  1
  Al  Al6  1  0.000000  0.749261  0.005659  1
  Al  Al7  1  0.000000  0.250748  0.994826  1
  C  C8  1  0.500000  0.509023  0.566176  1
  C  C9  1  0.500000  0.490920  0.433775  1
  C  C10  1  0.500000  0.990827  0.565387  1
  C  C11  1  0.500000  0.009161  0.433046  1
  C  C12  1  0.000000  0.749994  0.208554  1
  C  C13  1  0.000000  0.252251  0.791704  1
