# generated using pymatgen
data_RbSm(CuSb)2
_symmetry_space_group_name_H-M   'P 1'
_cell_length_a   4.47995500
_cell_length_b   9.51377805
_cell_length_c   7.72912407
_cell_angle_alpha   90.05027091
_cell_angle_beta   90.00000000
_cell_angle_gamma   90.00000000
_symmetry_Int_Tables_number   1
_chemical_formula_structural   RbSm(CuSb)2
_chemical_formula_sum   'Rb2 Sm2 Cu4 Sb4'
_cell_volume   329.42517008
_cell_formula_units_Z   2
loop_
 _symmetry_equiv_pos_site_id
 _symmetry_equiv_pos_as_xyz
  1  'x, y, z'
loop_
 _atom_site_type_symbol
 _atom_site_label
 _atom_site_symmetry_multiplicity
 _atom_site_fract_x
 _atom_site_fract_y
 _atom_site_fract_z
 _atom_site_occupancy
  Rb  Rb0  1  0.250000  0.499198  0.247223  1
  Rb  Rb1  1  0.750000  0.500802  0.752777  1
  Sm  Sm2  1  0.250000  0.000027  0.251799  1
  Sm  Sm3  1  0.750000  0.999973  0.748201  1
  Cu  Cu4  1  0.250000  0.813752  0.582527  1
  Cu  Cu5  1  0.750000  0.186248  0.417473  1
  Cu  Cu6  1  0.250000  0.182928  0.917165  1
  Cu  Cu7  1  0.750000  0.817072  0.082835  1
  Sb  Sb8  1  0.750000  0.787093  0.416690  1
  Sb  Sb9  1  0.250000  0.212907  0.583310  1
  Sb  Sb10  1  0.750000  0.209593  0.082778  1
  Sb  Sb11  1  0.250000  0.790407  0.917222  1
