# generated using pymatgen
data_Er6Ga7Pd16
_symmetry_space_group_name_H-M   'P 1'
_cell_length_a   8.97278323
_cell_length_b   8.97278344
_cell_length_c   8.97278400
_cell_angle_alpha   59.99999795
_cell_angle_beta   59.99999717
_cell_angle_gamma   60.00000103
_symmetry_Int_Tables_number   1
_chemical_formula_structural   Er6Ga7Pd16
_chemical_formula_sum   'Er6 Ga7 Pd16'
_cell_volume   510.81843840
_cell_formula_units_Z   1
loop_
 _symmetry_equiv_pos_site_id
 _symmetry_equiv_pos_as_xyz
  1  'x, y, z'
loop_
 _atom_site_type_symbol
 _atom_site_label
 _atom_site_symmetry_multiplicity
 _atom_site_fract_x
 _atom_site_fract_y
 _atom_site_fract_z
 _atom_site_occupancy
  Er  Er0  1  0.715109  0.284891  0.284891  1
  Er  Er1  1  0.284891  0.715109  0.715109  1
  Er  Er2  1  0.284891  0.715109  0.284891  1
  Er  Er3  1  0.284891  0.284891  0.715109  1
  Er  Er4  1  0.715109  0.284891  0.715109  1
  Er  Er5  1  0.715109  0.715109  0.284891  1
  Ga  Ga6  1  0.500000  0.000000  0.000000  1
  Ga  Ga7  1  0.000000  0.500000  0.500000  1
  Ga  Ga8  1  0.000000  0.500000  0.000000  1
  Ga  Ga9  1  0.000000  0.000000  0.500000  1
  Ga  Ga10  1  0.500000  0.000000  0.500000  1
  Ga  Ga11  1  0.500000  0.500000  0.000000  1
  Ga  Ga12  1  0.000000  0.000000  0.000000  1
  Pd  Pd13  1  0.336294  0.336294  0.336294  1
  Pd  Pd14  1  0.336294  0.336294  0.991121  1
  Pd  Pd15  1  0.991121  0.336294  0.336294  1
  Pd  Pd16  1  0.336294  0.991121  0.336294  1
  Pd  Pd17  1  0.663706  0.663706  0.663706  1
  Pd  Pd18  1  0.663706  0.663706  0.008879  1
  Pd  Pd19  1  0.663706  0.008879  0.663706  1
  Pd  Pd20  1  0.008879  0.663706  0.663706  1
  Pd  Pd21  1  0.118997  0.118997  0.118997  1
  Pd  Pd22  1  0.118997  0.118997  0.643010  1
  Pd  Pd23  1  0.643010  0.118997  0.118997  1
  Pd  Pd24  1  0.118997  0.643010  0.118997  1
  Pd  Pd25  1  0.881003  0.881003  0.881003  1
  Pd  Pd26  1  0.881003  0.881003  0.356990  1
  Pd  Pd27  1  0.881003  0.356990  0.881003  1
  Pd  Pd28  1  0.356990  0.881003  0.881003  1
