# generated using pymatgen
data_Ce4As6Ru7
_symmetry_space_group_name_H-M   'P 1'
_cell_length_a   7.30554395
_cell_length_b   7.30554391
_cell_length_c   7.30554400
_cell_angle_alpha   109.47121810
_cell_angle_beta   109.47121800
_cell_angle_gamma   109.47121944
_symmetry_Int_Tables_number   1
_chemical_formula_structural   Ce4As6Ru7
_chemical_formula_sum   'Ce4 As6 Ru7'
_cell_volume   300.14825138
_cell_formula_units_Z   1
loop_
 _symmetry_equiv_pos_site_id
 _symmetry_equiv_pos_as_xyz
  1  'x, y, z'
loop_
 _atom_site_type_symbol
 _atom_site_label
 _atom_site_symmetry_multiplicity
 _atom_site_fract_x
 _atom_site_fract_y
 _atom_site_fract_z
 _atom_site_occupancy
  Ce  Ce0  1  0.500001  0.000000  0.000000  1
  Ce  Ce1  1  0.000000  0.500001  0.000000  1
  Ce  Ce2  1  0.000000  0.000000  0.500001  1
  Ce  Ce3  1  0.500001  0.500001  0.500001  1
  As  As4  1  0.316289  0.316289  0.000000  1
  As  As5  1  0.683712  0.683712  0.000000  1
  As  As6  1  0.316289  0.000000  0.316289  1
  As  As7  1  0.000000  0.316289  0.316289  1
  As  As8  1  0.683712  0.000000  0.683712  1
  As  As9  1  0.000000  0.683712  0.683712  1
  Ru  Ru10  1  0.000000  0.000000  0.000000  1
  Ru  Ru11  1  0.750000  0.500000  0.250000  1
  Ru  Ru12  1  0.500000  0.750000  0.250000  1
  Ru  Ru13  1  0.750000  0.250000  0.500000  1
  Ru  Ru14  1  0.250000  0.750000  0.500000  1
  Ru  Ru15  1  0.500000  0.250000  0.750000  1
  Ru  Ru16  1  0.250000  0.500000  0.750000  1
