# generated using pymatgen
data_Mn(NiP4)3
_symmetry_space_group_name_H-M   'P 1'
_cell_length_a   6.76079809
_cell_length_b   6.76079815
_cell_length_c   6.76444100
_cell_angle_alpha   109.48213894
_cell_angle_beta   109.48213910
_cell_angle_gamma   109.46030826
_symmetry_Int_Tables_number   1
_chemical_formula_structural   Mn(NiP4)3
_chemical_formula_sum   'Mn1 Ni3 P12'
_cell_volume   237.98378986
_cell_formula_units_Z   1
loop_
 _symmetry_equiv_pos_site_id
 _symmetry_equiv_pos_as_xyz
  1  'x, y, z'
loop_
 _atom_site_type_symbol
 _atom_site_label
 _atom_site_symmetry_multiplicity
 _atom_site_fract_x
 _atom_site_fract_y
 _atom_site_fract_z
 _atom_site_occupancy
  Mn  Mn0  1  0.000000  0.000000  0.500000  1
  Ni  Ni1  1  0.500000  0.500000  0.500000  1
  Ni  Ni2  1  0.500000  0.000000  0.000000  1
  Ni  Ni3  1  0.000000  0.500000  0.000000  1
  P  P4  1  0.500367  0.853385  0.644366  1
  P  P5  1  0.205723  0.862058  0.355121  1
  P  P6  1  0.353018  0.499632  0.143999  1
  P  P7  1  0.137940  0.343664  0.493061  1
  P  P8  1  0.343664  0.205723  0.850601  1
  P  P9  1  0.146614  0.646982  0.790981  1
  P  P10  1  0.656336  0.794276  0.149397  1
  P  P11  1  0.862059  0.656335  0.506938  1
  P  P12  1  0.646981  0.500367  0.856000  1
  P  P13  1  0.853384  0.353018  0.209018  1
  P  P14  1  0.794276  0.137940  0.644879  1
  P  P15  1  0.499632  0.146614  0.355633  1
