# generated using pymatgen
data_TbYCr2Si2C
_symmetry_space_group_name_H-M   'P 1'
_cell_length_a   5.62144401
_cell_length_b   5.62144393
_cell_length_c   6.99270430
_cell_angle_alpha   123.26272828
_cell_angle_beta   123.26272846
_cell_angle_gamma   38.85104034
_symmetry_Int_Tables_number   1
_chemical_formula_structural   TbYCr2Si2C
_chemical_formula_sum   'Tb1 Y1 Cr2 Si2 C1'
_cell_volume   112.76237607
_cell_formula_units_Z   1
loop_
 _symmetry_equiv_pos_site_id
 _symmetry_equiv_pos_as_xyz
  1  'x, y, z'
loop_
 _atom_site_type_symbol
 _atom_site_label
 _atom_site_symmetry_multiplicity
 _atom_site_fract_x
 _atom_site_fract_y
 _atom_site_fract_z
 _atom_site_occupancy
  Tb  Tb0  1  0.571945  0.571945  0.294020  1
  Y  Y1  1  0.428049  0.428049  0.705996  1
  Cr  Cr2  1  0.204539  0.204539  0.074220  1
  Cr  Cr3  1  0.795434  0.795434  0.925732  1
  Si  Si4  1  0.859827  0.859827  0.322146  1
  Si  Si5  1  0.140207  0.140207  0.677924  1
  C  C6  1  0.999999  0.999999  0.999963  1
