# generated using pymatgen
data_LiNb4Co19P12
_symmetry_space_group_name_H-M   'P 1'
_cell_length_a   11.72794800
_cell_length_b   11.72794808
_cell_length_c   3.55153400
_cell_angle_alpha   90.00000000
_cell_angle_beta   90.00000000
_cell_angle_gamma   119.99999976
_symmetry_Int_Tables_number   1
_chemical_formula_structural   LiNb4Co19P12
_chemical_formula_sum   'Li1 Nb4 Co19 P12'
_cell_volume   423.04900307
_cell_formula_units_Z   1
loop_
 _symmetry_equiv_pos_site_id
 _symmetry_equiv_pos_as_xyz
  1  'x, y, z'
loop_
 _atom_site_type_symbol
 _atom_site_label
 _atom_site_symmetry_multiplicity
 _atom_site_fract_x
 _atom_site_fract_y
 _atom_site_fract_z
 _atom_site_occupancy
  Li  Li0  1  0.666667  0.333333  0.500000  1
  Nb  Nb1  1  0.333333  0.666667  0.500000  1
  Nb  Nb2  1  0.180822  0.999044  0.000000  1
  Nb  Nb3  1  0.000956  0.181778  0.000000  1
  Nb  Nb4  1  0.818222  0.819178  0.000000  1
  Co  Co5  1  0.196413  0.376955  0.500000  1
  Co  Co6  1  0.623045  0.819458  0.500000  1
  Co  Co7  1  0.180542  0.803587  0.500000  1
  Co  Co8  1  0.823266  0.627905  0.500000  1
  Co  Co9  1  0.804639  0.176734  0.500000  1
  Co  Co10  1  0.372095  0.195361  0.500000  1
  Co  Co11  1  0.550943  0.005648  0.500000  1
  Co  Co12  1  0.994352  0.545295  0.500000  1
  Co  Co13  1  0.454705  0.449057  0.500000  1
  Co  Co14  1  0.128657  0.482994  0.000000  1
  Co  Co15  1  0.517006  0.645662  0.000000  1
  Co  Co16  1  0.354338  0.871343  0.000000  1
  Co  Co17  1  0.646743  0.520372  0.000000  1
  Co  Co18  1  0.873629  0.353257  0.000000  1
  Co  Co19  1  0.479628  0.126371  0.000000  1
  Co  Co20  1  0.716186  0.000055  0.000000  1
  Co  Co21  1  0.999945  0.716131  0.000000  1
  Co  Co22  1  0.283869  0.283814  0.000000  1
  Co  Co23  1  0.000000  0.000000  0.500000  1
  P  P24  1  0.360817  0.001435  0.500000  1
  P  P25  1  0.998565  0.359382  0.500000  1
  P  P26  1  0.640618  0.639183  0.500000  1
  P  P27  1  0.319124  0.484726  0.000000  1
  P  P28  1  0.515274  0.834399  0.000000  1
  P  P29  1  0.165601  0.680876  0.000000  1
  P  P30  1  0.830648  0.511957  0.000000  1
  P  P31  1  0.681309  0.169352  0.000000  1
  P  P32  1  0.488043  0.318691  0.000000  1
  P  P33  1  0.822798  0.999084  0.500000  1
  P  P34  1  0.000916  0.823714  0.500000  1
  P  P35  1  0.176286  0.177202  0.500000  1
