# generated using pymatgen
data_CaHoAl20Ru3Rh
_symmetry_space_group_name_H-M   'P 1'
_cell_length_a   6.86180523
_cell_length_b   6.86264604
_cell_length_c   9.15761440
_cell_angle_alpha   90.22865586
_cell_angle_beta   90.11304953
_cell_angle_gamma   96.74891755
_symmetry_Int_Tables_number   1
_chemical_formula_structural   CaHoAl20Ru3Rh
_chemical_formula_sum   'Ca1 Ho1 Al20 Ru3 Rh1'
_cell_volume   428.24048883
_cell_formula_units_Z   1
loop_
 _symmetry_equiv_pos_site_id
 _symmetry_equiv_pos_as_xyz
  1  'x, y, z'
loop_
 _atom_site_type_symbol
 _atom_site_label
 _atom_site_symmetry_multiplicity
 _atom_site_fract_x
 _atom_site_fract_y
 _atom_site_fract_z
 _atom_site_occupancy
  Ca  Ca0  1  0.873690  0.124693  0.750139  1
  Ho  Ho1  1  0.127848  0.874813  0.249749  1
  Al  Al2  1  0.620841  0.376012  0.547317  1
  Al  Al3  1  0.378965  0.623704  0.447051  1
  Al  Al4  1  0.377088  0.623210  0.051385  1
  Al  Al5  1  0.623189  0.376179  0.953893  1
  Al  Al6  1  0.226304  0.225883  0.498231  1
  Al  Al7  1  0.772751  0.775555  0.500097  1
  Al  Al8  1  0.773293  0.775325  0.000435  1
  Al  Al9  1  0.225191  0.225884  0.001414  1
  Al  Al10  1  0.845218  0.155658  0.099706  1
  Al  Al11  1  0.158132  0.840748  0.900944  1
  Al  Al12  1  0.159588  0.842056  0.600768  1
  Al  Al13  1  0.843209  0.154374  0.398305  1
  Al  Al14  1  0.857750  0.588152  0.751070  1
  Al  Al15  1  0.141572  0.414528  0.249255  1
  Al  Al16  1  0.411907  0.141391  0.750466  1
  Al  Al17  1  0.586284  0.859514  0.249522  1
  Al  Al18  1  0.222142  0.479229  0.752717  1
  Al  Al19  1  0.778545  0.519176  0.247449  1
  Al  Al20  1  0.520654  0.779896  0.749418  1
  Al  Al21  1  0.481285  0.220475  0.250382  1
  Ru  Ru22  1  0.999681  0.501979  0.000982  1
  Ru  Ru23  1  0.497774  0.000080  0.000930  1
  Ru  Ru24  1  0.497886  0.000024  0.499035  1
  Rh  Rh25  1  0.999212  0.501464  0.499340  1
