# generated using pymatgen
data_YbFe2(CoB2)2
_symmetry_space_group_name_H-M   'P 1'
_cell_length_a   6.90108300
_cell_length_b   6.90108300
_cell_length_c   3.81556100
_cell_angle_alpha   90.00000000
_cell_angle_beta   90.00000000
_cell_angle_gamma   90.00000000
_symmetry_Int_Tables_number   1
_chemical_formula_structural   YbFe2(CoB2)2
_chemical_formula_sum   'Yb2 Fe4 Co4 B8'
_cell_volume   181.71588877
_cell_formula_units_Z   2
loop_
 _symmetry_equiv_pos_site_id
 _symmetry_equiv_pos_as_xyz
  1  'x, y, z'
loop_
 _atom_site_type_symbol
 _atom_site_label
 _atom_site_symmetry_multiplicity
 _atom_site_fract_x
 _atom_site_fract_y
 _atom_site_fract_z
 _atom_site_occupancy
  Yb  Yb0  1  0.000000  0.000000  0.001486  1
  Yb  Yb1  1  0.500000  0.500000  0.501486  1
  Fe  Fe2  1  0.629397  0.120150  0.389456  1
  Fe  Fe3  1  0.370603  0.879850  0.389456  1
  Fe  Fe4  1  0.620150  0.870603  0.889456  1
  Fe  Fe5  1  0.379850  0.129397  0.889456  1
  Co  Co6  1  0.867460  0.380436  0.112178  1
  Co  Co7  1  0.132540  0.619564  0.112178  1
  Co  Co8  1  0.880436  0.632540  0.612178  1
  Co  Co9  1  0.119564  0.367460  0.612178  1
  B  B10  1  0.333931  0.806204  0.891124  1
  B  B11  1  0.666069  0.193796  0.891124  1
  B  B12  1  0.306204  0.166069  0.391124  1
  B  B13  1  0.693796  0.833931  0.391124  1
  B  B14  1  0.166597  0.697921  0.606499  1
  B  B15  1  0.833403  0.302079  0.606499  1
  B  B16  1  0.197921  0.333403  0.106499  1
  B  B17  1  0.802079  0.666597  0.106499  1
