# generated using pymatgen
data_BaSmO9
_symmetry_space_group_name_H-M   'P 1'
_cell_length_a   5.25367533
_cell_length_b   5.25367601
_cell_length_c   5.25367500
_cell_angle_alpha   88.14394761
_cell_angle_beta   88.14394737
_cell_angle_gamma   88.14395003
_symmetry_Int_Tables_number   1
_chemical_formula_structural   BaSmO9
_chemical_formula_sum   'Ba1 Sm1 O9'
_cell_volume   144.78383313
_cell_formula_units_Z   1
loop_
 _symmetry_equiv_pos_site_id
 _symmetry_equiv_pos_as_xyz
  1  'x, y, z'
loop_
 _atom_site_type_symbol
 _atom_site_label
 _atom_site_symmetry_multiplicity
 _atom_site_fract_x
 _atom_site_fract_y
 _atom_site_fract_z
 _atom_site_occupancy
  Ba  Ba0  1  0.990556  0.990556  0.990556  1
  Sm  Sm1  1  0.443981  0.443981  0.443981  1
  O  O2  1  0.559805  0.905702  0.518583  1
  O  O3  1  0.905702  0.518583  0.559805  1
  O  O4  1  0.518583  0.559805  0.905702  1
  O  O5  1  0.276101  0.494508  0.020157  1
  O  O6  1  0.716959  0.505668  0.079689  1
  O  O7  1  0.494508  0.020158  0.276100  1
  O  O8  1  0.020157  0.276101  0.494509  1
  O  O9  1  0.079689  0.716959  0.505668  1
  O  O10  1  0.505668  0.079689  0.716959  1
