# generated using pymatgen
data_Nd2Lu4VCo17P12
_symmetry_space_group_name_H-M   'P 1'
_cell_length_a   3.69094700
_cell_length_b   10.52922300
_cell_length_c   12.19605000
_cell_angle_alpha   90.00000000
_cell_angle_beta   90.00000000
_cell_angle_gamma   90.00000000
_symmetry_Int_Tables_number   1
_chemical_formula_structural   Nd2Lu4VCo17P12
_chemical_formula_sum   'Nd2 Lu4 V1 Co17 P12'
_cell_volume   473.97270126
_cell_formula_units_Z   1
loop_
 _symmetry_equiv_pos_site_id
 _symmetry_equiv_pos_as_xyz
  1  'x, y, z'
loop_
 _atom_site_type_symbol
 _atom_site_label
 _atom_site_symmetry_multiplicity
 _atom_site_fract_x
 _atom_site_fract_y
 _atom_site_fract_z
 _atom_site_occupancy
  Nd  Nd0  1  0.000000  0.500000  0.524531  1
  Nd  Nd1  1  0.500000  0.000000  0.476910  1
  Lu  Lu2  1  0.500000  0.818577  0.204784  1
  Lu  Lu3  1  0.500000  0.181423  0.204784  1
  Lu  Lu4  1  0.000000  0.681090  0.797522  1
  Lu  Lu5  1  0.000000  0.318910  0.797522  1
  V  V6  1  0.500000  0.500000  0.152126  1
  Co  Co7  1  0.000000  0.000000  0.842432  1
  Co  Co8  1  0.500000  0.500000  0.706360  1
  Co  Co9  1  0.000000  0.000000  0.291742  1
  Co  Co10  1  0.000000  0.500000  0.986399  1
  Co  Co11  1  0.500000  0.000000  0.013305  1
  Co  Co12  1  0.500000  0.331881  0.992627  1
  Co  Co13  1  0.500000  0.668119  0.992627  1
  Co  Co14  1  0.000000  0.166461  0.006071  1
  Co  Co15  1  0.000000  0.833539  0.006071  1
  Co  Co16  1  0.500000  0.295346  0.429447  1
  Co  Co17  1  0.500000  0.704654  0.429447  1
  Co  Co18  1  0.000000  0.203884  0.571181  1
  Co  Co19  1  0.000000  0.796116  0.571181  1
  Co  Co20  1  0.500000  0.878577  0.712240  1
  Co  Co21  1  0.500000  0.121423  0.712240  1
  Co  Co22  1  0.000000  0.621854  0.288437  1
  Co  Co23  1  0.000000  0.378146  0.288437  1
  P  P24  1  0.500000  0.500000  0.882567  1
  P  P25  1  0.000000  0.000000  0.115999  1
  P  P26  1  0.500000  0.500000  0.342753  1
  P  P27  1  0.000000  0.000000  0.660720  1
  P  P28  1  0.500000  0.307968  0.619658  1
  P  P29  1  0.500000  0.692032  0.619658  1
  P  P30  1  0.000000  0.191264  0.381383  1
  P  P31  1  0.000000  0.808736  0.381383  1
  P  P32  1  0.500000  0.847091  0.892172  1
  P  P33  1  0.500000  0.152909  0.892172  1
  P  P34  1  0.000000  0.656147  0.106556  1
  P  P35  1  0.000000  0.343853  0.106556  1
