# generated using pymatgen
data_NiB2MoW
_symmetry_space_group_name_H-M   'P 1'
_cell_length_a   4.52588863
_cell_length_b   4.52588992
_cell_length_c   4.52589019
_cell_angle_alpha   138.80309167
_cell_angle_beta   119.28618499
_cell_angle_gamma   76.01767090
_symmetry_Int_Tables_number   1
_chemical_formula_structural   NiB2MoW
_chemical_formula_sum   'Ni1 B2 Mo1 W1'
_cell_volume   51.95053404
_cell_formula_units_Z   1
loop_
 _symmetry_equiv_pos_site_id
 _symmetry_equiv_pos_as_xyz
  1  'x, y, z'
loop_
 _atom_site_type_symbol
 _atom_site_label
 _atom_site_symmetry_multiplicity
 _atom_site_fract_x
 _atom_site_fract_y
 _atom_site_fract_z
 _atom_site_occupancy
  Ni  Ni0  1  0.999983  0.999983  0.000000  1
  B  B1  1  0.701539  0.499996  0.201543  1
  B  B2  1  0.298452  0.499996  0.798456  1
  Mo  Mo3  1  0.300756  0.800756  0.500000  1
  W  W4  1  0.699270  0.199270  0.500000  1
