# generated using pymatgen
data_Hf9ZrBeSn6Sb
_symmetry_space_group_name_H-M   'P 1'
_cell_length_a   8.66955727
_cell_length_b   8.66522876
_cell_length_c   5.87224802
_cell_angle_alpha   90.00935991
_cell_angle_beta   89.98128291
_cell_angle_gamma   120.01652938
_symmetry_Int_Tables_number   1
_chemical_formula_structural   Hf9ZrBeSn6Sb
_chemical_formula_sum   'Hf9 Zr1 Be1 Sn6 Sb1'
_cell_volume   381.97909036
_cell_formula_units_Z   1
loop_
 _symmetry_equiv_pos_site_id
 _symmetry_equiv_pos_as_xyz
  1  'x, y, z'
loop_
 _atom_site_type_symbol
 _atom_site_label
 _atom_site_symmetry_multiplicity
 _atom_site_fract_x
 _atom_site_fract_y
 _atom_site_fract_z
 _atom_site_occupancy
  Hf  Hf0  1  0.333022  0.666503  0.000416  1
  Hf  Hf1  1  0.666352  0.333520  0.499678  1
  Hf  Hf2  1  0.666521  0.333497  0.000416  1
  Hf  Hf3  1  0.332831  0.666480  0.499678  1
  Hf  Hf4  1  0.268207  0.000000  0.278026  1
  Hf  Hf5  1  0.265172  0.266177  0.722464  1
  Hf  Hf6  1  0.998996  0.733823  0.722464  1
  Hf  Hf7  1  0.000900  0.268372  0.275986  1
  Hf  Hf8  1  0.732528  0.731628  0.275986  1
  Zr  Zr9  1  0.734518  0.000000  0.725311  1
  Be  Be10  1  0.000780  0.000000  0.496531  1
  Sn  Sn11  1  0.610082  0.000000  0.243902  1
  Sn  Sn12  1  0.607804  0.607676  0.756122  1
  Sn  Sn13  1  0.000129  0.392324  0.756122  1
  Sn  Sn14  1  0.999906  0.609350  0.243470  1
  Sn  Sn15  1  0.390557  0.390650  0.243470  1
  Sn  Sn16  1  0.390475  0.000000  0.757020  1
  Sb  Sb17  1  0.001222  0.000000  0.002939  1
