# generated using pymatgen
data_Lu5BiRuPt
_symmetry_space_group_name_H-M   'P 1'
_cell_length_a   8.75868279
_cell_length_b   8.75868397
_cell_length_c   8.60128498
_cell_angle_alpha   127.68286181
_cell_angle_beta   127.68286714
_cell_angle_gamma   78.42735927
_symmetry_Int_Tables_number   1
_chemical_formula_structural   Lu5BiRuPt
_chemical_formula_sum   'Lu10 Bi2 Ru2 Pt2'
_cell_volume   397.18531469
_cell_formula_units_Z   2
loop_
 _symmetry_equiv_pos_site_id
 _symmetry_equiv_pos_as_xyz
  1  'x, y, z'
loop_
 _atom_site_type_symbol
 _atom_site_label
 _atom_site_symmetry_multiplicity
 _atom_site_fract_x
 _atom_site_fract_y
 _atom_site_fract_z
 _atom_site_occupancy
  Lu  Lu0  1  0.000000  0.000000  0.000000  1
  Lu  Lu1  1  0.500000  0.500000  0.000000  1
  Lu  Lu2  1  0.796526  0.296526  0.822681  1
  Lu  Lu3  1  0.203474  0.703474  0.177319  1
  Lu  Lu4  1  0.473846  0.973846  0.177319  1
  Lu  Lu5  1  0.276926  0.480064  0.500000  1
  Lu  Lu6  1  0.019936  0.223074  0.500000  1
  Lu  Lu7  1  0.526154  0.026154  0.822681  1
  Lu  Lu8  1  0.723074  0.519936  0.500000  1
  Lu  Lu9  1  0.980064  0.776926  0.500000  1
  Bi  Bi10  1  0.250000  0.250000  0.000000  1
  Bi  Bi11  1  0.750000  0.750000  0.000000  1
  Ru  Ru12  1  0.144988  0.644988  0.789976  1
  Ru  Ru13  1  0.855012  0.355012  0.210024  1
  Pt  Pt14  1  0.635529  0.864471  0.500000  1
  Pt  Pt15  1  0.364471  0.135529  0.500000  1
