# generated using pymatgen
data_Pr17Sm3Si15Os
_symmetry_space_group_name_H-M   'P 1'
_cell_length_a   7.92164231
_cell_length_b   7.91142238
_cell_length_c   15.27552118
_cell_angle_alpha   90.23510498
_cell_angle_beta   89.89183825
_cell_angle_gamma   90.09505147
_symmetry_Int_Tables_number   1
_chemical_formula_structural   Pr17Sm3Si15Os
_chemical_formula_sum   'Pr17 Sm3 Si15 Os1'
_cell_volume   957.32811716
_cell_formula_units_Z   1
loop_
 _symmetry_equiv_pos_site_id
 _symmetry_equiv_pos_as_xyz
  1  'x, y, z'
loop_
 _atom_site_type_symbol
 _atom_site_label
 _atom_site_symmetry_multiplicity
 _atom_site_fract_x
 _atom_site_fract_y
 _atom_site_fract_z
 _atom_site_occupancy
  Pr  Pr0  1  0.696727  0.689370  0.501790  1
  Pr  Pr1  1  0.372160  0.011920  0.449897  1
  Pr  Pr2  1  0.486416  0.880037  0.697958  1
  Pr  Pr3  1  0.511224  0.123638  0.198079  1
  Pr  Pr4  1  0.876442  0.487463  0.300235  1
  Pr  Pr5  1  0.126635  0.503316  0.798749  1
  Pr  Pr6  1  0.625221  0.988639  0.948186  1
  Pr  Pr7  1  0.007306  0.375390  0.552268  1
  Pr  Pr8  1  0.987957  0.624949  0.050783  1
  Pr  Pr9  1  0.133821  0.983736  0.872925  1
  Pr  Pr10  1  0.518618  0.630649  0.126060  1
  Pr  Pr11  1  0.471023  0.361180  0.629740  1
  Pr  Pr12  1  0.627493  0.515661  0.874274  1
  Pr  Pr13  1  0.375067  0.482299  0.372468  1
  Pr  Pr14  1  0.872774  0.021932  0.376534  1
  Pr  Pr15  1  0.980875  0.127067  0.123644  1
  Pr  Pr16  1  0.026988  0.881943  0.626354  1
  Sm  Sm17  1  0.306703  0.306959  0.998984  1
  Sm  Sm18  1  0.190493  0.809208  0.250113  1
  Sm  Sm19  1  0.825075  0.189568  0.749122  1
  Si  Si20  1  0.332074  0.692407  0.952498  1
  Si  Si21  1  0.663444  0.302464  0.452609  1
  Si  Si22  1  0.694362  0.332246  0.048154  1
  Si  Si23  1  0.304878  0.668952  0.546266  1
  Si  Si24  1  0.808649  0.830791  0.204298  1
  Si  Si25  1  0.169267  0.194708  0.296092  1
  Si  Si26  1  0.830829  0.804307  0.799144  1
  Si  Si27  1  0.287953  0.922457  0.060306  1
  Si  Si28  1  0.577369  0.788265  0.310130  1
  Si  Si29  1  0.423899  0.208527  0.813495  1
  Si  Si30  1  0.779104  0.581220  0.691652  1
  Si  Si31  1  0.212246  0.423072  0.188186  1
  Si  Si32  1  0.705350  0.075321  0.560555  1
  Si  Si33  1  0.920768  0.285943  0.940279  1
  Si  Si34  1  0.082375  0.717522  0.438200  1
  Os  Os35  1  0.188417  0.176877  0.699975  1
