# generated using pymatgen
data_SmYFeCoSi2
_symmetry_space_group_name_H-M   'P 1'
_cell_length_a   3.98952000
_cell_length_b   3.98584300
_cell_length_c   6.80213800
_cell_angle_alpha   90.00000000
_cell_angle_beta   90.00000000
_cell_angle_gamma   90.00000000
_symmetry_Int_Tables_number   1
_chemical_formula_structural   SmYFeCoSi2
_chemical_formula_sum   'Sm1 Y1 Fe1 Co1 Si2'
_cell_volume   108.16488011
_cell_formula_units_Z   1
loop_
 _symmetry_equiv_pos_site_id
 _symmetry_equiv_pos_as_xyz
  1  'x, y, z'
loop_
 _atom_site_type_symbol
 _atom_site_label
 _atom_site_symmetry_multiplicity
 _atom_site_fract_x
 _atom_site_fract_y
 _atom_site_fract_z
 _atom_site_occupancy
  Sm  Sm0  1  0.500000  0.000000  0.678752  1
  Y  Y1  1  0.000000  0.500000  0.312338  1
  Fe  Fe2  1  0.500000  0.500000  0.001614  1
  Co  Co3  1  0.000000  0.000000  0.001999  1
  Si  Si4  1  0.000000  0.500000  0.825770  1
  Si  Si5  1  0.500000  0.000000  0.179527  1
