# generated using pymatgen
data_CaPa3O8
_symmetry_space_group_name_H-M   'P 1'
_cell_length_a   6.64470927
_cell_length_b   6.64470888
_cell_length_c   10.85284768
_cell_angle_alpha   65.82686149
_cell_angle_beta   65.82686216
_cell_angle_gamma   48.21628079
_symmetry_Int_Tables_number   1
_chemical_formula_structural   CaPa3O8
_chemical_formula_sum   'Ca2 Pa6 O16'
_cell_volume   319.33081968
_cell_formula_units_Z   2
loop_
 _symmetry_equiv_pos_site_id
 _symmetry_equiv_pos_as_xyz
  1  'x, y, z'
loop_
 _atom_site_type_symbol
 _atom_site_label
 _atom_site_symmetry_multiplicity
 _atom_site_fract_x
 _atom_site_fract_y
 _atom_site_fract_z
 _atom_site_occupancy
  Ca  Ca0  1  0.497905  0.502095  0.250000  1
  Ca  Ca1  1  0.502095  0.497905  0.750000  1
  Pa  Pa2  1  0.000000  0.000000  0.500000  1
  Pa  Pa3  1  0.000000  0.000000  0.000000  1
  Pa  Pa4  1  0.250937  0.248954  0.625289  1
  Pa  Pa5  1  0.751046  0.749063  0.874711  1
  Pa  Pa6  1  0.749063  0.751046  0.374711  1
  Pa  Pa7  1  0.248954  0.250937  0.125289  1
  O  O8  1  0.885347  0.372339  0.055243  1
  O  O9  1  0.627661  0.114653  0.444757  1
  O  O10  1  0.114653  0.627661  0.944757  1
  O  O11  1  0.372339  0.885347  0.555243  1
  O  O12  1  0.369239  0.889146  0.055286  1
  O  O13  1  0.110854  0.630761  0.444714  1
  O  O14  1  0.630761  0.110854  0.944714  1
  O  O15  1  0.889146  0.369239  0.555286  1
  O  O16  1  0.885719  0.372777  0.313658  1
  O  O17  1  0.627223  0.114281  0.186342  1
  O  O18  1  0.114281  0.627223  0.686342  1
  O  O19  1  0.372777  0.885719  0.813658  1
  O  O20  1  0.888555  0.368589  0.813722  1
  O  O21  1  0.631411  0.111445  0.686278  1
  O  O22  1  0.111445  0.631411  0.186278  1
  O  O23  1  0.368589  0.888555  0.313722  1
