# generated using pymatgen
data_Y2Lu2TiOs7
_symmetry_space_group_name_H-M   'P 1'
_cell_length_a   5.39252900
_cell_length_b   5.39252953
_cell_length_c   8.63461500
_cell_angle_alpha   90.00000000
_cell_angle_beta   90.00000000
_cell_angle_gamma   119.99999064
_symmetry_Int_Tables_number   1
_chemical_formula_structural   Y2Lu2TiOs7
_chemical_formula_sum   'Y2 Lu2 Ti1 Os7'
_cell_volume   217.44962931
_cell_formula_units_Z   1
loop_
 _symmetry_equiv_pos_site_id
 _symmetry_equiv_pos_as_xyz
  1  'x, y, z'
loop_
 _atom_site_type_symbol
 _atom_site_label
 _atom_site_symmetry_multiplicity
 _atom_site_fract_x
 _atom_site_fract_y
 _atom_site_fract_z
 _atom_site_occupancy
  Y  Y0  1  0.333333  0.666667  0.437869  1
  Y  Y1  1  0.666667  0.333333  0.562131  1
  Lu  Lu2  1  0.666667  0.333333  0.929271  1
  Lu  Lu3  1  0.333333  0.666667  0.070729  1
  Ti  Ti4  1  0.000000  0.000000  0.000000  1
  Os  Os5  1  0.172685  0.345369  0.753225  1
  Os  Os6  1  0.172685  0.827315  0.753225  1
  Os  Os7  1  0.345369  0.172685  0.246775  1
  Os  Os8  1  0.827315  0.654631  0.246775  1
  Os  Os9  1  0.654631  0.827315  0.753225  1
  Os  Os10  1  0.827315  0.172685  0.246775  1
  Os  Os11  1  0.000000  0.000000  0.500000  1
