# generated using pymatgen
data_TbCuAuO4
_symmetry_space_group_name_H-M   'P 1'
_cell_length_a   6.45573902
_cell_length_b   6.45573994
_cell_length_c   6.50475287
_cell_angle_alpha   125.92197574
_cell_angle_beta   126.12076000
_cell_angle_gamma   79.33292428
_symmetry_Int_Tables_number   1
_chemical_formula_structural   TbCuAuO4
_chemical_formula_sum   'Tb2 Cu2 Au2 O8'
_cell_volume   171.90027610
_cell_formula_units_Z   2
loop_
 _symmetry_equiv_pos_site_id
 _symmetry_equiv_pos_as_xyz
  1  'x, y, z'
loop_
 _atom_site_type_symbol
 _atom_site_label
 _atom_site_symmetry_multiplicity
 _atom_site_fract_x
 _atom_site_fract_y
 _atom_site_fract_z
 _atom_site_occupancy
  Tb  Tb0  1  0.000167  0.000167  0.000000  1
  Tb  Tb1  1  0.749833  0.249833  0.500000  1
  Cu  Cu2  1  0.375000  0.125000  0.750000  1
  Cu  Cu3  1  0.375000  0.625000  0.250000  1
  Au  Au4  1  0.875000  0.625000  0.250000  1
  Au  Au5  1  0.375000  0.625000  0.750000  1
  O  O6  1  0.146862  0.598321  0.860052  1
  O  O7  1  0.738269  0.286810  0.139948  1
  O  O8  1  0.603138  0.651679  0.639948  1
  O  O9  1  0.011731  0.963190  0.360052  1
  O  O10  1  0.348986  0.008866  0.961503  1
  O  O11  1  0.047363  0.387483  0.038497  1
  O  O12  1  0.702637  0.862517  0.461503  1
  O  O13  1  0.401014  0.241134  0.538497  1
