# generated using pymatgen
data_Tb2Dy2B4I5
_symmetry_space_group_name_H-M   'P 1'
_cell_length_a   9.65233591
_cell_length_b   9.65233575
_cell_length_c   9.69388411
_cell_angle_alpha   75.94033758
_cell_angle_beta   75.94033861
_cell_angle_gamma   25.68605231
_symmetry_Int_Tables_number   1
_chemical_formula_structural   Tb2Dy2B4I5
_chemical_formula_sum   'Tb2 Dy2 B4 I5'
_cell_volume   379.11718371
_cell_formula_units_Z   1
loop_
 _symmetry_equiv_pos_site_id
 _symmetry_equiv_pos_as_xyz
  1  'x, y, z'
loop_
 _atom_site_type_symbol
 _atom_site_label
 _atom_site_symmetry_multiplicity
 _atom_site_fract_x
 _atom_site_fract_y
 _atom_site_fract_z
 _atom_site_occupancy
  Tb  Tb0  1  0.129562  0.129562  0.933522  1
  Tb  Tb1  1  0.872449  0.872449  0.064994  1
  Dy  Dy2  1  0.502042  0.502042  0.754484  1
  Dy  Dy3  1  0.500018  0.500018  0.244178  1
  B  B4  1  0.315072  0.686950  0.999344  1
  B  B5  1  0.686950  0.315072  0.999344  1
  B  B6  1  0.001570  0.001570  0.099143  1
  B  B7  1  0.000422  0.000422  0.899546  1
  I  I8  1  0.672061  0.672061  0.681669  1
  I  I9  1  0.330006  0.330006  0.317099  1
  I  I10  1  0.328420  0.328420  0.852133  1
  I  I11  1  0.673782  0.673782  0.145863  1
  I  I12  1  0.001944  0.001944  0.498881  1
