# generated using pymatgen
data_BaRh2(SeO3)4
_symmetry_space_group_name_H-M   'P 1'
_cell_length_a   5.31564300
_cell_length_b   10.16902927
_cell_length_c   14.19315566
_cell_angle_alpha   48.91117378
_cell_angle_beta   90.00000000
_cell_angle_gamma   90.00000000
_symmetry_Int_Tables_number   1
_chemical_formula_structural   BaRh2(SeO3)4
_chemical_formula_sum   'Ba2 Rh4 Se8 O24'
_cell_volume   578.23973494
_cell_formula_units_Z   2
loop_
 _symmetry_equiv_pos_site_id
 _symmetry_equiv_pos_as_xyz
  1  'x, y, z'
loop_
 _atom_site_type_symbol
 _atom_site_label
 _atom_site_symmetry_multiplicity
 _atom_site_fract_x
 _atom_site_fract_y
 _atom_site_fract_z
 _atom_site_occupancy
  Ba  Ba0  1  0.067696  0.000000  0.750000  1
  Ba  Ba1  1  0.932304  0.000000  0.250000  1
  Rh  Rh2  1  0.000000  0.500000  0.500000  1
  Rh  Rh3  1  0.500000  0.000000  0.000000  1
  Rh  Rh4  1  0.500000  0.000000  0.500000  1
  Rh  Rh5  1  0.000000  0.500000  0.000000  1
  Se  Se6  1  0.491851  0.348536  0.180341  1
  Se  Se7  1  0.009400  0.748000  0.593881  1
  Se  Se8  1  0.009400  0.252000  0.906119  1
  Se  Se9  1  0.990600  0.252000  0.406119  1
  Se  Se10  1  0.508149  0.348536  0.680341  1
  Se  Se11  1  0.508149  0.651464  0.819659  1
  Se  Se12  1  0.491851  0.651464  0.319659  1
  Se  Se13  1  0.990600  0.748000  0.093881  1
  O  O14  1  0.207192  0.705643  0.348643  1
  O  O15  1  0.292894  0.803515  0.030362  1
  O  O16  1  0.792808  0.705643  0.848643  1
  O  O17  1  0.817905  0.920639  0.961554  1
  O  O18  1  0.707106  0.803515  0.530362  1
  O  O19  1  0.314882  0.346060  0.582019  1
  O  O20  1  0.182095  0.079361  0.038446  1
  O  O21  1  0.685118  0.346060  0.082019  1
  O  O22  1  0.792808  0.294357  0.651357  1
  O  O23  1  0.585022  0.138442  0.314246  1
  O  O24  1  0.685118  0.653940  0.417981  1
  O  O25  1  0.292894  0.196485  0.469638  1
  O  O26  1  0.585022  0.861558  0.185754  1
  O  O27  1  0.817905  0.079361  0.538446  1
  O  O28  1  0.414978  0.138442  0.814246  1
  O  O29  1  0.062972  0.431373  0.893158  1
  O  O30  1  0.707106  0.196485  0.969638  1
  O  O31  1  0.937028  0.431373  0.393158  1
  O  O32  1  0.062972  0.568627  0.606842  1
  O  O33  1  0.414978  0.861558  0.685754  1
  O  O34  1  0.314882  0.653940  0.917981  1
  O  O35  1  0.182095  0.920639  0.461554  1
  O  O36  1  0.937028  0.568627  0.106842  1
  O  O37  1  0.207192  0.294357  0.151357  1
