# generated using pymatgen
data_Hf9TiRe3As
_symmetry_space_group_name_H-M   'P 1'
_cell_length_a   8.65481600
_cell_length_b   8.65481641
_cell_length_c   8.58430600
_cell_angle_alpha   90.00000000
_cell_angle_beta   90.00000000
_cell_angle_gamma   119.99999841
_symmetry_Int_Tables_number   1
_chemical_formula_structural   Hf9TiRe3As
_chemical_formula_sum   'Hf18 Ti2 Re6 As2'
_cell_volume   556.86705895
_cell_formula_units_Z   2
loop_
 _symmetry_equiv_pos_site_id
 _symmetry_equiv_pos_as_xyz
  1  'x, y, z'
loop_
 _atom_site_type_symbol
 _atom_site_label
 _atom_site_symmetry_multiplicity
 _atom_site_fract_x
 _atom_site_fract_y
 _atom_site_fract_z
 _atom_site_occupancy
  Hf  Hf0  1  0.193926  0.806074  0.452874  1
  Hf  Hf1  1  0.193926  0.387850  0.452874  1
  Hf  Hf2  1  0.612150  0.806074  0.452874  1
  Hf  Hf3  1  0.806074  0.193926  0.547126  1
  Hf  Hf4  1  0.806074  0.612150  0.547126  1
  Hf  Hf5  1  0.387850  0.193926  0.547126  1
  Hf  Hf6  1  0.806074  0.193926  0.952874  1
  Hf  Hf7  1  0.806074  0.612150  0.952874  1
  Hf  Hf8  1  0.387850  0.193926  0.952874  1
  Hf  Hf9  1  0.193926  0.806074  0.047126  1
  Hf  Hf10  1  0.193926  0.387850  0.047126  1
  Hf  Hf11  1  0.612150  0.806074  0.047126  1
  Hf  Hf12  1  0.541419  0.458581  0.250000  1
  Hf  Hf13  1  0.541419  0.082837  0.250000  1
  Hf  Hf14  1  0.917163  0.458581  0.250000  1
  Hf  Hf15  1  0.458581  0.541419  0.750000  1
  Hf  Hf16  1  0.458581  0.917163  0.750000  1
  Hf  Hf17  1  0.082837  0.541419  0.750000  1
  Ti  Ti18  1  0.000000  0.000000  0.500000  1
  Ti  Ti19  1  0.000000  0.000000  0.000000  1
  Re  Re20  1  0.888711  0.111289  0.250000  1
  Re  Re21  1  0.888711  0.777420  0.250000  1
  Re  Re22  1  0.222580  0.111289  0.250000  1
  Re  Re23  1  0.111289  0.888711  0.750000  1
  Re  Re24  1  0.111289  0.222580  0.750000  1
  Re  Re25  1  0.777420  0.888711  0.750000  1
  As  As26  1  0.333333  0.666667  0.250000  1
  As  As27  1  0.666667  0.333333  0.750000  1
