# generated using pymatgen
data_Nd2YEr5(CdPt)2
_symmetry_space_group_name_H-M   'P 1'
_cell_length_a   9.69756688
_cell_length_b   9.69756649
_cell_length_c   9.72573800
_cell_angle_alpha   59.90384966
_cell_angle_beta   59.90385099
_cell_angle_gamma   60.19229441
_symmetry_Int_Tables_number   1
_chemical_formula_structural   Nd2YEr5(CdPt)2
_chemical_formula_sum   'Nd4 Y2 Er10 Cd4 Pt4'
_cell_volume   646.73408331
_cell_formula_units_Z   2
loop_
 _symmetry_equiv_pos_site_id
 _symmetry_equiv_pos_as_xyz
  1  'x, y, z'
loop_
 _atom_site_type_symbol
 _atom_site_label
 _atom_site_symmetry_multiplicity
 _atom_site_fract_x
 _atom_site_fract_y
 _atom_site_fract_z
 _atom_site_occupancy
  Nd  Nd0  1  0.936684  0.563316  0.563316  1
  Nd  Nd1  1  0.563316  0.936684  0.936684  1
  Nd  Nd2  1  0.563316  0.936684  0.563316  1
  Nd  Nd3  1  0.936684  0.563316  0.936684  1
  Y  Y4  1  0.558926  0.558926  0.941074  1
  Y  Y5  1  0.941074  0.941074  0.558926  1
  Er  Er6  1  0.351277  0.351277  0.350914  1
  Er  Er7  1  0.351277  0.351277  0.946530  1
  Er  Er8  1  0.350914  0.946530  0.351277  1
  Er  Er9  1  0.946530  0.350914  0.351277  1
  Er  Er10  1  0.811715  0.188285  0.188285  1
  Er  Er11  1  0.188285  0.811715  0.811715  1
  Er  Er12  1  0.188285  0.811715  0.188285  1
  Er  Er13  1  0.811715  0.188285  0.811715  1
  Er  Er14  1  0.187870  0.187870  0.812130  1
  Er  Er15  1  0.812130  0.812130  0.187870  1
  Cd  Cd16  1  0.579257  0.579257  0.582687  1
  Cd  Cd17  1  0.579257  0.579257  0.258799  1
  Cd  Cd18  1  0.582687  0.258799  0.579257  1
  Cd  Cd19  1  0.258799  0.582687  0.579257  1
  Pt  Pt20  1  0.142162  0.142162  0.144617  1
  Pt  Pt21  1  0.142162  0.142162  0.571060  1
  Pt  Pt22  1  0.144617  0.571060  0.142162  1
  Pt  Pt23  1  0.571060  0.144617  0.142162  1
