# generated using pymatgen
data_Dy2Ho2GaCo4
_symmetry_space_group_name_H-M   'P 1'
_cell_length_a   5.47333707
_cell_length_b   5.47333763
_cell_length_c   8.88691503
_cell_angle_alpha   70.81717969
_cell_angle_beta   70.81717595
_cell_angle_gamma   43.28804977
_symmetry_Int_Tables_number   1
_chemical_formula_structural   Dy2Ho2GaCo4
_chemical_formula_sum   'Dy2 Ho2 Ga1 Co4'
_cell_volume   170.75773344
_cell_formula_units_Z   1
loop_
 _symmetry_equiv_pos_site_id
 _symmetry_equiv_pos_as_xyz
  1  'x, y, z'
loop_
 _atom_site_type_symbol
 _atom_site_label
 _atom_site_symmetry_multiplicity
 _atom_site_fract_x
 _atom_site_fract_y
 _atom_site_fract_z
 _atom_site_occupancy
  Dy  Dy0  1  0.746024  0.746024  0.661973  1
  Dy  Dy1  1  0.253976  0.253976  0.338027  1
  Ho  Ho2  1  0.391842  0.391842  0.885154  1
  Ho  Ho3  1  0.608158  0.608158  0.114846  1
  Ga  Ga4  1  0.500000  0.500000  0.500000  1
  Co  Co5  1  0.036959  0.036959  0.645718  1
  Co  Co6  1  0.963041  0.963041  0.354282  1
  Co  Co7  1  0.092748  0.092748  0.880017  1
  Co  Co8  1  0.907252  0.907252  0.119983  1
