# generated using pymatgen
data_Al2Zn(Co10B3)2
_symmetry_space_group_name_H-M   'P 1'
_cell_length_a   7.39279670
_cell_length_b   7.39369016
_cell_length_c   7.39372113
_cell_angle_alpha   59.98960375
_cell_angle_beta   60.00994714
_cell_angle_gamma   60.00737057
_symmetry_Int_Tables_number   1
_chemical_formula_structural   Al2Zn(Co10B3)2
_chemical_formula_sum   'Al2 Zn1 Co20 B6'
_cell_volume   285.78587672
_cell_formula_units_Z   1
loop_
 _symmetry_equiv_pos_site_id
 _symmetry_equiv_pos_as_xyz
  1  'x, y, z'
loop_
 _atom_site_type_symbol
 _atom_site_label
 _atom_site_symmetry_multiplicity
 _atom_site_fract_x
 _atom_site_fract_y
 _atom_site_fract_z
 _atom_site_occupancy
  Al  Al0  1  0.750075  0.749940  0.750055  1
  Al  Al1  1  0.249925  0.250060  0.249945  1
  Zn  Zn2  1  0.000000  0.000000  0.000000  1
  Co  Co3  1  0.617504  0.617580  0.147377  1
  Co  Co4  1  0.617510  0.147415  0.617550  1
  Co  Co5  1  0.147374  0.617539  0.617505  1
  Co  Co6  1  0.617549  0.617525  0.617511  1
  Co  Co7  1  0.382496  0.382420  0.852623  1
  Co  Co8  1  0.382490  0.852585  0.382450  1
  Co  Co9  1  0.852626  0.382461  0.382495  1
  Co  Co10  1  0.382451  0.382475  0.382489  1
  Co  Co11  1  0.000018  0.000000  0.341132  1
  Co  Co12  1  0.658857  0.999996  0.341139  1
  Co  Co13  1  0.000012  0.658851  0.341132  1
  Co  Co14  1  0.658855  0.341158  0.999985  1
  Co  Co15  1  0.000005  0.341137  0.999997  1
  Co  Co16  1  0.999988  0.341149  0.658868  1
  Co  Co17  1  0.341145  0.658842  0.000015  1
  Co  Co18  1  0.341143  0.000004  0.658861  1
  Co  Co19  1  0.341139  0.000004  0.000010  1
  Co  Co20  1  0.999982  0.000000  0.658868  1
  Co  Co21  1  0.999995  0.658863  0.000003  1
  Co  Co22  1  0.658861  0.999996  0.999990  1
  B  B23  1  0.722996  0.722933  0.277006  1
  B  B24  1  0.277029  0.722969  0.277034  1
  B  B25  1  0.722956  0.277105  0.277046  1
  B  B26  1  0.277004  0.277067  0.722994  1
  B  B27  1  0.722971  0.277031  0.722966  1
  B  B28  1  0.277044  0.722895  0.722954  1
