# generated using pymatgen
data_Tb6Ho9Er(CdIr)4
_symmetry_space_group_name_H-M   'P 1'
_cell_length_a   9.62487804
_cell_length_b   9.62487769
_cell_length_c   9.62708900
_cell_angle_alpha   59.99239622
_cell_angle_beta   59.99239741
_cell_angle_gamma   59.97202150
_symmetry_Int_Tables_number   1
_chemical_formula_structural   Tb6Ho9Er(CdIr)4
_chemical_formula_sum   'Tb6 Ho9 Er1 Cd4 Ir4'
_cell_volume   630.41803670
_cell_formula_units_Z   1
loop_
 _symmetry_equiv_pos_site_id
 _symmetry_equiv_pos_as_xyz
  1  'x, y, z'
loop_
 _atom_site_type_symbol
 _atom_site_label
 _atom_site_symmetry_multiplicity
 _atom_site_fract_x
 _atom_site_fract_y
 _atom_site_fract_z
 _atom_site_occupancy
  Tb  Tb0  1  0.188470  0.811669  0.811550  1
  Tb  Tb1  1  0.811669  0.188470  0.188312  1
  Tb  Tb2  1  0.811669  0.188470  0.811550  1
  Tb  Tb3  1  0.188470  0.811669  0.188312  1
  Tb  Tb4  1  0.811673  0.811673  0.188327  1
  Tb  Tb5  1  0.188420  0.188420  0.811580  1
  Ho  Ho6  1  0.598923  0.598923  0.598606  1
  Ho  Ho7  1  0.598923  0.598923  0.203548  1
  Ho  Ho8  1  0.599371  0.203033  0.598799  1
  Ho  Ho9  1  0.203033  0.599371  0.598799  1
  Ho  Ho10  1  0.060919  0.438413  0.439105  1
  Ho  Ho11  1  0.438413  0.060919  0.061563  1
  Ho  Ho12  1  0.438413  0.060919  0.439105  1
  Ho  Ho13  1  0.060919  0.438413  0.061563  1
  Ho  Ho14  1  0.438841  0.438841  0.061159  1
  Er  Er15  1  0.061380  0.061380  0.438620  1
  Cd  Cd16  1  0.830588  0.830588  0.830594  1
  Cd  Cd17  1  0.830588  0.830588  0.508231  1
  Cd  Cd18  1  0.830661  0.507859  0.830740  1
  Cd  Cd19  1  0.507859  0.830661  0.830740  1
  Ir  Ir20  1  0.392020  0.392020  0.391445  1
  Ir  Ir21  1  0.392020  0.392020  0.824515  1
  Ir  Ir22  1  0.391889  0.824870  0.391620  1
  Ir  Ir23  1  0.824870  0.391889  0.391620  1
