# generated using pymatgen
data_Nd6ZrCo17(SiP2)4
_symmetry_space_group_name_H-M   'P 1'
_cell_length_a   3.77963300
_cell_length_b   10.72744700
_cell_length_c   12.60182200
_cell_angle_alpha   90.00000000
_cell_angle_beta   90.00000000
_cell_angle_gamma   90.00000000
_symmetry_Int_Tables_number   1
_chemical_formula_structural   Nd6ZrCo17(SiP2)4
_chemical_formula_sum   'Nd6 Zr1 Co17 Si4 P8'
_cell_volume   510.95111433
_cell_formula_units_Z   1
loop_
 _symmetry_equiv_pos_site_id
 _symmetry_equiv_pos_as_xyz
  1  'x, y, z'
loop_
 _atom_site_type_symbol
 _atom_site_label
 _atom_site_symmetry_multiplicity
 _atom_site_fract_x
 _atom_site_fract_y
 _atom_site_fract_z
 _atom_site_occupancy
  Nd  Nd0  1  0.000000  0.500000  0.525651  1
  Nd  Nd1  1  0.500000  0.000000  0.475007  1
  Nd  Nd2  1  0.500000  0.819280  0.208177  1
  Nd  Nd3  1  0.500000  0.180720  0.208177  1
  Nd  Nd4  1  0.000000  0.682769  0.797568  1
  Nd  Nd5  1  0.000000  0.317231  0.797568  1
  Zr  Zr6  1  0.500000  0.500000  0.151950  1
  Co  Co7  1  0.000000  0.000000  0.834677  1
  Co  Co8  1  0.500000  0.500000  0.707650  1
  Co  Co9  1  0.000000  0.000000  0.297525  1
  Co  Co10  1  0.000000  0.500000  0.984134  1
  Co  Co11  1  0.500000  0.000000  0.023800  1
  Co  Co12  1  0.500000  0.326849  0.991023  1
  Co  Co13  1  0.500000  0.673151  0.991023  1
  Co  Co14  1  0.000000  0.159635  0.003619  1
  Co  Co15  1  0.000000  0.840365  0.003619  1
  Co  Co16  1  0.500000  0.294618  0.431133  1
  Co  Co17  1  0.500000  0.705382  0.431133  1
  Co  Co18  1  0.000000  0.195865  0.568837  1
  Co  Co19  1  0.000000  0.804135  0.568837  1
  Co  Co20  1  0.500000  0.886212  0.704674  1
  Co  Co21  1  0.500000  0.113788  0.704674  1
  Co  Co22  1  0.000000  0.620019  0.298959  1
  Co  Co23  1  0.000000  0.379981  0.298959  1
  Si  Si24  1  0.500000  0.303417  0.615324  1
  Si  Si25  1  0.500000  0.696583  0.615324  1
  Si  Si26  1  0.500000  0.862467  0.890246  1
  Si  Si27  1  0.500000  0.137533  0.890246  1
  P  P28  1  0.500000  0.500000  0.887418  1
  P  P29  1  0.000000  0.000000  0.115676  1
  P  P30  1  0.500000  0.500000  0.355491  1
  P  P31  1  0.000000  0.000000  0.657715  1
  P  P32  1  0.000000  0.194665  0.388821  1
  P  P33  1  0.000000  0.805335  0.388821  1
  P  P34  1  0.000000  0.663690  0.093272  1
  P  P35  1  0.000000  0.336310  0.093272  1
