# generated using pymatgen
data_NdCd3(Os2O7)2
_symmetry_space_group_name_H-M   'P 1'
_cell_length_a   7.28801017
_cell_length_b   7.35073314
_cell_length_c   7.28801000
_cell_angle_alpha   60.28186720
_cell_angle_beta   60.00000077
_cell_angle_gamma   60.28186954
_symmetry_Int_Tables_number   1
_chemical_formula_structural   NdCd3(Os2O7)2
_chemical_formula_sum   'Nd1 Cd3 Os4 O14'
_cell_volume   277.24951616
_cell_formula_units_Z   1
loop_
 _symmetry_equiv_pos_site_id
 _symmetry_equiv_pos_as_xyz
  1  'x, y, z'
loop_
 _atom_site_type_symbol
 _atom_site_label
 _atom_site_symmetry_multiplicity
 _atom_site_fract_x
 _atom_site_fract_y
 _atom_site_fract_z
 _atom_site_occupancy
  Nd  Nd0  1  0.125000  0.625000  0.125000  1
  Cd  Cd1  1  0.125000  0.125000  0.125000  1
  Cd  Cd2  1  0.625000  0.125000  0.125000  1
  Cd  Cd3  1  0.125000  0.125000  0.625000  1
  Os  Os4  1  0.625000  0.625000  0.625000  1
  Os  Os5  1  0.125000  0.625000  0.625000  1
  Os  Os6  1  0.625000  0.125000  0.625000  1
  Os  Os7  1  0.625000  0.625000  0.125000  1
  O  O8  1  0.255365  0.233905  0.255365  1
  O  O9  1  0.994635  0.016095  0.994635  1
  O  O10  1  0.560905  0.937401  0.560905  1
  O  O11  1  0.301544  0.695770  0.301544  1
  O  O12  1  0.548859  0.554230  0.948456  1
  O  O13  1  0.948456  0.554230  0.548859  1
  O  O14  1  0.560905  0.937401  0.940788  1
  O  O15  1  0.940788  0.937401  0.560905  1
  O  O16  1  0.948456  0.554230  0.948456  1
  O  O17  1  0.689095  0.312599  0.309212  1
  O  O18  1  0.301544  0.695770  0.701141  1
  O  O19  1  0.689095  0.312599  0.689095  1
  O  O20  1  0.309212  0.312599  0.689095  1
  O  O21  1  0.701141  0.695770  0.301544  1
