# generated using pymatgen
data_Dy4Sc4B24IrW3
_symmetry_space_group_name_H-M   'P 1'
_cell_length_a   3.52513700
_cell_length_b   9.11417690
_cell_length_c   11.51404414
_cell_angle_alpha   90.05089066
_cell_angle_beta   90.00000000
_cell_angle_gamma   90.00000000
_symmetry_Int_Tables_number   1
_chemical_formula_structural   Dy4Sc4B24IrW3
_chemical_formula_sum   'Dy4 Sc4 B24 Ir1 W3'
_cell_volume   369.93137962
_cell_formula_units_Z   1
loop_
 _symmetry_equiv_pos_site_id
 _symmetry_equiv_pos_as_xyz
  1  'x, y, z'
loop_
 _atom_site_type_symbol
 _atom_site_label
 _atom_site_symmetry_multiplicity
 _atom_site_fract_x
 _atom_site_fract_y
 _atom_site_fract_z
 _atom_site_occupancy
  Dy  Dy0  1  0.500000  0.317912  0.414776  1
  Dy  Dy1  1  0.500000  0.680819  0.587411  1
  Dy  Dy2  1  0.500000  0.179791  0.913163  1
  Dy  Dy3  1  0.500000  0.821844  0.083509  1
  Sc  Sc4  1  0.500000  0.443634  0.127032  1
  Sc  Sc5  1  0.500000  0.555416  0.873068  1
  Sc  Sc6  1  0.500000  0.053809  0.626749  1
  Sc  Sc7  1  0.500000  0.945218  0.372608  1
  B  B8  1  0.000000  0.094752  0.473600  1
  B  B9  1  0.000000  0.901068  0.524863  1
  B  B10  1  0.000000  0.404058  0.974643  1
  B  B11  1  0.000000  0.597135  0.028129  1
  B  B12  1  0.000000  0.128853  0.320510  1
  B  B13  1  0.000000  0.870600  0.680434  1
  B  B14  1  0.000000  0.371841  0.818867  1
  B  B15  1  0.000000  0.629470  0.182492  1
  B  B16  1  0.000000  0.052065  0.065989  1
  B  B17  1  0.000000  0.947437  0.934692  1
  B  B18  1  0.000000  0.448761  0.563645  1
  B  B19  1  0.000000  0.556736  0.432462  1
  B  B20  1  0.000000  0.483380  0.286010  1
  B  B21  1  0.000000  0.522116  0.714806  1
  B  B22  1  0.000000  0.021421  0.784169  1
  B  B23  1  0.000000  0.976991  0.215300  1
  B  B24  1  0.000000  0.257171  0.080002  1
  B  B25  1  0.000000  0.743281  0.921022  1
  B  B26  1  0.000000  0.242050  0.578974  1
  B  B27  1  0.000000  0.753916  0.418663  1
  B  B28  1  0.000000  0.299370  0.237372  1
  B  B29  1  0.000000  0.702267  0.764844  1
  B  B30  1  0.000000  0.202738  0.735408  1
  B  B31  1  0.000000  0.793208  0.265048  1
  Ir  Ir32  1  0.500000  0.640728  0.318437  1
  W  W33  1  0.500000  0.141377  0.182795  1
  W  W34  1  0.500000  0.859106  0.818602  1
  W  W35  1  0.500000  0.359659  0.679907  1
