# generated using pymatgen
data_Sc4Co17Cu2P12Ru
_symmetry_space_group_name_H-M   'P 1'
_cell_length_a   3.62414900
_cell_length_b   10.18141486
_cell_length_c   11.74001198
_cell_angle_alpha   90.19408323
_cell_angle_beta   90.00000000
_cell_angle_gamma   90.00000000
_symmetry_Int_Tables_number   1
_chemical_formula_structural   Sc4Co17Cu2P12Ru
_chemical_formula_sum   'Sc4 Co17 Cu2 P12 Ru1'
_cell_volume   433.19179968
_cell_formula_units_Z   1
loop_
 _symmetry_equiv_pos_site_id
 _symmetry_equiv_pos_as_xyz
  1  'x, y, z'
loop_
 _atom_site_type_symbol
 _atom_site_label
 _atom_site_symmetry_multiplicity
 _atom_site_fract_x
 _atom_site_fract_y
 _atom_site_fract_z
 _atom_site_occupancy
  Sc  Sc0  1  0.250000  0.580038  0.705554  1
  Sc  Sc1  1  0.250000  0.922696  0.199712  1
  Sc  Sc2  1  0.750000  0.420855  0.298701  1
  Sc  Sc3  1  0.750000  0.081743  0.793023  1
  Co  Co4  1  0.750000  0.214745  0.508130  1
  Co  Co5  1  0.250000  0.406696  0.484613  1
  Co  Co6  1  0.250000  0.093845  0.982020  1
  Co  Co7  1  0.750000  0.592253  0.517245  1
  Co  Co8  1  0.750000  0.910069  0.014913  1
  Co  Co9  1  0.250000  0.222215  0.179156  1
  Co  Co10  1  0.250000  0.277090  0.671985  1
  Co  Co11  1  0.750000  0.778556  0.826939  1
  Co  Co12  1  0.750000  0.724452  0.322159  1
  Co  Co13  1  0.250000  0.880491  0.701131  1
  Co  Co14  1  0.250000  0.615589  0.203128  1
  Co  Co15  1  0.750000  0.119119  0.300860  1
  Co  Co16  1  0.750000  0.380773  0.797067  1
  Co  Co17  1  0.250000  0.459953  0.931999  1
  Co  Co18  1  0.250000  0.035238  0.431325  1
  Co  Co19  1  0.750000  0.534154  0.070589  1
  Co  Co20  1  0.750000  0.961983  0.567733  1
  Cu  Cu21  1  0.250000  0.786883  0.490827  1
  Cu  Cu22  1  0.750000  0.285867  0.008022  1
  P  P23  1  0.250000  0.421202  0.118919  1
  P  P24  1  0.250000  0.077885  0.613844  1
  P  P25  1  0.750000  0.576544  0.885324  1
  P  P26  1  0.750000  0.924192  0.380949  1
  P  P27  1  0.250000  0.263228  0.859657  1
  P  P28  1  0.250000  0.235055  0.367881  1
  P  P29  1  0.750000  0.735200  0.135091  1
  P  P30  1  0.750000  0.763201  0.639359  1
  P  P31  1  0.250000  0.596680  0.390512  1
  P  P32  1  0.250000  0.906587  0.888847  1
  P  P33  1  0.750000  0.400596  0.607873  1
  P  P34  1  0.750000  0.099459  0.111771  1
  Ru  Ru35  1  0.250000  0.714863  0.993143  1
