# generated using pymatgen
data_Ac12Ni3OsI12
_symmetry_space_group_name_H-M   'P 1'
_cell_length_a   11.35907494
_cell_length_b   11.28820972
_cell_length_c   11.28821045
_cell_angle_alpha   109.34370404
_cell_angle_beta   109.59844463
_cell_angle_gamma   109.59844011
_symmetry_Int_Tables_number   1
_chemical_formula_structural   Ac12Ni3OsI12
_chemical_formula_sum   'Ac12 Ni3 Os1 I12'
_cell_volume   1112.46646419
_cell_formula_units_Z   1
loop_
 _symmetry_equiv_pos_site_id
 _symmetry_equiv_pos_as_xyz
  1  'x, y, z'
loop_
 _atom_site_type_symbol
 _atom_site_label
 _atom_site_symmetry_multiplicity
 _atom_site_fract_x
 _atom_site_fract_y
 _atom_site_fract_z
 _atom_site_occupancy
  Ac  Ac0  1  0.459019  0.482557  0.228126  1
  Ac  Ac1  1  0.750000  0.228380  0.271620  1
  Ac  Ac2  1  0.750000  0.022584  0.477416  1
  Ac  Ac3  1  0.227416  0.454830  0.477416  1
  Ac  Ac4  1  0.269106  0.745569  0.228126  1
  Ac  Ac5  1  0.040981  0.271874  0.017443  1
  Ac  Ac6  1  0.021620  0.043241  0.271620  1
  Ac  Ac7  1  0.476463  0.745569  0.017443  1
  Ac  Ac8  1  0.478380  0.228380  0.456759  1
  Ac  Ac9  1  0.023537  0.482557  0.754431  1
  Ac  Ac10  1  0.272584  0.022584  0.045170  1
  Ac  Ac11  1  0.230894  0.271874  0.754431  1
  Ni  Ni12  1  0.250000  0.249726  0.250274  1
  Ni  Ni13  1  0.500274  0.000550  0.250274  1
  Ni  Ni14  1  0.999726  0.249726  0.499450  1
  Os  Os15  1  0.250000  0.500000  0.000000  1
  I  I16  1  0.250000  0.762023  0.737977  1
  I  I17  1  0.523234  0.509981  0.759856  1
  I  I18  1  0.976766  0.740144  0.990019  1
  I  I19  1  0.736623  0.249876  0.759856  1
  I  I20  1  0.987977  0.975955  0.737977  1
  I  I21  1  0.250000  0.989317  0.510683  1
  I  I22  1  0.760683  0.521367  0.510683  1
  I  I23  1  0.513253  0.249876  0.990019  1
  I  I24  1  0.763377  0.740144  0.250124  1
  I  I25  1  0.739317  0.989317  0.978633  1
  I  I26  1  0.986747  0.509981  0.250124  1
  I  I27  1  0.512023  0.762023  0.524045  1
