# generated using pymatgen
data_Tb5Cr3(P3Ir4)4
_symmetry_space_group_name_H-M   'P 1'
_cell_length_a   12.65130200
_cell_length_b   12.65130157
_cell_length_c   3.96302200
_cell_angle_alpha   90.00000000
_cell_angle_beta   90.00000000
_cell_angle_gamma   119.99999590
_symmetry_Int_Tables_number   1
_chemical_formula_structural   Tb5Cr3(P3Ir4)4
_chemical_formula_sum   'Tb5 Cr3 P12 Ir16'
_cell_volume   549.32272257
_cell_formula_units_Z   1
loop_
 _symmetry_equiv_pos_site_id
 _symmetry_equiv_pos_as_xyz
  1  'x, y, z'
loop_
 _atom_site_type_symbol
 _atom_site_label
 _atom_site_symmetry_multiplicity
 _atom_site_fract_x
 _atom_site_fract_y
 _atom_site_fract_z
 _atom_site_occupancy
  Tb  Tb0  1  0.333333  0.666667  0.500000  1
  Tb  Tb1  1  0.666667  0.333333  0.500000  1
  Tb  Tb2  1  0.000000  0.810644  0.000000  1
  Tb  Tb3  1  0.189356  0.189356  0.000000  1
  Tb  Tb4  1  0.810644  0.000000  0.000000  1
  Cr  Cr5  1  0.000000  0.453296  0.500000  1
  Cr  Cr6  1  0.546704  0.546704  0.500000  1
  Cr  Cr7  1  0.453296  0.000000  0.500000  1
  P  P8  1  0.000000  0.632221  0.500000  1
  P  P9  1  0.367779  0.367779  0.500000  1
  P  P10  1  0.632221  0.000000  0.500000  1
  P  P11  1  0.516340  0.684210  0.000000  1
  P  P12  1  0.315790  0.832130  0.000000  1
  P  P13  1  0.167870  0.483660  0.000000  1
  P  P14  1  0.483660  0.167870  0.000000  1
  P  P15  1  0.684210  0.516340  0.000000  1
  P  P16  1  0.832130  0.315790  0.000000  1
  P  P17  1  0.000000  0.177782  0.500000  1
  P  P18  1  0.822218  0.822218  0.500000  1
  P  P19  1  0.177782  0.000000  0.500000  1
  Ir  Ir20  1  0.509474  0.868689  0.000000  1
  Ir  Ir21  1  0.131311  0.640785  0.000000  1
  Ir  Ir22  1  0.359215  0.490526  0.000000  1
  Ir  Ir23  1  0.490526  0.359215  0.000000  1
  Ir  Ir24  1  0.868689  0.509474  0.000000  1
  Ir  Ir25  1  0.640785  0.131311  0.000000  1
  Ir  Ir26  1  0.000000  0.287323  0.000000  1
  Ir  Ir27  1  0.712677  0.712677  0.000000  1
  Ir  Ir28  1  0.287323  0.000000  0.000000  1
  Ir  Ir29  1  0.623663  0.802587  0.500000  1
  Ir  Ir30  1  0.197413  0.821076  0.500000  1
  Ir  Ir31  1  0.178924  0.376337  0.500000  1
  Ir  Ir32  1  0.376337  0.178924  0.500000  1
  Ir  Ir33  1  0.802587  0.623663  0.500000  1
  Ir  Ir34  1  0.821076  0.197413  0.500000  1
  Ir  Ir35  1  0.000000  0.000000  0.500000  1
