# generated using pymatgen
data_As(PO3)3
_symmetry_space_group_name_H-M   'P 1'
_cell_length_a   5.25938795
_cell_length_b   7.09502703
_cell_length_c   10.84120226
_cell_angle_alpha   98.27408574
_cell_angle_beta   92.13116522
_cell_angle_gamma   92.19866059
_symmetry_Int_Tables_number   1
_chemical_formula_structural   As(PO3)3
_chemical_formula_sum   'As2 P6 O18'
_cell_volume   399.66596877
_cell_formula_units_Z   2
loop_
 _symmetry_equiv_pos_site_id
 _symmetry_equiv_pos_as_xyz
  1  'x, y, z'
loop_
 _atom_site_type_symbol
 _atom_site_label
 _atom_site_symmetry_multiplicity
 _atom_site_fract_x
 _atom_site_fract_y
 _atom_site_fract_z
 _atom_site_occupancy
  As  As0  1  0.000000  0.000000  0.000000  1
  As  As1  1  0.000000  0.500000  0.500000  1
  P  P2  1  0.519426  0.959978  0.183749  1
  P  P3  1  0.243136  0.314633  0.230205  1
  P  P4  1  0.503056  0.328285  0.642541  1
  P  P5  1  0.480574  0.040022  0.816251  1
  P  P6  1  0.756864  0.685367  0.769795  1
  P  P7  1  0.496944  0.671715  0.357459  1
  O  O8  1  0.485491  0.181375  0.233268  1
  O  O9  1  0.106573  0.274611  0.103905  1
  O  O10  1  0.325655  0.886311  0.079721  1
  O  O11  1  0.221113  0.352792  0.625007  1
  O  O12  1  0.666949  0.331891  0.531311  1
  O  O13  1  0.203765  0.067414  0.841847  1
  O  O14  1  0.614647  0.479447  0.760442  1
  O  O15  1  0.893427  0.725389  0.896095  1
  O  O16  1  0.548373  0.130635  0.693010  1
  O  O17  1  0.778887  0.647208  0.374993  1
  O  O18  1  0.907432  0.700402  0.655413  1
  O  O19  1  0.796235  0.932586  0.158153  1
  O  O20  1  0.514509  0.818625  0.766732  1
  O  O21  1  0.674345  0.113689  0.920279  1
  O  O22  1  0.451627  0.869365  0.306990  1
  O  O23  1  0.092568  0.299598  0.344587  1
  O  O24  1  0.385353  0.520553  0.239558  1
  O  O25  1  0.333051  0.668109  0.468689  1
