# generated using pymatgen
data_Ca2Ga5Pd3
_symmetry_space_group_name_H-M   'P 1'
_cell_length_a   8.76763854
_cell_length_b   8.76763909
_cell_length_c   8.76763953
_cell_angle_alpha   141.31956092
_cell_angle_beta   108.06058129
_cell_angle_gamma   84.79806028
_symmetry_Int_Tables_number   1
_chemical_formula_structural   Ca2Ga5Pd3
_chemical_formula_sum   'Ca4 Ga10 Pd6'
_cell_volume   387.25885639
_cell_formula_units_Z   2
loop_
 _symmetry_equiv_pos_site_id
 _symmetry_equiv_pos_as_xyz
  1  'x, y, z'
loop_
 _atom_site_type_symbol
 _atom_site_label
 _atom_site_symmetry_multiplicity
 _atom_site_fract_x
 _atom_site_fract_y
 _atom_site_fract_z
 _atom_site_occupancy
  Ca  Ca0  1  0.632063  0.860700  0.771363  1
  Ca  Ca1  1  0.367937  0.139300  0.228637  1
  Ca  Ca2  1  0.089337  0.360700  0.728637  1
  Ca  Ca3  1  0.910663  0.639300  0.271363  1
  Ga  Ga4  1  0.289887  0.039887  0.750000  1
  Ga  Ga5  1  0.710113  0.960113  0.250000  1
  Ga  Ga6  1  0.710113  0.460113  0.750000  1
  Ga  Ga7  1  0.289887  0.539887  0.250000  1
  Ga  Ga8  1  0.427507  0.595785  0.831722  1
  Ga  Ga9  1  0.572493  0.404215  0.168278  1
  Ga  Ga10  1  0.764063  0.095785  0.668278  1
  Ga  Ga11  1  0.235937  0.904215  0.331722  1
  Ga  Ga12  1  0.000000  0.750000  0.750000  1
  Ga  Ga13  1  0.000000  0.250000  0.250000  1
  Pd  Pd14  1  0.238639  0.644093  0.594546  1
  Pd  Pd15  1  0.761361  0.355907  0.405454  1
  Pd  Pd16  1  0.049548  0.144093  0.905454  1
  Pd  Pd17  1  0.950452  0.855907  0.094546  1
  Pd  Pd18  1  0.500000  0.750000  0.250000  1
  Pd  Pd19  1  0.500000  0.250000  0.750000  1
