# generated using pymatgen
data_Ca2Pt2O6F
_symmetry_space_group_name_H-M   'P 1'
_cell_length_a   7.29886568
_cell_length_b   7.29886504
_cell_length_c   7.29886500
_cell_angle_alpha   59.99999564
_cell_angle_beta   59.99999853
_cell_angle_gamma   59.99999613
_symmetry_Int_Tables_number   1
_chemical_formula_structural   Ca2Pt2O6F
_chemical_formula_sum   'Ca4 Pt4 O12 F2'
_cell_volume   274.94827912
_cell_formula_units_Z   2
loop_
 _symmetry_equiv_pos_site_id
 _symmetry_equiv_pos_as_xyz
  1  'x, y, z'
loop_
 _atom_site_type_symbol
 _atom_site_label
 _atom_site_symmetry_multiplicity
 _atom_site_fract_x
 _atom_site_fract_y
 _atom_site_fract_z
 _atom_site_occupancy
  Ca  Ca0  1  0.125000  0.125000  0.625000  1
  Ca  Ca1  1  0.125000  0.625000  0.125000  1
  Ca  Ca2  1  0.625000  0.125000  0.125000  1
  Ca  Ca3  1  0.125000  0.125000  0.125000  1
  Pt  Pt4  1  0.625000  0.625000  0.125000  1
  Pt  Pt5  1  0.625000  0.125000  0.625000  1
  Pt  Pt6  1  0.125000  0.625000  0.625000  1
  Pt  Pt7  1  0.625000  0.625000  0.625000  1
  O  O8  1  0.290074  0.290074  0.709926  1
  O  O9  1  0.709926  0.709926  0.290074  1
  O  O10  1  0.959926  0.540074  0.540074  1
  O  O11  1  0.709926  0.290074  0.290074  1
  O  O12  1  0.540074  0.959926  0.540074  1
  O  O13  1  0.540074  0.540074  0.959926  1
  O  O14  1  0.290074  0.709926  0.709926  1
  O  O15  1  0.959926  0.540074  0.959926  1
  O  O16  1  0.540074  0.959926  0.959926  1
  O  O17  1  0.709926  0.290074  0.709926  1
  O  O18  1  0.290074  0.709926  0.290074  1
  O  O19  1  0.959926  0.959926  0.540074  1
  F  F20  1  0.250000  0.250000  0.250000  1
  F  F21  1  0.000000  0.000000  0.000000  1
