# generated using pymatgen
data_La5Zn2Ru2Rh
_symmetry_space_group_name_H-M   'P 1'
_cell_length_a   8.60933769
_cell_length_b   8.60933607
_cell_length_c   8.60933713
_cell_angle_alpha   109.72583472
_cell_angle_beta   109.46049951
_cell_angle_gamma   109.22771371
_symmetry_Int_Tables_number   1
_chemical_formula_structural   La5Zn2Ru2Rh
_chemical_formula_sum   'La10 Zn4 Ru4 Rh2'
_cell_volume   491.22333985
_cell_formula_units_Z   2
loop_
 _symmetry_equiv_pos_site_id
 _symmetry_equiv_pos_as_xyz
  1  'x, y, z'
loop_
 _atom_site_type_symbol
 _atom_site_label
 _atom_site_symmetry_multiplicity
 _atom_site_fract_x
 _atom_site_fract_y
 _atom_site_fract_z
 _atom_site_occupancy
  La  La0  1  0.250000  0.689877  0.439878  1
  La  La1  1  0.750000  0.810123  0.060123  1
  La  La2  1  0.438441  0.250000  0.688440  1
  La  La3  1  0.691173  0.441174  0.250000  1
  La  La4  1  0.061560  0.750000  0.811560  1
  La  La5  1  0.808827  0.058827  0.750000  1
  La  La6  1  0.216510  0.218225  0.219873  1
  La  La7  1  0.498354  0.996637  0.280127  1
  La  La8  1  0.283490  0.503364  0.001716  1
  La  La9  1  0.001647  0.281775  0.498285  1
  Zn  Zn10  1  0.501364  0.998625  0.912988  1
  Zn  Zn11  1  0.585637  0.588376  0.587012  1
  Zn  Zn12  1  0.914363  0.501376  0.002739  1
  Zn  Zn13  1  0.998637  0.911624  0.497262  1
  Ru  Ru14  1  0.874925  0.250001  0.124925  1
  Ru  Ru15  1  0.130171  0.880171  0.250001  1
  Ru  Ru16  1  0.625074  0.750000  0.375074  1
  Ru  Ru17  1  0.369828  0.619828  0.750000  1
  Rh  Rh18  1  0.250001  0.124509  0.874509  1
  Rh  Rh19  1  0.750000  0.375490  0.625490  1
