# generated using pymatgen
data_DyHo5(CI5)2
_symmetry_space_group_name_H-M   'P 1'
_cell_length_a   7.63636537
_cell_length_b   9.46258806
_cell_length_c   9.53691315
_cell_angle_alpha   107.04584119
_cell_angle_beta   96.45057341
_cell_angle_gamma   104.35802741
_symmetry_Int_Tables_number   1
_chemical_formula_structural   DyHo5(CI5)2
_chemical_formula_sum   'Dy1 Ho5 C2 I10'
_cell_volume   625.41506711
_cell_formula_units_Z   1
loop_
 _symmetry_equiv_pos_site_id
 _symmetry_equiv_pos_as_xyz
  1  'x, y, z'
loop_
 _atom_site_type_symbol
 _atom_site_label
 _atom_site_symmetry_multiplicity
 _atom_site_fract_x
 _atom_site_fract_y
 _atom_site_fract_z
 _atom_site_occupancy
  Dy  Dy0  1  0.103211  0.038009  0.781498  1
  Ho  Ho1  1  0.374133  0.131899  0.177209  1
  Ho  Ho2  1  0.897442  0.962233  0.217821  1
  Ho  Ho3  1  0.027761  0.743441  0.925329  1
  Ho  Ho4  1  0.972229  0.256500  0.074640  1
  Ho  Ho5  1  0.625789  0.868073  0.822813  1
  C  C6  1  0.907350  0.969717  0.958877  1
  C  C7  1  0.092185  0.030131  0.041999  1
  I  I8  1  0.191656  0.735228  0.648138  1
  I  I9  1  0.087245  0.365052  0.822251  1
  I  I10  1  0.456140  0.809576  0.093686  1
  I  I11  1  0.255048  0.084839  0.458444  1
  I  I12  1  0.544219  0.190552  0.906478  1
  I  I13  1  0.808476  0.264214  0.351722  1
  I  I14  1  0.345938  0.453648  0.273128  1
  I  I15  1  0.912680  0.635561  0.177939  1
  I  I16  1  0.654056  0.546349  0.726872  1
  I  I17  1  0.744442  0.914978  0.541156  1
