# generated using pymatgen
data_Y5Ho3Sc11Si16Ag
_symmetry_space_group_name_H-M   'P 1'
_cell_length_a   7.02870909
_cell_length_b   7.38927446
_cell_length_c   14.00881306
_cell_angle_alpha   89.99673933
_cell_angle_beta   90.00966853
_cell_angle_gamma   89.91627230
_symmetry_Int_Tables_number   1
_chemical_formula_structural   Y5Ho3Sc11Si16Ag
_chemical_formula_sum   'Y5 Ho3 Sc11 Si16 Ag1'
_cell_volume   727.57578362
_cell_formula_units_Z   1
loop_
 _symmetry_equiv_pos_site_id
 _symmetry_equiv_pos_as_xyz
  1  'x, y, z'
loop_
 _atom_site_type_symbol
 _atom_site_label
 _atom_site_symmetry_multiplicity
 _atom_site_fract_x
 _atom_site_fract_y
 _atom_site_fract_z
 _atom_site_occupancy
  Y  Y0  1  0.011062  0.175431  0.096405  1
  Y  Y1  1  0.990388  0.815632  0.901161  1
  Y  Y2  1  0.484619  0.673618  0.901695  1
  Y  Y3  1  0.990367  0.815544  0.598670  1
  Y  Y4  1  0.510520  0.323737  0.096340  1
  Ho  Ho5  1  0.011361  0.175837  0.403452  1
  Ho  Ho6  1  0.510697  0.323444  0.403547  1
  Ho  Ho7  1  0.484439  0.673829  0.598459  1
  Sc  Sc8  1  0.838530  0.497488  0.250185  1
  Sc  Sc9  1  0.340088  0.002970  0.250173  1
  Sc  Sc10  1  0.657523  0.997908  0.749879  1
  Sc  Sc11  1  0.326400  0.182480  0.626587  1
  Sc  Sc12  1  0.671004  0.823544  0.374968  1
  Sc  Sc13  1  0.170647  0.678579  0.374042  1
  Sc  Sc14  1  0.671012  0.823584  0.125217  1
  Sc  Sc15  1  0.835461  0.327047  0.626423  1
  Sc  Sc16  1  0.326321  0.182354  0.873248  1
  Sc  Sc17  1  0.835490  0.327017  0.873392  1
  Sc  Sc18  1  0.170530  0.678571  0.126082  1
  Si  Si19  1  0.028350  0.100332  0.749976  1
  Si  Si20  1  0.968930  0.887520  0.250172  1
  Si  Si21  1  0.467463  0.616733  0.250170  1
  Si  Si22  1  0.536968  0.384932  0.749826  1
  Si  Si23  1  0.288460  0.883264  0.749757  1
  Si  Si24  1  0.713838  0.127787  0.250414  1
  Si  Si25  1  0.212981  0.372314  0.250396  1
  Si  Si26  1  0.776335  0.628816  0.749782  1
  Si  Si27  1  0.161628  0.459972  0.531814  1
  Si  Si28  1  0.842565  0.535038  0.461839  1
  Si  Si29  1  0.344352  0.965603  0.462533  1
  Si  Si30  1  0.843158  0.535743  0.038052  1
  Si  Si31  1  0.657458  0.034165  0.540094  1
  Si  Si32  1  0.160900  0.460109  0.968096  1
  Si  Si33  1  0.657564  0.034175  0.959779  1
  Si  Si34  1  0.344649  0.965145  0.037448  1
  Ag  Ag35  1  0.157938  0.509738  0.749924  1
