# generated using pymatgen
data_Lu2B(Ir2Rh)2
_symmetry_space_group_name_H-M   'P 1'
_cell_length_a   5.78338054
_cell_length_b   5.77863583
_cell_length_c   5.77863560
_cell_angle_alpha   60.19479889
_cell_angle_beta   59.97285032
_cell_angle_gamma   59.97284348
_symmetry_Int_Tables_number   1
_chemical_formula_structural   Lu2B(Ir2Rh)2
_chemical_formula_sum   'Lu2 B1 Ir4 Rh2'
_cell_volume   136.70166460
_cell_formula_units_Z   1
loop_
 _symmetry_equiv_pos_site_id
 _symmetry_equiv_pos_as_xyz
  1  'x, y, z'
loop_
 _atom_site_type_symbol
 _atom_site_label
 _atom_site_symmetry_multiplicity
 _atom_site_fract_x
 _atom_site_fract_y
 _atom_site_fract_z
 _atom_site_occupancy
  Lu  Lu0  1  0.749868  0.749958  0.750305  1
  Lu  Lu1  1  0.250132  0.249695  0.250042  1
  B  B2  1  0.000000  0.002040  0.997960  1
  Ir  Ir3  1  0.741684  0.257142  0.259490  1
  Ir  Ir4  1  0.259043  0.259454  0.740546  1
  Ir  Ir5  1  0.740957  0.259454  0.740546  1
  Ir  Ir6  1  0.258316  0.740510  0.742858  1
  Rh  Rh7  1  0.742572  0.740874  0.259126  1
  Rh  Rh8  1  0.257428  0.740874  0.259126  1
