# generated using pymatgen
data_La5Ga3Co2
_symmetry_space_group_name_H-M   'P 1'
_cell_length_a   7.77550972
_cell_length_b   7.77550972
_cell_length_c   10.64907200
_cell_angle_alpha   90.00000000
_cell_angle_beta   90.00000000
_cell_angle_gamma   129.42829422
_symmetry_Int_Tables_number   1
_chemical_formula_structural   La5Ga3Co2
_chemical_formula_sum   'La10 Ga6 Co4'
_cell_volume   497.30523267
_cell_formula_units_Z   2
loop_
 _symmetry_equiv_pos_site_id
 _symmetry_equiv_pos_as_xyz
  1  'x, y, z'
loop_
 _atom_site_type_symbol
 _atom_site_label
 _atom_site_symmetry_multiplicity
 _atom_site_fract_x
 _atom_site_fract_y
 _atom_site_fract_z
 _atom_site_occupancy
  La  La0  1  0.878861  0.121139  0.000000  1
  La  La1  1  0.479693  0.062354  0.250000  1
  La  La2  1  0.121139  0.878861  0.500000  1
  La  La3  1  0.121139  0.878861  0.000000  1
  La  La4  1  0.520307  0.937646  0.750000  1
  La  La5  1  0.878861  0.121139  0.500000  1
  La  La6  1  0.404884  0.404884  0.750000  1
  La  La7  1  0.937646  0.520307  0.750000  1
  La  La8  1  0.062354  0.479693  0.250000  1
  La  La9  1  0.595116  0.595116  0.250000  1
  Ga  Ga10  1  0.899731  0.899731  0.750000  1
  Ga  Ga11  1  0.348627  0.651373  0.000000  1
  Ga  Ga12  1  0.348627  0.651373  0.500000  1
  Ga  Ga13  1  0.100269  0.100269  0.250000  1
  Ga  Ga14  1  0.651373  0.348627  0.000000  1
  Ga  Ga15  1  0.651373  0.348627  0.500000  1
  Co  Co16  1  0.666033  0.666033  0.565573  1
  Co  Co17  1  0.666033  0.666033  0.934427  1
  Co  Co18  1  0.333967  0.333967  0.065573  1
  Co  Co19  1  0.333967  0.333967  0.434427  1
