# generated using pymatgen
data_Li2Ac3AlIr2Pd
_symmetry_space_group_name_H-M   'P 1'
_cell_length_a   7.66544937
_cell_length_b   7.66544927
_cell_length_c   4.22915300
_cell_angle_alpha   90.00000000
_cell_angle_beta   90.00000000
_cell_angle_gamma   120.89040875
_symmetry_Int_Tables_number   1
_chemical_formula_structural   Li2Ac3AlIr2Pd
_chemical_formula_sum   'Li2 Ac3 Al1 Ir2 Pd1'
_cell_volume   213.25158752
_cell_formula_units_Z   1
loop_
 _symmetry_equiv_pos_site_id
 _symmetry_equiv_pos_as_xyz
  1  'x, y, z'
loop_
 _atom_site_type_symbol
 _atom_site_label
 _atom_site_symmetry_multiplicity
 _atom_site_fract_x
 _atom_site_fract_y
 _atom_site_fract_z
 _atom_site_occupancy
  Li  Li0  1  0.777911  0.004337  0.000000  1
  Li  Li1  1  0.004337  0.777911  0.000000  1
  Ac  Ac2  1  0.420517  0.993603  0.500000  1
  Ac  Ac3  1  0.993603  0.420517  0.500000  1
  Ac  Ac4  1  0.582995  0.582995  0.500000  1
  Al  Al5  1  0.239076  0.239076  0.000000  1
  Ir  Ir6  1  0.319692  0.626998  0.000000  1
  Ir  Ir7  1  0.626998  0.319692  0.000000  1
  Pd  Pd8  1  0.034872  0.034872  0.500000  1
