# generated using pymatgen
data_Li2BeGeS4
_symmetry_space_group_name_H-M   'P 1'
_cell_length_a   6.33258100
_cell_length_b   6.10851363
_cell_length_c   9.91618894
_cell_angle_alpha   51.73501306
_cell_angle_beta   90.00000000
_cell_angle_gamma   90.00000000
_symmetry_Int_Tables_number   1
_chemical_formula_structural   Li2BeGeS4
_chemical_formula_sum   'Li4 Be2 Ge2 S8'
_cell_volume   301.17330607
_cell_formula_units_Z   2
loop_
 _symmetry_equiv_pos_site_id
 _symmetry_equiv_pos_as_xyz
  1  'x, y, z'
loop_
 _atom_site_type_symbol
 _atom_site_label
 _atom_site_symmetry_multiplicity
 _atom_site_fract_x
 _atom_site_fract_y
 _atom_site_fract_z
 _atom_site_occupancy
  Li  Li0  1  0.667762  0.387749  0.130244  1
  Li  Li1  1  0.332238  0.387749  0.630244  1
  Li  Li2  1  0.838167  0.129535  0.888257  1
  Li  Li3  1  0.161833  0.129535  0.388257  1
  Be  Be4  1  0.316933  0.877745  0.135806  1
  Be  Be5  1  0.683067  0.877745  0.635806  1
  Ge  Ge6  1  0.817963  0.629381  0.384186  1
  Ge  Ge7  1  0.182037  0.629381  0.884186  1
  S  S8  1  0.843086  0.759170  0.860261  1
  S  S9  1  0.156914  0.759170  0.360261  1
  S  S10  1  0.637473  0.970809  0.149901  1
  S  S11  1  0.362527  0.970809  0.649901  1
  S  S12  1  0.800157  0.241079  0.404413  1
  S  S13  1  0.199843  0.241079  0.904413  1
  S  S14  1  0.312647  0.541531  0.122932  1
  S  S15  1  0.687353  0.541531  0.622932  1
