# generated using pymatgen
data_Lu7Sc3(GaSb)3
_symmetry_space_group_name_H-M   'P 1'
_cell_length_a   8.49451605
_cell_length_b   8.49874275
_cell_length_c   6.16573391
_cell_angle_alpha   89.90469222
_cell_angle_beta   89.99788937
_cell_angle_gamma   119.88634370
_symmetry_Int_Tables_number   1
_chemical_formula_structural   Lu7Sc3(GaSb)3
_chemical_formula_sum   'Lu7 Sc3 Ga3 Sb3'
_cell_volume   385.92611385
_cell_formula_units_Z   1
loop_
 _symmetry_equiv_pos_site_id
 _symmetry_equiv_pos_as_xyz
  1  'x, y, z'
loop_
 _atom_site_type_symbol
 _atom_site_label
 _atom_site_symmetry_multiplicity
 _atom_site_fract_x
 _atom_site_fract_y
 _atom_site_fract_z
 _atom_site_occupancy
  Lu  Lu0  1  0.326783  0.666930  0.004363  1
  Lu  Lu1  1  0.234974  0.000612  0.250943  1
  Lu  Lu2  1  0.242629  0.230033  0.749484  1
  Lu  Lu3  1  0.012044  0.770101  0.748634  1
  Lu  Lu4  1  0.013085  0.248628  0.250848  1
  Lu  Lu5  1  0.764517  0.750714  0.250146  1
  Lu  Lu6  1  0.754894  0.000123  0.749469  1
  Sc  Sc7  1  0.660699  0.333343  0.495759  1
  Sc  Sc8  1  0.660187  0.333197  0.004086  1
  Sc  Sc9  1  0.327320  0.666726  0.497031  1
  Ga  Ga10  1  0.996416  0.599467  0.252862  1
  Ga  Ga11  1  0.399034  0.398348  0.251907  1
  Ga  Ga12  1  0.401505  0.001832  0.747637  1
  Sb  Sb13  1  0.608286  0.002722  0.253107  1
  Sb  Sb14  1  0.602991  0.602628  0.747140  1
  Sb  Sb15  1  0.994634  0.394595  0.746584  1
