# generated using pymatgen
data_Zr6Mn5Fe11Si7
_symmetry_space_group_name_H-M   'P 1'
_cell_length_a   8.15860595
_cell_length_b   8.15860617
_cell_length_c   8.16298859
_cell_angle_alpha   60.01775727
_cell_angle_beta   60.01775158
_cell_angle_gamma   59.99999841
_symmetry_Int_Tables_number   1
_chemical_formula_structural   Zr6Mn5Fe11Si7
_chemical_formula_sum   'Zr6 Mn5 Fe11 Si7'
_cell_volume   384.31081647
_cell_formula_units_Z   1
loop_
 _symmetry_equiv_pos_site_id
 _symmetry_equiv_pos_as_xyz
  1  'x, y, z'
loop_
 _atom_site_type_symbol
 _atom_site_label
 _atom_site_symmetry_multiplicity
 _atom_site_fract_x
 _atom_site_fract_y
 _atom_site_fract_z
 _atom_site_occupancy
  Zr  Zr0  1  0.704103  0.704103  0.295868  1
  Zr  Zr1  1  0.295926  0.704103  0.295868  1
  Zr  Zr2  1  0.704103  0.295926  0.295868  1
  Zr  Zr3  1  0.298353  0.298353  0.702205  1
  Zr  Zr4  1  0.701088  0.298353  0.702205  1
  Zr  Zr5  1  0.298353  0.701088  0.702205  1
  Mn  Mn6  1  0.876786  0.876786  0.369644  1
  Mn  Mn7  1  0.878715  0.365672  0.876899  1
  Mn  Mn8  1  0.365672  0.878715  0.876899  1
  Mn  Mn9  1  0.878715  0.878715  0.876899  1
  Mn  Mn10  1  0.122296  0.122296  0.633110  1
  Fe  Fe11  1  0.121574  0.634555  0.122296  1
  Fe  Fe12  1  0.634555  0.121574  0.122296  1
  Fe  Fe13  1  0.121574  0.121574  0.122296  1
  Fe  Fe14  1  0.675631  0.675631  0.973107  1
  Fe  Fe15  1  0.675607  0.972240  0.676547  1
  Fe  Fe16  1  0.972240  0.675607  0.676547  1
  Fe  Fe17  1  0.675607  0.675607  0.676547  1
  Fe  Fe18  1  0.323244  0.323244  0.030269  1
  Fe  Fe19  1  0.323697  0.029521  0.323085  1
  Fe  Fe20  1  0.029521  0.323697  0.323085  1
  Fe  Fe21  1  0.323697  0.323697  0.323085  1
  Si  Si22  1  0.997437  0.997437  0.007688  1
  Si  Si23  1  0.000833  0.000833  0.497440  1
  Si  Si24  1  0.500894  0.000833  0.497440  1
  Si  Si25  1  0.000833  0.500894  0.497440  1
  Si  Si26  1  0.498517  0.498517  0.001054  1
  Si  Si27  1  0.001912  0.498517  0.001054  1
  Si  Si28  1  0.498517  0.001912  0.001054  1
