# generated using pymatgen
data_Ba3Li4Ca5(InPb2)4
_symmetry_space_group_name_H-M   'P 1'
_cell_length_a   4.97494700
_cell_length_b   7.68144951
_cell_length_c   18.79936633
_cell_angle_alpha   89.82678525
_cell_angle_beta   90.00000000
_cell_angle_gamma   90.00000000
_symmetry_Int_Tables_number   1
_chemical_formula_structural   Ba3Li4Ca5(InPb2)4
_chemical_formula_sum   'Ba3 Li4 Ca5 In4 Pb8'
_cell_volume   718.41082005
_cell_formula_units_Z   1
loop_
 _symmetry_equiv_pos_site_id
 _symmetry_equiv_pos_as_xyz
  1  'x, y, z'
loop_
 _atom_site_type_symbol
 _atom_site_label
 _atom_site_symmetry_multiplicity
 _atom_site_fract_x
 _atom_site_fract_y
 _atom_site_fract_z
 _atom_site_occupancy
  Ba  Ba0  1  0.250000  0.341323  0.941979  1
  Ba  Ba1  1  0.250000  0.835202  0.560033  1
  Ba  Ba2  1  0.750000  0.164827  0.438760  1
  Li  Li3  1  0.250000  0.982690  0.076289  1
  Li  Li4  1  0.750000  0.516833  0.579698  1
  Li  Li5  1  0.750000  0.011629  0.926982  1
  Li  Li6  1  0.250000  0.483382  0.418793  1
  Ca  Ca7  1  0.750000  0.496911  0.269135  1
  Ca  Ca8  1  0.750000  0.996742  0.223732  1
  Ca  Ca9  1  0.750000  0.669846  0.064314  1
  Ca  Ca10  1  0.250000  0.498694  0.727306  1
  Ca  Ca11  1  0.250000  0.996851  0.777687  1
  In  In12  1  0.750000  0.171805  0.653852  1
  In  In13  1  0.250000  0.825401  0.341926  1
  In  In14  1  0.750000  0.669224  0.850248  1
  In  In15  1  0.250000  0.327190  0.152436  1
  Pb  Pb16  1  0.750000  0.208755  0.067763  1
  Pb  Pb17  1  0.750000  0.780806  0.693584  1
  Pb  Pb18  1  0.250000  0.218045  0.307249  1
  Pb  Pb19  1  0.250000  0.717972  0.183905  1
  Pb  Pb20  1  0.250000  0.313206  0.568349  1
  Pb  Pb21  1  0.750000  0.277402  0.809689  1
  Pb  Pb22  1  0.250000  0.806898  0.938027  1
  Pb  Pb23  1  0.750000  0.688364  0.428265  1
