# generated using pymatgen
data_Nd2GaSi5PRh12
_symmetry_space_group_name_H-M   'P 1'
_cell_length_a   9.81893013
_cell_length_b   9.82864354
_cell_length_c   3.89180192
_cell_angle_alpha   89.92222435
_cell_angle_beta   90.02902432
_cell_angle_gamma   119.86641816
_symmetry_Int_Tables_number   1
_chemical_formula_structural   Nd2GaSi5PRh12
_chemical_formula_sum   'Nd2 Ga1 Si5 P1 Rh12'
_cell_volume   325.70297029
_cell_formula_units_Z   1
loop_
 _symmetry_equiv_pos_site_id
 _symmetry_equiv_pos_as_xyz
  1  'x, y, z'
loop_
 _atom_site_type_symbol
 _atom_site_label
 _atom_site_symmetry_multiplicity
 _atom_site_fract_x
 _atom_site_fract_y
 _atom_site_fract_z
 _atom_site_occupancy
  Nd  Nd0  1  0.333126  0.667794  0.749588  1
  Nd  Nd1  1  0.667275  0.334376  0.250222  1
  Ga  Ga2  1  0.999777  0.999842  0.504295  1
  Si  Si3  1  0.891044  0.602831  0.749430  1
  Si  Si4  1  0.397479  0.289753  0.749933  1
  Si  Si5  1  0.711678  0.110070  0.749540  1
  Si  Si6  1  0.107814  0.396724  0.250415  1
  Si  Si7  1  0.602155  0.710156  0.249979  1
  P  P8  1  0.288120  0.890186  0.249130  1
  Rh  Rh9  1  0.617548  0.556792  0.750779  1
  Rh  Rh10  1  0.445181  0.062799  0.750640  1
  Rh  Rh11  1  0.939770  0.384259  0.750857  1
  Rh  Rh12  1  0.381439  0.442135  0.249401  1
  Rh  Rh13  1  0.551603  0.938028  0.248874  1
  Rh  Rh14  1  0.064860  0.620243  0.248505  1
  Rh  Rh15  1  0.126819  0.852183  0.748522  1
  Rh  Rh16  1  0.145832  0.268913  0.749225  1
  Rh  Rh17  1  0.727726  0.876610  0.748333  1
  Rh  Rh18  1  0.874407  0.145903  0.251076  1
  Rh  Rh19  1  0.854995  0.731447  0.250280  1
  Rh  Rh20  1  0.271352  0.118955  0.250978  1
