# generated using pymatgen
data_DyHo2Pa(InNi2)2
_symmetry_space_group_name_H-M   'P 1'
_cell_length_a   7.45227355
_cell_length_b   7.44645723
_cell_length_c   3.58965700
_cell_angle_alpha   90.00000000
_cell_angle_beta   90.00000000
_cell_angle_gamma   92.33566324
_symmetry_Int_Tables_number   1
_chemical_formula_structural   DyHo2Pa(InNi2)2
_chemical_formula_sum   'Dy1 Ho2 Pa1 In2 Ni4'
_cell_volume   199.03547444
_cell_formula_units_Z   1
loop_
 _symmetry_equiv_pos_site_id
 _symmetry_equiv_pos_as_xyz
  1  'x, y, z'
loop_
 _atom_site_type_symbol
 _atom_site_label
 _atom_site_symmetry_multiplicity
 _atom_site_fract_x
 _atom_site_fract_y
 _atom_site_fract_z
 _atom_site_occupancy
  Dy  Dy0  1  0.174846  0.329727  0.500000  1
  Ho  Ho1  1  0.324413  0.824347  0.500000  1
  Ho  Ho2  1  0.829622  0.674745  0.500000  1
  Pa  Pa3  1  0.670729  0.170560  0.500000  1
  In  In4  1  0.499537  0.506216  0.000000  1
  In  In5  1  0.005782  0.998861  0.000000  1
  Ni  Ni6  1  0.111554  0.612200  0.000000  1
  Ni  Ni7  1  0.859197  0.359665  0.000000  1
  Ni  Ni8  1  0.629571  0.894400  0.000000  1
  Ni  Ni9  1  0.394749  0.129280  0.000000  1
