# generated using pymatgen
data_Cs2Np2F11
_symmetry_space_group_name_H-M   'P 1'
_cell_length_a   5.56546000
_cell_length_b   7.90140079
_cell_length_c   14.81933700
_cell_angle_alpha   80.40718295
_cell_angle_beta   90.00000000
_cell_angle_gamma   90.00000000
_symmetry_Int_Tables_number   1
_chemical_formula_structural   Cs2Np2F11
_chemical_formula_sum   'Cs4 Np4 F22'
_cell_volume   642.56683460
_cell_formula_units_Z   2
loop_
 _symmetry_equiv_pos_site_id
 _symmetry_equiv_pos_as_xyz
  1  'x, y, z'
loop_
 _atom_site_type_symbol
 _atom_site_label
 _atom_site_symmetry_multiplicity
 _atom_site_fract_x
 _atom_site_fract_y
 _atom_site_fract_z
 _atom_site_occupancy
  Cs  Cs0  1  0.431122  0.235656  0.592995  1
  Cs  Cs1  1  0.568878  0.235656  0.092995  1
  Cs  Cs2  1  0.568878  0.764344  0.407005  1
  Cs  Cs3  1  0.431122  0.764344  0.907005  1
  Np  Np4  1  0.020824  0.267729  0.345668  1
  Np  Np5  1  0.979176  0.267729  0.845668  1
  Np  Np6  1  0.020824  0.732271  0.154332  1
  Np  Np7  1  0.979176  0.732271  0.654332  1
  F  F8  1  0.135719  0.500000  0.750000  1
  F  F9  1  0.864281  0.500000  0.250000  1
  F  F10  1  0.718373  0.874099  0.179257  1
  F  F11  1  0.684372  0.581954  0.630724  1
  F  F12  1  0.161694  0.793853  0.275524  1
  F  F13  1  0.805800  0.061209  0.930986  1
  F  F14  1  0.315628  0.418046  0.369276  1
  F  F15  1  0.194200  0.938791  0.069014  1
  F  F16  1  0.161694  0.206147  0.224476  1
  F  F17  1  0.281627  0.874099  0.679257  1
  F  F18  1  0.838306  0.206147  0.724476  1
  F  F19  1  0.684372  0.418046  0.869276  1
  F  F20  1  0.194200  0.061209  0.430986  1
  F  F21  1  0.147977  0.353935  0.956333  1
  F  F22  1  0.281627  0.125901  0.820743  1
  F  F23  1  0.852023  0.646065  0.043667  1
  F  F24  1  0.838306  0.793853  0.775524  1
  F  F25  1  0.718373  0.125901  0.320743  1
  F  F26  1  0.805800  0.938791  0.569014  1
  F  F27  1  0.852023  0.353935  0.456333  1
  F  F28  1  0.315628  0.581954  0.130724  1
  F  F29  1  0.147977  0.646065  0.543667  1
