# generated using pymatgen
data_Er5In5Co
_symmetry_space_group_name_H-M   'P 1'
_cell_length_a   3.60081900
_cell_length_b   8.33940466
_cell_length_c   18.58246300
_cell_angle_alpha   90.69678084
_cell_angle_beta   90.00000000
_cell_angle_gamma   90.00000000
_symmetry_Int_Tables_number   1
_chemical_formula_structural   Er5In5Co
_chemical_formula_sum   'Er10 In10 Co2'
_cell_volume   557.96569843
_cell_formula_units_Z   2
loop_
 _symmetry_equiv_pos_site_id
 _symmetry_equiv_pos_as_xyz
  1  'x, y, z'
loop_
 _atom_site_type_symbol
 _atom_site_label
 _atom_site_symmetry_multiplicity
 _atom_site_fract_x
 _atom_site_fract_y
 _atom_site_fract_z
 _atom_site_occupancy
  Er  Er0  1  0.000000  0.109980  0.413954  1
  Er  Er1  1  0.000000  0.890020  0.586046  1
  Er  Er2  1  0.000000  0.373920  0.926080  1
  Er  Er3  1  0.000000  0.626080  0.073920  1
  Er  Er4  1  0.000000  0.193987  0.229097  1
  Er  Er5  1  0.000000  0.806013  0.770903  1
  Er  Er6  1  0.000000  0.222123  0.711436  1
  Er  Er7  1  0.000000  0.777877  0.288564  1
  Er  Er8  1  0.000000  0.000000  0.000000  1
  Er  Er9  1  0.000000  0.500000  0.500000  1
  In  In10  1  0.500000  0.409288  0.355060  1
  In  In11  1  0.500000  0.590712  0.644940  1
  In  In12  1  0.500000  0.082803  0.850247  1
  In  In13  1  0.500000  0.917197  0.149753  1
  In  In14  1  0.500000  0.287148  0.072276  1
  In  In15  1  0.500000  0.712852  0.927724  1
  In  In16  1  0.500000  0.206135  0.564982  1
  In  In17  1  0.500000  0.793865  0.435018  1
  In  In18  1  0.500000  0.480752  0.798923  1
  In  In19  1  0.500000  0.519248  0.201077  1
  Co  Co20  1  0.500000  0.019505  0.308091  1
  Co  Co21  1  0.500000  0.980495  0.691909  1
