# generated using pymatgen
data_Nd2Dy3Tm3(Si3Rh)4
_symmetry_space_group_name_H-M   'P 1'
_cell_length_a   8.19068700
_cell_length_b   8.19068710
_cell_length_c   7.95591300
_cell_angle_alpha   90.00000000
_cell_angle_beta   90.00000000
_cell_angle_gamma   119.99998747
_symmetry_Int_Tables_number   1
_chemical_formula_structural   Nd2Dy3Tm3(Si3Rh)4
_chemical_formula_sum   'Nd2 Dy3 Tm3 Si12 Rh4'
_cell_volume   462.23345739
_cell_formula_units_Z   1
loop_
 _symmetry_equiv_pos_site_id
 _symmetry_equiv_pos_as_xyz
  1  'x, y, z'
loop_
 _atom_site_type_symbol
 _atom_site_label
 _atom_site_symmetry_multiplicity
 _atom_site_fract_x
 _atom_site_fract_y
 _atom_site_fract_z
 _atom_site_occupancy
  Nd  Nd0  1  0.000000  0.000000  0.250000  1
  Nd  Nd1  1  0.000000  0.000000  0.750000  1
  Dy  Dy2  1  0.491659  0.508341  0.750000  1
  Dy  Dy3  1  0.491659  0.983316  0.750000  1
  Dy  Dy4  1  0.016684  0.508341  0.750000  1
  Tm  Tm5  1  0.508519  0.491481  0.250000  1
  Tm  Tm6  1  0.508519  0.017040  0.250000  1
  Tm  Tm7  1  0.982960  0.491481  0.250000  1
  Si  Si8  1  0.168574  0.831426  0.499898  1
  Si  Si9  1  0.168574  0.337150  0.499898  1
  Si  Si10  1  0.662850  0.831426  0.499898  1
  Si  Si11  1  0.831617  0.168383  0.496334  1
  Si  Si12  1  0.831617  0.663233  0.496334  1
  Si  Si13  1  0.336767  0.168383  0.496334  1
  Si  Si14  1  0.831617  0.168383  0.003666  1
  Si  Si15  1  0.831617  0.663233  0.003666  1
  Si  Si16  1  0.336767  0.168383  0.003666  1
  Si  Si17  1  0.168574  0.831426  0.000102  1
  Si  Si18  1  0.168574  0.337150  0.000102  1
  Si  Si19  1  0.662850  0.831426  0.000102  1
  Rh  Rh20  1  0.333333  0.666667  0.459226  1
  Rh  Rh21  1  0.666667  0.333333  0.530069  1
  Rh  Rh22  1  0.666667  0.333333  0.969931  1
  Rh  Rh23  1  0.333333  0.666667  0.040774  1
