# generated using pymatgen
data_YbFe2(Sb6Ir)2
_symmetry_space_group_name_H-M   'P 1'
_cell_length_a   8.03586379
_cell_length_b   8.05735789
_cell_length_c   8.03586323
_cell_angle_alpha   109.43843971
_cell_angle_beta   109.40875239
_cell_angle_gamma   109.45823527
_symmetry_Int_Tables_number   1
_chemical_formula_structural   YbFe2(Sb6Ir)2
_chemical_formula_sum   'Yb1 Fe2 Sb12 Ir2'
_cell_volume   401.06481683
_cell_formula_units_Z   1
loop_
 _symmetry_equiv_pos_site_id
 _symmetry_equiv_pos_as_xyz
  1  'x, y, z'
loop_
 _atom_site_type_symbol
 _atom_site_label
 _atom_site_symmetry_multiplicity
 _atom_site_fract_x
 _atom_site_fract_y
 _atom_site_fract_z
 _atom_site_occupancy
  Yb  Yb0  1  0.000000  0.000000  0.000000  1
  Fe  Fe1  1  0.500000  0.500000  0.500000  1
  Fe  Fe2  1  0.000000  0.500000  0.000000  1
  Sb  Sb3  1  0.834156  0.655419  0.504504  1
  Sb  Sb4  1  0.165844  0.344581  0.495496  1
  Sb  Sb5  1  0.150915  0.655419  0.821262  1
  Sb  Sb6  1  0.849085  0.344581  0.178738  1
  Sb  Sb7  1  0.669555  0.506967  0.837413  1
  Sb  Sb8  1  0.330445  0.493033  0.162587  1
  Sb  Sb9  1  0.655576  0.808690  0.153115  1
  Sb  Sb10  1  0.344424  0.191310  0.846885  1
  Sb  Sb11  1  0.505066  0.834515  0.655814  1
  Sb  Sb12  1  0.494934  0.165485  0.344186  1
  Sb  Sb13  1  0.178702  0.834515  0.329450  1
  Sb  Sb14  1  0.821298  0.165485  0.670550  1
  Ir  Ir15  1  0.500000  0.000000  0.000000  1
  Ir  Ir16  1  0.000000  0.000000  0.500000  1
