# generated using pymatgen
data_Hf(SeO4)2
_symmetry_space_group_name_H-M   'P 1'
_cell_length_a   5.57083100
_cell_length_b   5.57083197
_cell_length_c   6.38139800
_cell_angle_alpha   90.00000000
_cell_angle_beta   90.00000000
_cell_angle_gamma   120.00000017
_symmetry_Int_Tables_number   1
_chemical_formula_structural   Hf(SeO4)2
_chemical_formula_sum   'Hf1 Se2 O8'
_cell_volume   171.50883855
_cell_formula_units_Z   1
loop_
 _symmetry_equiv_pos_site_id
 _symmetry_equiv_pos_as_xyz
  1  'x, y, z'
loop_
 _atom_site_type_symbol
 _atom_site_label
 _atom_site_symmetry_multiplicity
 _atom_site_fract_x
 _atom_site_fract_y
 _atom_site_fract_z
 _atom_site_occupancy
  Hf  Hf0  1  0.000000  0.000000  0.000000  1
  Se  Se1  1  0.333333  0.666667  0.290460  1
  Se  Se2  1  0.666666  0.333332  0.709540  1
  O  O3  1  0.666666  0.333332  0.456481  1
  O  O4  1  0.333333  0.666667  0.543519  1
  O  O5  1  0.173831  0.346053  0.187906  1
  O  O6  1  0.172223  0.826169  0.187906  1
  O  O7  1  0.653946  0.827778  0.187906  1
  O  O8  1  0.346054  0.172223  0.812093  1
  O  O9  1  0.827778  0.173830  0.812093  1
  O  O10  1  0.826168  0.653946  0.812093  1
