# generated using pymatgen
data_AcLuFe3Tc14C3
_symmetry_space_group_name_H-M   'P 1'
_cell_length_a   6.93123893
_cell_length_b   6.93123995
_cell_length_c   6.93123868
_cell_angle_alpha   82.75529020
_cell_angle_beta   82.75528392
_cell_angle_gamma   82.75529202
_symmetry_Int_Tables_number   1
_chemical_formula_structural   AcLuFe3Tc14C3
_chemical_formula_sum   'Ac1 Lu1 Fe3 Tc14 C3'
_cell_volume   325.63429354
_cell_formula_units_Z   1
loop_
 _symmetry_equiv_pos_site_id
 _symmetry_equiv_pos_as_xyz
  1  'x, y, z'
loop_
 _atom_site_type_symbol
 _atom_site_label
 _atom_site_symmetry_multiplicity
 _atom_site_fract_x
 _atom_site_fract_y
 _atom_site_fract_z
 _atom_site_occupancy
  Ac  Ac0  1  0.352217  0.352217  0.352217  1
  Lu  Lu1  1  0.655354  0.655354  0.655354  1
  Fe  Fe2  1  0.002930  0.002930  0.497660  1
  Fe  Fe3  1  0.002930  0.497660  0.002930  1
  Fe  Fe4  1  0.497660  0.002930  0.002930  1
  Tc  Tc5  1  0.099052  0.099052  0.099052  1
  Tc  Tc6  1  0.899515  0.899515  0.899515  1
  Tc  Tc7  1  0.725553  0.276467  0.997632  1
  Tc  Tc8  1  0.276467  0.997632  0.725553  1
  Tc  Tc9  1  0.997632  0.725553  0.276467  1
  Tc  Tc10  1  0.276467  0.725553  0.997632  1
  Tc  Tc11  1  0.725553  0.997632  0.276467  1
  Tc  Tc12  1  0.997632  0.276467  0.725553  1
  Tc  Tc13  1  0.127906  0.655607  0.655607  1
  Tc  Tc14  1  0.655607  0.655607  0.127906  1
  Tc  Tc15  1  0.655607  0.127906  0.655607  1
  Tc  Tc16  1  0.348625  0.858267  0.348625  1
  Tc  Tc17  1  0.348625  0.348625  0.858267  1
  Tc  Tc18  1  0.858267  0.348625  0.348625  1
  C  C19  1  0.509004  0.509004  0.978390  1
  C  C20  1  0.509004  0.978390  0.509004  1
  C  C21  1  0.978390  0.509004  0.509004  1
