# generated using pymatgen
data_CsRbLiIrBr6
_symmetry_space_group_name_H-M   'P 1'
_cell_length_a   7.67632800
_cell_length_b   7.67632745
_cell_length_c   6.59568300
_cell_angle_alpha   90.00000000
_cell_angle_beta   90.00000000
_cell_angle_gamma   119.99999374
_symmetry_Int_Tables_number   1
_chemical_formula_structural   CsRbLiIrBr6
_chemical_formula_sum   'Cs1 Rb1 Li1 Ir1 Br6'
_cell_volume   336.58708604
_cell_formula_units_Z   1
loop_
 _symmetry_equiv_pos_site_id
 _symmetry_equiv_pos_as_xyz
  1  'x, y, z'
loop_
 _atom_site_type_symbol
 _atom_site_label
 _atom_site_symmetry_multiplicity
 _atom_site_fract_x
 _atom_site_fract_y
 _atom_site_fract_z
 _atom_site_occupancy
  Cs  Cs0  1  0.333333  0.666667  0.285849  1
  Rb  Rb1  1  0.666667  0.333333  0.693765  1
  Li  Li2  1  0.000000  0.000000  0.001258  1
  Ir  Ir3  1  0.000000  0.000000  0.503025  1
  Br  Br4  1  0.845985  0.154015  0.277467  1
  Br  Br5  1  0.154298  0.845702  0.727900  1
  Br  Br6  1  0.845985  0.691969  0.277467  1
  Br  Br7  1  0.154298  0.308598  0.727900  1
  Br  Br8  1  0.308031  0.154015  0.277467  1
  Br  Br9  1  0.691402  0.845702  0.727900  1
