# generated using pymatgen
data_Lu3Ga4S
_symmetry_space_group_name_H-M   'P 1'
_cell_length_a   7.59806437
_cell_length_b   7.59806424
_cell_length_c   7.59806405
_cell_angle_alpha   118.77968451
_cell_angle_beta   118.77967765
_cell_angle_gamma   92.12697973
_symmetry_Int_Tables_number   1
_chemical_formula_structural   Lu3Ga4S
_chemical_formula_sum   'Lu6 Ga8 S2'
_cell_volume   315.65149908
_cell_formula_units_Z   2
loop_
 _symmetry_equiv_pos_site_id
 _symmetry_equiv_pos_as_xyz
  1  'x, y, z'
loop_
 _atom_site_type_symbol
 _atom_site_label
 _atom_site_symmetry_multiplicity
 _atom_site_fract_x
 _atom_site_fract_y
 _atom_site_fract_z
 _atom_site_occupancy
  Lu  Lu0  1  0.835930  0.664070  0.500000  1
  Lu  Lu1  1  0.664070  0.164070  0.828140  1
  Lu  Lu2  1  0.335930  0.835930  0.171860  1
  Lu  Lu3  1  0.164070  0.335930  0.500000  1
  Lu  Lu4  1  0.250000  0.250000  0.000000  1
  Lu  Lu5  1  0.750000  0.750000  0.000000  1
  Ga  Ga6  1  0.162805  0.951533  0.500000  1
  Ga  Ga7  1  0.451533  0.662805  0.500000  1
  Ga  Ga8  1  0.548467  0.337195  0.500000  1
  Ga  Ga9  1  0.662805  0.162805  0.211272  1
  Ga  Ga10  1  0.837195  0.048467  0.500000  1
  Ga  Ga11  1  0.048467  0.548467  0.211272  1
  Ga  Ga12  1  0.337195  0.837195  0.788728  1
  Ga  Ga13  1  0.951533  0.451533  0.788728  1
  S  S14  1  0.000000  0.000000  0.000000  1
  S  S15  1  0.500000  0.500000  0.000000  1
