# generated using pymatgen
data_Sr7Tl(PbN)2
_symmetry_space_group_name_H-M   'P 1'
_cell_length_a   12.97214400
_cell_length_b   12.97214266
_cell_length_c   5.22653800
_cell_angle_alpha   90.00000000
_cell_angle_beta   90.00000000
_cell_angle_gamma   156.42709871
_symmetry_Int_Tables_number   1
_chemical_formula_structural   Sr7Tl(PbN)2
_chemical_formula_sum   'Sr7 Tl1 Pb2 N2'
_cell_volume   351.72716940
_cell_formula_units_Z   1
loop_
 _symmetry_equiv_pos_site_id
 _symmetry_equiv_pos_as_xyz
  1  'x, y, z'
loop_
 _atom_site_type_symbol
 _atom_site_label
 _atom_site_symmetry_multiplicity
 _atom_site_fract_x
 _atom_site_fract_y
 _atom_site_fract_z
 _atom_site_occupancy
  Sr  Sr0  1  0.998953  0.001047  0.000000  1
  Sr  Sr1  1  0.800926  0.199075  0.000000  1
  Sr  Sr2  1  0.596738  0.403263  0.000000  1
  Sr  Sr3  1  0.400537  0.599464  0.000000  1
  Sr  Sr4  1  0.200853  0.799148  0.000000  1
  Sr  Sr5  1  0.899381  0.100620  0.499999  1
  Sr  Sr6  1  0.098945  0.901056  0.499999  1
  Tl  Tl7  1  0.710015  0.289986  0.499999  1
  Pb  Pb8  1  0.498902  0.501098  0.499999  1
  Pb  Pb9  1  0.293401  0.706600  0.499999  1
  N  N10  1  0.896285  0.103716  0.000000  1
  N  N11  1  0.105067  0.894934  0.000000  1
