# generated using pymatgen
data_Sc3InGa2NiPt2
_symmetry_space_group_name_H-M   'P 1'
_cell_length_a   7.35776000
_cell_length_b   7.35167262
_cell_length_c   3.38902900
_cell_angle_alpha   90.00000000
_cell_angle_beta   90.00000000
_cell_angle_gamma   120.02739469
_symmetry_Int_Tables_number   1
_chemical_formula_structural   Sc3InGa2NiPt2
_chemical_formula_sum   'Sc3 In1 Ga2 Ni1 Pt2'
_cell_volume   158.71491521
_cell_formula_units_Z   1
loop_
 _symmetry_equiv_pos_site_id
 _symmetry_equiv_pos_as_xyz
  1  'x, y, z'
loop_
 _atom_site_type_symbol
 _atom_site_label
 _atom_site_symmetry_multiplicity
 _atom_site_fract_x
 _atom_site_fract_y
 _atom_site_fract_z
 _atom_site_occupancy
  Sc  Sc0  1  0.612484  0.000000  0.000000  1
  Sc  Sc1  1  0.404755  0.409943  0.000000  1
  Sc  Sc2  1  0.994812  0.590057  0.000000  1
  In  In3  1  0.255022  0.000000  0.500000  1
  Ga  Ga4  1  0.743118  0.740758  0.500000  1
  Ga  Ga5  1  0.002360  0.259242  0.500000  1
  Ni  Ni6  1  0.978713  0.000000  0.000000  1
  Pt  Pt7  1  0.673023  0.337310  0.500000  1
  Pt  Pt8  1  0.335712  0.662690  0.500000  1
