# generated using pymatgen
data_Nb8CoBiS16
_symmetry_space_group_name_H-M   'P 1'
_cell_length_a   6.73711300
_cell_length_b   6.73711324
_cell_length_c   13.03466600
_cell_angle_alpha   90.00000000
_cell_angle_beta   90.00000000
_cell_angle_gamma   120.00000371
_symmetry_Int_Tables_number   1
_chemical_formula_structural   Nb8CoBiS16
_chemical_formula_sum   'Nb8 Co1 Bi1 S16'
_cell_volume   512.36352159
_cell_formula_units_Z   1
loop_
 _symmetry_equiv_pos_site_id
 _symmetry_equiv_pos_as_xyz
  1  'x, y, z'
loop_
 _atom_site_type_symbol
 _atom_site_label
 _atom_site_symmetry_multiplicity
 _atom_site_fract_x
 _atom_site_fract_y
 _atom_site_fract_z
 _atom_site_occupancy
  Nb  Nb0  1  0.988895  0.494448  0.273206  1
  Nb  Nb1  1  0.011105  0.505552  0.726794  1
  Nb  Nb2  1  0.494448  0.505552  0.726794  1
  Nb  Nb3  1  0.505552  0.011105  0.273206  1
  Nb  Nb4  1  0.000000  0.000000  0.727779  1
  Nb  Nb5  1  0.000000  0.000000  0.272221  1
  Nb  Nb6  1  0.505552  0.494448  0.273206  1
  Nb  Nb7  1  0.494448  0.988895  0.726794  1
  Co  Co8  1  0.000000  0.000000  0.500000  1
  Bi  Bi9  1  0.000000  0.000000  0.000000  1
  S  S10  1  0.333333  0.666667  0.605122  1
  S  S11  1  0.666667  0.333333  0.148923  1
  S  S12  1  0.666667  0.333333  0.394878  1
  S  S13  1  0.333333  0.666667  0.851077  1
  S  S14  1  0.165841  0.331683  0.390867  1
  S  S15  1  0.830316  0.169684  0.847211  1
  S  S16  1  0.339368  0.169684  0.847211  1
  S  S17  1  0.668317  0.834159  0.390867  1
  S  S18  1  0.165841  0.834159  0.390867  1
  S  S19  1  0.830316  0.660632  0.847211  1
  S  S20  1  0.169684  0.339368  0.152789  1
  S  S21  1  0.834159  0.165841  0.609133  1
  S  S22  1  0.331683  0.165841  0.609133  1
  S  S23  1  0.660632  0.830316  0.152789  1
  S  S24  1  0.169684  0.830316  0.152789  1
  S  S25  1  0.834159  0.668317  0.609133  1
