# generated using pymatgen
data_CaCd3(Rh2O7)2
_symmetry_space_group_name_H-M   'P 1'
_cell_length_a   7.27623061
_cell_length_b   7.27623047
_cell_length_c   7.27622946
_cell_angle_alpha   59.34195652
_cell_angle_beta   59.34196071
_cell_angle_gamma   59.34194848
_symmetry_Int_Tables_number   1
_chemical_formula_structural   CaCd3(Rh2O7)2
_chemical_formula_sum   'Ca1 Cd3 Rh4 O14'
_cell_volume   268.31771721
_cell_formula_units_Z   1
loop_
 _symmetry_equiv_pos_site_id
 _symmetry_equiv_pos_as_xyz
  1  'x, y, z'
loop_
 _atom_site_type_symbol
 _atom_site_label
 _atom_site_symmetry_multiplicity
 _atom_site_fract_x
 _atom_site_fract_y
 _atom_site_fract_z
 _atom_site_occupancy
  Ca  Ca0  1  0.125000  0.125000  0.125000  1
  Cd  Cd1  1  0.125000  0.625000  0.125000  1
  Cd  Cd2  1  0.625000  0.125000  0.125000  1
  Cd  Cd3  1  0.125000  0.125000  0.625000  1
  Rh  Rh4  1  0.625000  0.625000  0.625000  1
  Rh  Rh5  1  0.625000  0.625000  0.125000  1
  Rh  Rh6  1  0.125000  0.625000  0.625000  1
  Rh  Rh7  1  0.625000  0.125000  0.625000  1
  O  O8  1  0.255357  0.255357  0.255357  1
  O  O9  1  0.299043  0.702301  0.299043  1
  O  O10  1  0.950957  0.950957  0.547699  1
  O  O11  1  0.550156  0.950185  0.550156  1
  O  O12  1  0.699844  0.699844  0.299815  1
  O  O13  1  0.950185  0.550156  0.550156  1
  O  O14  1  0.699844  0.299815  0.699844  1
  O  O15  1  0.299043  0.299043  0.702301  1
  O  O16  1  0.702301  0.299043  0.299043  1
  O  O17  1  0.299815  0.699844  0.699844  1
  O  O18  1  0.950957  0.547699  0.950957  1
  O  O19  1  0.550156  0.550156  0.950185  1
  O  O20  1  0.994643  0.994643  0.994643  1
  O  O21  1  0.547699  0.950957  0.950957  1
