# generated using pymatgen
data_CaTa3Sn2(B2Ru5)2
_symmetry_space_group_name_H-M   'P 1'
_cell_length_a   9.56812678
_cell_length_b   9.56812678
_cell_length_c   3.07146300
_cell_angle_alpha   90.00000000
_cell_angle_beta   90.00000000
_cell_angle_gamma   91.64909719
_symmetry_Int_Tables_number   1
_chemical_formula_structural   CaTa3Sn2(B2Ru5)2
_chemical_formula_sum   'Ca1 Ta3 Sn2 B4 Ru10'
_cell_volume   281.07305735
_cell_formula_units_Z   1
loop_
 _symmetry_equiv_pos_site_id
 _symmetry_equiv_pos_as_xyz
  1  'x, y, z'
loop_
 _atom_site_type_symbol
 _atom_site_label
 _atom_site_symmetry_multiplicity
 _atom_site_fract_x
 _atom_site_fract_y
 _atom_site_fract_z
 _atom_site_occupancy
  Ca  Ca0  1  0.822738  0.677262  0.000000  1
  Ta  Ta1  1  0.175021  0.324979  0.000000  1
  Ta  Ta2  1  0.324101  0.827216  0.000000  1
  Ta  Ta3  1  0.672784  0.175899  0.000000  1
  Sn  Sn4  1  0.514648  0.504514  0.000000  1
  Sn  Sn5  1  0.995486  0.985352  0.000000  1
  B  B6  1  0.612491  0.887509  0.000000  1
  B  B7  1  0.371099  0.128901  0.000000  1
  B  B8  1  0.132676  0.613622  0.000000  1
  B  B9  1  0.886378  0.367324  0.000000  1
  Ru  Ru10  1  0.545508  0.737505  0.500000  1
  Ru  Ru11  1  0.423707  0.285242  0.500000  1
  Ru  Ru12  1  0.097877  0.776584  0.500000  1
  Ru  Ru13  1  0.936450  0.212787  0.500000  1
  Ru  Ru14  1  0.287213  0.563550  0.500000  1
  Ru  Ru15  1  0.723416  0.402123  0.500000  1
  Ru  Ru16  1  0.214758  0.076293  0.500000  1
  Ru  Ru17  1  0.762495  0.954492  0.500000  1
  Ru  Ru18  1  0.489881  0.010119  0.500000  1
  Ru  Ru19  1  0.011271  0.488729  0.500000  1
