# generated using pymatgen
data_MnAl12Ru
_symmetry_space_group_name_H-M   'P 1'
_cell_length_a   4.96791724
_cell_length_b   4.96791698
_cell_length_c   8.95563800
_cell_angle_alpha   90.00000000
_cell_angle_beta   90.00000000
_cell_angle_gamma   98.23200111
_symmetry_Int_Tables_number   1
_chemical_formula_structural   MnAl12Ru
_chemical_formula_sum   'Mn1 Al12 Ru1'
_cell_volume   218.74957056
_cell_formula_units_Z   1
loop_
 _symmetry_equiv_pos_site_id
 _symmetry_equiv_pos_as_xyz
  1  'x, y, z'
loop_
 _atom_site_type_symbol
 _atom_site_label
 _atom_site_symmetry_multiplicity
 _atom_site_fract_x
 _atom_site_fract_y
 _atom_site_fract_z
 _atom_site_occupancy
  Mn  Mn0  1  0.460116  0.460116  0.250000  1
  Al  Al1  1  0.968690  0.606729  0.250000  1
  Al  Al2  1  0.385793  0.024475  0.750000  1
  Al  Al3  1  0.024475  0.385793  0.750000  1
  Al  Al4  1  0.606729  0.968690  0.250000  1
  Al  Al5  1  0.676244  0.322008  0.495262  1
  Al  Al6  1  0.676244  0.322008  0.004738  1
  Al  Al7  1  0.322008  0.676244  0.495262  1
  Al  Al8  1  0.322008  0.676244  0.004738  1
  Al  Al9  1  0.144404  0.144404  0.397329  1
  Al  Al10  1  0.863623  0.863623  0.597184  1
  Al  Al11  1  0.144404  0.144404  0.102671  1
  Al  Al12  1  0.863623  0.863623  0.902816  1
  Ru  Ru13  1  0.541640  0.541640  0.750000  1
