# generated using pymatgen
data_NdYNi2(SnH)2
_symmetry_space_group_name_H-M   'P 1'
_cell_length_a   7.16775101
_cell_length_b   8.38534800
_cell_length_c   4.33518801
_cell_angle_alpha   90.00000000
_cell_angle_beta   89.99319013
_cell_angle_gamma   90.00000000
_symmetry_Int_Tables_number   1
_chemical_formula_structural   NdYNi2(SnH)2
_chemical_formula_sum   'Nd2 Y2 Ni4 Sn4 H4'
_cell_volume   260.56251368
_cell_formula_units_Z   2
loop_
 _symmetry_equiv_pos_site_id
 _symmetry_equiv_pos_as_xyz
  1  'x, y, z'
loop_
 _atom_site_type_symbol
 _atom_site_label
 _atom_site_symmetry_multiplicity
 _atom_site_fract_x
 _atom_site_fract_y
 _atom_site_fract_z
 _atom_site_occupancy
  Nd  Nd0  1  0.986242  0.688316  0.742800  1
  Nd  Nd1  1  0.486242  0.811684  0.742800  1
  Y  Y2  1  0.514078  0.185514  0.242767  1
  Y  Y3  1  0.014077  0.314486  0.242767  1
  Ni  Ni4  1  0.278513  0.598565  0.242726  1
  Ni  Ni5  1  0.778514  0.901435  0.242726  1
  Ni  Ni6  1  0.222549  0.108145  0.742811  1
  Ni  Ni7  1  0.722549  0.391855  0.742811  1
  Sn  Sn8  1  0.656846  0.564048  0.242840  1
  Sn  Sn9  1  0.156845  0.935952  0.242840  1
  Sn  Sn10  1  0.842304  0.075211  0.742727  1
  Sn  Sn11  1  0.342304  0.424788  0.742727  1
  H  H12  1  0.057046  0.575719  0.242738  1
  H  H13  1  0.557047  0.924281  0.242738  1
  H  H14  1  0.442424  0.083577  0.742786  1
  H  H15  1  0.942424  0.416422  0.742786  1
