# generated using pymatgen
data_Sr3Ca(CdAs2)2
_symmetry_space_group_name_H-M   'P 1'
_cell_length_a   8.83516456
_cell_length_b   8.83516545
_cell_length_c   7.48056511
_cell_angle_alpha   89.87306587
_cell_angle_beta   90.12693353
_cell_angle_gamma   150.58720580
_symmetry_Int_Tables_number   1
_chemical_formula_structural   Sr3Ca(CdAs2)2
_chemical_formula_sum   'Sr3 Ca1 Cd2 As4'
_cell_volume   286.76821587
_cell_formula_units_Z   1
loop_
 _symmetry_equiv_pos_site_id
 _symmetry_equiv_pos_as_xyz
  1  'x, y, z'
loop_
 _atom_site_type_symbol
 _atom_site_label
 _atom_site_symmetry_multiplicity
 _atom_site_fract_x
 _atom_site_fract_y
 _atom_site_fract_z
 _atom_site_occupancy
  Sr  Sr0  1  0.702131  0.297869  0.897530  1
  Sr  Sr1  1  0.296655  0.703345  0.393152  1
  Sr  Sr2  1  0.467136  0.532864  0.738063  1
  Ca  Ca3  1  0.533143  0.466857  0.239939  1
  Cd  Cd4  1  0.095869  0.904131  0.576382  1
  Cd  Cd5  1  0.905641  0.094359  0.077435  1
  As  As6  1  0.063389  0.936611  0.954506  1
  As  As7  1  0.673826  0.326174  0.472104  1
  As  As8  1  0.322942  0.677058  0.979195  1
  As  As9  1  0.939268  0.060732  0.440410  1
