# generated using pymatgen
data_NaSm(Cu2P)4
_symmetry_space_group_name_H-M   'P 1'
_cell_length_a   7.30431131
_cell_length_b   7.30431058
_cell_length_c   3.78893600
_cell_angle_alpha   90.00000000
_cell_angle_beta   90.00000000
_cell_angle_gamma   89.08850143
_symmetry_Int_Tables_number   1
_chemical_formula_structural   NaSm(Cu2P)4
_chemical_formula_sum   'Na1 Sm1 Cu8 P4'
_cell_volume   202.12536460
_cell_formula_units_Z   1
loop_
 _symmetry_equiv_pos_site_id
 _symmetry_equiv_pos_as_xyz
  1  'x, y, z'
loop_
 _atom_site_type_symbol
 _atom_site_label
 _atom_site_symmetry_multiplicity
 _atom_site_fract_x
 _atom_site_fract_y
 _atom_site_fract_z
 _atom_site_occupancy
  Na  Na0  1  0.500000  0.500000  0.500000  1
  Sm  Sm1  1  0.000000  0.000000  0.000000  1
  Cu  Cu2  1  0.663261  0.914659  0.500000  1
  Cu  Cu3  1  0.165905  0.583787  0.000000  1
  Cu  Cu4  1  0.416213  0.834095  0.000000  1
  Cu  Cu5  1  0.914659  0.663261  0.500000  1
  Cu  Cu6  1  0.834095  0.416213  0.000000  1
  Cu  Cu7  1  0.583787  0.165905  0.000000  1
  Cu  Cu8  1  0.085341  0.336739  0.500000  1
  Cu  Cu9  1  0.336739  0.085341  0.500000  1
  P  P10  1  0.280147  0.280147  0.000000  1
  P  P11  1  0.719853  0.719853  0.000000  1
  P  P12  1  0.782574  0.217426  0.500000  1
  P  P13  1  0.217426  0.782574  0.500000  1
