# generated using pymatgen
data_Sm5Y(SiPt5)2
_symmetry_space_group_name_H-M   'P 1'
_cell_length_a   8.30857173
_cell_length_b   8.31685608
_cell_length_c   8.31685501
_cell_angle_alpha   127.38262813
_cell_angle_beta   126.08674610
_cell_angle_gamma   78.71130567
_symmetry_Int_Tables_number   1
_chemical_formula_structural   Sm5Y(SiPt5)2
_chemical_formula_sum   'Sm5 Y1 Si2 Pt10'
_cell_volume   357.12306607
_cell_formula_units_Z   1
loop_
 _symmetry_equiv_pos_site_id
 _symmetry_equiv_pos_as_xyz
  1  'x, y, z'
loop_
 _atom_site_type_symbol
 _atom_site_label
 _atom_site_symmetry_multiplicity
 _atom_site_fract_x
 _atom_site_fract_y
 _atom_site_fract_z
 _atom_site_occupancy
  Sm  Sm0  1  0.827391  0.549814  0.277578  1
  Sm  Sm1  1  0.611951  0.249870  0.362081  1
  Sm  Sm2  1  0.172588  0.450350  0.722237  1
  Sm  Sm3  1  0.388414  0.750186  0.638229  1
  Sm  Sm4  1  0.229136  0.950557  0.278579  1
  Y  Y5  1  0.772624  0.049421  0.723204  1
  Si  Si6  1  0.216594  0.249713  0.966882  1
  Si  Si7  1  0.782559  0.750085  0.032474  1
  Pt  Pt8  1  0.168242  0.903118  0.858510  1
  Pt  Pt9  1  0.830402  0.096748  0.139428  1
  Pt  Pt10  1  0.456897  0.189002  0.858623  1
  Pt  Pt11  1  0.544793  0.401673  0.733273  1
  Pt  Pt12  1  0.830402  0.690973  0.733654  1
  Pt  Pt13  1  0.456897  0.598273  0.267895  1
  Pt  Pt14  1  0.544793  0.811520  0.143120  1
  Pt  Pt15  1  0.168242  0.309732  0.265124  1
  Pt  Pt16  1  0.999038  0.000344  0.500418  1
  Pt  Pt17  1  0.999038  0.498620  0.998694  1
