# generated using pymatgen
data_SmTh2(GaNi)3
_symmetry_space_group_name_H-M   'P 1'
_cell_length_a   7.09132235
_cell_length_b   7.04639209
_cell_length_c   3.99274200
_cell_angle_alpha   90.00000000
_cell_angle_beta   90.00000000
_cell_angle_gamma   119.79063917
_symmetry_Int_Tables_number   1
_chemical_formula_structural   SmTh2(GaNi)3
_chemical_formula_sum   'Sm1 Th2 Ga3 Ni3'
_cell_volume   173.14432638
_cell_formula_units_Z   1
loop_
 _symmetry_equiv_pos_site_id
 _symmetry_equiv_pos_as_xyz
  1  'x, y, z'
loop_
 _atom_site_type_symbol
 _atom_site_label
 _atom_site_symmetry_multiplicity
 _atom_site_fract_x
 _atom_site_fract_y
 _atom_site_fract_z
 _atom_site_occupancy
  Sm  Sm0  1  0.000000  0.415650  0.500000  1
  Th  Th1  1  0.581916  0.581813  0.500000  1
  Th  Th2  1  0.418084  0.999897  0.500000  1
  Ga  Ga3  1  0.000000  0.759681  0.000000  1
  Ga  Ga4  1  0.230828  0.236556  0.000000  1
  Ga  Ga5  1  0.769172  0.005728  0.000000  1
  Ni  Ni6  1  0.343488  0.675093  0.000000  1
  Ni  Ni7  1  0.656512  0.331604  0.000000  1
  Ni  Ni8  1  0.000000  0.993978  0.500000  1
