# generated using pymatgen
data_PrSm(In2Br5)2
_symmetry_space_group_name_H-M   'P 1'
_cell_length_a   8.70934500
_cell_length_b   9.18150400
_cell_length_c   13.53396700
_cell_angle_alpha   90.00000000
_cell_angle_beta   90.00000000
_cell_angle_gamma   90.00000000
_symmetry_Int_Tables_number   1
_chemical_formula_structural   PrSm(In2Br5)2
_chemical_formula_sum   'Pr2 Sm2 In8 Br20'
_cell_volume   1082.24212767
_cell_formula_units_Z   2
loop_
 _symmetry_equiv_pos_site_id
 _symmetry_equiv_pos_as_xyz
  1  'x, y, z'
loop_
 _atom_site_type_symbol
 _atom_site_label
 _atom_site_symmetry_multiplicity
 _atom_site_fract_x
 _atom_site_fract_y
 _atom_site_fract_z
 _atom_site_occupancy
  Pr  Pr0  1  0.077546  0.250000  0.493550  1
  Pr  Pr1  1  0.422454  0.250000  0.993550  1
  Sm  Sm2  1  0.924043  0.750000  0.505461  1
  Sm  Sm3  1  0.575957  0.750000  0.005461  1
  In  In4  1  0.941265  0.004584  0.828538  1
  In  In5  1  0.057717  0.993895  0.171479  1
  In  In6  1  0.558735  0.495416  0.328538  1
  In  In7  1  0.057717  0.506105  0.171479  1
  In  In8  1  0.941265  0.495416  0.828538  1
  In  In9  1  0.442283  0.506105  0.671479  1
  In  In10  1  0.558735  0.004584  0.328538  1
  In  In11  1  0.442283  0.993895  0.671479  1
  Br  Br12  1  0.581966  0.750000  0.506380  1
  Br  Br13  1  0.169559  0.950160  0.428033  1
  Br  Br14  1  0.830671  0.044105  0.571826  1
  Br  Br15  1  0.330441  0.549840  0.928033  1
  Br  Br16  1  0.169559  0.549840  0.428033  1
  Br  Br17  1  0.343928  0.250000  0.206458  1
  Br  Br18  1  0.330441  0.950160  0.928033  1
  Br  Br19  1  0.830671  0.455895  0.571826  1
  Br  Br20  1  0.394211  0.750000  0.186369  1
  Br  Br21  1  0.669329  0.044105  0.071826  1
  Br  Br22  1  0.156072  0.250000  0.706458  1
  Br  Br23  1  0.610333  0.250000  0.810818  1
  Br  Br24  1  0.423019  0.250000  0.494805  1
  Br  Br25  1  0.105789  0.750000  0.686369  1
  Br  Br26  1  0.669329  0.455895  0.071826  1
  Br  Br27  1  0.076981  0.250000  0.994805  1
  Br  Br28  1  0.918034  0.750000  0.006380  1
  Br  Br29  1  0.844847  0.750000  0.296406  1
  Br  Br30  1  0.655153  0.750000  0.796406  1
  Br  Br31  1  0.889667  0.250000  0.310818  1
