# generated using pymatgen
data_EuY(MgRh)2
_symmetry_space_group_name_H-M   'P 1'
_cell_length_a   4.20545500
_cell_length_b   7.27904990
_cell_length_c   8.60548704
_cell_angle_alpha   89.51565126
_cell_angle_beta   90.00000000
_cell_angle_gamma   90.00000000
_symmetry_Int_Tables_number   1
_chemical_formula_structural   EuY(MgRh)2
_chemical_formula_sum   'Eu2 Y2 Mg4 Rh4'
_cell_volume   263.41931990
_cell_formula_units_Z   2
loop_
 _symmetry_equiv_pos_site_id
 _symmetry_equiv_pos_as_xyz
  1  'x, y, z'
loop_
 _atom_site_type_symbol
 _atom_site_label
 _atom_site_symmetry_multiplicity
 _atom_site_fract_x
 _atom_site_fract_y
 _atom_site_fract_z
 _atom_site_occupancy
  Eu  Eu0  1  0.250000  0.530605  0.178549  1
  Eu  Eu1  1  0.750000  0.469395  0.821451  1
  Y  Y2  1  0.250000  0.034717  0.326024  1
  Y  Y3  1  0.750000  0.965283  0.673976  1
  Mg  Mg4  1  0.250000  0.135734  0.941536  1
  Mg  Mg5  1  0.750000  0.864266  0.058464  1
  Mg  Mg6  1  0.250000  0.640856  0.558531  1
  Mg  Mg7  1  0.750000  0.359144  0.441469  1
  Rh  Rh8  1  0.750000  0.754541  0.377724  1
  Rh  Rh9  1  0.250000  0.245459  0.622276  1
  Rh  Rh10  1  0.750000  0.226083  0.137469  1
  Rh  Rh11  1  0.250000  0.773917  0.862531  1
