# generated using pymatgen
data_Pr2Nd3Mg(P2Ru3)6
_symmetry_space_group_name_H-M   'P 1'
_cell_length_a   12.74771600
_cell_length_b   12.60617134
_cell_length_c   4.02566300
_cell_angle_alpha   90.00000000
_cell_angle_beta   90.00000000
_cell_angle_gamma   119.64408970
_symmetry_Int_Tables_number   1
_chemical_formula_structural   Pr2Nd3Mg(P2Ru3)6
_chemical_formula_sum   'Pr2 Nd3 Mg1 P12 Ru18'
_cell_volume   562.25074044
_cell_formula_units_Z   1
loop_
 _symmetry_equiv_pos_site_id
 _symmetry_equiv_pos_as_xyz
  1  'x, y, z'
loop_
 _atom_site_type_symbol
 _atom_site_label
 _atom_site_symmetry_multiplicity
 _atom_site_fract_x
 _atom_site_fract_y
 _atom_site_fract_z
 _atom_site_occupancy
  Pr  Pr0  1  0.000066  0.180989  0.500000  1
  Pr  Pr1  1  0.815928  0.815974  0.500000  1
  Nd  Nd2  1  0.184132  0.000240  0.500000  1
  Nd  Nd3  1  0.660798  0.329422  0.000000  1
  Nd  Nd4  1  0.339055  0.668574  0.000000  1
  Mg  Mg5  1  0.000055  0.562164  0.000000  1
  P  P6  1  0.000450  0.808695  0.000000  1
  P  P7  1  0.186617  0.186503  0.000000  1
  P  P8  1  0.813454  0.000330  0.000000  1
  P  P9  1  0.692102  0.171223  0.500000  1
  P  P10  1  0.818827  0.520627  0.500000  1
  P  P11  1  0.473621  0.305723  0.500000  1
  P  P12  1  0.181236  0.701829  0.500000  1
  P  P13  1  0.526256  0.832122  0.500000  1
  P  P14  1  0.307766  0.478876  0.500000  1
  P  P15  1  0.000017  0.362832  0.000000  1
  P  P16  1  0.622696  0.623648  0.000000  1
  P  P17  1  0.376994  0.000929  0.000000  1
  Ru  Ru18  1  0.444051  0.444703  0.000000  1
  Ru  Ru19  1  0.555748  0.000739  0.000000  1
  Ru  Ru20  1  0.000263  0.713415  0.500000  1
  Ru  Ru21  1  0.284011  0.285475  0.500000  1
  Ru  Ru22  1  0.715877  0.001734  0.500000  1
  Ru  Ru23  1  0.803825  0.184518  0.000000  1
  Ru  Ru24  1  0.813544  0.618547  0.000000  1
  Ru  Ru25  1  0.375342  0.191650  0.000000  1
  Ru  Ru26  1  0.186693  0.805608  0.000000  1
  Ru  Ru27  1  0.624222  0.816396  0.000000  1
  Ru  Ru28  1  0.196172  0.380531  0.000000  1
  Ru  Ru29  1  0.876458  0.366734  0.500000  1
  Ru  Ru30  1  0.630032  0.509833  0.500000  1
  Ru  Ru31  1  0.491547  0.126900  0.500000  1
  Ru  Ru32  1  0.369865  0.879874  0.500000  1
  Ru  Ru33  1  0.508249  0.635186  0.500000  1
  Ru  Ru34  1  0.123503  0.490194  0.500000  1
  Ru  Ru35  1  0.000530  0.997262  0.000000  1
