# generated using pymatgen
data_Er4Sn5SbRh7
_symmetry_space_group_name_H-M   'P 1'
_cell_length_a   7.58460969
_cell_length_b   7.58461150
_cell_length_c   7.58450596
_cell_angle_alpha   109.42003356
_cell_angle_beta   109.42004530
_cell_angle_gamma   109.56206879
_symmetry_Int_Tables_number   1
_chemical_formula_structural   Er4Sn5SbRh7
_chemical_formula_sum   'Er4 Sn5 Sb1 Rh7'
_cell_volume   335.91779762
_cell_formula_units_Z   1
loop_
 _symmetry_equiv_pos_site_id
 _symmetry_equiv_pos_as_xyz
  1  'x, y, z'
loop_
 _atom_site_type_symbol
 _atom_site_label
 _atom_site_symmetry_multiplicity
 _atom_site_fract_x
 _atom_site_fract_y
 _atom_site_fract_z
 _atom_site_occupancy
  Er  Er0  1  0.498521  0.998765  0.999985  1
  Er  Er1  1  0.998765  0.498521  0.999985  1
  Er  Er2  1  0.998798  0.998798  0.500250  1
  Er  Er3  1  0.498573  0.498573  0.499798  1
  Sn  Sn4  1  0.314249  0.998727  0.315461  1
  Sn  Sn5  1  0.998657  0.683145  0.684552  1
  Sn  Sn6  1  0.689252  0.689252  0.999864  1
  Sn  Sn7  1  0.683145  0.998657  0.684552  1
  Sn  Sn8  1  0.998727  0.314249  0.315461  1
  Sb  Sb9  1  0.317974  0.317974  0.000139  1
  Rh  Rh10  1  0.251456  0.500233  0.751418  1
  Rh  Rh11  1  0.500233  0.251456  0.751418  1
  Rh  Rh12  1  0.749054  0.249048  0.499963  1
  Rh  Rh13  1  0.500069  0.748848  0.248589  1
  Rh  Rh14  1  0.004630  0.004630  0.000014  1
  Rh  Rh15  1  0.249048  0.749054  0.499963  1
  Rh  Rh16  1  0.748848  0.500069  0.248589  1
