# generated using pymatgen
data_Y2Mn5(PRh)7
_symmetry_space_group_name_H-M   'P 1'
_cell_length_a   9.44425449
_cell_length_b   9.44466299
_cell_length_c   3.80738100
_cell_angle_alpha   90.00000000
_cell_angle_beta   90.00000000
_cell_angle_gamma   119.88296548
_symmetry_Int_Tables_number   1
_chemical_formula_structural   Y2Mn5(PRh)7
_chemical_formula_sum   'Y2 Mn5 P7 Rh7'
_cell_volume   294.45713430
_cell_formula_units_Z   1
loop_
 _symmetry_equiv_pos_site_id
 _symmetry_equiv_pos_as_xyz
  1  'x, y, z'
loop_
 _atom_site_type_symbol
 _atom_site_label
 _atom_site_symmetry_multiplicity
 _atom_site_fract_x
 _atom_site_fract_y
 _atom_site_fract_z
 _atom_site_occupancy
  Y  Y0  1  0.666644  0.333615  0.000000  1
  Y  Y1  1  0.333689  0.666932  0.500000  1
  Mn  Mn2  1  0.269596  0.156288  0.000000  1
  Mn  Mn3  1  0.842378  0.112229  0.000000  1
  Mn  Mn4  1  0.889868  0.731433  0.000000  1
  Mn  Mn5  1  0.777198  0.879016  0.500000  1
  Mn  Mn6  1  0.121885  0.896856  0.500000  1
  P  P7  1  0.298904  0.407414  0.000000  1
  P  P8  1  0.594090  0.891000  0.000000  1
  P  P9  1  0.111226  0.702373  0.000000  1
  P  P10  1  0.396599  0.120013  0.500000  1
  P  P11  1  0.877755  0.274969  0.500000  1
  P  P12  1  0.724460  0.606554  0.500000  1
  P  P13  1  0.998207  0.999875  0.000000  1
  Rh  Rh14  1  0.063703  0.427705  0.000000  1
  Rh  Rh15  1  0.573465  0.636709  0.000000  1
  Rh  Rh16  1  0.364115  0.935970  0.000000  1
  Rh  Rh17  1  0.442679  0.389080  0.500000  1
  Rh  Rh18  1  0.611975  0.053421  0.500000  1
  Rh  Rh19  1  0.946207  0.557115  0.500000  1
  Rh  Rh20  1  0.095356  0.221433  0.500000  1
