# generated using pymatgen
data_BaAl4Si2Au
_symmetry_space_group_name_H-M   'P 1'
_cell_length_a   4.25222800
_cell_length_b   4.25224105
_cell_length_c   34.20032800
_cell_angle_alpha   90.00010797
_cell_angle_beta   90.00013977
_cell_angle_gamma   120.00016896
_symmetry_Int_Tables_number   1
_chemical_formula_structural   BaAl4Si2Au
_chemical_formula_sum   'Ba3 Al12 Si6 Au3'
_cell_volume   535.54328943
_cell_formula_units_Z   3
loop_
 _symmetry_equiv_pos_site_id
 _symmetry_equiv_pos_as_xyz
  1  'x, y, z'
loop_
 _atom_site_type_symbol
 _atom_site_label
 _atom_site_symmetry_multiplicity
 _atom_site_fract_x
 _atom_site_fract_y
 _atom_site_fract_z
 _atom_site_occupancy
  Ba  Ba0  1  0.333331  0.666666  0.166656  1
  Ba  Ba1  1  0.999999  0.999999  0.500003  1
  Ba  Ba2  1  0.666667  0.333334  0.833332  1
  Al  Al3  1  0.666664  0.333332  0.026334  1
  Al  Al4  1  0.999991  0.999995  0.078156  1
  Al  Al5  1  0.666665  0.333333  0.255198  1
  Al  Al6  1  0.000000  0.000000  0.307022  1
  Al  Al7  1  0.333336  0.666668  0.359662  1
  Al  Al8  1  0.666660  0.333331  0.411482  1
  Al  Al9  1  0.333339  0.666669  0.588496  1
  Al  Al10  1  0.666672  0.333335  0.640339  1
  Al  Al11  1  0.000008  0.000004  0.692985  1
  Al  Al12  1  0.333336  0.666668  0.744805  1
  Al  Al13  1  0.000000  0.000001  0.921870  1
  Al  Al14  1  0.333333  0.666667  0.973674  1
  Si  Si15  1  0.666663  0.333332  0.100742  1
  Si  Si16  1  0.000000  0.000000  0.232612  1
  Si  Si17  1  0.333325  0.666662  0.434091  1
  Si  Si18  1  0.666674  0.333337  0.565898  1
  Si  Si19  1  0.000000  0.000000  0.767376  1
  Si  Si20  1  0.333334  0.666667  0.899291  1
  Au  Au21  1  0.999999  0.999999  0.000011  1
  Au  Au22  1  0.666661  0.333331  0.333353  1
  Au  Au23  1  0.333345  0.666672  0.666644  1
