# generated using pymatgen
data_Ba4Fe4CoPtN6
_symmetry_space_group_name_H-M   'P 1'
_cell_length_a   6.79394650
_cell_length_b   6.79394612
_cell_length_c   6.73434324
_cell_angle_alpha   88.33350742
_cell_angle_beta   88.33350996
_cell_angle_gamma   117.44564525
_symmetry_Int_Tables_number   1
_chemical_formula_structural   Ba4Fe4CoPtN6
_chemical_formula_sum   'Ba4 Fe4 Co1 Pt1 N6'
_cell_volume   275.42300737
_cell_formula_units_Z   1
loop_
 _symmetry_equiv_pos_site_id
 _symmetry_equiv_pos_as_xyz
  1  'x, y, z'
loop_
 _atom_site_type_symbol
 _atom_site_label
 _atom_site_symmetry_multiplicity
 _atom_site_fract_x
 _atom_site_fract_y
 _atom_site_fract_z
 _atom_site_occupancy
  Ba  Ba0  1  0.840652  0.672871  0.902953  1
  Ba  Ba1  1  0.327129  0.159348  0.597047  1
  Ba  Ba2  1  0.166569  0.327104  0.097390  1
  Ba  Ba3  1  0.672896  0.833431  0.402610  1
  Fe  Fe4  1  0.547730  0.145910  0.116813  1
  Fe  Fe5  1  0.438841  0.843152  0.905418  1
  Fe  Fe6  1  0.854090  0.452270  0.383187  1
  Fe  Fe7  1  0.156848  0.561159  0.594582  1
  Co  Co8  1  0.196549  0.803451  0.250000  1
  Pt  Pt9  1  0.808415  0.191585  0.750000  1
  N  N10  1  0.378711  0.621289  0.750000  1
  N  N11  1  0.613867  0.386133  0.250000  1
  N  N12  1  0.028230  0.728356  0.483437  1
  N  N13  1  0.705918  0.008089  0.015211  1
  N  N14  1  0.991911  0.294082  0.484789  1
  N  N15  1  0.271644  0.971770  0.016563  1
