# generated using pymatgen
data_Ta12Mn4Al5Ge3C4
_symmetry_space_group_name_H-M   'P 1'
_cell_length_a   8.20512200
_cell_length_b   8.20465654
_cell_length_c   8.19053950
_cell_angle_alpha   60.01556335
_cell_angle_beta   60.02823500
_cell_angle_gamma   60.08762770
_symmetry_Int_Tables_number   1
_chemical_formula_structural   Ta12Mn4Al5Ge3C4
_chemical_formula_sum   'Ta12 Mn4 Al5 Ge3 C4'
_cell_volume   390.27757588
_cell_formula_units_Z   1
loop_
 _symmetry_equiv_pos_site_id
 _symmetry_equiv_pos_as_xyz
  1  'x, y, z'
loop_
 _atom_site_type_symbol
 _atom_site_label
 _atom_site_symmetry_multiplicity
 _atom_site_fract_x
 _atom_site_fract_y
 _atom_site_fract_z
 _atom_site_occupancy
  Ta  Ta0  1  0.555873  0.945796  0.553540  1
  Ta  Ta1  1  0.305499  0.693314  0.697041  1
  Ta  Ta2  1  0.695922  0.303232  0.302568  1
  Ta  Ta3  1  0.303209  0.695916  0.302601  1
  Ta  Ta4  1  0.696255  0.696226  0.304140  1
  Ta  Ta5  1  0.304595  0.304616  0.696334  1
  Ta  Ta6  1  0.552231  0.552246  0.947895  1
  Ta  Ta7  1  0.945803  0.555879  0.553557  1
  Ta  Ta8  1  0.553718  0.946630  0.945969  1
  Ta  Ta9  1  0.944882  0.944858  0.554163  1
  Ta  Ta10  1  0.693303  0.305509  0.697047  1
  Ta  Ta11  1  0.946676  0.553711  0.945957  1
  Mn  Mn12  1  0.125370  0.125365  0.130148  1
  Mn  Mn13  1  0.625769  0.123113  0.124407  1
  Mn  Mn14  1  0.123036  0.625763  0.124424  1
  Mn  Mn15  1  0.123453  0.123468  0.621438  1
  Al  Al16  1  0.333350  0.333521  0.002134  1
  Al  Al17  1  0.919958  0.248049  0.917187  1
  Al  Al18  1  0.919142  0.918995  0.246969  1
  Al  Al19  1  0.248090  0.919809  0.917234  1
  Al  Al20  1  0.333073  0.333263  0.332227  1
  Ge  Ge21  1  0.916686  0.916556  0.915256  1
  Ge  Ge22  1  0.993061  0.339688  0.334241  1
  Ge  Ge23  1  0.339658  0.993108  0.334238  1
  C  C24  1  0.625263  0.625252  0.625230  1
  C  C25  1  0.124809  0.625987  0.624843  1
  C  C26  1  0.625974  0.124801  0.624839  1
  C  C27  1  0.625341  0.625329  0.124376  1
