# generated using pymatgen
data_La3Nd2Bi3P
_symmetry_space_group_name_H-M   'P 1'
_cell_length_a   9.68867400
_cell_length_b   9.68867503
_cell_length_c   6.91157400
_cell_angle_alpha   90.00000000
_cell_angle_beta   90.00000000
_cell_angle_gamma   119.99999649
_symmetry_Int_Tables_number   1
_chemical_formula_structural   La3Nd2Bi3P
_chemical_formula_sum   'La6 Nd4 Bi6 P2'
_cell_volume   561.87064354
_cell_formula_units_Z   2
loop_
 _symmetry_equiv_pos_site_id
 _symmetry_equiv_pos_as_xyz
  1  'x, y, z'
loop_
 _atom_site_type_symbol
 _atom_site_label
 _atom_site_symmetry_multiplicity
 _atom_site_fract_x
 _atom_site_fract_y
 _atom_site_fract_z
 _atom_site_occupancy
  La  La0  1  0.759943  0.759943  0.750000  1
  La  La1  1  0.240057  0.000000  0.750000  1
  La  La2  1  0.000000  0.240057  0.750000  1
  La  La3  1  0.240057  0.240057  0.250000  1
  La  La4  1  0.759943  0.000000  0.250000  1
  La  La5  1  0.000000  0.759943  0.250000  1
  Nd  Nd6  1  0.666667  0.333333  0.000000  1
  Nd  Nd7  1  0.333333  0.666667  0.000000  1
  Nd  Nd8  1  0.333333  0.666667  0.500000  1
  Nd  Nd9  1  0.666667  0.333333  0.500000  1
  Bi  Bi10  1  0.397122  0.397122  0.750000  1
  Bi  Bi11  1  0.602878  0.000000  0.750000  1
  Bi  Bi12  1  0.000000  0.602878  0.750000  1
  Bi  Bi13  1  0.602878  0.602878  0.250000  1
  Bi  Bi14  1  0.397122  0.000000  0.250000  1
  Bi  Bi15  1  0.000000  0.397122  0.250000  1
  P  P16  1  0.000000  0.000000  0.000000  1
  P  P17  1  0.000000  0.000000  0.500000  1
