# generated using pymatgen
data_Ho4Al18ReNi4Pd
_symmetry_space_group_name_H-M   'P 1'
_cell_length_a   7.45869333
_cell_length_b   7.45869455
_cell_length_c   9.33755171
_cell_angle_alpha   89.78475855
_cell_angle_beta   89.78475695
_cell_angle_gamma   118.63503233
_symmetry_Int_Tables_number   1
_chemical_formula_structural   Ho4Al18ReNi4Pd
_chemical_formula_sum   'Ho4 Al18 Re1 Ni4 Pd1'
_cell_volume   455.91936150
_cell_formula_units_Z   1
loop_
 _symmetry_equiv_pos_site_id
 _symmetry_equiv_pos_as_xyz
  1  'x, y, z'
loop_
 _atom_site_type_symbol
 _atom_site_label
 _atom_site_symmetry_multiplicity
 _atom_site_fract_x
 _atom_site_fract_y
 _atom_site_fract_z
 _atom_site_occupancy
  Ho  Ho0  1  0.995635  0.681390  0.247577  1
  Ho  Ho1  1  0.004365  0.318610  0.752423  1
  Ho  Ho2  1  0.681390  0.995635  0.247577  1
  Ho  Ho3  1  0.318610  0.004365  0.752423  1
  Al  Al4  1  0.141325  0.141325  0.247782  1
  Al  Al5  1  0.858675  0.858675  0.752218  1
  Al  Al6  1  0.998086  0.339330  0.073511  1
  Al  Al7  1  0.001914  0.660670  0.926489  1
  Al  Al8  1  0.000856  0.655383  0.576649  1
  Al  Al9  1  0.344617  0.999144  0.423351  1
  Al  Al10  1  0.999144  0.344617  0.423351  1
  Al  Al11  1  0.655383  0.000856  0.576649  1
  Al  Al12  1  0.660670  0.001914  0.926489  1
  Al  Al13  1  0.339330  0.998086  0.073511  1
  Al  Al14  1  0.338072  0.338072  0.549368  1
  Al  Al15  1  0.661928  0.661929  0.450632  1
  Al  Al16  1  0.664922  0.664923  0.045690  1
  Al  Al17  1  0.335078  0.335078  0.954310  1
  Al  Al18  1  0.343750  0.560739  0.249216  1
  Al  Al19  1  0.656250  0.439261  0.750784  1
  Al  Al20  1  0.560739  0.343750  0.249216  1
  Al  Al21  1  0.439261  0.656250  0.750784  1
  Re  Re22  1  0.000000  0.000000  0.000000  1
  Ni  Ni23  1  0.669553  0.330447  0.000000  1
  Ni  Ni24  1  0.330447  0.669553  0.000000  1
  Ni  Ni25  1  0.330020  0.669980  0.500000  1
  Ni  Ni26  1  0.669980  0.330020  0.500000  1
  Pd  Pd27  1  0.000000  0.000000  0.500000  1
