# generated using pymatgen
data_Nb6TlS12
_symmetry_space_group_name_H-M   'P 1'
_cell_length_a   5.80737169
_cell_length_b   5.80737204
_cell_length_c   14.72230400
_cell_angle_alpha   86.14633928
_cell_angle_beta   86.14633904
_cell_angle_gamma   120.02025286
_symmetry_Int_Tables_number   1
_chemical_formula_structural   Nb6TlS12
_chemical_formula_sum   'Nb6 Tl1 S12'
_cell_volume   426.00560030
_cell_formula_units_Z   1
loop_
 _symmetry_equiv_pos_site_id
 _symmetry_equiv_pos_as_xyz
  1  'x, y, z'
loop_
 _atom_site_type_symbol
 _atom_site_label
 _atom_site_symmetry_multiplicity
 _atom_site_fract_x
 _atom_site_fract_y
 _atom_site_fract_z
 _atom_site_occupancy
  Nb  Nb0  1  0.091783  0.091783  0.728095  1
  Nb  Nb1  1  0.424474  0.757612  0.728795  1
  Nb  Nb2  1  0.757612  0.424474  0.728795  1
  Nb  Nb3  1  0.242388  0.575526  0.271205  1
  Nb  Nb4  1  0.575526  0.242388  0.271205  1
  Nb  Nb5  1  0.908217  0.908217  0.271905  1
  Tl  Tl6  1  0.000000  0.000000  0.000000  1
  S  S7  1  0.279054  0.279054  0.163355  1
  S  S8  1  0.611229  0.945750  0.163342  1
  S  S9  1  0.945750  0.611229  0.163342  1
  S  S10  1  0.054250  0.388771  0.836658  1
  S  S11  1  0.388771  0.054250  0.836658  1
  S  S12  1  0.720946  0.720946  0.836645  1
  S  S13  1  0.206413  0.206413  0.378027  1
  S  S14  1  0.538816  0.873061  0.378101  1
  S  S15  1  0.873061  0.538816  0.378101  1
  S  S16  1  0.126939  0.461184  0.621899  1
  S  S17  1  0.461184  0.126939  0.621899  1
  S  S18  1  0.793587  0.793587  0.621973  1
