# generated using pymatgen
data_Dy2Er4CoP12Ir17
_symmetry_space_group_name_H-M   'P 1'
_cell_length_a   3.94536300
_cell_length_b   11.12155800
_cell_length_c   12.76303400
_cell_angle_alpha   90.00000000
_cell_angle_beta   90.00000000
_cell_angle_gamma   90.00000000
_symmetry_Int_Tables_number   1
_chemical_formula_structural   Dy2Er4CoP12Ir17
_chemical_formula_sum   'Dy2 Er4 Co1 P12 Ir17'
_cell_volume   560.02385226
_cell_formula_units_Z   1
loop_
 _symmetry_equiv_pos_site_id
 _symmetry_equiv_pos_as_xyz
  1  'x, y, z'
loop_
 _atom_site_type_symbol
 _atom_site_label
 _atom_site_symmetry_multiplicity
 _atom_site_fract_x
 _atom_site_fract_y
 _atom_site_fract_z
 _atom_site_occupancy
  Dy  Dy0  1  0.000000  0.500000  0.522514  1
  Dy  Dy1  1  0.500000  0.000000  0.476985  1
  Er  Er2  1  0.500000  0.819013  0.202430  1
  Er  Er3  1  0.500000  0.180987  0.202430  1
  Er  Er4  1  0.000000  0.688475  0.798298  1
  Er  Er5  1  0.000000  0.311525  0.798298  1
  Co  Co6  1  0.500000  0.000000  0.024650  1
  P  P7  1  0.500000  0.500000  0.876703  1
  P  P8  1  0.000000  0.000000  0.121696  1
  P  P9  1  0.500000  0.500000  0.358141  1
  P  P10  1  0.000000  0.000000  0.639804  1
  P  P11  1  0.500000  0.315303  0.618620  1
  P  P12  1  0.500000  0.684697  0.618620  1
  P  P13  1  0.000000  0.184482  0.381043  1
  P  P14  1  0.000000  0.815518  0.381043  1
  P  P15  1  0.500000  0.854398  0.896285  1
  P  P16  1  0.500000  0.145602  0.896285  1
  P  P17  1  0.000000  0.657888  0.106151  1
  P  P18  1  0.000000  0.342112  0.106151  1
  Ir  Ir19  1  0.500000  0.500000  0.179019  1
  Ir  Ir20  1  0.000000  0.000000  0.819786  1
  Ir  Ir21  1  0.500000  0.500000  0.700871  1
  Ir  Ir22  1  0.000000  0.000000  0.299086  1
  Ir  Ir23  1  0.000000  0.500000  0.972429  1
  Ir  Ir24  1  0.500000  0.333171  0.001075  1
  Ir  Ir25  1  0.500000  0.666829  0.001075  1
  Ir  Ir26  1  0.000000  0.157534  0.001741  1
  Ir  Ir27  1  0.000000  0.842466  0.001741  1
  Ir  Ir28  1  0.500000  0.294396  0.429383  1
  Ir  Ir29  1  0.500000  0.705604  0.429383  1
  Ir  Ir30  1  0.000000  0.207537  0.570173  1
  Ir  Ir31  1  0.000000  0.792463  0.570173  1
  Ir  Ir32  1  0.500000  0.869846  0.713973  1
  Ir  Ir33  1  0.500000  0.130154  0.713973  1
  Ir  Ir34  1  0.000000  0.631021  0.284988  1
  Ir  Ir35  1  0.000000  0.368979  0.284988  1
