# generated using pymatgen
data_YbHg3(P2O7)2
_symmetry_space_group_name_H-M   'P 1'
_cell_length_a   6.96807218
_cell_length_b   6.97774655
_cell_length_c   7.13409000
_cell_angle_alpha   77.94448950
_cell_angle_beta   66.54782907
_cell_angle_gamma   79.62080759
_symmetry_Int_Tables_number   1
_chemical_formula_structural   YbHg3(P2O7)2
_chemical_formula_sum   'Yb1 Hg3 P4 O14'
_cell_volume   309.37197881
_cell_formula_units_Z   1
loop_
 _symmetry_equiv_pos_site_id
 _symmetry_equiv_pos_as_xyz
  1  'x, y, z'
loop_
 _atom_site_type_symbol
 _atom_site_label
 _atom_site_symmetry_multiplicity
 _atom_site_fract_x
 _atom_site_fract_y
 _atom_site_fract_z
 _atom_site_occupancy
  Yb  Yb0  1  0.097592  0.173052  0.254624  1
  Hg  Hg1  1  0.896048  0.825925  0.752689  1
  Hg  Hg2  1  0.305227  0.312255  0.625759  1
  Hg  Hg3  1  0.694126  0.684384  0.374761  1
  P  P4  1  0.210214  0.657509  0.268971  1
  P  P5  1  0.789936  0.341236  0.730363  1
  P  P6  1  0.357045  0.874024  0.836117  1
  P  P7  1  0.640581  0.128202  0.168170  1
  O  O8  1  0.223479  0.777306  0.766807  1
  O  O9  1  0.780092  0.224569  0.227667  1
  O  O10  1  0.090947  0.509384  0.241523  1
  O  O11  1  0.917309  0.479501  0.763448  1
  O  O12  1  0.258326  0.085651  0.896321  1
  O  O13  1  0.736771  0.912980  0.115323  1
  O  O14  1  0.364179  0.561145  0.379593  1
  O  O15  1  0.632091  0.445181  0.626958  1
  O  O16  1  0.627748  0.244455  0.949271  1
  O  O17  1  0.377178  0.746418  0.045777  1
  O  O18  1  0.937155  0.173441  0.617384  1
  O  O19  1  0.066927  0.836195  0.361173  1
  O  O20  1  0.410443  0.128615  0.314514  1
  O  O21  1  0.586587  0.878572  0.682786  1
