# generated using pymatgen
data_CaY3Sb6Rh7
_symmetry_space_group_name_H-M   'P 1'
_cell_length_a   7.61490657
_cell_length_b   7.63163498
_cell_length_c   7.63163474
_cell_angle_alpha   109.51558489
_cell_angle_beta   109.42683035
_cell_angle_gamma   109.42681769
_symmetry_Int_Tables_number   1
_chemical_formula_structural   CaY3Sb6Rh7
_chemical_formula_sum   'Ca1 Y3 Sb6 Rh7'
_cell_volume   341.59813817
_cell_formula_units_Z   1
loop_
 _symmetry_equiv_pos_site_id
 _symmetry_equiv_pos_as_xyz
  1  'x, y, z'
loop_
 _atom_site_type_symbol
 _atom_site_label
 _atom_site_symmetry_multiplicity
 _atom_site_fract_x
 _atom_site_fract_y
 _atom_site_fract_z
 _atom_site_occupancy
  Ca  Ca0  1  0.500000  0.000000  0.000000  1
  Y  Y1  1  0.000000  0.500000  0.000000  1
  Y  Y2  1  0.000000  0.000000  0.500000  1
  Y  Y3  1  0.500000  0.500000  0.500000  1
  Sb  Sb4  1  0.319270  0.000000  0.317337  1
  Sb  Sb5  1  0.001933  0.682663  0.682663  1
  Sb  Sb6  1  0.680730  0.682663  0.000000  1
  Sb  Sb7  1  0.680730  0.000000  0.682663  1
  Sb  Sb8  1  0.998067  0.317337  0.317337  1
  Sb  Sb9  1  0.319270  0.317337  0.000000  1
  Rh  Rh10  1  0.247237  0.494474  0.747237  1
  Rh  Rh11  1  0.500000  0.252763  0.747237  1
  Rh  Rh12  1  0.752763  0.252763  0.505526  1
  Rh  Rh13  1  0.500000  0.747237  0.252763  1
  Rh  Rh14  1  0.000000  0.000000  0.000000  1
  Rh  Rh15  1  0.247237  0.747237  0.494474  1
  Rh  Rh16  1  0.752763  0.505526  0.252763  1
