# generated using pymatgen
data_Nd2Mn3Fe3Co6P7
_symmetry_space_group_name_H-M   'P 1'
_cell_length_a   9.09979100
_cell_length_b   9.09979246
_cell_length_c   3.65215700
_cell_angle_alpha   90.00000000
_cell_angle_beta   90.00000000
_cell_angle_gamma   120.00000558
_symmetry_Int_Tables_number   1
_chemical_formula_structural   Nd2Mn3Fe3Co6P7
_chemical_formula_sum   'Nd2 Mn3 Fe3 Co6 P7'
_cell_volume   261.90449459
_cell_formula_units_Z   1
loop_
 _symmetry_equiv_pos_site_id
 _symmetry_equiv_pos_as_xyz
  1  'x, y, z'
loop_
 _atom_site_type_symbol
 _atom_site_label
 _atom_site_symmetry_multiplicity
 _atom_site_fract_x
 _atom_site_fract_y
 _atom_site_fract_z
 _atom_site_occupancy
  Nd  Nd0  1  0.666667  0.333333  0.000000  1
  Nd  Nd1  1  0.333333  0.666667  0.500000  1
  Mn  Mn2  1  0.103644  0.878021  0.500000  1
  Mn  Mn3  1  0.774376  0.896356  0.500000  1
  Mn  Mn4  1  0.121979  0.225624  0.500000  1
  Fe  Fe5  1  0.272815  0.120039  0.000000  1
  Fe  Fe6  1  0.847225  0.727185  0.000000  1
  Fe  Fe7  1  0.879961  0.152775  0.000000  1
  Co  Co8  1  0.059138  0.629239  0.000000  1
  Co  Co9  1  0.570101  0.940862  0.000000  1
  Co  Co10  1  0.370761  0.429899  0.000000  1
  Co  Co11  1  0.434707  0.049843  0.500000  1
  Co  Co12  1  0.615135  0.565293  0.500000  1
  Co  Co13  1  0.950157  0.384865  0.500000  1
  P  P14  1  0.298607  0.893859  0.000000  1
  P  P15  1  0.595252  0.701393  0.000000  1
  P  P16  1  0.106141  0.404748  0.000000  1
  P  P17  1  0.398068  0.288264  0.500000  1
  P  P18  1  0.890196  0.601932  0.500000  1
  P  P19  1  0.711736  0.109804  0.500000  1
  P  P20  1  0.000000  0.000000  0.000000  1
