# generated using pymatgen
data_Sc10SnBi5S2
_symmetry_space_group_name_H-M   'P 1'
_cell_length_a   8.70519300
_cell_length_b   8.66287973
_cell_length_c   6.21375000
_cell_angle_alpha   90.00000000
_cell_angle_beta   90.00000000
_cell_angle_gamma   120.16171158
_symmetry_Int_Tables_number   1
_chemical_formula_structural   Sc10SnBi5S2
_chemical_formula_sum   'Sc10 Sn1 Bi5 S2'
_cell_volume   405.14930634
_cell_formula_units_Z   1
loop_
 _symmetry_equiv_pos_site_id
 _symmetry_equiv_pos_as_xyz
  1  'x, y, z'
loop_
 _atom_site_type_symbol
 _atom_site_label
 _atom_site_symmetry_multiplicity
 _atom_site_fract_x
 _atom_site_fract_y
 _atom_site_fract_z
 _atom_site_occupancy
  Sc  Sc0  1  0.245894  0.000000  0.750000  1
  Sc  Sc1  1  0.757380  0.000000  0.250000  1
  Sc  Sc2  1  0.992738  0.238423  0.750000  1
  Sc  Sc3  1  0.000320  0.757486  0.250000  1
  Sc  Sc4  1  0.754315  0.761577  0.750000  1
  Sc  Sc5  1  0.242834  0.242514  0.250000  1
  Sc  Sc6  1  0.336032  0.670398  0.502218  1
  Sc  Sc7  1  0.665635  0.329602  0.502218  1
  Sc  Sc8  1  0.665635  0.329602  0.997782  1
  Sc  Sc9  1  0.336032  0.670398  0.997782  1
  Sn  Sn10  1  0.600821  0.000000  0.750000  1
  Bi  Bi11  1  0.400711  0.000000  0.250000  1
  Bi  Bi12  1  0.999097  0.603113  0.750000  1
  Bi  Bi13  1  0.000862  0.398292  0.250000  1
  Bi  Bi14  1  0.395983  0.396887  0.750000  1
  Bi  Bi15  1  0.602572  0.601708  0.250000  1
  S  S16  1  0.001567  0.000000  0.499938  1
  S  S17  1  0.001567  0.000000  0.000062  1
