# generated using pymatgen
data_Dy6C2SCl5
_symmetry_space_group_name_H-M   'P 1'
_cell_length_a   3.73232309
_cell_length_b   8.55164056
_cell_length_c   10.22946934
_cell_angle_alpha   87.02029740
_cell_angle_beta   79.42942704
_cell_angle_gamma   77.10150960
_symmetry_Int_Tables_number   1
_chemical_formula_structural   Dy6C2SCl5
_chemical_formula_sum   'Dy6 C2 S1 Cl5'
_cell_volume   312.83870437
_cell_formula_units_Z   1
loop_
 _symmetry_equiv_pos_site_id
 _symmetry_equiv_pos_as_xyz
  1  'x, y, z'
loop_
 _atom_site_type_symbol
 _atom_site_label
 _atom_site_symmetry_multiplicity
 _atom_site_fract_x
 _atom_site_fract_y
 _atom_site_fract_z
 _atom_site_occupancy
  Dy  Dy0  1  0.577645  0.069679  0.779020  1
  Dy  Dy1  1  0.961594  0.405115  0.675054  1
  Dy  Dy2  1  0.692641  0.161361  0.455805  1
  Dy  Dy3  1  0.043575  0.592650  0.323455  1
  Dy  Dy4  1  0.312630  0.836437  0.542684  1
  Dy  Dy5  1  0.427616  0.928056  0.219474  1
  C  C6  1  0.126336  0.122813  0.627292  1
  C  C7  1  0.878897  0.874894  0.371198  1
  S  S8  1  0.502618  0.498893  0.499239  1
  Cl  Cl9  1  0.753981  0.747904  0.747613  1
  Cl  Cl10  1  0.376722  0.375840  0.874070  1
  Cl  Cl11  1  0.251546  0.249835  0.250786  1
  Cl  Cl12  1  0.628312  0.621856  0.124483  1
  Cl  Cl13  1  0.003110  0.998257  0.999142  1
