# generated using pymatgen
data_PrYSiO5
_symmetry_space_group_name_H-M   'P 1'
_cell_length_a   8.15793712
_cell_length_b   8.15793627
_cell_length_c   10.83367070
_cell_angle_alpha   61.10576091
_cell_angle_beta   61.10576251
_cell_angle_gamma   50.32611166
_symmetry_Int_Tables_number   1
_chemical_formula_structural   PrYSiO5
_chemical_formula_sum   'Pr4 Y4 Si4 O20'
_cell_volume   469.25036707
_cell_formula_units_Z   4
loop_
 _symmetry_equiv_pos_site_id
 _symmetry_equiv_pos_as_xyz
  1  'x, y, z'
loop_
 _atom_site_type_symbol
 _atom_site_label
 _atom_site_symmetry_multiplicity
 _atom_site_fract_x
 _atom_site_fract_y
 _atom_site_fract_z
 _atom_site_occupancy
  Pr  Pr0  1  0.783100  0.291216  0.035606  1
  Pr  Pr1  1  0.708784  0.216900  0.464394  1
  Pr  Pr2  1  0.216900  0.708784  0.964394  1
  Pr  Pr3  1  0.291216  0.783100  0.535606  1
  Y  Y4  1  0.236660  0.477401  0.337037  1
  Y  Y5  1  0.522599  0.763340  0.162963  1
  Y  Y6  1  0.763340  0.522599  0.662963  1
  Y  Y7  1  0.477401  0.236660  0.837037  1
  Si  Si8  1  0.727958  0.903494  0.306789  1
  Si  Si9  1  0.096506  0.272042  0.193211  1
  Si  Si10  1  0.272042  0.096506  0.693211  1
  Si  Si11  1  0.903494  0.727958  0.806789  1
  O  O12  1  0.421724  0.611732  0.109370  1
  O  O13  1  0.388268  0.578276  0.390630  1
  O  O14  1  0.578276  0.388268  0.890630  1
  O  O15  1  0.611732  0.421724  0.609370  1
  O  O16  1  0.867285  0.724276  0.432310  1
  O  O17  1  0.275724  0.132715  0.067690  1
  O  O18  1  0.132715  0.275724  0.567690  1
  O  O19  1  0.724276  0.867285  0.932310  1
  O  O20  1  0.565070  0.843030  0.317398  1
  O  O21  1  0.156970  0.434930  0.182602  1
  O  O22  1  0.434930  0.156970  0.682602  1
  O  O23  1  0.843030  0.565070  0.817398  1
  O  O24  1  0.158655  0.588246  0.822745  1
  O  O25  1  0.411754  0.841345  0.677255  1
  O  O26  1  0.841345  0.411754  0.177255  1
  O  O27  1  0.588246  0.158655  0.322745  1
  O  O28  1  0.909063  0.904783  0.645421  1
  O  O29  1  0.095217  0.090937  0.854579  1
  O  O30  1  0.090937  0.095217  0.354579  1
  O  O31  1  0.904783  0.909063  0.145421  1
