# generated using pymatgen
data_Lu3Co2AgSn3
_symmetry_space_group_name_H-M   'P 1'
_cell_length_a   7.54331100
_cell_length_b   7.54330992
_cell_length_c   3.68165000
_cell_angle_alpha   90.00000000
_cell_angle_beta   90.00000000
_cell_angle_gamma   120.00000034
_symmetry_Int_Tables_number   1
_chemical_formula_structural   Lu3Co2AgSn3
_chemical_formula_sum   'Lu3 Co2 Ag1 Sn3'
_cell_volume   181.42498446
_cell_formula_units_Z   1
loop_
 _symmetry_equiv_pos_site_id
 _symmetry_equiv_pos_as_xyz
  1  'x, y, z'
loop_
 _atom_site_type_symbol
 _atom_site_label
 _atom_site_symmetry_multiplicity
 _atom_site_fract_x
 _atom_site_fract_y
 _atom_site_fract_z
 _atom_site_occupancy
  Lu  Lu0  1  0.972623  0.384839  0.500000  1
  Lu  Lu1  1  0.615161  0.587784  0.500000  1
  Lu  Lu2  1  0.412216  0.027377  0.500000  1
  Co  Co3  1  0.666667  0.333333  0.000000  1
  Co  Co4  1  0.000000  0.000000  0.500000  1
  Ag  Ag5  1  0.333333  0.666667  0.000000  1
  Sn  Sn6  1  0.999849  0.743120  0.000000  1
  Sn  Sn7  1  0.256880  0.256729  0.000000  1
  Sn  Sn8  1  0.743271  0.000151  0.000000  1
