# generated using pymatgen
data_YbZrAl8SiIr3
_symmetry_space_group_name_H-M   'P 1'
_cell_length_a   7.50804543
_cell_length_b   7.47236714
_cell_length_c   9.28017700
_cell_angle_alpha   90.00000000
_cell_angle_beta   90.00000000
_cell_angle_gamma   119.59535251
_symmetry_Int_Tables_number   1
_chemical_formula_structural   YbZrAl8SiIr3
_chemical_formula_sum   'Yb2 Zr2 Al16 Si2 Ir6'
_cell_volume   452.71868282
_cell_formula_units_Z   2
loop_
 _symmetry_equiv_pos_site_id
 _symmetry_equiv_pos_as_xyz
  1  'x, y, z'
loop_
 _atom_site_type_symbol
 _atom_site_label
 _atom_site_symmetry_multiplicity
 _atom_site_fract_x
 _atom_site_fract_y
 _atom_site_fract_z
 _atom_site_occupancy
  Yb  Yb0  1  0.674115  0.993441  0.250000  1
  Yb  Yb1  1  0.325885  0.006559  0.750000  1
  Zr  Zr2  1  0.995860  0.676603  0.250000  1
  Zr  Zr3  1  0.004140  0.323397  0.750000  1
  Al  Al4  1  0.998637  0.337080  0.076831  1
  Al  Al5  1  0.001363  0.662920  0.923169  1
  Al  Al6  1  0.001363  0.662920  0.576831  1
  Al  Al7  1  0.335465  0.000296  0.421678  1
  Al  Al8  1  0.998637  0.337080  0.423169  1
  Al  Al9  1  0.664535  0.999704  0.578322  1
  Al  Al10  1  0.664535  0.999704  0.921678  1
  Al  Al11  1  0.335465  0.000296  0.078322  1
  Al  Al12  1  0.333557  0.334869  0.559216  1
  Al  Al13  1  0.666443  0.665131  0.440784  1
  Al  Al14  1  0.666443  0.665131  0.059216  1
  Al  Al15  1  0.333557  0.334869  0.940784  1
  Al  Al16  1  0.329529  0.546688  0.250000  1
  Al  Al17  1  0.670471  0.453312  0.750000  1
  Al  Al18  1  0.554299  0.340963  0.250000  1
  Al  Al19  1  0.445701  0.659037  0.750000  1
  Si  Si20  1  0.128111  0.124290  0.250000  1
  Si  Si21  1  0.871889  0.875710  0.750000  1
  Ir  Ir22  1  0.672932  0.329490  0.999483  1
  Ir  Ir23  1  0.327068  0.670510  0.000517  1
  Ir  Ir24  1  0.327068  0.670510  0.499483  1
  Ir  Ir25  1  0.672932  0.329490  0.500517  1
  Ir  Ir26  1  0.000000  0.000000  0.000000  1
  Ir  Ir27  1  0.000000  0.000000  0.500000  1
