# generated using pymatgen
data_Pu4CoB14
_symmetry_space_group_name_H-M   'P 1'
_cell_length_a   7.21944300
_cell_length_b   7.21944300
_cell_length_c   7.49714300
_cell_angle_alpha   90.00000000
_cell_angle_beta   90.00000000
_cell_angle_gamma   90.00000000
_symmetry_Int_Tables_number   1
_chemical_formula_structural   Pu4CoB14
_chemical_formula_sum   'Pu8 Co2 B28'
_cell_volume   390.75377137
_cell_formula_units_Z   2
loop_
 _symmetry_equiv_pos_site_id
 _symmetry_equiv_pos_as_xyz
  1  'x, y, z'
loop_
 _atom_site_type_symbol
 _atom_site_label
 _atom_site_symmetry_multiplicity
 _atom_site_fract_x
 _atom_site_fract_y
 _atom_site_fract_z
 _atom_site_occupancy
  Pu  Pu0  1  0.196612  0.330197  0.000000  1
  Pu  Pu1  1  0.669803  0.196612  0.000000  1
  Pu  Pu2  1  0.330197  0.803388  0.000000  1
  Pu  Pu3  1  0.696612  0.169803  0.500000  1
  Pu  Pu4  1  0.303388  0.830197  0.500000  1
  Pu  Pu5  1  0.803388  0.669803  0.000000  1
  Pu  Pu6  1  0.830197  0.696612  0.500000  1
  Pu  Pu7  1  0.169803  0.303388  0.500000  1
  Co  Co8  1  0.000000  0.000000  0.000000  1
  Co  Co9  1  0.500000  0.500000  0.500000  1
  B  B10  1  0.174880  0.040143  0.229878  1
  B  B11  1  0.959857  0.174880  0.229878  1
  B  B12  1  0.040143  0.825120  0.229878  1
  B  B13  1  0.674880  0.459857  0.270122  1
  B  B14  1  0.325120  0.540143  0.270122  1
  B  B15  1  0.825120  0.959857  0.229878  1
  B  B16  1  0.540143  0.674880  0.270122  1
  B  B17  1  0.459857  0.325120  0.270122  1
  B  B18  1  0.825120  0.959857  0.770122  1
  B  B19  1  0.040143  0.825120  0.770122  1
  B  B20  1  0.959857  0.174880  0.770122  1
  B  B21  1  0.325120  0.540143  0.729878  1
  B  B22  1  0.674880  0.459857  0.729878  1
  B  B23  1  0.174880  0.040143  0.770122  1
  B  B24  1  0.459857  0.325120  0.729878  1
  B  B25  1  0.540143  0.674880  0.729878  1
  B  B26  1  0.088954  0.588954  0.250000  1
  B  B27  1  0.411046  0.088954  0.250000  1
  B  B28  1  0.588954  0.911046  0.250000  1
  B  B29  1  0.911046  0.411046  0.250000  1
  B  B30  1  0.911046  0.411046  0.750000  1
  B  B31  1  0.588954  0.911046  0.750000  1
  B  B32  1  0.411046  0.088954  0.750000  1
  B  B33  1  0.088954  0.588954  0.750000  1
  B  B34  1  0.000000  0.000000  0.389415  1
  B  B35  1  0.500000  0.500000  0.110585  1
  B  B36  1  0.000000  0.000000  0.610585  1
  B  B37  1  0.500000  0.500000  0.889415  1
