# generated using pymatgen
data_Hf12Al3Cu9N4
_symmetry_space_group_name_H-M   'P 1'
_cell_length_a   8.36032872
_cell_length_b   8.35931687
_cell_length_c   8.43692580
_cell_angle_alpha   60.30839493
_cell_angle_beta   60.29435419
_cell_angle_gamma   59.96618068
_symmetry_Int_Tables_number   1
_chemical_formula_structural   Hf12Al3Cu9N4
_chemical_formula_sum   'Hf12 Al3 Cu9 N4'
_cell_volume   418.71124186
_cell_formula_units_Z   1
loop_
 _symmetry_equiv_pos_site_id
 _symmetry_equiv_pos_as_xyz
  1  'x, y, z'
loop_
 _atom_site_type_symbol
 _atom_site_label
 _atom_site_symmetry_multiplicity
 _atom_site_fract_x
 _atom_site_fract_y
 _atom_site_fract_z
 _atom_site_occupancy
  Hf  Hf0  1  0.810049  0.193033  0.186864  1
  Hf  Hf1  1  0.193034  0.810056  0.186873  1
  Hf  Hf2  1  0.810046  0.810069  0.186877  1
  Hf  Hf3  1  0.189054  0.810018  0.811880  1
  Hf  Hf4  1  0.810016  0.189055  0.811861  1
  Hf  Hf5  1  0.189061  0.189043  0.811845  1
  Hf  Hf6  1  0.439951  0.056967  0.063136  1
  Hf  Hf7  1  0.056966  0.439944  0.063127  1
  Hf  Hf8  1  0.439954  0.439931  0.063123  1
  Hf  Hf9  1  0.060946  0.439982  0.438120  1
  Hf  Hf10  1  0.439984  0.060945  0.438139  1
  Hf  Hf11  1  0.060939  0.060957  0.438155  1
  Al  Al12  1  0.625000  0.625000  0.625000  1
  Al  Al13  1  0.125000  0.625000  0.625000  1
  Al  Al14  1  0.625000  0.125000  0.625000  1
  Cu  Cu15  1  0.416927  0.416954  0.749226  1
  Cu  Cu16  1  0.419354  0.419104  0.415507  1
  Cu  Cu17  1  0.745952  0.419196  0.415602  1
  Cu  Cu18  1  0.419181  0.746016  0.415851  1
  Cu  Cu19  1  0.833073  0.833046  0.500774  1
  Cu  Cu20  1  0.830646  0.830896  0.834493  1
  Cu  Cu21  1  0.504048  0.830804  0.834398  1
  Cu  Cu22  1  0.830819  0.503984  0.834149  1
  Cu  Cu23  1  0.625000  0.625000  0.125000  1
  N  N24  1  0.125000  0.125000  0.625000  1
  N  N25  1  0.125000  0.125000  0.125000  1
  N  N26  1  0.625000  0.125000  0.125000  1
  N  N27  1  0.125000  0.625000  0.125000  1
