# generated using pymatgen
data_Dy2Tm(SnRh)3
_symmetry_space_group_name_H-M   'P 1'
_cell_length_a   7.68363700
_cell_length_b   7.66326488
_cell_length_c   3.71276900
_cell_angle_alpha   90.00000000
_cell_angle_beta   90.00000000
_cell_angle_gamma   120.08797428
_symmetry_Int_Tables_number   1
_chemical_formula_structural   Dy2Tm(SnRh)3
_chemical_formula_sum   'Dy2 Tm1 Sn3 Rh3'
_cell_volume   189.15749675
_cell_formula_units_Z   1
loop_
 _symmetry_equiv_pos_site_id
 _symmetry_equiv_pos_as_xyz
  1  'x, y, z'
loop_
 _atom_site_type_symbol
 _atom_site_label
 _atom_site_symmetry_multiplicity
 _atom_site_fract_x
 _atom_site_fract_y
 _atom_site_fract_z
 _atom_site_occupancy
  Dy  Dy0  1  0.000307  0.403626  0.000000  1
  Dy  Dy1  1  0.596681  0.596374  0.000000  1
  Tm  Tm2  1  0.402884  0.000000  0.000000  1
  Sn  Sn3  1  0.266286  0.264328  0.500000  1
  Sn  Sn4  1  0.001958  0.735672  0.500000  1
  Sn  Sn5  1  0.733025  0.000000  0.500000  1
  Rh  Rh6  1  0.665015  0.331278  0.500000  1
  Rh  Rh7  1  0.333736  0.668722  0.500000  1
  Rh  Rh8  1  0.000109  0.000000  0.000000  1
