# generated using pymatgen
data_Lu4MgSn3C
_symmetry_space_group_name_H-M   'P 1'
_cell_length_a   8.76669800
_cell_length_b   8.76669871
_cell_length_c   6.20285600
_cell_angle_alpha   90.00000000
_cell_angle_beta   90.00000000
_cell_angle_gamma   119.99999731
_symmetry_Int_Tables_number   1
_chemical_formula_structural   Lu4MgSn3C
_chemical_formula_sum   'Lu8 Mg2 Sn6 C2'
_cell_volume   412.85207333
_cell_formula_units_Z   2
loop_
 _symmetry_equiv_pos_site_id
 _symmetry_equiv_pos_as_xyz
  1  'x, y, z'
loop_
 _atom_site_type_symbol
 _atom_site_label
 _atom_site_symmetry_multiplicity
 _atom_site_fract_x
 _atom_site_fract_y
 _atom_site_fract_z
 _atom_site_occupancy
  Lu  Lu0  1  0.333333  0.666667  0.000000  1
  Lu  Lu1  1  0.666667  0.333333  0.000000  1
  Lu  Lu2  1  0.787703  0.787703  0.247500  1
  Lu  Lu3  1  0.212297  0.000000  0.247500  1
  Lu  Lu4  1  0.000000  0.212297  0.247500  1
  Lu  Lu5  1  0.212297  0.212297  0.752500  1
  Lu  Lu6  1  0.787703  0.000000  0.752500  1
  Lu  Lu7  1  0.000000  0.787703  0.752500  1
  Mg  Mg8  1  0.666667  0.333333  0.500000  1
  Mg  Mg9  1  0.333333  0.666667  0.500000  1
  Sn  Sn10  1  0.409349  0.409349  0.248800  1
  Sn  Sn11  1  0.590651  0.000000  0.248800  1
  Sn  Sn12  1  0.000000  0.590651  0.248800  1
  Sn  Sn13  1  0.590651  0.590651  0.751200  1
  Sn  Sn14  1  0.409349  0.000000  0.751200  1
  Sn  Sn15  1  0.000000  0.409349  0.751200  1
  C  C16  1  0.000000  0.000000  0.500000  1
  C  C17  1  0.000000  0.000000  0.000000  1
