# generated using pymatgen
data_YEr6Th(ReB6)4
_symmetry_space_group_name_H-M   'P 1'
_cell_length_a   3.68936700
_cell_length_b   9.16332708
_cell_length_c   11.55728800
_cell_angle_alpha   90.02637551
_cell_angle_beta   90.00000000
_cell_angle_gamma   90.00000000
_symmetry_Int_Tables_number   1
_chemical_formula_structural   YEr6Th(ReB6)4
_chemical_formula_sum   'Y1 Er6 Th1 Re4 B24'
_cell_volume   390.71576718
_cell_formula_units_Z   1
loop_
 _symmetry_equiv_pos_site_id
 _symmetry_equiv_pos_as_xyz
  1  'x, y, z'
loop_
 _atom_site_type_symbol
 _atom_site_label
 _atom_site_symmetry_multiplicity
 _atom_site_fract_x
 _atom_site_fract_y
 _atom_site_fract_z
 _atom_site_occupancy
  Y  Y0  1  0.000000  0.678434  0.587280  1
  Er  Er1  1  0.000000  0.823013  0.084982  1
  Er  Er2  1  0.000000  0.176117  0.914162  1
  Er  Er3  1  0.000000  0.941896  0.369219  1
  Er  Er4  1  0.000000  0.056150  0.631583  1
  Er  Er5  1  0.000000  0.443281  0.127888  1
  Er  Er6  1  0.000000  0.557651  0.871006  1
  Th  Th7  1  0.000000  0.321979  0.414028  1
  Re  Re8  1  0.000000  0.639342  0.319483  1
  Re  Re9  1  0.000000  0.361437  0.681302  1
  Re  Re10  1  0.000000  0.137852  0.177939  1
  Re  Re11  1  0.000000  0.861931  0.821329  1
  B  B12  1  0.500000  0.555644  0.431706  1
  B  B13  1  0.500000  0.446817  0.569959  1
  B  B14  1  0.500000  0.052832  0.065983  1
  B  B15  1  0.500000  0.946829  0.933288  1
  B  B16  1  0.500000  0.750450  0.417457  1
  B  B17  1  0.500000  0.250431  0.585524  1
  B  B18  1  0.500000  0.248871  0.079759  1
  B  B19  1  0.500000  0.750772  0.918896  1
  B  B20  1  0.500000  0.792338  0.264178  1
  B  B21  1  0.500000  0.207895  0.736899  1
  B  B22  1  0.500000  0.290382  0.231825  1
  B  B23  1  0.500000  0.708364  0.766208  1
  B  B24  1  0.500000  0.631652  0.183610  1
  B  B25  1  0.500000  0.369857  0.816126  1
  B  B26  1  0.500000  0.128581  0.312191  1
  B  B27  1  0.500000  0.869785  0.686334  1
  B  B28  1  0.500000  0.981322  0.210577  1
  B  B29  1  0.500000  0.017864  0.788951  1
  B  B30  1  0.500000  0.484943  0.285571  1
  B  B31  1  0.500000  0.518288  0.714203  1
  B  B32  1  0.500000  0.600927  0.027527  1
  B  B33  1  0.500000  0.399789  0.971706  1
  B  B34  1  0.500000  0.096270  0.473204  1
  B  B35  1  0.500000  0.900010  0.528115  1
