# generated using pymatgen
data_Tb11Hg8Pd4Pb
_symmetry_space_group_name_H-M   'P 1'
_cell_length_a   13.15236755
_cell_length_b   13.15236805
_cell_length_c   3.71956000
_cell_angle_alpha   90.00000000
_cell_angle_beta   90.00000000
_cell_angle_gamma   112.73943664
_symmetry_Int_Tables_number   1
_chemical_formula_structural   Tb11Hg8Pd4Pb
_chemical_formula_sum   'Tb11 Hg8 Pd4 Pb1'
_cell_volume   593.41511119
_cell_formula_units_Z   1
loop_
 _symmetry_equiv_pos_site_id
 _symmetry_equiv_pos_as_xyz
  1  'x, y, z'
loop_
 _atom_site_type_symbol
 _atom_site_label
 _atom_site_symmetry_multiplicity
 _atom_site_fract_x
 _atom_site_fract_y
 _atom_site_fract_z
 _atom_site_occupancy
  Tb  Tb0  1  0.414943  0.075604  0.000000  1
  Tb  Tb1  1  0.585057  0.924396  0.000000  1
  Tb  Tb2  1  0.075604  0.414943  0.000000  1
  Tb  Tb3  1  0.924396  0.585057  0.000000  1
  Tb  Tb4  1  0.167397  0.832603  0.000000  1
  Tb  Tb5  1  0.832603  0.167397  0.000000  1
  Tb  Tb6  1  0.370571  0.629429  0.000000  1
  Tb  Tb7  1  0.629429  0.370571  0.000000  1
  Tb  Tb8  1  0.293373  0.293373  0.000000  1
  Tb  Tb9  1  0.706627  0.706627  0.000000  1
  Tb  Tb10  1  0.000000  0.000000  0.000000  1
  Hg  Hg11  1  0.370077  0.844399  0.500000  1
  Hg  Hg12  1  0.629923  0.155601  0.500000  1
  Hg  Hg13  1  0.844401  0.370077  0.500000  1
  Hg  Hg14  1  0.155599  0.629923  0.500000  1
  Hg  Hg15  1  0.213067  0.065278  0.500000  1
  Hg  Hg16  1  0.786933  0.934722  0.500000  1
  Hg  Hg17  1  0.065277  0.213066  0.500000  1
  Hg  Hg18  1  0.934723  0.786934  0.500000  1
  Pd  Pd19  1  0.447852  0.247064  0.500000  1
  Pd  Pd20  1  0.552148  0.752936  0.500000  1
  Pd  Pd21  1  0.247065  0.447852  0.500000  1
  Pd  Pd22  1  0.752935  0.552148  0.500000  1
  Pb  Pb23  1  0.500000  0.500000  0.500000  1
