# generated using pymatgen
data_Ca2Tb(B3Rh4)2
_symmetry_space_group_name_H-M   'P 1'
_cell_length_a   9.89917130
_cell_length_b   9.05744278
_cell_length_c   5.59095199
_cell_angle_alpha   81.30984752
_cell_angle_beta   64.75143159
_cell_angle_gamma   33.93872398
_symmetry_Int_Tables_number   1
_chemical_formula_structural   Ca2Tb(B3Rh4)2
_chemical_formula_sum   'Ca2 Tb1 B6 Rh8'
_cell_volume   231.82806926
_cell_formula_units_Z   1
loop_
 _symmetry_equiv_pos_site_id
 _symmetry_equiv_pos_as_xyz
  1  'x, y, z'
loop_
 _atom_site_type_symbol
 _atom_site_label
 _atom_site_symmetry_multiplicity
 _atom_site_fract_x
 _atom_site_fract_y
 _atom_site_fract_z
 _atom_site_occupancy
  Ca  Ca0  1  0.315676  0.315676  0.684324  1
  Ca  Ca1  1  0.684324  0.684324  0.315676  1
  Tb  Tb2  1  0.500000  0.500000  0.500000  1
  B  B3  1  0.669054  0.987102  0.012898  1
  B  B4  1  0.987102  0.669054  0.330946  1
  B  B5  1  0.330946  0.012898  0.987102  1
  B  B6  1  0.012898  0.330946  0.669054  1
  B  B7  1  0.166892  0.833108  0.166892  1
  B  B8  1  0.833108  0.166892  0.833108  1
  Rh  Rh9  1  0.585169  0.585169  0.914831  1
  Rh  Rh10  1  0.913775  0.913775  0.086225  1
  Rh  Rh11  1  0.414831  0.414831  0.085169  1
  Rh  Rh12  1  0.085169  0.085169  0.414831  1
  Rh  Rh13  1  0.914831  0.914831  0.585169  1
  Rh  Rh14  1  0.250000  0.250000  0.250000  1
  Rh  Rh15  1  0.086225  0.086225  0.913775  1
  Rh  Rh16  1  0.750000  0.750000  0.750000  1
