# generated using pymatgen
data_HfZr7Ga(Si5Mo4)3
_symmetry_space_group_name_H-M   'P 1'
_cell_length_a   6.61770569
_cell_length_b   6.78007754
_cell_length_c   12.72738654
_cell_angle_alpha   90.06648317
_cell_angle_beta   89.94971000
_cell_angle_gamma   90.01978403
_symmetry_Int_Tables_number   1
_chemical_formula_structural   HfZr7Ga(Si5Mo4)3
_chemical_formula_sum   'Hf1 Zr7 Ga1 Si15 Mo12'
_cell_volume   571.05883947
_cell_formula_units_Z   1
loop_
 _symmetry_equiv_pos_site_id
 _symmetry_equiv_pos_as_xyz
  1  'x, y, z'
loop_
 _atom_site_type_symbol
 _atom_site_label
 _atom_site_symmetry_multiplicity
 _atom_site_fract_x
 _atom_site_fract_y
 _atom_site_fract_z
 _atom_site_occupancy
  Hf  Hf0  1  0.509980  0.672765  0.593113  1
  Zr  Zr1  1  0.995688  0.172539  0.093407  1
  Zr  Zr2  1  0.003927  0.828402  0.906986  1
  Zr  Zr3  1  0.503773  0.670940  0.907735  1
  Zr  Zr4  1  0.004687  0.831579  0.592820  1
  Zr  Zr5  1  0.495373  0.328973  0.093119  1
  Zr  Zr6  1  0.993384  0.169808  0.405499  1
  Zr  Zr7  1  0.498519  0.327892  0.405380  1
  Ga  Ga8  1  0.173237  0.458920  0.542812  1
  Si  Si9  1  0.032987  0.126628  0.749390  1
  Si  Si10  1  0.965708  0.877919  0.248456  1
  Si  Si11  1  0.466432  0.624112  0.249461  1
  Si  Si12  1  0.530327  0.376887  0.750364  1
  Si  Si13  1  0.301069  0.859743  0.750286  1
  Si  Si14  1  0.699657  0.136964  0.249277  1
  Si  Si15  1  0.199948  0.363726  0.250668  1
  Si  Si16  1  0.801050  0.637137  0.749789  1
  Si  Si17  1  0.834538  0.541978  0.456892  1
  Si  Si18  1  0.333225  0.958385  0.457929  1
  Si  Si19  1  0.833810  0.541470  0.042955  1
  Si  Si20  1  0.666421  0.040659  0.542406  1
  Si  Si21  1  0.165958  0.457656  0.957735  1
  Si  Si22  1  0.666137  0.041170  0.957315  1
  Si  Si23  1  0.333221  0.958169  0.043423  1
  Mo  Mo24  1  0.166480  0.510314  0.752681  1
  Mo  Mo25  1  0.832605  0.488564  0.249850  1
  Mo  Mo26  1  0.332875  0.011654  0.249774  1
  Mo  Mo27  1  0.668146  0.987810  0.750505  1
  Mo  Mo28  1  0.336344  0.156756  0.626446  1
  Mo  Mo29  1  0.667267  0.834897  0.376103  1
  Mo  Mo30  1  0.165597  0.671946  0.372370  1
  Mo  Mo31  1  0.667832  0.835073  0.123562  1
  Mo  Mo32  1  0.824074  0.335907  0.624517  1
  Mo  Mo33  1  0.331574  0.162927  0.877189  1
  Mo  Mo34  1  0.830310  0.335730  0.876495  1
  Mo  Mo35  1  0.167840  0.664004  0.123291  1
