# generated using pymatgen
data_Dy2Si2Ir3Rh
_symmetry_space_group_name_H-M   'P 1'
_cell_length_a   8.90135657
_cell_length_b   8.90135550
_cell_length_c   4.11650800
_cell_angle_alpha   90.00000000
_cell_angle_beta   90.00000000
_cell_angle_gamma   153.80015313
_symmetry_Int_Tables_number   1
_chemical_formula_structural   Dy2Si2Ir3Rh
_chemical_formula_sum   'Dy2 Si2 Ir3 Rh1'
_cell_volume   144.00428476
_cell_formula_units_Z   1
loop_
 _symmetry_equiv_pos_site_id
 _symmetry_equiv_pos_as_xyz
  1  'x, y, z'
loop_
 _atom_site_type_symbol
 _atom_site_label
 _atom_site_symmetry_multiplicity
 _atom_site_fract_x
 _atom_site_fract_y
 _atom_site_fract_z
 _atom_site_occupancy
  Dy  Dy0  1  0.099765  0.900235  0.750000  1
  Dy  Dy1  1  0.900771  0.099229  0.250000  1
  Si  Si2  1  0.323196  0.676804  0.750000  1
  Si  Si3  1  0.676528  0.323472  0.250000  1
  Ir  Ir4  1  0.542351  0.457649  0.250000  1
  Ir  Ir5  1  0.457236  0.542764  0.750000  1
  Ir  Ir6  1  0.250378  0.749622  0.250000  1
  Rh  Rh7  1  0.749776  0.250224  0.750000  1
