# generated using pymatgen
data_Tb8Hf3Sc9Ga16
_symmetry_space_group_name_H-M   'P 1'
_cell_length_a   7.25961011
_cell_length_b   7.54709916
_cell_length_c   14.46113014
_cell_angle_alpha   90.01473326
_cell_angle_beta   89.99393554
_cell_angle_gamma   89.98117765
_symmetry_Int_Tables_number   1
_chemical_formula_structural   Tb8Hf3Sc9Ga16
_chemical_formula_sum   'Tb8 Hf3 Sc9 Ga16'
_cell_volume   792.31074794
_cell_formula_units_Z   1
loop_
 _symmetry_equiv_pos_site_id
 _symmetry_equiv_pos_as_xyz
  1  'x, y, z'
loop_
 _atom_site_type_symbol
 _atom_site_label
 _atom_site_symmetry_multiplicity
 _atom_site_fract_x
 _atom_site_fract_y
 _atom_site_fract_z
 _atom_site_occupancy
  Tb  Tb0  1  0.011507  0.176981  0.094562  1
  Tb  Tb1  1  0.988907  0.822279  0.905098  1
  Tb  Tb2  1  0.488957  0.677029  0.905016  1
  Tb  Tb3  1  0.988606  0.823794  0.594215  1
  Tb  Tb4  1  0.511281  0.323079  0.094531  1
  Tb  Tb5  1  0.011192  0.176022  0.405700  1
  Tb  Tb6  1  0.510832  0.324877  0.405246  1
  Tb  Tb7  1  0.488937  0.675798  0.594623  1
  Hf  Hf8  1  0.329882  0.174290  0.624468  1
  Hf  Hf9  1  0.670783  0.823987  0.376631  1
  Hf  Hf10  1  0.170813  0.675416  0.376847  1
  Sc  Sc11  1  0.162636  0.503573  0.750514  1
  Sc  Sc12  1  0.837677  0.496304  0.249203  1
  Sc  Sc13  1  0.337444  0.003463  0.249618  1
  Sc  Sc14  1  0.662315  0.996633  0.750363  1
  Sc  Sc15  1  0.670700  0.827519  0.123571  1
  Sc  Sc16  1  0.828616  0.325152  0.623009  1
  Sc  Sc17  1  0.329636  0.173072  0.875934  1
  Sc  Sc18  1  0.829117  0.327404  0.876304  1
  Sc  Sc19  1  0.170582  0.672744  0.123585  1
  Ga  Ga20  1  0.032780  0.119158  0.748102  1
  Ga  Ga21  1  0.967998  0.879328  0.252519  1
  Ga  Ga22  1  0.467990  0.620596  0.252535  1
  Ga  Ga23  1  0.530805  0.380268  0.748487  1
  Ga  Ga24  1  0.285472  0.874633  0.747914  1
  Ga  Ga25  1  0.714811  0.124548  0.252116  1
  Ga  Ga26  1  0.214774  0.375225  0.252139  1
  Ga  Ga27  1  0.784402  0.626863  0.749007  1
  Ga  Ga28  1  0.162208  0.463116  0.539515  1
  Ga  Ga29  1  0.841028  0.539166  0.458278  1
  Ga  Ga30  1  0.339760  0.962382  0.459859  1
  Ga  Ga31  1  0.840256  0.536168  0.041042  1
  Ga  Ga32  1  0.657252  0.035598  0.539739  1
  Ga  Ga33  1  0.160347  0.463657  0.959405  1
  Ga  Ga34  1  0.659550  0.036167  0.959206  1
  Ga  Ga35  1  0.340148  0.963712  0.041099  1
