# generated using pymatgen
data_Hf7Zr3Ga2Sn5Sb
_symmetry_space_group_name_H-M   'P 1'
_cell_length_a   8.65243530
_cell_length_b   8.64727758
_cell_length_c   5.87418000
_cell_angle_alpha   90.00000000
_cell_angle_beta   90.00000000
_cell_angle_gamma   120.00459614
_symmetry_Int_Tables_number   1
_chemical_formula_structural   Hf7Zr3Ga2Sn5Sb
_chemical_formula_sum   'Hf7 Zr3 Ga2 Sn5 Sb1'
_cell_volume   380.60590938
_cell_formula_units_Z   1
loop_
 _symmetry_equiv_pos_site_id
 _symmetry_equiv_pos_as_xyz
  1  'x, y, z'
loop_
 _atom_site_type_symbol
 _atom_site_label
 _atom_site_symmetry_multiplicity
 _atom_site_fract_x
 _atom_site_fract_y
 _atom_site_fract_z
 _atom_site_occupancy
  Hf  Hf0  1  0.000875  0.266593  0.750000  1
  Hf  Hf1  1  0.731885  0.000238  0.250000  1
  Hf  Hf2  1  0.999783  0.731756  0.250000  1
  Hf  Hf3  1  0.667093  0.333379  0.000714  1
  Hf  Hf4  1  0.333253  0.666269  0.000685  1
  Hf  Hf5  1  0.333253  0.666269  0.499315  1
  Hf  Hf6  1  0.667093  0.333379  0.499286  1
  Zr  Zr7  1  0.732935  0.732584  0.750000  1
  Zr  Zr8  1  0.266213  0.000839  0.750000  1
  Zr  Zr9  1  0.267637  0.268053  0.250000  1
  Ga  Ga10  1  0.998387  0.999100  0.002225  1
  Ga  Ga11  1  0.998387  0.999100  0.497775  1
  Sn  Sn12  1  0.612387  0.000583  0.750000  1
  Sn  Sn13  1  0.000362  0.611072  0.750000  1
  Sn  Sn14  1  0.613771  0.613776  0.250000  1
  Sn  Sn15  1  0.388089  0.998888  0.250000  1
  Sn  Sn16  1  0.998967  0.388125  0.250000  1
  Sb  Sb17  1  0.389629  0.389998  0.750000  1
