# generated using pymatgen
data_LaTcH5
_symmetry_space_group_name_H-M   'P 1'
_cell_length_a   4.75470500
_cell_length_b   4.64951600
_cell_length_c   12.11839100
_cell_angle_alpha   90.00000000
_cell_angle_beta   90.00000000
_cell_angle_gamma   90.00000000
_symmetry_Int_Tables_number   1
_chemical_formula_structural   LaTcH5
_chemical_formula_sum   'La4 Tc4 H20'
_cell_volume   267.90220262
_cell_formula_units_Z   4
loop_
 _symmetry_equiv_pos_site_id
 _symmetry_equiv_pos_as_xyz
  1  'x, y, z'
loop_
 _atom_site_type_symbol
 _atom_site_label
 _atom_site_symmetry_multiplicity
 _atom_site_fract_x
 _atom_site_fract_y
 _atom_site_fract_z
 _atom_site_occupancy
  La  La0  1  0.249198  0.252106  0.644784  1
  La  La1  1  0.749198  0.247894  0.355216  1
  La  La2  1  0.250802  0.747894  0.144784  1
  La  La3  1  0.750802  0.752106  0.855216  1
  Tc  Tc4  1  0.250744  0.215742  0.917032  1
  Tc  Tc5  1  0.750744  0.284258  0.082968  1
  Tc  Tc6  1  0.249256  0.784258  0.417032  1
  Tc  Tc7  1  0.749256  0.715742  0.582968  1
  H  H8  1  0.482387  0.528569  0.497929  1
  H  H9  1  0.982387  0.971431  0.502071  1
  H  H10  1  0.017613  0.471431  0.997929  1
  H  H11  1  0.517613  0.028569  0.002071  1
  H  H12  1  0.251473  0.915326  0.835872  1
  H  H13  1  0.751473  0.584674  0.164128  1
  H  H14  1  0.248527  0.084674  0.335872  1
  H  H15  1  0.748527  0.415326  0.664128  1
  H  H16  1  0.991419  0.285844  0.821003  1
  H  H17  1  0.491419  0.214156  0.178997  1
  H  H18  1  0.508581  0.714156  0.321003  1
  H  H19  1  0.008581  0.785844  0.678997  1
  H  H20  1  0.506827  0.289832  0.820313  1
  H  H21  1  0.006827  0.210168  0.179687  1
  H  H22  1  0.993173  0.710168  0.320313  1
  H  H23  1  0.493173  0.789832  0.679687  1
  H  H24  1  0.984313  0.028159  0.002438  1
  H  H25  1  0.484313  0.471841  0.997562  1
  H  H26  1  0.515687  0.971841  0.502438  1
  H  H27  1  0.015687  0.528159  0.497562  1
