# generated using pymatgen
data_SrAc3(PPd)4
_symmetry_space_group_name_H-M   'P 1'
_cell_length_a   8.38978006
_cell_length_b   4.36883500
_cell_length_c   7.55974100
_cell_angle_alpha   90.00000000
_cell_angle_beta   90.00665850
_cell_angle_gamma   90.00000000
_symmetry_Int_Tables_number   1
_chemical_formula_structural   SrAc3(PPd)4
_chemical_formula_sum   'Sr1 Ac3 P4 Pd4'
_cell_volume   277.09145439
_cell_formula_units_Z   1
loop_
 _symmetry_equiv_pos_site_id
 _symmetry_equiv_pos_as_xyz
  1  'x, y, z'
loop_
 _atom_site_type_symbol
 _atom_site_label
 _atom_site_symmetry_multiplicity
 _atom_site_fract_x
 _atom_site_fract_y
 _atom_site_fract_z
 _atom_site_occupancy
  Sr  Sr0  1  0.999886  0.750000  0.249146  1
  Ac  Ac1  1  0.499989  0.750000  0.250606  1
  Ac  Ac2  1  0.500097  0.249999  0.749282  1
  Ac  Ac3  1  0.999998  0.249999  0.750880  1
  P  P4  1  0.743926  0.249999  0.083337  1
  P  P5  1  0.254608  0.249999  0.416675  1
  P  P6  1  0.749423  0.750000  0.581299  1
  P  P7  1  0.252245  0.750000  0.918671  1
  Pd  Pd8  1  0.250283  0.249999  0.081180  1
  Pd  Pd9  1  0.750799  0.249999  0.418881  1
  Pd  Pd10  1  0.248870  0.750000  0.583855  1
  Pd  Pd11  1  0.749878  0.750000  0.916186  1
