# generated using pymatgen
data_Tm2Sc3Co19Si11P
_symmetry_space_group_name_H-M   'P 1'
_cell_length_a   12.04612800
_cell_length_b   12.08405286
_cell_length_c   3.67166500
_cell_angle_alpha   90.00000000
_cell_angle_beta   90.00000000
_cell_angle_gamma   120.10420219
_symmetry_Int_Tables_number   1
_chemical_formula_structural   Tm2Sc3Co19Si11P
_chemical_formula_sum   'Tm2 Sc3 Co19 Si11 P1'
_cell_volume   462.37761384
_cell_formula_units_Z   1
loop_
 _symmetry_equiv_pos_site_id
 _symmetry_equiv_pos_as_xyz
  1  'x, y, z'
loop_
 _atom_site_type_symbol
 _atom_site_label
 _atom_site_symmetry_multiplicity
 _atom_site_fract_x
 _atom_site_fract_y
 _atom_site_fract_z
 _atom_site_occupancy
  Tm  Tm0  1  0.667346  0.333517  0.000000  1
  Tm  Tm1  1  0.332654  0.666172  0.000000  1
  Sc  Sc2  1  0.184452  0.185234  0.500000  1
  Sc  Sc3  1  0.815548  0.000782  0.500000  1
  Sc  Sc4  1  0.000000  0.814226  0.500000  1
  Co  Co5  1  0.824569  0.195313  0.000000  1
  Co  Co6  1  0.804315  0.625460  0.000000  1
  Co  Co7  1  0.374223  0.178736  0.000000  1
  Co  Co8  1  0.195685  0.821147  0.000000  1
  Co  Co9  1  0.625777  0.804513  0.000000  1
  Co  Co10  1  0.175431  0.370745  0.000000  1
  Co  Co11  1  0.557289  0.557802  0.000000  1
  Co  Co12  1  0.442711  0.000513  0.000000  1
  Co  Co13  1  0.000000  0.442668  0.000000  1
  Co  Co14  1  0.646542  0.123842  0.500000  1
  Co  Co15  1  0.876845  0.521489  0.500000  1
  Co  Co16  1  0.477638  0.354817  0.500000  1
  Co  Co17  1  0.123155  0.644644  0.500000  1
  Co  Co18  1  0.522362  0.877179  0.500000  1
  Co  Co19  1  0.353458  0.477300  0.500000  1
  Co  Co20  1  0.721327  0.721195  0.500000  1
  Co  Co21  1  0.278673  0.999869  0.500000  1
  Co  Co22  1  0.000000  0.275374  0.500000  1
  Co  Co23  1  0.000000  0.005722  0.000000  1
  Si  Si24  1  0.366543  0.366776  0.000000  1
  Si  Si25  1  0.633457  0.000233  0.000000  1
  Si  Si26  1  0.000000  0.633011  0.000000  1
  Si  Si27  1  0.841563  0.319186  0.500000  1
  Si  Si28  1  0.681368  0.521964  0.500000  1
  Si  Si29  1  0.478460  0.159842  0.500000  1
  Si  Si30  1  0.318632  0.840597  0.500000  1
  Si  Si31  1  0.521540  0.681384  0.500000  1
  Si  Si32  1  0.158437  0.477623  0.500000  1
  Si  Si33  1  0.821938  0.821361  0.000000  1
  Si  Si34  1  0.178062  0.999423  0.000000  1
  P  P35  1  0.000000  0.180341  0.000000  1
