# generated using pymatgen
data_Cs2BaTa6Cl18
_symmetry_space_group_name_H-M   'P 1'
_cell_length_a   10.67610102
_cell_length_b   10.67610095
_cell_length_c   10.67610071
_cell_angle_alpha   54.90601982
_cell_angle_beta   54.90602110
_cell_angle_gamma   54.90601703
_symmetry_Int_Tables_number   1
_chemical_formula_structural   Cs2BaTa6Cl18
_chemical_formula_sum   'Cs2 Ba1 Ta6 Cl18'
_cell_volume   758.42445146
_cell_formula_units_Z   1
loop_
 _symmetry_equiv_pos_site_id
 _symmetry_equiv_pos_as_xyz
  1  'x, y, z'
loop_
 _atom_site_type_symbol
 _atom_site_label
 _atom_site_symmetry_multiplicity
 _atom_site_fract_x
 _atom_site_fract_y
 _atom_site_fract_z
 _atom_site_occupancy
  Cs  Cs0  1  0.276018  0.276018  0.276018  1
  Cs  Cs1  1  0.723982  0.723982  0.723982  1
  Ba  Ba2  1  0.000000  0.000000  0.000000  1
  Ta  Ta3  1  0.423688  0.304875  0.640873  1
  Ta  Ta4  1  0.359127  0.576312  0.695125  1
  Ta  Ta5  1  0.695125  0.359127  0.576312  1
  Ta  Ta6  1  0.640873  0.423688  0.304875  1
  Ta  Ta7  1  0.576312  0.695125  0.359127  1
  Ta  Ta8  1  0.304875  0.640873  0.423688  1
  Cl  Cl9  1  0.639354  0.101387  0.761440  1
  Cl  Cl10  1  0.761440  0.639354  0.101387  1
  Cl  Cl11  1  0.101387  0.761440  0.639354  1
  Cl  Cl12  1  0.816417  0.332600  0.050917  1
  Cl  Cl13  1  0.175636  0.434529  0.576723  1
  Cl  Cl14  1  0.667400  0.949083  0.183583  1
  Cl  Cl15  1  0.898613  0.238560  0.360646  1
  Cl  Cl16  1  0.565471  0.423277  0.824364  1
  Cl  Cl17  1  0.423277  0.824364  0.565471  1
  Cl  Cl18  1  0.949083  0.183583  0.667400  1
  Cl  Cl19  1  0.183583  0.667400  0.949083  1
  Cl  Cl20  1  0.050917  0.816417  0.332600  1
  Cl  Cl21  1  0.332600  0.050917  0.816417  1
  Cl  Cl22  1  0.238560  0.360646  0.898613  1
  Cl  Cl23  1  0.576723  0.175636  0.434529  1
  Cl  Cl24  1  0.434529  0.576723  0.175636  1
  Cl  Cl25  1  0.360646  0.898613  0.238560  1
  Cl  Cl26  1  0.824364  0.565471  0.423277  1
