# generated using pymatgen
data_YZrTaB2Ru5
_symmetry_space_group_name_H-M   'P 1'
_cell_length_a   9.59309949
_cell_length_b   9.59309965
_cell_length_c   3.13024900
_cell_angle_alpha   90.00000000
_cell_angle_beta   90.00000000
_cell_angle_gamma   89.51096694
_symmetry_Int_Tables_number   1
_chemical_formula_structural   YZrTaB2Ru5
_chemical_formula_sum   'Y2 Zr2 Ta2 B4 Ru10'
_cell_volume   288.05868301
_cell_formula_units_Z   2
loop_
 _symmetry_equiv_pos_site_id
 _symmetry_equiv_pos_as_xyz
  1  'x, y, z'
loop_
 _atom_site_type_symbol
 _atom_site_label
 _atom_site_symmetry_multiplicity
 _atom_site_fract_x
 _atom_site_fract_y
 _atom_site_fract_z
 _atom_site_occupancy
  Y  Y0  1  0.323950  0.823950  0.000000  1
  Y  Y1  1  0.676050  0.176050  0.000000  1
  Zr  Zr2  1  0.824991  0.675009  0.000000  1
  Zr  Zr3  1  0.175009  0.324991  0.000000  1
  Ta  Ta4  1  0.500000  0.500000  0.000000  1
  Ta  Ta5  1  0.000000  0.000000  0.000000  1
  B  B6  1  0.621664  0.878336  0.000000  1
  B  B7  1  0.378336  0.121664  0.000000  1
  B  B8  1  0.120165  0.620165  0.000000  1
  B  B9  1  0.879835  0.379835  0.000000  1
  Ru  Ru10  1  0.577237  0.716164  0.500000  1
  Ru  Ru11  1  0.422763  0.283836  0.500000  1
  Ru  Ru12  1  0.063925  0.778685  0.500000  1
  Ru  Ru13  1  0.936075  0.221315  0.500000  1
  Ru  Ru14  1  0.278685  0.563925  0.500000  1
  Ru  Ru15  1  0.721315  0.436075  0.500000  1
  Ru  Ru16  1  0.216164  0.077237  0.500000  1
  Ru  Ru17  1  0.783836  0.922763  0.500000  1
  Ru  Ru18  1  0.500000  0.000000  0.500000  1
  Ru  Ru19  1  0.000000  0.500000  0.500000  1
