# generated using pymatgen
data_CsAsClF3
_symmetry_space_group_name_H-M   'P 1'
_cell_length_a   5.00720142
_cell_length_b   7.82873522
_cell_length_c   8.60944047
_cell_angle_alpha   111.53488236
_cell_angle_beta   98.02565136
_cell_angle_gamma   102.99296182
_symmetry_Int_Tables_number   1
_chemical_formula_structural   CsAsClF3
_chemical_formula_sum   'Cs2 As2 Cl2 F6'
_cell_volume   296.56467880
_cell_formula_units_Z   2
loop_
 _symmetry_equiv_pos_site_id
 _symmetry_equiv_pos_as_xyz
  1  'x, y, z'
loop_
 _atom_site_type_symbol
 _atom_site_label
 _atom_site_symmetry_multiplicity
 _atom_site_fract_x
 _atom_site_fract_y
 _atom_site_fract_z
 _atom_site_occupancy
  Cs  Cs0  1  0.957576  0.664548  0.307167  1
  Cs  Cs1  1  0.042425  0.335452  0.692833  1
  As  As2  1  0.354603  0.151178  0.203204  1
  As  As3  1  0.645398  0.848821  0.796797  1
  Cl  Cl4  1  0.435464  0.781357  0.066655  1
  Cl  Cl5  1  0.564537  0.218641  0.933344  1
  F  F6  1  0.343090  0.400241  0.297948  1
  F  F7  1  0.723411  0.232390  0.307844  1
  F  F8  1  0.268286  0.107854  0.389223  1
  F  F9  1  0.731711  0.892147  0.610775  1
  F  F10  1  0.276592  0.767611  0.692158  1
  F  F11  1  0.656909  0.599758  0.702051  1
