# generated using pymatgen
data_Nd5YZn4Pd3Pt10
_symmetry_space_group_name_H-M   'P 1'
_cell_length_a   8.37589325
_cell_length_b   8.37589430
_cell_length_c   8.37584241
_cell_angle_alpha   109.47409381
_cell_angle_beta   109.47409047
_cell_angle_gamma   109.43934132
_symmetry_Int_Tables_number   1
_chemical_formula_structural   Nd5YZn4Pd3Pt10
_chemical_formula_sum   'Nd5 Y1 Zn4 Pd3 Pt10'
_cell_volume   452.48990461
_cell_formula_units_Z   1
loop_
 _symmetry_equiv_pos_site_id
 _symmetry_equiv_pos_as_xyz
  1  'x, y, z'
loop_
 _atom_site_type_symbol
 _atom_site_label
 _atom_site_symmetry_multiplicity
 _atom_site_fract_x
 _atom_site_fract_y
 _atom_site_fract_z
 _atom_site_occupancy
  Nd  Nd0  1  0.299701  0.999350  0.299409  1
  Nd  Nd1  1  0.999350  0.299701  0.299409  1
  Nd  Nd2  1  0.297844  0.297844  0.999670  1
  Nd  Nd3  1  0.699839  0.001567  0.699943  1
  Nd  Nd4  1  0.001567  0.699839  0.699943  1
  Y  Y5  1  0.696709  0.696709  0.002619  1
  Zn  Zn6  1  0.999946  0.999946  0.498089  1
  Zn  Zn7  1  0.999634  0.501557  0.999154  1
  Zn  Zn8  1  0.501557  0.999634  0.999154  1
  Zn  Zn9  1  0.501970  0.501970  0.502012  1
  Pd  Pd10  1  0.667361  0.667361  0.334232  1
  Pd  Pd11  1  0.669864  0.340813  0.670484  1
  Pd  Pd12  1  0.340813  0.669864  0.670484  1
  Pt  Pt13  1  0.334693  0.334693  0.665335  1
  Pt  Pt14  1  0.671862  0.000009  0.328769  1
  Pt  Pt15  1  0.000009  0.671862  0.328769  1
  Pt  Pt16  1  0.668902  0.334529  0.000918  1
  Pt  Pt17  1  0.330573  0.659899  0.330688  1
  Pt  Pt18  1  0.001257  0.331057  0.670500  1
  Pt  Pt19  1  0.334529  0.668902  0.000918  1
  Pt  Pt20  1  0.331057  0.001257  0.670500  1
  Pt  Pt21  1  0.659899  0.330573  0.330688  1
  Pt  Pt22  1  0.991064  0.991064  0.998311  1
