# generated using pymatgen
data_Tb9Dy8Er3Pb16
_symmetry_space_group_name_H-M   'P 1'
_cell_length_a   8.21078916
_cell_length_b   8.29809919
_cell_length_c   15.67053102
_cell_angle_alpha   90.00022041
_cell_angle_beta   90.01166781
_cell_angle_gamma   90.05483610
_symmetry_Int_Tables_number   1
_chemical_formula_structural   Tb9Dy8Er3Pb16
_chemical_formula_sum   'Tb9 Dy8 Er3 Pb16'
_cell_volume   1067.69455405
_cell_formula_units_Z   1
loop_
 _symmetry_equiv_pos_site_id
 _symmetry_equiv_pos_as_xyz
  1  'x, y, z'
loop_
 _atom_site_type_symbol
 _atom_site_label
 _atom_site_symmetry_multiplicity
 _atom_site_fract_x
 _atom_site_fract_y
 _atom_site_fract_z
 _atom_site_occupancy
  Tb  Tb0  1  0.876464  0.659371  0.879568  1
  Tb  Tb1  1  0.534241  0.322874  0.900178  1
  Tb  Tb2  1  0.034162  0.176665  0.599740  1
  Tb  Tb3  1  0.465818  0.676841  0.400070  1
  Tb  Tb4  1  0.965682  0.823448  0.100235  1
  Tb  Tb5  1  0.466005  0.676684  0.099988  1
  Tb  Tb6  1  0.965773  0.823197  0.400083  1
  Tb  Tb7  1  0.534129  0.322995  0.599802  1
  Tb  Tb8  1  0.034158  0.176520  0.900031  1
  Dy  Dy9  1  0.376426  0.841074  0.879072  1
  Dy  Dy10  1  0.876140  0.658957  0.620763  1
  Dy  Dy11  1  0.623685  0.158835  0.379160  1
  Dy  Dy12  1  0.123535  0.341215  0.120830  1
  Dy  Dy13  1  0.623358  0.158789  0.121188  1
  Dy  Dy14  1  0.123598  0.341031  0.379111  1
  Dy  Dy15  1  0.376634  0.841242  0.620666  1
  Dy  Dy16  1  0.208315  0.504020  0.749876  1
  Er  Er17  1  0.708267  0.995811  0.749835  1
  Er  Er18  1  0.791580  0.495653  0.250171  1
  Er  Er19  1  0.291546  0.004105  0.249980  1
  Pb  Pb20  1  0.282160  0.034317  0.042988  1
  Pb  Pb21  1  0.782392  0.465698  0.456939  1
  Pb  Pb22  1  0.717689  0.965609  0.542838  1
  Pb  Pb23  1  0.218760  0.534054  0.957425  1
  Pb  Pb24  1  0.717166  0.966521  0.957118  1
  Pb  Pb25  1  0.217595  0.534439  0.542532  1
  Pb  Pb26  1  0.282252  0.034414  0.456905  1
  Pb  Pb27  1  0.782140  0.465464  0.043461  1
  Pb  Pb28  1  0.571990  0.626881  0.749758  1
  Pb  Pb29  1  0.071657  0.874193  0.749685  1
  Pb  Pb30  1  0.428395  0.373403  0.250096  1
  Pb  Pb31  1  0.928612  0.126628  0.250029  1
  Pb  Pb32  1  0.345840  0.152476  0.749940  1
  Pb  Pb33  1  0.845394  0.346522  0.749832  1
  Pb  Pb34  1  0.654228  0.846792  0.250064  1
  Pb  Pb35  1  0.154214  0.653267  0.250049  1
