# generated using pymatgen
data_Nd2FeOsI
_symmetry_space_group_name_H-M   'P 1'
_cell_length_a   4.18909700
_cell_length_b   4.18909825
_cell_length_c   17.85811800
_cell_angle_alpha   90.00000000
_cell_angle_beta   90.00000000
_cell_angle_gamma   120.00001381
_symmetry_Int_Tables_number   1
_chemical_formula_structural   Nd2FeOsI
_chemical_formula_sum   'Nd4 Fe2 Os2 I2'
_cell_volume   271.39836235
_cell_formula_units_Z   2
loop_
 _symmetry_equiv_pos_site_id
 _symmetry_equiv_pos_as_xyz
  1  'x, y, z'
loop_
 _atom_site_type_symbol
 _atom_site_label
 _atom_site_symmetry_multiplicity
 _atom_site_fract_x
 _atom_site_fract_y
 _atom_site_fract_z
 _atom_site_occupancy
  Nd  Nd0  1  0.000000  0.000000  0.105241  1
  Nd  Nd1  1  0.000000  0.000000  0.605241  1
  Nd  Nd2  1  0.000000  0.000000  0.894310  1
  Nd  Nd3  1  0.000000  0.000000  0.394310  1
  Fe  Fe4  1  0.333333  0.666667  0.005284  1
  Fe  Fe5  1  0.666667  0.333333  0.505284  1
  Os  Os6  1  0.666667  0.333333  0.995460  1
  Os  Os7  1  0.333333  0.666667  0.495460  1
  I  I8  1  0.666667  0.333333  0.249707  1
  I  I9  1  0.333333  0.666667  0.749707  1
