# generated using pymatgen
data_Yb10LuReN10
_symmetry_space_group_name_H-M   'P 1'
_cell_length_a   6.88714600
_cell_length_b   6.88714554
_cell_length_c   8.71042800
_cell_angle_alpha   80.42739198
_cell_angle_beta   80.42739262
_cell_angle_gamma   59.91017149
_symmetry_Int_Tables_number   1
_chemical_formula_structural   Yb10LuReN10
_chemical_formula_sum   'Yb10 Lu1 Re1 N10'
_cell_volume   350.83598398
_cell_formula_units_Z   1
loop_
 _symmetry_equiv_pos_site_id
 _symmetry_equiv_pos_as_xyz
  1  'x, y, z'
loop_
 _atom_site_type_symbol
 _atom_site_label
 _atom_site_symmetry_multiplicity
 _atom_site_fract_x
 _atom_site_fract_y
 _atom_site_fract_z
 _atom_site_occupancy
  Yb  Yb0  1  0.877986  0.358995  0.828122  1
  Yb  Yb1  1  0.871712  0.871712  0.817166  1
  Yb  Yb2  1  0.737270  0.737270  0.531426  1
  Yb  Yb3  1  0.744969  0.256283  0.513259  1
  Yb  Yb4  1  0.622896  0.138997  0.154061  1
  Yb  Yb5  1  0.358995  0.877986  0.828122  1
  Yb  Yb6  1  0.256283  0.744969  0.513259  1
  Yb  Yb7  1  0.242537  0.242537  0.498545  1
  Yb  Yb8  1  0.139437  0.139437  0.167822  1
  Yb  Yb9  1  0.138997  0.622896  0.154061  1
  Lu  Lu10  1  0.370178  0.370178  0.782646  1
  Re  Re11  1  0.632297  0.632297  0.223482  1
  N  N12  1  0.902600  0.473383  0.314823  1
  N  N13  1  0.993172  0.993172  0.023908  1
  N  N14  1  0.676826  0.676826  0.011892  1
  N  N15  1  0.553843  0.553843  0.679300  1
  N  N16  1  0.473383  0.902600  0.314823  1
  N  N17  1  0.552519  0.066063  0.659949  1
  N  N18  1  0.475223  0.475223  0.296458  1
  N  N19  1  0.313277  0.313277  0.028331  1
  N  N20  1  0.061820  0.061820  0.644406  1
  N  N21  1  0.066063  0.552519  0.659949  1
