# generated using pymatgen
data_BaNiH5
_symmetry_space_group_name_H-M   'P 1'
_cell_length_a   4.89248800
_cell_length_b   6.73901000
_cell_length_c   9.12934800
_cell_angle_alpha   90.00000000
_cell_angle_beta   90.00000000
_cell_angle_gamma   90.00000000
_symmetry_Int_Tables_number   1
_chemical_formula_structural   BaNiH5
_chemical_formula_sum   'Ba4 Ni4 H20'
_cell_volume   300.99940155
_cell_formula_units_Z   4
loop_
 _symmetry_equiv_pos_site_id
 _symmetry_equiv_pos_as_xyz
  1  'x, y, z'
loop_
 _atom_site_type_symbol
 _atom_site_label
 _atom_site_symmetry_multiplicity
 _atom_site_fract_x
 _atom_site_fract_y
 _atom_site_fract_z
 _atom_site_occupancy
  Ba  Ba0  1  0.233580  0.364880  0.184243  1
  Ba  Ba1  1  0.733580  0.635120  0.815757  1
  Ba  Ba2  1  0.733580  0.864880  0.315757  1
  Ba  Ba3  1  0.233580  0.135120  0.684243  1
  Ni  Ni4  1  0.229890  0.651506  0.543001  1
  Ni  Ni5  1  0.729890  0.348494  0.456999  1
  Ni  Ni6  1  0.729890  0.151506  0.956999  1
  Ni  Ni7  1  0.229890  0.848494  0.043001  1
  H  H8  1  0.970570  0.507643  0.501665  1
  H  H9  1  0.470570  0.492357  0.498335  1
  H  H10  1  0.470570  0.007643  0.998335  1
  H  H11  1  0.970570  0.992357  0.001665  1
  H  H12  1  0.994606  0.696624  0.080457  1
  H  H13  1  0.494606  0.303376  0.919543  1
  H  H14  1  0.494606  0.196624  0.419543  1
  H  H15  1  0.994606  0.803376  0.580457  1
  H  H16  1  0.473706  0.703271  0.079252  1
  H  H17  1  0.973706  0.296729  0.920748  1
  H  H18  1  0.973706  0.203271  0.420748  1
  H  H19  1  0.473706  0.796729  0.579252  1
  H  H20  1  0.232697  0.778190  0.885311  1
  H  H21  1  0.732697  0.221810  0.114689  1
  H  H22  1  0.732697  0.278190  0.614689  1
  H  H23  1  0.232697  0.721810  0.385311  1
  H  H24  1  0.231951  0.935255  0.198676  1
  H  H25  1  0.731951  0.064745  0.801324  1
  H  H26  1  0.731951  0.435255  0.301324  1
  H  H27  1  0.231951  0.564745  0.698676  1
