# generated using pymatgen
data_Dy6Ho2Sc12Si15As
_symmetry_space_group_name_H-M   'P 1'
_cell_length_a   7.13318292
_cell_length_b   7.36513392
_cell_length_c   13.96673641
_cell_angle_alpha   90.02672152
_cell_angle_beta   88.79553629
_cell_angle_gamma   90.17874724
_symmetry_Int_Tables_number   1
_chemical_formula_structural   Dy6Ho2Sc12Si15As
_chemical_formula_sum   'Dy6 Ho2 Sc12 Si15 As1'
_cell_volume   733.60254518
_cell_formula_units_Z   1
loop_
 _symmetry_equiv_pos_site_id
 _symmetry_equiv_pos_as_xyz
  1  'x, y, z'
loop_
 _atom_site_type_symbol
 _atom_site_label
 _atom_site_symmetry_multiplicity
 _atom_site_fract_x
 _atom_site_fract_y
 _atom_site_fract_z
 _atom_site_occupancy
  Dy  Dy0  1  0.011484  0.176017  0.097245  1
  Dy  Dy1  1  0.989015  0.824570  0.902563  1
  Dy  Dy2  1  0.489125  0.675287  0.902907  1
  Dy  Dy3  1  0.994359  0.821787  0.595659  1
  Dy  Dy4  1  0.511297  0.325243  0.097225  1
  Dy  Dy5  1  0.003908  0.178228  0.403847  1
  Ho  Ho6  1  0.503147  0.321049  0.402128  1
  Ho  Ho7  1  0.501485  0.677749  0.597419  1
  Sc  Sc8  1  0.166657  0.500814  0.749742  1
  Sc  Sc9  1  0.833198  0.499157  0.253020  1
  Sc  Sc10  1  0.333460  0.000918  0.251644  1
  Sc  Sc11  1  0.666760  0.998960  0.748797  1
  Sc  Sc12  1  0.342564  0.170540  0.626416  1
  Sc  Sc13  1  0.658331  0.827930  0.373924  1
  Sc  Sc14  1  0.156190  0.671727  0.377193  1
  Sc  Sc15  1  0.667213  0.823517  0.125592  1
  Sc  Sc16  1  0.840933  0.329155  0.622571  1
  Sc  Sc17  1  0.332387  0.176042  0.874033  1
  Sc  Sc18  1  0.833541  0.322876  0.874500  1
  Sc  Sc19  1  0.166645  0.677137  0.125105  1
  Si  Si20  1  0.038163  0.116741  0.749379  1
  Si  Si21  1  0.961667  0.883583  0.249674  1
  Si  Si22  1  0.458239  0.616863  0.249133  1
  Si  Si23  1  0.540744  0.383381  0.750531  1
  Si  Si24  1  0.290225  0.870809  0.750113  1
  Si  Si25  1  0.710589  0.127818  0.249301  1
  Si  Si26  1  0.209253  0.373785  0.249861  1
  Si  Si27  1  0.792088  0.626774  0.750196  1
  Si  Si28  1  0.809971  0.540021  0.457268  1
  Si  Si29  1  0.329848  0.962092  0.460629  1
  Si  Si30  1  0.842997  0.535321  0.039327  1
  Si  Si31  1  0.670035  0.038004  0.539936  1
  Si  Si32  1  0.156711  0.465296  0.960400  1
  Si  Si33  1  0.656125  0.034696  0.959922  1
  Si  Si34  1  0.343898  0.965920  0.040084  1
  As  As35  1  0.187751  0.460191  0.542716  1
