# generated using pymatgen
data_Nd2Fe2P7Ru9Pt
_symmetry_space_group_name_H-M   'P 1'
_cell_length_a   9.47853743
_cell_length_b   9.42112147
_cell_length_c   3.91533900
_cell_angle_alpha   90.00000000
_cell_angle_beta   90.00000000
_cell_angle_gamma   120.15760700
_symmetry_Int_Tables_number   1
_chemical_formula_structural   Nd2Fe2P7Ru9Pt
_chemical_formula_sum   'Nd2 Fe2 P7 Ru9 Pt1'
_cell_volume   302.30965375
_cell_formula_units_Z   1
loop_
 _symmetry_equiv_pos_site_id
 _symmetry_equiv_pos_as_xyz
  1  'x, y, z'
loop_
 _atom_site_type_symbol
 _atom_site_label
 _atom_site_symmetry_multiplicity
 _atom_site_fract_x
 _atom_site_fract_y
 _atom_site_fract_z
 _atom_site_occupancy
  Nd  Nd0  1  0.666835  0.333382  0.000000  1
  Nd  Nd1  1  0.334520  0.665701  0.500000  1
  Fe  Fe2  1  0.840354  0.729415  0.000000  1
  Fe  Fe3  1  0.889623  0.158470  0.000000  1
  P  P4  1  0.319326  0.899275  0.000000  1
  P  P5  1  0.591813  0.697327  0.000000  1
  P  P6  1  0.106469  0.400660  0.000000  1
  P  P7  1  0.395921  0.286140  0.500000  1
  P  P8  1  0.872427  0.600896  0.500000  1
  P  P9  1  0.719828  0.114637  0.500000  1
  P  P10  1  0.988016  0.994822  0.000000  1
  Ru  Ru11  1  0.583328  0.940848  0.000000  1
  Ru  Ru12  1  0.362667  0.428280  0.000000  1
  Ru  Ru13  1  0.262307  0.107567  0.000000  1
  Ru  Ru14  1  0.439193  0.050679  0.500000  1
  Ru  Ru15  1  0.612049  0.564999  0.500000  1
  Ru  Ru16  1  0.948664  0.388553  0.500000  1
  Ru  Ru17  1  0.082894  0.870491  0.500000  1
  Ru  Ru18  1  0.798604  0.915536  0.500000  1
  Ru  Ru19  1  0.117413  0.211984  0.500000  1
  Pt  Pt20  1  0.067750  0.640337  0.000000  1
