# generated using pymatgen
data_La5Tb(ZnSb3)4
_symmetry_space_group_name_H-M   'P 1'
_cell_length_a   4.31635700
_cell_length_b   10.54856200
_cell_length_c   13.49681100
_cell_angle_alpha   89.99964460
_cell_angle_beta   90.00000000
_cell_angle_gamma   90.00000000
_symmetry_Int_Tables_number   1
_chemical_formula_structural   La5Tb(ZnSb3)4
_chemical_formula_sum   'La5 Tb1 Zn4 Sb12'
_cell_volume   614.52815278
_cell_formula_units_Z   1
loop_
 _symmetry_equiv_pos_site_id
 _symmetry_equiv_pos_as_xyz
  1  'x, y, z'
loop_
 _atom_site_type_symbol
 _atom_site_label
 _atom_site_symmetry_multiplicity
 _atom_site_fract_x
 _atom_site_fract_y
 _atom_site_fract_z
 _atom_site_occupancy
  La  La0  1  0.750000  0.245048  0.749120  1
  La  La1  1  0.250000  0.739936  0.910116  1
  La  La2  1  0.250000  0.736345  0.587915  1
  La  La3  1  0.250000  0.750487  0.250732  1
  La  La4  1  0.750000  0.259988  0.091453  1
  Tb  Tb5  1  0.750000  0.267385  0.409346  1
  Zn  Zn6  1  0.250000  0.004525  0.095153  1
  Zn  Zn7  1  0.250000  0.000962  0.410533  1
  Zn  Zn8  1  0.750000  0.000856  0.585784  1
  Zn  Zn9  1  0.750000  0.998269  0.909727  1
  Sb  Sb10  1  0.750000  0.501675  0.250600  1
  Sb  Sb11  1  0.750000  0.491004  0.916424  1
  Sb  Sb12  1  0.750000  0.847851  0.747957  1
  Sb  Sb13  1  0.750000  0.838432  0.420522  1
  Sb  Sb14  1  0.250000  0.156876  0.922230  1
  Sb  Sb15  1  0.250000  0.164260  0.573233  1
  Sb  Sb16  1  0.250000  0.160131  0.256894  1
  Sb  Sb17  1  0.250000  0.507002  0.083343  1
  Sb  Sb18  1  0.250000  0.493276  0.749914  1
  Sb  Sb19  1  0.250000  0.502869  0.416145  1
  Sb  Sb20  1  0.750000  0.487540  0.582371  1
  Sb  Sb21  1  0.750000  0.845285  0.080489  1
