# generated using pymatgen
data_Li17(CaGa)6
_symmetry_space_group_name_H-M   'P 1'
_cell_length_a   9.42450497
_cell_length_b   9.42450541
_cell_length_c   9.42450700
_cell_angle_alpha   60.00000493
_cell_angle_beta   60.00000340
_cell_angle_gamma   60.00000583
_symmetry_Int_Tables_number   1
_chemical_formula_structural   Li17(CaGa)6
_chemical_formula_sum   'Li17 Ca6 Ga6'
_cell_volume   591.91698956
_cell_formula_units_Z   1
loop_
 _symmetry_equiv_pos_site_id
 _symmetry_equiv_pos_as_xyz
  1  'x, y, z'
loop_
 _atom_site_type_symbol
 _atom_site_label
 _atom_site_symmetry_multiplicity
 _atom_site_fract_x
 _atom_site_fract_y
 _atom_site_fract_z
 _atom_site_occupancy
  Li  Li0  1  0.500000  0.500000  0.500000  1
  Li  Li1  1  0.626596  0.120212  0.626596  1
  Li  Li2  1  0.373404  0.373404  0.879788  1
  Li  Li3  1  0.879788  0.373404  0.373404  1
  Li  Li4  1  0.373404  0.373404  0.373404  1
  Li  Li5  1  0.120212  0.626596  0.626596  1
  Li  Li6  1  0.626596  0.626596  0.626596  1
  Li  Li7  1  0.626596  0.626596  0.120212  1
  Li  Li8  1  0.373404  0.879788  0.373404  1
  Li  Li9  1  0.827382  0.517856  0.827382  1
  Li  Li10  1  0.172618  0.172618  0.482144  1
  Li  Li11  1  0.482144  0.172618  0.172618  1
  Li  Li12  1  0.172618  0.172618  0.172618  1
  Li  Li13  1  0.517856  0.827382  0.827382  1
  Li  Li14  1  0.827382  0.827382  0.827382  1
  Li  Li15  1  0.827382  0.827382  0.517856  1
  Li  Li16  1  0.172618  0.482144  0.172618  1
  Ca  Ca17  1  0.212206  0.212206  0.787794  1
  Ca  Ca18  1  0.212206  0.787794  0.787794  1
  Ca  Ca19  1  0.787794  0.212206  0.212206  1
  Ca  Ca20  1  0.212206  0.787794  0.212206  1
  Ca  Ca21  1  0.787794  0.212206  0.787794  1
  Ca  Ca22  1  0.787794  0.787794  0.212206  1
  Ga  Ga23  1  0.500000  0.500000  0.000000  1
  Ga  Ga24  1  0.000000  0.500000  0.500000  1
  Ga  Ga25  1  0.500000  0.000000  0.000000  1
  Ga  Ga26  1  0.000000  0.000000  0.500000  1
  Ga  Ga27  1  0.000000  0.500000  0.000000  1
  Ga  Ga28  1  0.500000  0.000000  0.500000  1
