# generated using pymatgen
data_Lu4Zn4Ir3Rh
_symmetry_space_group_name_H-M   'P 1'
_cell_length_a   4.00453500
_cell_length_b   6.90059435
_cell_length_c   8.02369651
_cell_angle_alpha   89.74893044
_cell_angle_beta   90.00000000
_cell_angle_gamma   90.00000000
_symmetry_Int_Tables_number   1
_chemical_formula_structural   Lu4Zn4Ir3Rh
_chemical_formula_sum   'Lu4 Zn4 Ir3 Rh1'
_cell_volume   221.72206553
_cell_formula_units_Z   1
loop_
 _symmetry_equiv_pos_site_id
 _symmetry_equiv_pos_as_xyz
  1  'x, y, z'
loop_
 _atom_site_type_symbol
 _atom_site_label
 _atom_site_symmetry_multiplicity
 _atom_site_fract_x
 _atom_site_fract_y
 _atom_site_fract_z
 _atom_site_occupancy
  Lu  Lu0  1  0.250000  0.534936  0.180765  1
  Lu  Lu1  1  0.750000  0.467884  0.820388  1
  Lu  Lu2  1  0.750000  0.963072  0.681374  1
  Lu  Lu3  1  0.250000  0.033350  0.317142  1
  Zn  Zn4  1  0.250000  0.639513  0.565179  1
  Zn  Zn5  1  0.750000  0.359443  0.435306  1
  Zn  Zn6  1  0.750000  0.859637  0.065442  1
  Zn  Zn7  1  0.250000  0.140952  0.934986  1
  Ir  Ir8  1  0.250000  0.757998  0.874279  1
  Ir  Ir9  1  0.750000  0.243344  0.124539  1
  Ir  Ir10  1  0.750000  0.742671  0.376351  1
  Rh  Rh11  1  0.250000  0.257201  0.624248  1
