# generated using pymatgen
data_DyHo4In4PtRh
_symmetry_space_group_name_H-M   'P 1'
_cell_length_a   3.60895300
_cell_length_b   8.11373907
_cell_length_c   18.23870411
_cell_angle_alpha   90.12728294
_cell_angle_beta   90.00000000
_cell_angle_gamma   90.00000000
_symmetry_Int_Tables_number   1
_chemical_formula_structural   DyHo4In4PtRh
_chemical_formula_sum   'Dy2 Ho8 In8 Pt2 Rh2'
_cell_volume   534.06629402
_cell_formula_units_Z   2
loop_
 _symmetry_equiv_pos_site_id
 _symmetry_equiv_pos_as_xyz
  1  'x, y, z'
loop_
 _atom_site_type_symbol
 _atom_site_label
 _atom_site_symmetry_multiplicity
 _atom_site_fract_x
 _atom_site_fract_y
 _atom_site_fract_z
 _atom_site_occupancy
  Dy  Dy0  1  0.000000  0.000000  0.000000  1
  Dy  Dy1  1  0.000000  0.500000  0.500000  1
  Ho  Ho2  1  0.000000  0.115613  0.412106  1
  Ho  Ho3  1  0.000000  0.884387  0.587894  1
  Ho  Ho4  1  0.000000  0.383045  0.914256  1
  Ho  Ho5  1  0.000000  0.616955  0.085744  1
  Ho  Ho6  1  0.000000  0.239129  0.221203  1
  Ho  Ho7  1  0.000000  0.760871  0.778797  1
  Ho  Ho8  1  0.000000  0.251008  0.720066  1
  Ho  Ho9  1  0.000000  0.748992  0.279934  1
  In  In10  1  0.500000  0.423234  0.350911  1
  In  In11  1  0.500000  0.576766  0.649089  1
  In  In12  1  0.500000  0.074175  0.850005  1
  In  In13  1  0.500000  0.925825  0.149995  1
  In  In14  1  0.500000  0.292391  0.066540  1
  In  In15  1  0.500000  0.707609  0.933460  1
  In  In16  1  0.500000  0.206124  0.567655  1
  In  In17  1  0.500000  0.793876  0.432345  1
  Pt  Pt18  1  0.500000  0.476555  0.803356  1
  Pt  Pt19  1  0.500000  0.523445  0.196644  1
  Rh  Rh20  1  0.500000  0.022864  0.304333  1
  Rh  Rh21  1  0.500000  0.977136  0.695667  1
