# generated using pymatgen
data_LiPrLu2(Co4P3)2
_symmetry_space_group_name_H-M   'P 1'
_cell_length_a   3.72426900
_cell_length_b   10.60063800
_cell_length_c   12.19625000
_cell_angle_alpha   90.00000000
_cell_angle_beta   90.00000000
_cell_angle_gamma   90.00000000
_symmetry_Int_Tables_number   1
_chemical_formula_structural   LiPrLu2(Co4P3)2
_chemical_formula_sum   'Li2 Pr2 Lu4 Co16 P12'
_cell_volume   481.50340670
_cell_formula_units_Z   2
loop_
 _symmetry_equiv_pos_site_id
 _symmetry_equiv_pos_as_xyz
  1  'x, y, z'
loop_
 _atom_site_type_symbol
 _atom_site_label
 _atom_site_symmetry_multiplicity
 _atom_site_fract_x
 _atom_site_fract_y
 _atom_site_fract_z
 _atom_site_occupancy
  Li  Li0  1  0.500000  0.500000  0.148857  1
  Li  Li1  1  0.000000  0.000000  0.851143  1
  Pr  Pr2  1  0.000000  0.500000  0.524250  1
  Pr  Pr3  1  0.500000  0.000000  0.475750  1
  Lu  Lu4  1  0.500000  0.819986  0.204458  1
  Lu  Lu5  1  0.500000  0.180014  0.204458  1
  Lu  Lu6  1  0.000000  0.680014  0.795542  1
  Lu  Lu7  1  0.000000  0.319986  0.795542  1
  Co  Co8  1  0.500000  0.500000  0.709232  1
  Co  Co9  1  0.000000  0.000000  0.290768  1
  Co  Co10  1  0.000000  0.500000  0.987089  1
  Co  Co11  1  0.500000  0.000000  0.012911  1
  Co  Co12  1  0.500000  0.332544  0.996947  1
  Co  Co13  1  0.500000  0.667456  0.996947  1
  Co  Co14  1  0.000000  0.167456  0.003053  1
  Co  Co15  1  0.000000  0.832544  0.003053  1
  Co  Co16  1  0.500000  0.295621  0.428759  1
  Co  Co17  1  0.500000  0.704379  0.428759  1
  Co  Co18  1  0.000000  0.204379  0.571241  1
  Co  Co19  1  0.000000  0.795621  0.571241  1
  Co  Co20  1  0.500000  0.878119  0.710954  1
  Co  Co21  1  0.500000  0.121881  0.710954  1
  Co  Co22  1  0.000000  0.621881  0.289046  1
  Co  Co23  1  0.000000  0.378119  0.289046  1
  P  P24  1  0.500000  0.500000  0.885848  1
  P  P25  1  0.000000  0.000000  0.114152  1
  P  P26  1  0.500000  0.500000  0.340207  1
  P  P27  1  0.000000  0.000000  0.659793  1
  P  P28  1  0.500000  0.306664  0.619388  1
  P  P29  1  0.500000  0.693336  0.619388  1
  P  P30  1  0.000000  0.193336  0.380612  1
  P  P31  1  0.000000  0.806664  0.380612  1
  P  P32  1  0.500000  0.841739  0.893579  1
  P  P33  1  0.500000  0.158261  0.893579  1
  P  P34  1  0.000000  0.658261  0.106421  1
  P  P35  1  0.000000  0.341739  0.106421  1
