# generated using pymatgen
data_Tb2Tm3Ru2
_symmetry_space_group_name_H-M   'P 1'
_cell_length_a   6.31687336
_cell_length_b   7.23628854
_cell_length_c   8.41765399
_cell_angle_alpha   96.76284529
_cell_angle_beta   112.03765783
_cell_angle_gamma   89.99999969
_symmetry_Int_Tables_number   1
_chemical_formula_structural   Tb2Tm3Ru2
_chemical_formula_sum   'Tb4 Tm6 Ru4'
_cell_volume   353.77428632
_cell_formula_units_Z   2
loop_
 _symmetry_equiv_pos_site_id
 _symmetry_equiv_pos_as_xyz
  1  'x, y, z'
loop_
 _atom_site_type_symbol
 _atom_site_label
 _atom_site_symmetry_multiplicity
 _atom_site_fract_x
 _atom_site_fract_y
 _atom_site_fract_z
 _atom_site_occupancy
  Tb  Tb0  1  0.788587  0.083422  0.811563  1
  Tb  Tb1  1  0.977023  0.416578  0.188437  1
  Tb  Tb2  1  0.211413  0.916578  0.188437  1
  Tb  Tb3  1  0.022977  0.583422  0.811563  1
  Tm  Tm4  1  0.205247  0.184350  0.566085  1
  Tm  Tm5  1  0.639162  0.315650  0.433915  1
  Tm  Tm6  1  0.794753  0.815650  0.433915  1
  Tm  Tm7  1  0.360838  0.684350  0.566085  1
  Tm  Tm8  1  0.420548  0.250000  0.000000  1
  Tm  Tm9  1  0.579452  0.750000  0.000000  1
  Ru  Ru10  1  0.599405  0.424237  0.778383  1
  Ru  Ru11  1  0.821020  0.075763  0.221617  1
  Ru  Ru12  1  0.400595  0.575763  0.221617  1
  Ru  Ru13  1  0.178980  0.924237  0.778383  1
