# generated using pymatgen
data_Ho16Tm4(Ir3Rh)3
_symmetry_space_group_name_H-M   'P 1'
_cell_length_a   10.81583000
_cell_length_b   10.81583000
_cell_length_c   6.34084200
_cell_angle_alpha   90.00000000
_cell_angle_beta   90.00000000
_cell_angle_gamma   90.00000000
_symmetry_Int_Tables_number   1
_chemical_formula_structural   Ho16Tm4(Ir3Rh)3
_chemical_formula_sum   'Ho16 Tm4 Ir9 Rh3'
_cell_volume   741.76551125
_cell_formula_units_Z   1
loop_
 _symmetry_equiv_pos_site_id
 _symmetry_equiv_pos_as_xyz
  1  'x, y, z'
loop_
 _atom_site_type_symbol
 _atom_site_label
 _atom_site_symmetry_multiplicity
 _atom_site_fract_x
 _atom_site_fract_y
 _atom_site_fract_z
 _atom_site_occupancy
  Ho  Ho0  1  0.290078  0.088008  0.377837  1
  Ho  Ho1  1  0.290039  0.911863  0.877837  1
  Ho  Ho2  1  0.709961  0.088137  0.877837  1
  Ho  Ho3  1  0.709922  0.911992  0.377837  1
  Ho  Ho4  1  0.588137  0.790039  0.877837  1
  Ho  Ho5  1  0.588008  0.209922  0.377837  1
  Ho  Ho6  1  0.411992  0.790078  0.377837  1
  Ho  Ho7  1  0.411863  0.209961  0.877837  1
  Ho  Ho8  1  0.209415  0.412084  0.621487  1
  Ho  Ho9  1  0.209584  0.588067  0.123110  1
  Ho  Ho10  1  0.790416  0.411933  0.123110  1
  Ho  Ho11  1  0.790585  0.587916  0.621487  1
  Ho  Ho12  1  0.911933  0.709584  0.123110  1
  Ho  Ho13  1  0.912084  0.290585  0.621487  1
  Ho  Ho14  1  0.087916  0.709415  0.621487  1
  Ho  Ho15  1  0.088067  0.290416  0.123110  1
  Tm  Tm16  1  0.000000  0.000000  0.500142  1
  Tm  Tm17  1  0.000000  0.000000  0.000040  1
  Tm  Tm18  1  0.500000  0.500000  0.000040  1
  Tm  Tm19  1  0.500000  0.500000  0.500142  1
  Ir  Ir20  1  0.846811  0.152562  0.249748  1
  Ir  Ir21  1  0.846891  0.847318  0.749895  1
  Ir  Ir22  1  0.153109  0.152682  0.749895  1
  Ir  Ir23  1  0.153189  0.847438  0.249748  1
  Ir  Ir24  1  0.652682  0.346891  0.749895  1
  Ir  Ir25  1  0.652562  0.653189  0.249748  1
  Ir  Ir26  1  0.347438  0.346811  0.249748  1
  Ir  Ir27  1  0.347318  0.653109  0.749895  1
  Ir  Ir28  1  0.000000  0.500000  0.377373  1
  Rh  Rh29  1  0.500000  0.000000  0.122467  1
  Rh  Rh30  1  0.500000  0.000000  0.622530  1
  Rh  Rh31  1  0.000000  0.500000  0.877609  1
