# generated using pymatgen
data_Y15Er5Si15Ag
_symmetry_space_group_name_H-M   'P 1'
_cell_length_a   7.38733157
_cell_length_b   7.72614815
_cell_length_c   14.62039300
_cell_angle_alpha   90.02416077
_cell_angle_beta   90.02245348
_cell_angle_gamma   90.08967016
_symmetry_Int_Tables_number   1
_chemical_formula_structural   Y15Er5Si15Ag
_chemical_formula_sum   'Y15 Er5 Si15 Ag1'
_cell_volume   834.46680732
_cell_formula_units_Z   1
loop_
 _symmetry_equiv_pos_site_id
 _symmetry_equiv_pos_as_xyz
  1  'x, y, z'
loop_
 _atom_site_type_symbol
 _atom_site_label
 _atom_site_symmetry_multiplicity
 _atom_site_fract_x
 _atom_site_fract_y
 _atom_site_fract_z
 _atom_site_occupancy
  Y  Y0  1  0.181630  0.321890  0.878833  1
  Y  Y1  1  0.318087  0.820289  0.123926  1
  Y  Y2  1  0.817702  0.677807  0.376391  1
  Y  Y3  1  0.318269  0.820528  0.376694  1
  Y  Y4  1  0.817835  0.677689  0.124187  1
  Y  Y5  1  0.686664  0.173633  0.879137  1
  Y  Y6  1  0.181498  0.321749  0.620609  1
  Y  Y7  1  0.527217  0.686849  0.591682  1
  Y  Y8  1  0.026587  0.818424  0.904117  1
  Y  Y9  1  0.472942  0.316328  0.097646  1
  Y  Y10  1  0.973211  0.182709  0.402371  1
  Y  Y11  1  0.473441  0.316400  0.402950  1
  Y  Y12  1  0.973428  0.182774  0.097967  1
  Y  Y13  1  0.527197  0.686899  0.907887  1
  Y  Y14  1  0.026308  0.818466  0.595317  1
  Er  Er15  1  0.686117  0.173802  0.621186  1
  Er  Er16  1  0.851557  0.510613  0.749624  1
  Er  Er17  1  0.354512  0.980452  0.749857  1
  Er  Er18  1  0.148300  0.486002  0.249990  1
  Er  Er19  1  0.647960  0.013292  0.250112  1
  Si  Si20  1  0.648657  0.972145  0.458992  1
  Si  Si21  1  0.145976  0.528644  0.040994  1
  Si  Si22  1  0.352351  0.027516  0.959855  1
  Si  Si23  1  0.848415  0.471344  0.540745  1
  Si  Si24  1  0.354088  0.027801  0.540695  1
  Si  Si25  1  0.849835  0.473030  0.959246  1
  Si  Si26  1  0.647413  0.971468  0.042000  1
  Si  Si27  1  0.145817  0.528557  0.458960  1
  Si  Si28  1  0.979878  0.103779  0.749015  1
  Si  Si29  1  0.519686  0.601909  0.250224  1
  Si  Si30  1  0.020267  0.896597  0.250223  1
  Si  Si31  1  0.737628  0.873750  0.749208  1
  Si  Si32  1  0.223446  0.632696  0.749790  1
  Si  Si33  1  0.267363  0.128563  0.250178  1
  Si  Si34  1  0.767464  0.370955  0.250155  1
  Ag  Ag35  1  0.481253  0.404649  0.749236  1
