# generated using pymatgen
data_InRu3F18
_symmetry_space_group_name_H-M   'P 1'
_cell_length_a   8.81770900
_cell_length_b   8.81770875
_cell_length_c   9.56125900
_cell_angle_alpha   90.00000000
_cell_angle_beta   90.00000000
_cell_angle_gamma   119.99999718
_symmetry_Int_Tables_number   1
_chemical_formula_structural   InRu3F18
_chemical_formula_sum   'In2 Ru6 F36'
_cell_volume   643.80928988
_cell_formula_units_Z   2
loop_
 _symmetry_equiv_pos_site_id
 _symmetry_equiv_pos_as_xyz
  1  'x, y, z'
loop_
 _atom_site_type_symbol
 _atom_site_label
 _atom_site_symmetry_multiplicity
 _atom_site_fract_x
 _atom_site_fract_y
 _atom_site_fract_z
 _atom_site_occupancy
  In  In0  1  0.000000  0.000000  0.000000  1
  In  In1  1  0.000000  0.000000  0.500000  1
  Ru  Ru2  1  0.656470  0.000000  0.750000  1
  Ru  Ru3  1  0.343530  0.343530  0.750000  1
  Ru  Ru4  1  0.000000  0.656470  0.750000  1
  Ru  Ru5  1  0.656470  0.656470  0.250000  1
  Ru  Ru6  1  0.000000  0.343530  0.250000  1
  Ru  Ru7  1  0.343530  0.000000  0.250000  1
  F  F8  1  0.466813  0.904045  0.868969  1
  F  F9  1  0.437232  0.533187  0.868969  1
  F  F10  1  0.095955  0.562768  0.868969  1
  F  F11  1  0.466813  0.562768  0.368969  1
  F  F12  1  0.095955  0.533187  0.368969  1
  F  F13  1  0.437232  0.904045  0.368969  1
  F  F14  1  0.533187  0.095955  0.131031  1
  F  F15  1  0.562768  0.466813  0.131031  1
  F  F16  1  0.904045  0.437232  0.131031  1
  F  F17  1  0.533187  0.437232  0.631031  1
  F  F18  1  0.904045  0.466813  0.631031  1
  F  F19  1  0.562768  0.095955  0.631031  1
  F  F20  1  0.777076  0.903753  0.870634  1
  F  F21  1  0.126677  0.222924  0.870634  1
  F  F22  1  0.096247  0.873323  0.870634  1
  F  F23  1  0.777076  0.873323  0.370634  1
  F  F24  1  0.096247  0.222924  0.370634  1
  F  F25  1  0.126677  0.903753  0.370634  1
  F  F26  1  0.222924  0.096247  0.129366  1
  F  F27  1  0.873323  0.777076  0.129366  1
  F  F28  1  0.903753  0.126677  0.129366  1
  F  F29  1  0.222924  0.126677  0.629366  1
  F  F30  1  0.903753  0.777076  0.629366  1
  F  F31  1  0.873323  0.096247  0.629366  1
  F  F32  1  0.773235  0.204221  0.857548  1
  F  F33  1  0.430987  0.226765  0.857548  1
  F  F34  1  0.795779  0.569013  0.857548  1
  F  F35  1  0.773235  0.569013  0.357548  1
  F  F36  1  0.795779  0.226765  0.357548  1
  F  F37  1  0.430987  0.204221  0.357548  1
  F  F38  1  0.226765  0.795779  0.142452  1
  F  F39  1  0.569013  0.773235  0.142452  1
  F  F40  1  0.204221  0.430987  0.142452  1
  F  F41  1  0.226765  0.430987  0.642452  1
  F  F42  1  0.204221  0.773235  0.642452  1
  F  F43  1  0.569013  0.795779  0.642452  1
