# generated using pymatgen
data_RbAc2NdB24
_symmetry_space_group_name_H-M   'P 1'
_cell_length_a   7.25763222
_cell_length_b   7.25763358
_cell_length_c   5.96300200
_cell_angle_alpha   90.00000000
_cell_angle_beta   90.00000000
_cell_angle_gamma   109.22945011
_symmetry_Int_Tables_number   1
_chemical_formula_structural   RbAc2NdB24
_chemical_formula_sum   'Rb1 Ac2 Nd1 B24'
_cell_volume   296.56661562
_cell_formula_units_Z   1
loop_
 _symmetry_equiv_pos_site_id
 _symmetry_equiv_pos_as_xyz
  1  'x, y, z'
loop_
 _atom_site_type_symbol
 _atom_site_label
 _atom_site_symmetry_multiplicity
 _atom_site_fract_x
 _atom_site_fract_y
 _atom_site_fract_z
 _atom_site_occupancy
  Rb  Rb0  1  0.000000  0.000000  0.000000  1
  Ac  Ac1  1  0.751686  0.248314  0.500000  1
  Ac  Ac2  1  0.248314  0.751686  0.500000  1
  Nd  Nd3  1  0.500000  0.500000  0.000000  1
  B  B4  1  0.177316  0.326053  0.649532  1
  B  B5  1  0.923818  0.574273  0.147643  1
  B  B6  1  0.673947  0.822684  0.649532  1
  B  B7  1  0.425727  0.076182  0.147643  1
  B  B8  1  0.177316  0.326053  0.350468  1
  B  B9  1  0.923818  0.574273  0.852357  1
  B  B10  1  0.673947  0.822684  0.350468  1
  B  B11  1  0.425727  0.076182  0.852357  1
  B  B12  1  0.400195  0.400195  0.500000  1
  B  B13  1  0.147942  0.650248  0.000000  1
  B  B14  1  0.897723  0.897723  0.500000  1
  B  B15  1  0.650248  0.147941  0.000000  1
  B  B16  1  0.326053  0.177316  0.649532  1
  B  B17  1  0.076182  0.425727  0.147643  1
  B  B18  1  0.822684  0.673947  0.649532  1
  B  B19  1  0.574273  0.923818  0.147643  1
  B  B20  1  0.102277  0.102277  0.500000  1
  B  B21  1  0.852058  0.349752  0.000000  1
  B  B22  1  0.599805  0.599805  0.500000  1
  B  B23  1  0.349752  0.852059  0.000000  1
  B  B24  1  0.326053  0.177316  0.350468  1
  B  B25  1  0.076182  0.425727  0.852357  1
  B  B26  1  0.822684  0.673947  0.350468  1
  B  B27  1  0.574273  0.923818  0.852357  1
