# generated using pymatgen
data_Pr7Nd9Cd4(PdRu)2
_symmetry_space_group_name_H-M   'P 1'
_cell_length_a   9.99673003
_cell_length_b   9.99673027
_cell_length_c   10.06116800
_cell_angle_alpha   59.78654193
_cell_angle_beta   59.78654111
_cell_angle_gamma   59.83960518
_symmetry_Int_Tables_number   1
_chemical_formula_structural   Pr7Nd9Cd4(PdRu)2
_chemical_formula_sum   'Pr7 Nd9 Cd4 Pd2 Ru2'
_cell_volume   707.80685759
_cell_formula_units_Z   1
loop_
 _symmetry_equiv_pos_site_id
 _symmetry_equiv_pos_as_xyz
  1  'x, y, z'
loop_
 _atom_site_type_symbol
 _atom_site_label
 _atom_site_symmetry_multiplicity
 _atom_site_fract_x
 _atom_site_fract_y
 _atom_site_fract_z
 _atom_site_occupancy
  Pr  Pr0  1  0.806876  0.806876  0.193124  1
  Pr  Pr1  1  0.936893  0.558795  0.565490  1
  Pr  Pr2  1  0.558795  0.936893  0.938822  1
  Pr  Pr3  1  0.558795  0.936893  0.565490  1
  Pr  Pr4  1  0.936893  0.558795  0.938822  1
  Pr  Pr5  1  0.562555  0.562555  0.937445  1
  Pr  Pr6  1  0.938031  0.938031  0.561969  1
  Nd  Nd7  1  0.347505  0.347505  0.356376  1
  Nd  Nd8  1  0.347505  0.347505  0.948613  1
  Nd  Nd9  1  0.343488  0.955605  0.350454  1
  Nd  Nd10  1  0.955605  0.343488  0.350454  1
  Nd  Nd11  1  0.816584  0.189994  0.190311  1
  Nd  Nd12  1  0.189994  0.816584  0.803111  1
  Nd  Nd13  1  0.189994  0.816584  0.190311  1
  Nd  Nd14  1  0.816584  0.189994  0.803111  1
  Nd  Nd15  1  0.189009  0.189009  0.810991  1
  Cd  Cd16  1  0.579616  0.579616  0.579790  1
  Cd  Cd17  1  0.579616  0.579616  0.260977  1
  Cd  Cd18  1  0.580466  0.259505  0.580014  1
  Cd  Cd19  1  0.259505  0.580466  0.580014  1
  Pd  Pd20  1  0.146481  0.572565  0.140477  1
  Pd  Pd21  1  0.572565  0.146481  0.140477  1
  Ru  Ru22  1  0.143321  0.143321  0.138133  1
  Ru  Ru23  1  0.143321  0.143321  0.575225  1
