# generated using pymatgen
data_Lu4VB12Rh
_symmetry_space_group_name_H-M   'P 1'
_cell_length_a   3.54633000
_cell_length_b   9.07621920
_cell_length_c   11.45900294
_cell_angle_alpha   90.31824088
_cell_angle_beta   90.00000000
_cell_angle_gamma   90.00000000
_symmetry_Int_Tables_number   1
_chemical_formula_structural   Lu4VB12Rh
_chemical_formula_sum   'Lu8 V2 B24 Rh2'
_cell_volume   368.82831422
_cell_formula_units_Z   2
loop_
 _symmetry_equiv_pos_site_id
 _symmetry_equiv_pos_as_xyz
  1  'x, y, z'
loop_
 _atom_site_type_symbol
 _atom_site_label
 _atom_site_symmetry_multiplicity
 _atom_site_fract_x
 _atom_site_fract_y
 _atom_site_fract_z
 _atom_site_occupancy
  Lu  Lu0  1  0.500000  0.317538  0.411565  1
  Lu  Lu1  1  0.500000  0.682462  0.588435  1
  Lu  Lu2  1  0.500000  0.174218  0.917055  1
  Lu  Lu3  1  0.500000  0.825782  0.082945  1
  Lu  Lu4  1  0.500000  0.441799  0.127154  1
  Lu  Lu5  1  0.500000  0.558201  0.872846  1
  Lu  Lu6  1  0.500000  0.054134  0.628723  1
  Lu  Lu7  1  0.500000  0.945866  0.371277  1
  V  V8  1  0.500000  0.139966  0.181731  1
  V  V9  1  0.500000  0.860034  0.818269  1
  B  B10  1  0.000000  0.105127  0.472114  1
  B  B11  1  0.000000  0.894873  0.527886  1
  B  B12  1  0.000000  0.395259  0.970698  1
  B  B13  1  0.000000  0.604741  0.029302  1
  B  B14  1  0.000000  0.132079  0.317005  1
  B  B15  1  0.000000  0.867921  0.682995  1
  B  B16  1  0.000000  0.368238  0.816472  1
  B  B17  1  0.000000  0.631762  0.183528  1
  B  B18  1  0.000000  0.052064  0.066291  1
  B  B19  1  0.000000  0.947936  0.933709  1
  B  B20  1  0.000000  0.446363  0.565581  1
  B  B21  1  0.000000  0.553637  0.434419  1
  B  B22  1  0.000000  0.481219  0.287863  1
  B  B23  1  0.000000  0.518781  0.712137  1
  B  B24  1  0.000000  0.020409  0.787530  1
  B  B25  1  0.000000  0.979591  0.212470  1
  B  B26  1  0.000000  0.249357  0.079579  1
  B  B27  1  0.000000  0.750643  0.920421  1
  B  B28  1  0.000000  0.249231  0.579033  1
  B  B29  1  0.000000  0.750769  0.420967  1
  B  B30  1  0.000000  0.295325  0.236284  1
  B  B31  1  0.000000  0.704675  0.763716  1
  B  B32  1  0.000000  0.206791  0.736007  1
  B  B33  1  0.000000  0.793209  0.263993  1
  Rh  Rh34  1  0.500000  0.360999  0.679003  1
  Rh  Rh35  1  0.500000  0.639001  0.320997  1
