# generated using pymatgen
data_Nd8Be2ZnSi12Ag
_symmetry_space_group_name_H-M   'P 1'
_cell_length_a   8.13249200
_cell_length_b   8.13249229
_cell_length_c   8.52921600
_cell_angle_alpha   90.00000000
_cell_angle_beta   90.00000000
_cell_angle_gamma   119.99999883
_symmetry_Int_Tables_number   1
_chemical_formula_structural   Nd8Be2ZnSi12Ag
_chemical_formula_sum   'Nd8 Be2 Zn1 Si12 Ag1'
_cell_volume   488.52529377
_cell_formula_units_Z   1
loop_
 _symmetry_equiv_pos_site_id
 _symmetry_equiv_pos_as_xyz
  1  'x, y, z'
loop_
 _atom_site_type_symbol
 _atom_site_label
 _atom_site_symmetry_multiplicity
 _atom_site_fract_x
 _atom_site_fract_y
 _atom_site_fract_z
 _atom_site_occupancy
  Nd  Nd0  1  0.000000  0.000000  0.750471  1
  Nd  Nd1  1  0.000000  0.000000  0.249417  1
  Nd  Nd2  1  0.495900  0.504100  0.748850  1
  Nd  Nd3  1  0.495900  0.991801  0.748850  1
  Nd  Nd4  1  0.008199  0.504100  0.748850  1
  Nd  Nd5  1  0.496700  0.503300  0.251093  1
  Nd  Nd6  1  0.006602  0.503300  0.251093  1
  Nd  Nd7  1  0.496700  0.993398  0.251093  1
  Be  Be8  1  0.333333  0.666667  0.498720  1
  Be  Be9  1  0.333333  0.666667  0.001203  1
  Zn  Zn10  1  0.666667  0.333333  0.503112  1
  Si  Si11  1  0.837893  0.162107  0.999978  1
  Si  Si12  1  0.837893  0.675785  0.999978  1
  Si  Si13  1  0.324215  0.162107  0.999978  1
  Si  Si14  1  0.835429  0.164571  0.499863  1
  Si  Si15  1  0.835429  0.670860  0.499863  1
  Si  Si16  1  0.329140  0.164571  0.499863  1
  Si  Si17  1  0.173814  0.826186  0.499747  1
  Si  Si18  1  0.652371  0.826186  0.499747  1
  Si  Si19  1  0.173814  0.347629  0.499747  1
  Si  Si20  1  0.172725  0.827275  0.000236  1
  Si  Si21  1  0.654549  0.827275  0.000236  1
  Si  Si22  1  0.172725  0.345451  0.000236  1
  Ag  Ag23  1  0.666667  0.333333  0.997777  1
