# generated using pymatgen
data_LiCePrZn3Ru
_symmetry_space_group_name_H-M   'P 1'
_cell_length_a   7.22671600
_cell_length_b   7.28634127
_cell_length_c   5.16057898
_cell_angle_alpha   90.17358164
_cell_angle_beta   90.00000000
_cell_angle_gamma   90.00000000
_symmetry_Int_Tables_number   1
_chemical_formula_structural   LiCePrZn3Ru
_chemical_formula_sum   'Li2 Ce2 Pr2 Zn6 Ru2'
_cell_volume   271.73584638
_cell_formula_units_Z   2
loop_
 _symmetry_equiv_pos_site_id
 _symmetry_equiv_pos_as_xyz
  1  'x, y, z'
loop_
 _atom_site_type_symbol
 _atom_site_label
 _atom_site_symmetry_multiplicity
 _atom_site_fract_x
 _atom_site_fract_y
 _atom_site_fract_z
 _atom_site_occupancy
  Li  Li0  1  0.190277  0.686491  0.295188  1
  Li  Li1  1  0.809723  0.686491  0.295188  1
  Ce  Ce2  1  0.000000  0.997921  0.011388  1
  Ce  Ce3  1  0.500000  0.502988  0.006867  1
  Pr  Pr4  1  0.000000  0.496985  0.757917  1
  Pr  Pr5  1  0.500000  0.003582  0.234312  1
  Zn  Zn6  1  0.815207  0.317099  0.286314  1
  Zn  Zn7  1  0.312578  0.185988  0.711615  1
  Zn  Zn8  1  0.184793  0.317099  0.286314  1
  Zn  Zn9  1  0.687422  0.185988  0.711615  1
  Zn  Zn10  1  0.691015  0.809380  0.711000  1
  Zn  Zn11  1  0.308985  0.809380  0.711000  1
  Ru  Ru12  1  0.500000  0.493952  0.490692  1
  Ru  Ru13  1  0.000000  0.006655  0.490591  1
