# generated using pymatgen
data_TbEr7(LuBi)12
_symmetry_space_group_name_H-M   'P 1'
_cell_length_a   8.15687101
_cell_length_b   9.40448500
_cell_length_c   11.90709200
_cell_angle_alpha   90.00000000
_cell_angle_beta   89.99740103
_cell_angle_gamma   90.00000000
_symmetry_Int_Tables_number   1
_chemical_formula_structural   TbEr7(LuBi)12
_chemical_formula_sum   'Tb1 Er7 Lu12 Bi12'
_cell_volume   913.40697013
_cell_formula_units_Z   1
loop_
 _symmetry_equiv_pos_site_id
 _symmetry_equiv_pos_as_xyz
  1  'x, y, z'
loop_
 _atom_site_type_symbol
 _atom_site_label
 _atom_site_symmetry_multiplicity
 _atom_site_fract_x
 _atom_site_fract_y
 _atom_site_fract_z
 _atom_site_occupancy
  Tb  Tb0  1  0.146247  0.250000  0.716523  1
  Er  Er1  1  0.186478  0.750000  0.717452  1
  Er  Er2  1  0.686423  0.750000  0.782845  1
  Er  Er3  1  0.812690  0.250000  0.282307  1
  Er  Er4  1  0.313542  0.250000  0.217190  1
  Er  Er5  1  0.353751  0.750000  0.217448  1
  Er  Er6  1  0.853334  0.750000  0.282913  1
  Er  Er7  1  0.647258  0.250000  0.782729  1
  Lu  Lu8  1  0.022091  0.750000  0.989671  1
  Lu  Lu9  1  0.522542  0.750000  0.510405  1
  Lu  Lu10  1  0.977552  0.250000  0.011226  1
  Lu  Lu11  1  0.477792  0.250000  0.489322  1
  Lu  Lu12  1  0.308429  0.433084  0.941353  1
  Lu  Lu13  1  0.808657  0.067356  0.558631  1
  Lu  Lu14  1  0.691526  0.932700  0.059025  1
  Lu  Lu15  1  0.191646  0.567158  0.441047  1
  Lu  Lu16  1  0.691526  0.567300  0.059025  1
  Lu  Lu17  1  0.191646  0.932842  0.441047  1
  Lu  Lu18  1  0.308429  0.066916  0.941353  1
  Lu  Lu19  1  0.808657  0.432644  0.558631  1
  Bi  Bi20  1  0.435076  0.003305  0.673287  1
  Bi  Bi21  1  0.933403  0.496987  0.827417  1
  Bi  Bi22  1  0.565819  0.503891  0.326757  1
  Bi  Bi23  1  0.065757  0.996150  0.173355  1
  Bi  Bi24  1  0.565819  0.996109  0.326757  1
  Bi  Bi25  1  0.065757  0.503850  0.173355  1
  Bi  Bi26  1  0.435076  0.496695  0.673287  1
  Bi  Bi27  1  0.933403  0.003013  0.827417  1
  Bi  Bi28  1  0.402290  0.750000  0.957084  1
  Bi  Bi29  1  0.902461  0.750000  0.543311  1
  Bi  Bi30  1  0.597501  0.250000  0.042925  1
  Bi  Bi31  1  0.097420  0.250000  0.454904  1
