# generated using pymatgen
data_Eu10ZnP5H2
_symmetry_space_group_name_H-M   'P 1'
_cell_length_a   6.78423500
_cell_length_b   8.61308389
_cell_length_c   8.68528676
_cell_angle_alpha   119.72537684
_cell_angle_beta   90.00000000
_cell_angle_gamma   90.00000000
_symmetry_Int_Tables_number   1
_chemical_formula_structural   Eu10ZnP5H2
_chemical_formula_sum   'Eu10 Zn1 P5 H2'
_cell_volume   440.72687227
_cell_formula_units_Z   1
loop_
 _symmetry_equiv_pos_site_id
 _symmetry_equiv_pos_as_xyz
  1  'x, y, z'
loop_
 _atom_site_type_symbol
 _atom_site_label
 _atom_site_symmetry_multiplicity
 _atom_site_fract_x
 _atom_site_fract_y
 _atom_site_fract_z
 _atom_site_occupancy
  Eu  Eu0  1  0.496697  0.325578  0.654625  1
  Eu  Eu1  1  0.496697  0.670953  0.345375  1
  Eu  Eu2  1  0.003303  0.670954  0.345375  1
  Eu  Eu3  1  0.003303  0.325579  0.654625  1
  Eu  Eu4  1  0.750000  0.235710  0.000000  1
  Eu  Eu5  1  0.750000  0.749770  0.744624  1
  Eu  Eu6  1  0.750000  0.005146  0.255376  1
  Eu  Eu7  1  0.250000  0.754928  0.000000  1
  Eu  Eu8  1  0.250000  0.252398  0.248359  1
  Eu  Eu9  1  0.250000  0.004040  0.751641  1
  Zn  Zn10  1  0.750000  0.599586  0.000000  1
  P  P11  1  0.750000  0.392086  0.392284  1
  P  P12  1  0.750000  0.999802  0.607716  1
  P  P13  1  0.250000  0.399425  0.000000  1
  P  P14  1  0.250000  0.610050  0.609076  1
  P  P15  1  0.250000  0.000974  0.390924  1
  H  H16  1  0.499322  0.001512  0.000000  1
  H  H17  1  0.000678  0.001512  0.000000  1
