# generated using pymatgen
data_Y2Pa3(AlGa4)3
_symmetry_space_group_name_H-M   'P 1'
_cell_length_a   12.55984214
_cell_length_b   12.55984217
_cell_length_c   12.55984149
_cell_angle_alpha   28.21023178
_cell_angle_beta   28.21023260
_cell_angle_gamma   28.21023754
_symmetry_Int_Tables_number   1
_chemical_formula_structural   Y2Pa3(AlGa4)3
_chemical_formula_sum   'Y2 Pa3 Al3 Ga12'
_cell_volume   391.15208921
_cell_formula_units_Z   1
loop_
 _symmetry_equiv_pos_site_id
 _symmetry_equiv_pos_as_xyz
  1  'x, y, z'
loop_
 _atom_site_type_symbol
 _atom_site_label
 _atom_site_symmetry_multiplicity
 _atom_site_fract_x
 _atom_site_fract_y
 _atom_site_fract_z
 _atom_site_occupancy
  Y  Y0  1  0.999080  0.999080  0.999080  1
  Y  Y1  1  0.598774  0.598774  0.598774  1
  Pa  Pa2  1  0.130179  0.130179  0.130179  1
  Pa  Pa3  1  0.870168  0.870168  0.870168  1
  Pa  Pa4  1  0.401961  0.401961  0.401961  1
  Al  Al5  1  0.497208  0.497208  0.004624  1
  Al  Al6  1  0.497208  0.004624  0.497208  1
  Al  Al7  1  0.004624  0.497208  0.497208  1
  Ga  Ga8  1  0.130313  0.637065  0.637065  1
  Ga  Ga9  1  0.637065  0.637065  0.130313  1
  Ga  Ga10  1  0.637065  0.130313  0.637065  1
  Ga  Ga11  1  0.363075  0.873940  0.363075  1
  Ga  Ga12  1  0.363075  0.363075  0.873940  1
  Ga  Ga13  1  0.873940  0.363075  0.363075  1
  Ga  Ga14  1  0.430483  0.881568  0.881568  1
  Ga  Ga15  1  0.881568  0.881568  0.430483  1
  Ga  Ga16  1  0.881568  0.430483  0.881568  1
  Ga  Ga17  1  0.118528  0.565585  0.118528  1
  Ga  Ga18  1  0.118528  0.118528  0.565585  1
  Ga  Ga19  1  0.565585  0.118528  0.118528  1
