# generated using pymatgen
data_Ba2EuMoN4
_symmetry_space_group_name_H-M   'P 1'
_cell_length_a   10.97834973
_cell_length_b   10.64498268
_cell_length_c   8.18095893
_cell_angle_alpha   69.94778464
_cell_angle_beta   65.62381994
_cell_angle_gamma   44.42838644
_symmetry_Int_Tables_number   1
_chemical_formula_structural   Ba2EuMoN4
_chemical_formula_sum   'Ba8 Eu4 Mo4 N16'
_cell_volume   607.85937456
_cell_formula_units_Z   4
loop_
 _symmetry_equiv_pos_site_id
 _symmetry_equiv_pos_as_xyz
  1  'x, y, z'
loop_
 _atom_site_type_symbol
 _atom_site_label
 _atom_site_symmetry_multiplicity
 _atom_site_fract_x
 _atom_site_fract_y
 _atom_site_fract_z
 _atom_site_occupancy
  Ba  Ba0  1  0.569708  0.930292  0.930292  1
  Ba  Ba1  1  0.930292  0.569708  0.569708  1
  Ba  Ba2  1  0.319708  0.680292  0.680292  1
  Ba  Ba3  1  0.112660  0.112660  0.887340  1
  Ba  Ba4  1  0.137340  0.137340  0.362660  1
  Ba  Ba5  1  0.362660  0.362660  0.137340  1
  Ba  Ba6  1  0.680292  0.319708  0.319708  1
  Ba  Ba7  1  0.887340  0.887340  0.112660  1
  Eu  Eu8  1  0.340342  0.340342  0.659658  1
  Eu  Eu9  1  0.909658  0.909658  0.590342  1
  Eu  Eu10  1  0.659658  0.659658  0.340342  1
  Eu  Eu11  1  0.590342  0.590342  0.909658  1
  Mo  Mo12  1  0.490801  0.009199  0.490801  1
  Mo  Mo13  1  0.009199  0.490801  0.009199  1
  Mo  Mo14  1  0.759199  0.240801  0.759199  1
  Mo  Mo15  1  0.240801  0.759199  0.240801  1
  N  N16  1  0.015503  0.651975  0.823384  1
  N  N17  1  0.700302  0.281530  0.998976  1
  N  N18  1  0.651975  0.015503  0.509139  1
  N  N19  1  0.509139  0.823384  0.651975  1
  N  N20  1  0.234497  0.598025  0.426616  1
  N  N21  1  0.740861  0.426616  0.598025  1
  N  N22  1  0.998976  0.019190  0.700302  1
  N  N23  1  0.549698  0.968470  0.251024  1
  N  N24  1  0.426616  0.740861  0.234497  1
  N  N25  1  0.968470  0.549698  0.230810  1
  N  N26  1  0.281530  0.700302  0.019190  1
  N  N27  1  0.823384  0.509139  0.015503  1
  N  N28  1  0.230810  0.251024  0.968470  1
  N  N29  1  0.598025  0.234497  0.740861  1
  N  N30  1  0.251024  0.230810  0.549698  1
  N  N31  1  0.019190  0.998976  0.281530  1
