# generated using pymatgen
data_Dy8Sc12Ga5Si10P
_symmetry_space_group_name_H-M   'P 1'
_cell_length_a   7.14515010
_cell_length_b   7.39937340
_cell_length_c   14.16940772
_cell_angle_alpha   90.03594527
_cell_angle_beta   89.79675047
_cell_angle_gamma   90.28506649
_symmetry_Int_Tables_number   1
_chemical_formula_structural   Dy8Sc12Ga5Si10P
_chemical_formula_sum   'Dy8 Sc12 Ga5 Si10 P1'
_cell_volume   749.11726950
_cell_formula_units_Z   1
loop_
 _symmetry_equiv_pos_site_id
 _symmetry_equiv_pos_as_xyz
  1  'x, y, z'
loop_
 _atom_site_type_symbol
 _atom_site_label
 _atom_site_symmetry_multiplicity
 _atom_site_fract_x
 _atom_site_fract_y
 _atom_site_fract_z
 _atom_site_occupancy
  Dy  Dy0  1  0.013106  0.174136  0.096011  1
  Dy  Dy1  1  0.990184  0.827567  0.900033  1
  Dy  Dy2  1  0.487598  0.676031  0.902584  1
  Dy  Dy3  1  0.992024  0.828388  0.604056  1
  Dy  Dy4  1  0.511205  0.321574  0.096349  1
  Dy  Dy5  1  0.009512  0.173550  0.399684  1
  Dy  Dy6  1  0.509867  0.326421  0.399322  1
  Dy  Dy7  1  0.491335  0.673275  0.601134  1
  Sc  Sc8  1  0.162173  0.500916  0.751809  1
  Sc  Sc9  1  0.836127  0.499184  0.249722  1
  Sc  Sc10  1  0.335163  0.001531  0.248361  1
  Sc  Sc11  1  0.663788  0.000387  0.751482  1
  Sc  Sc12  1  0.327920  0.171467  0.630343  1
  Sc  Sc13  1  0.668042  0.826623  0.373008  1
  Sc  Sc14  1  0.168591  0.673551  0.372969  1
  Sc  Sc15  1  0.668094  0.826118  0.124197  1
  Sc  Sc16  1  0.833322  0.326031  0.629021  1
  Sc  Sc17  1  0.326203  0.173159  0.873378  1
  Sc  Sc18  1  0.830093  0.322583  0.873936  1
  Sc  Sc19  1  0.173454  0.675370  0.123160  1
  Ga  Ga20  1  0.161201  0.460811  0.539767  1
  Ga  Ga21  1  0.838623  0.538949  0.461710  1
  Ga  Ga22  1  0.338611  0.961900  0.461725  1
  Ga  Ga23  1  0.840431  0.538938  0.038328  1
  Ga  Ga24  1  0.661766  0.040060  0.539857  1
  Si  Si25  1  0.965405  0.882576  0.247872  1
  Si  Si26  1  0.465683  0.614502  0.247582  1
  Si  Si27  1  0.532164  0.382444  0.752254  1
  Si  Si28  1  0.296356  0.862917  0.752423  1
  Si  Si29  1  0.715518  0.127015  0.247569  1
  Si  Si30  1  0.214166  0.373215  0.247617  1
  Si  Si31  1  0.787633  0.629064  0.752534  1
  Si  Si32  1  0.156476  0.462260  0.960187  1
  Si  Si33  1  0.657331  0.037163  0.960826  1
  Si  Si34  1  0.343334  0.964237  0.037216  1
  P  P35  1  0.027504  0.126087  0.751974  1
