# generated using pymatgen
data_Tm3Sc5Pt4
_symmetry_space_group_name_H-M   'P 1'
_cell_length_a   4.57752200
_cell_length_b   6.82077060
_cell_length_c   8.36086229
_cell_angle_alpha   90.38951382
_cell_angle_beta   90.00000000
_cell_angle_gamma   90.00000000
_symmetry_Int_Tables_number   1
_chemical_formula_structural   Tm3Sc5Pt4
_chemical_formula_sum   'Tm3 Sc5 Pt4'
_cell_volume   261.03871226
_cell_formula_units_Z   1
loop_
 _symmetry_equiv_pos_site_id
 _symmetry_equiv_pos_as_xyz
  1  'x, y, z'
loop_
 _atom_site_type_symbol
 _atom_site_label
 _atom_site_symmetry_multiplicity
 _atom_site_fract_x
 _atom_site_fract_y
 _atom_site_fract_z
 _atom_site_occupancy
  Tm  Tm0  1  0.250000  0.985567  0.323378  1
  Tm  Tm1  1  0.750000  0.015510  0.678248  1
  Tm  Tm2  1  0.250000  0.485312  0.174382  1
  Sc  Sc3  1  0.750000  0.513805  0.827882  1
  Sc  Sc4  1  0.750000  0.642269  0.428163  1
  Sc  Sc5  1  0.250000  0.360277  0.579385  1
  Sc  Sc6  1  0.750000  0.144120  0.071587  1
  Sc  Sc7  1  0.250000  0.852304  0.924171  1
  Pt  Pt8  1  0.250000  0.252341  0.900036  1
  Pt  Pt9  1  0.750000  0.746996  0.094039  1
  Pt  Pt10  1  0.250000  0.751649  0.597254  1
  Pt  Pt11  1  0.750000  0.249849  0.401474  1
