# generated using pymatgen
data_Mg4InPd10Pb
_symmetry_space_group_name_H-M   'P 1'
_cell_length_a   4.19836300
_cell_length_b   5.64969461
_cell_length_c   11.16891473
_cell_angle_alpha   90.23175747
_cell_angle_beta   90.00000000
_cell_angle_gamma   90.00000000
_symmetry_Int_Tables_number   1
_chemical_formula_structural   Mg4InPd10Pb
_chemical_formula_sum   'Mg4 In1 Pd10 Pb1'
_cell_volume   264.91855744
_cell_formula_units_Z   1
loop_
 _symmetry_equiv_pos_site_id
 _symmetry_equiv_pos_as_xyz
  1  'x, y, z'
loop_
 _atom_site_type_symbol
 _atom_site_label
 _atom_site_symmetry_multiplicity
 _atom_site_fract_x
 _atom_site_fract_y
 _atom_site_fract_z
 _atom_site_occupancy
  Mg  Mg0  1  0.500000  0.314555  0.860935  1
  Mg  Mg1  1  0.500000  0.818112  0.643118  1
  Mg  Mg2  1  0.500000  0.685445  0.139065  1
  Mg  Mg3  1  0.500000  0.181888  0.356882  1
  In  In4  1  0.000000  0.000000  0.000000  1
  Pd  Pd5  1  0.500000  0.711436  0.381822  1
  Pd  Pd6  1  0.500000  0.288564  0.618178  1
  Pd  Pd7  1  0.000000  0.060958  0.754246  1
  Pd  Pd8  1  0.500000  0.794411  0.884554  1
  Pd  Pd9  1  0.000000  0.438906  0.251026  1
  Pd  Pd10  1  0.000000  0.939042  0.245754  1
  Pd  Pd11  1  0.000000  0.561094  0.748974  1
  Pd  Pd12  1  0.000000  0.500000  0.000000  1
  Pd  Pd13  1  0.000000  0.000000  0.500000  1
  Pd  Pd14  1  0.500000  0.205589  0.115446  1
  Pb  Pb15  1  0.000000  0.500000  0.500000  1
