# generated using pymatgen
data_Tb2Y6Ti5Ge16Mo7
_symmetry_space_group_name_H-M   'P 1'
_cell_length_a   6.92789296
_cell_length_b   7.10302276
_cell_length_c   13.36474866
_cell_angle_alpha   89.96467031
_cell_angle_beta   90.00619312
_cell_angle_gamma   89.97538883
_symmetry_Int_Tables_number   1
_chemical_formula_structural   Tb2Y6Ti5Ge16Mo7
_chemical_formula_sum   'Tb2 Y6 Ti5 Ge16 Mo7'
_cell_volume   657.66547865
_cell_formula_units_Z   1
loop_
 _symmetry_equiv_pos_site_id
 _symmetry_equiv_pos_as_xyz
  1  'x, y, z'
loop_
 _atom_site_type_symbol
 _atom_site_label
 _atom_site_symmetry_multiplicity
 _atom_site_fract_x
 _atom_site_fract_y
 _atom_site_fract_z
 _atom_site_occupancy
  Tb  Tb0  1  0.506581  0.330210  0.406258  1
  Tb  Tb1  1  0.006448  0.169609  0.095680  1
  Y  Y2  1  0.004889  0.174732  0.405525  1
  Y  Y3  1  0.504903  0.325322  0.094525  1
  Y  Y4  1  0.494999  0.675240  0.594887  1
  Y  Y5  1  0.994684  0.827976  0.905480  1
  Y  Y6  1  0.993547  0.828920  0.594161  1
  Y  Y7  1  0.495564  0.673230  0.905421  1
  Ti  Ti8  1  0.162215  0.331566  0.872394  1
  Ti  Ti9  1  0.158129  0.332293  0.626837  1
  Ti  Ti10  1  0.663574  0.166624  0.871978  1
  Ti  Ti11  1  0.840322  0.667010  0.127699  1
  Ti  Ti12  1  0.340613  0.833415  0.372277  1
  Ge  Ge13  1  0.328457  0.044454  0.544552  1
  Ge  Ge14  1  0.826106  0.456081  0.956175  1
  Ge  Ge15  1  0.670500  0.955389  0.044801  1
  Ge  Ge16  1  0.170797  0.544809  0.455850  1
  Ge  Ge17  1  0.172669  0.542857  0.043989  1
  Ge  Ge18  1  0.672679  0.955123  0.455685  1
  Ge  Ge19  1  0.826683  0.456860  0.544269  1
  Ge  Ge20  1  0.328022  0.044254  0.956738  1
  Ge  Ge21  1  0.808900  0.365508  0.248682  1
  Ge  Ge22  1  0.309620  0.135561  0.251276  1
  Ge  Ge23  1  0.690859  0.864733  0.750548  1
  Ge  Ge24  1  0.193153  0.635759  0.749821  1
  Ge  Ge25  1  0.035866  0.871046  0.252077  1
  Ge  Ge26  1  0.536255  0.628750  0.248968  1
  Ge  Ge27  1  0.464291  0.369853  0.748791  1
  Ge  Ge28  1  0.962461  0.127584  0.750336  1
  Mo  Mo29  1  0.333451  0.834005  0.126715  1
  Mo  Mo30  1  0.834544  0.664012  0.374453  1
  Mo  Mo31  1  0.666439  0.165597  0.624607  1
  Mo  Mo32  1  0.332785  0.011822  0.748981  1
  Mo  Mo33  1  0.666497  0.987910  0.250201  1
  Mo  Mo34  1  0.166905  0.513509  0.250260  1
  Mo  Mo35  1  0.835591  0.488377  0.749101  1
