# generated using pymatgen
data_NdNiAsH2
_symmetry_space_group_name_H-M   'P 1'
_cell_length_a   4.13791500
_cell_length_b   4.13791568
_cell_length_c   8.37316300
_cell_angle_alpha   90.00000000
_cell_angle_beta   90.00000000
_cell_angle_gamma   120.00000259
_symmetry_Int_Tables_number   1
_chemical_formula_structural   NdNiAsH2
_chemical_formula_sum   'Nd2 Ni2 As2 H4'
_cell_volume   124.16047558
_cell_formula_units_Z   2
loop_
 _symmetry_equiv_pos_site_id
 _symmetry_equiv_pos_as_xyz
  1  'x, y, z'
loop_
 _atom_site_type_symbol
 _atom_site_label
 _atom_site_symmetry_multiplicity
 _atom_site_fract_x
 _atom_site_fract_y
 _atom_site_fract_z
 _atom_site_occupancy
  Nd  Nd0  1  0.000000  0.000000  0.000000  1
  Nd  Nd1  1  0.000000  0.000000  0.500000  1
  Ni  Ni2  1  0.666667  0.333333  0.250000  1
  Ni  Ni3  1  0.333333  0.666667  0.750000  1
  As  As4  1  0.333333  0.666667  0.250000  1
  As  As5  1  0.666667  0.333333  0.750000  1
  H  H6  1  0.333333  0.666667  0.942053  1
  H  H7  1  0.666667  0.333333  0.057947  1
  H  H8  1  0.333333  0.666667  0.557947  1
  H  H9  1  0.666667  0.333333  0.442053  1
