# generated using pymatgen
data_Rb3SnPS7
_symmetry_space_group_name_H-M   'P 1'
_cell_length_a   7.19441740
_cell_length_b   9.55103627
_cell_length_c   12.03621601
_cell_angle_alpha   77.96734472
_cell_angle_beta   88.04249715
_cell_angle_gamma   69.53437387
_symmetry_Int_Tables_number   1
_chemical_formula_structural   Rb3SnPS7
_chemical_formula_sum   'Rb6 Sn2 P2 S14'
_cell_volume   757.15434673
_cell_formula_units_Z   2
loop_
 _symmetry_equiv_pos_site_id
 _symmetry_equiv_pos_as_xyz
  1  'x, y, z'
loop_
 _atom_site_type_symbol
 _atom_site_label
 _atom_site_symmetry_multiplicity
 _atom_site_fract_x
 _atom_site_fract_y
 _atom_site_fract_z
 _atom_site_occupancy
  Rb  Rb0  1  0.671937  0.613373  0.397420  1
  Rb  Rb1  1  0.328063  0.386627  0.602580  1
  Rb  Rb2  1  0.630708  0.680446  0.014667  1
  Rb  Rb3  1  0.369292  0.319554  0.985333  1
  Rb  Rb4  1  0.045017  0.987213  0.796906  1
  Rb  Rb5  1  0.954983  0.012787  0.203094  1
  Sn  Sn6  1  0.591645  0.918668  0.637772  1
  Sn  Sn7  1  0.408355  0.081332  0.362228  1
  P  P8  1  0.217889  0.564973  0.219395  1
  P  P9  1  0.782111  0.435027  0.780605  1
  S  S10  1  0.334036  0.895581  0.522361  1
  S  S11  1  0.665964  0.104419  0.477639  1
  S  S12  1  0.516154  0.012988  0.804665  1
  S  S13  1  0.483846  0.987012  0.195335  1
  S  S14  1  0.931614  0.721452  0.641590  1
  S  S15  1  0.068386  0.278548  0.358410  1
  S  S16  1  0.031900  0.431562  0.205553  1
  S  S17  1  0.968100  0.568438  0.794447  1
  S  S18  1  0.145758  0.660732  0.356061  1
  S  S19  1  0.854242  0.339268  0.643939  1
  S  S20  1  0.128550  0.706759  0.064772  1
  S  S21  1  0.871449  0.293241  0.935228  1
  S  S22  1  0.500060  0.415214  0.230433  1
  S  S23  1  0.499940  0.584786  0.769567  1
