# generated using pymatgen
data_MgSc5NiB4Ir9
_symmetry_space_group_name_H-M   'P 1'
_cell_length_a   3.08874400
_cell_length_b   9.47435454
_cell_length_c   9.46880537
_cell_angle_alpha   89.25269394
_cell_angle_beta   90.00000000
_cell_angle_gamma   90.00000000
_symmetry_Int_Tables_number   1
_chemical_formula_structural   MgSc5NiB4Ir9
_chemical_formula_sum   'Mg1 Sc5 Ni1 B4 Ir9'
_cell_volume   277.07018546
_cell_formula_units_Z   1
loop_
 _symmetry_equiv_pos_site_id
 _symmetry_equiv_pos_as_xyz
  1  'x, y, z'
loop_
 _atom_site_type_symbol
 _atom_site_label
 _atom_site_symmetry_multiplicity
 _atom_site_fract_x
 _atom_site_fract_y
 _atom_site_fract_z
 _atom_site_occupancy
  Mg  Mg0  1  0.000000  0.000000  0.000000  1
  Sc  Sc1  1  0.000000  0.174990  0.678430  1
  Sc  Sc2  1  0.000000  0.825010  0.321570  1
  Sc  Sc3  1  0.000000  0.319502  0.176885  1
  Sc  Sc4  1  0.000000  0.680498  0.823115  1
  Sc  Sc5  1  0.000000  0.500000  0.500000  1
  Ni  Ni6  1  0.500000  0.000000  0.500000  1
  B  B7  1  0.000000  0.625633  0.117980  1
  B  B8  1  0.000000  0.374367  0.882020  1
  B  B9  1  0.000000  0.887096  0.619193  1
  B  B10  1  0.000000  0.112904  0.380807  1
  Ir  Ir11  1  0.500000  0.063497  0.227196  1
  Ir  Ir12  1  0.500000  0.936503  0.772804  1
  Ir  Ir13  1  0.500000  0.780926  0.068029  1
  Ir  Ir14  1  0.500000  0.429932  0.722079  1
  Ir  Ir15  1  0.500000  0.219074  0.931971  1
  Ir  Ir16  1  0.500000  0.570068  0.277921  1
  Ir  Ir17  1  0.500000  0.730328  0.563834  1
  Ir  Ir18  1  0.500000  0.269672  0.436166  1
  Ir  Ir19  1  0.500000  0.500000  0.000000  1
