# generated using pymatgen
data_DyFe4Tc7Mo
_symmetry_space_group_name_H-M   'P 1'
_cell_length_a   6.72471019
_cell_length_b   6.71783939
_cell_length_c   6.72471198
_cell_angle_alpha   97.65127731
_cell_angle_beta   97.16335116
_cell_angle_gamma   137.99214792
_symmetry_Int_Tables_number   1
_chemical_formula_structural   DyFe4Tc7Mo
_chemical_formula_sum   'Dy1 Fe4 Tc7 Mo1'
_cell_volume   189.69921591
_cell_formula_units_Z   1
loop_
 _symmetry_equiv_pos_site_id
 _symmetry_equiv_pos_as_xyz
  1  'x, y, z'
loop_
 _atom_site_type_symbol
 _atom_site_label
 _atom_site_symmetry_multiplicity
 _atom_site_fract_x
 _atom_site_fract_y
 _atom_site_fract_z
 _atom_site_occupancy
  Dy  Dy0  1  0.000077  0.001590  0.001514  1
  Fe  Fe1  1  0.501302  0.000171  0.000906  1
  Fe  Fe2  1  0.498578  0.499520  0.498750  1
  Fe  Fe3  1  0.999265  0.000171  0.498869  1
  Fe  Fe4  1  0.000770  0.499520  0.000942  1
  Tc  Tc5  1  0.357477  0.000042  0.357585  1
  Tc  Tc6  1  0.642457  0.000042  0.642565  1
  Tc  Tc7  1  0.999939  0.354342  0.354402  1
  Tc  Tc8  1  0.500168  0.714147  0.213979  1
  Tc  Tc9  1  0.499866  0.289531  0.789665  1
  Tc  Tc10  1  0.717905  0.499444  0.217274  1
  Tc  Tc11  1  0.282170  0.499444  0.781539  1
  Mo  Mo12  1  0.000024  0.642035  0.642011  1
