# generated using pymatgen
data_Hf7Zr3(Sn3B)2
_symmetry_space_group_name_H-M   'P 1'
_cell_length_a   8.51677800
_cell_length_b   8.51677877
_cell_length_c   5.78944500
_cell_angle_alpha   90.00000000
_cell_angle_beta   90.00000000
_cell_angle_gamma   119.99999699
_symmetry_Int_Tables_number   1
_chemical_formula_structural   Hf7Zr3(Sn3B)2
_chemical_formula_sum   'Hf7 Zr3 Sn6 B2'
_cell_volume   363.67903898
_cell_formula_units_Z   1
loop_
 _symmetry_equiv_pos_site_id
 _symmetry_equiv_pos_as_xyz
  1  'x, y, z'
loop_
 _atom_site_type_symbol
 _atom_site_label
 _atom_site_symmetry_multiplicity
 _atom_site_fract_x
 _atom_site_fract_y
 _atom_site_fract_z
 _atom_site_occupancy
  Hf  Hf0  1  0.666667  0.333333  0.000000  1
  Hf  Hf1  1  0.774204  0.774234  0.749918  1
  Hf  Hf2  1  0.225766  0.999971  0.749918  1
  Hf  Hf3  1  0.000029  0.225796  0.749918  1
  Hf  Hf4  1  0.225766  0.225796  0.250082  1
  Hf  Hf5  1  0.774204  0.999971  0.250082  1
  Hf  Hf6  1  0.000029  0.774234  0.250082  1
  Zr  Zr7  1  0.333333  0.666667  0.000000  1
  Zr  Zr8  1  0.333333  0.666667  0.500000  1
  Zr  Zr9  1  0.666667  0.333333  0.500000  1
  Sn  Sn10  1  0.398559  0.397824  0.750900  1
  Sn  Sn11  1  0.602176  0.000735  0.750900  1
  Sn  Sn12  1  0.999265  0.601441  0.750900  1
  Sn  Sn13  1  0.602176  0.601441  0.249100  1
  Sn  Sn14  1  0.398559  0.000735  0.249100  1
  Sn  Sn15  1  0.999265  0.397824  0.249100  1
  B  B16  1  0.000000  0.000000  0.000000  1
  B  B17  1  0.000000  0.000000  0.500000  1
