# generated using pymatgen
data_Y2HoZnSn3Ru2
_symmetry_space_group_name_H-M   'P 1'
_cell_length_a   7.59087584
_cell_length_b   7.58084993
_cell_length_c   3.92738700
_cell_angle_alpha   90.00000000
_cell_angle_beta   90.00000000
_cell_angle_gamma   119.91428265
_symmetry_Int_Tables_number   1
_chemical_formula_structural   Y2HoZnSn3Ru2
_chemical_formula_sum   'Y2 Ho1 Zn1 Sn3 Ru2'
_cell_volume   195.89285192
_cell_formula_units_Z   1
loop_
 _symmetry_equiv_pos_site_id
 _symmetry_equiv_pos_as_xyz
  1  'x, y, z'
loop_
 _atom_site_type_symbol
 _atom_site_label
 _atom_site_symmetry_multiplicity
 _atom_site_fract_x
 _atom_site_fract_y
 _atom_site_fract_z
 _atom_site_occupancy
  Y  Y0  1  0.018984  0.411880  0.500000  1
  Y  Y1  1  0.588231  0.607169  0.500000  1
  Ho  Ho2  1  0.391278  0.978732  0.500000  1
  Zn  Zn3  1  0.665594  0.331984  0.000000  1
  Sn  Sn4  1  0.738819  0.998038  0.000000  1
  Sn  Sn5  1  0.002783  0.741906  0.000000  1
  Sn  Sn6  1  0.258733  0.260344  0.000000  1
  Ru  Ru7  1  0.333979  0.669922  0.000000  1
  Ru  Ru8  1  0.001600  0.000025  0.500000  1
