# generated using pymatgen
data_Ba3NdEr2LuO9
_symmetry_space_group_name_H-M   'P 1'
_cell_length_a   9.22197510
_cell_length_b   9.22197679
_cell_length_c   9.22197737
_cell_angle_alpha   38.96850048
_cell_angle_beta   38.96850044
_cell_angle_gamma   38.96850879
_symmetry_Int_Tables_number   1
_chemical_formula_structural   Ba3NdEr2LuO9
_chemical_formula_sum   'Ba3 Nd1 Er2 Lu1 O9'
_cell_volume   278.94084343
_cell_formula_units_Z   1
loop_
 _symmetry_equiv_pos_site_id
 _symmetry_equiv_pos_as_xyz
  1  'x, y, z'
loop_
 _atom_site_type_symbol
 _atom_site_label
 _atom_site_symmetry_multiplicity
 _atom_site_fract_x
 _atom_site_fract_y
 _atom_site_fract_z
 _atom_site_occupancy
  Ba  Ba0  1  0.996495  0.996495  0.996495  1
  Ba  Ba1  1  0.164544  0.164544  0.164544  1
  Ba  Ba2  1  0.594253  0.594253  0.594253  1
  Nd  Nd3  1  0.422860  0.422860  0.422860  1
  Er  Er4  1  0.861530  0.861530  0.861530  1
  Er  Er5  1  0.736013  0.736013  0.736013  1
  Lu  Lu6  1  0.296390  0.296390  0.296390  1
  O  O7  1  0.030292  0.128394  0.582684  1
  O  O8  1  0.128394  0.582684  0.030292  1
  O  O9  1  0.582684  0.030292  0.128394  1
  O  O10  1  0.563643  0.100637  0.734779  1
  O  O11  1  0.100637  0.734779  0.563643  1
  O  O12  1  0.734779  0.563643  0.100637  1
  O  O13  1  0.498237  0.025124  0.532827  1
  O  O14  1  0.025124  0.532827  0.498237  1
  O  O15  1  0.532827  0.498237  0.025124  1
