# generated using pymatgen
data_YTm3V2Pt2F28
_symmetry_space_group_name_H-M   'P 1'
_cell_length_a   5.48749751
_cell_length_b   8.81115657
_cell_length_c   11.80667940
_cell_angle_alpha   62.84313539
_cell_angle_beta   90.32762952
_cell_angle_gamma   90.16533277
_symmetry_Int_Tables_number   1
_chemical_formula_structural   YTm3V2Pt2F28
_chemical_formula_sum   'Y1 Tm3 V2 Pt2 F28'
_cell_volume   507.92653688
_cell_formula_units_Z   1
loop_
 _symmetry_equiv_pos_site_id
 _symmetry_equiv_pos_as_xyz
  1  'x, y, z'
loop_
 _atom_site_type_symbol
 _atom_site_label
 _atom_site_symmetry_multiplicity
 _atom_site_fract_x
 _atom_site_fract_y
 _atom_site_fract_z
 _atom_site_occupancy
  Y  Y0  1  0.238150  0.816766  0.767409  1
  Tm  Tm1  1  0.258576  0.812058  0.264344  1
  Tm  Tm2  1  0.741288  0.190949  0.735421  1
  Tm  Tm3  1  0.761658  0.183309  0.232819  1
  V  V4  1  0.753839  0.725590  0.045011  1
  V  V5  1  0.245970  0.272468  0.957723  1
  Pt  Pt6  1  0.260218  0.274321  0.453957  1
  Pt  Pt7  1  0.740456  0.726411  0.543510  1
  F  F8  1  0.934208  0.700160  0.413983  1
  F  F9  1  0.066683  0.300146  0.583902  1
  F  F10  1  0.457845  0.288153  0.079146  1
  F  F11  1  0.545714  0.709495  0.922721  1
  F  F12  1  0.480068  0.738140  0.137696  1
  F  F13  1  0.518912  0.262486  0.863520  1
  F  F14  1  0.963239  0.277365  0.358182  1
  F  F15  1  0.037386  0.720679  0.639131  1
  F  F16  1  0.961706  0.750295  0.166212  1
  F  F17  1  0.038592  0.249567  0.835135  1
  F  F18  1  0.450576  0.256083  0.319269  1
  F  F19  1  0.554932  0.742418  0.679941  1
  F  F20  1  0.765570  0.492450  0.135951  1
  F  F21  1  0.233257  0.504888  0.865513  1
  F  F22  1  0.275197  0.524337  0.353899  1
  F  F23  1  0.724861  0.476614  0.645185  1
  F  F24  1  0.963660  0.280787  0.050671  1
  F  F25  1  0.035377  0.716275  0.953341  1
  F  F26  1  0.434229  0.721241  0.457216  1
  F  F27  1  0.564624  0.279799  0.541510  1
  F  F28  1  0.743970  0.976515  0.449407  1
  F  F29  1  0.256197  0.024578  0.547809  1
  F  F30  1  0.240789  0.039419  0.050393  1
  F  F31  1  0.759410  0.958826  0.950862  1
  F  F32  1  0.582174  0.968609  0.233132  1
  F  F33  1  0.418520  0.036617  0.767305  1
  F  F34  1  0.080247  0.023606  0.270088  1
  F  F35  1  0.911903  0.978579  0.728689  1
