# generated using pymatgen
data_LiTh3Ir8
_symmetry_space_group_name_H-M   'P 1'
_cell_length_a   9.26496206
_cell_length_b   9.26496115
_cell_length_c   9.26496089
_cell_angle_alpha   33.87944715
_cell_angle_beta   33.87944206
_cell_angle_gamma   33.87944309
_symmetry_Int_Tables_number   1
_chemical_formula_structural   LiTh3Ir8
_chemical_formula_sum   'Li1 Th3 Ir8'
_cell_volume   220.24824768
_cell_formula_units_Z   1
loop_
 _symmetry_equiv_pos_site_id
 _symmetry_equiv_pos_as_xyz
  1  'x, y, z'
loop_
 _atom_site_type_symbol
 _atom_site_label
 _atom_site_symmetry_multiplicity
 _atom_site_fract_x
 _atom_site_fract_y
 _atom_site_fract_z
 _atom_site_occupancy
  Li  Li0  1  0.335901  0.335901  0.335901  1
  Th  Th1  1  0.859278  0.859278  0.859278  1
  Th  Th2  1  0.136991  0.136991  0.136991  1
  Th  Th3  1  0.999613  0.999613  0.999613  1
  Ir  Ir4  1  0.414104  0.925716  0.414104  1
  Ir  Ir5  1  0.414104  0.414104  0.925716  1
  Ir  Ir6  1  0.925716  0.414104  0.414104  1
  Ir  Ir7  1  0.582781  0.081306  0.582781  1
  Ir  Ir8  1  0.582781  0.582781  0.081306  1
  Ir  Ir9  1  0.081306  0.582781  0.582781  1
  Ir  Ir10  1  0.666208  0.666208  0.666208  1
  Ir  Ir11  1  0.501218  0.501218  0.501218  1
