# generated using pymatgen
data_Dy4Be4FeCo(SiO5)4
_symmetry_space_group_name_H-M   'P 1'
_cell_length_a   10.02128627
_cell_length_b   7.55230000
_cell_length_c   4.78538600
_cell_angle_alpha   90.00000000
_cell_angle_beta   89.47277324
_cell_angle_gamma   90.00000000
_symmetry_Int_Tables_number   1
_chemical_formula_structural   Dy4Be4FeCo(SiO5)4
_chemical_formula_sum   'Dy4 Be4 Fe1 Co1 Si4 O20'
_cell_volume   362.16067355
_cell_formula_units_Z   1
loop_
 _symmetry_equiv_pos_site_id
 _symmetry_equiv_pos_as_xyz
  1  'x, y, z'
loop_
 _atom_site_type_symbol
 _atom_site_label
 _atom_site_symmetry_multiplicity
 _atom_site_fract_x
 _atom_site_fract_y
 _atom_site_fract_z
 _atom_site_occupancy
  Dy  Dy0  1  0.328090  0.105821  0.000821  1
  Dy  Dy1  1  0.828967  0.393104  0.000915  1
  Dy  Dy2  1  0.171033  0.606896  0.999085  1
  Dy  Dy3  1  0.671910  0.894179  0.999179  1
  Be  Be4  1  0.164217  0.913669  0.464659  1
  Be  Be5  1  0.665664  0.586634  0.465013  1
  Be  Be6  1  0.835783  0.086331  0.535341  1
  Be  Be7  1  0.334335  0.413366  0.534989  1
  Fe  Fe8  1  0.500000  0.499999  0.000000  1
  Co  Co9  1  0.000000  0.000000  0.000000  1
  Si  Si10  1  0.077661  0.279108  0.480867  1
  Si  Si11  1  0.577675  0.219767  0.480996  1
  Si  Si12  1  0.422324  0.780233  0.519003  1
  Si  Si13  1  0.922339  0.720892  0.519133  1
  O  O14  1  0.832430  0.087044  0.202531  1
  O  O15  1  0.330768  0.412719  0.202282  1
  O  O16  1  0.028195  0.415032  0.239061  1
  O  O17  1  0.528474  0.084575  0.238102  1
  O  O18  1  0.303836  0.848265  0.308347  1
  O  O19  1  0.804270  0.652682  0.308545  1
  O  O20  1  0.140314  0.106653  0.308588  1
  O  O21  1  0.642251  0.392665  0.312907  1
  O  O22  1  0.047932  0.788706  0.319539  1
  O  O23  1  0.549593  0.713635  0.323220  1
  O  O24  1  0.450407  0.286365  0.676780  1
  O  O25  1  0.952068  0.211294  0.680460  1
  O  O26  1  0.357749  0.607335  0.687092  1
  O  O27  1  0.859686  0.893347  0.691411  1
  O  O28  1  0.195730  0.347318  0.691454  1
  O  O29  1  0.696164  0.151736  0.691652  1
  O  O30  1  0.471527  0.915425  0.761898  1
  O  O31  1  0.971806  0.584968  0.760938  1
  O  O32  1  0.167569  0.912956  0.797468  1
  O  O33  1  0.669231  0.587281  0.797720  1
