# generated using pymatgen
data_Mg(PaCo2)3
_symmetry_space_group_name_H-M   'P 1'
_cell_length_a   5.29627300
_cell_length_b   7.32405700
_cell_length_c   8.25478700
_cell_angle_alpha   90.00000000
_cell_angle_beta   90.00000000
_cell_angle_gamma   90.00000000
_symmetry_Int_Tables_number   1
_chemical_formula_structural   Mg(PaCo2)3
_chemical_formula_sum   'Mg2 Pa6 Co12'
_cell_volume   320.20488276
_cell_formula_units_Z   2
loop_
 _symmetry_equiv_pos_site_id
 _symmetry_equiv_pos_as_xyz
  1  'x, y, z'
loop_
 _atom_site_type_symbol
 _atom_site_label
 _atom_site_symmetry_multiplicity
 _atom_site_fract_x
 _atom_site_fract_y
 _atom_site_fract_z
 _atom_site_occupancy
  Mg  Mg0  1  0.250000  0.067921  0.609910  1
  Mg  Mg1  1  0.250000  0.567921  0.890090  1
  Pa  Pa2  1  0.750000  0.895549  0.858581  1
  Pa  Pa3  1  0.750000  0.395549  0.641419  1
  Pa  Pa4  1  0.250000  0.097860  0.144156  1
  Pa  Pa5  1  0.250000  0.597860  0.355844  1
  Pa  Pa6  1  0.750000  0.941377  0.419357  1
  Pa  Pa7  1  0.750000  0.441377  0.080643  1
  Co  Co8  1  0.750000  0.583892  0.361052  1
  Co  Co9  1  0.750000  0.083892  0.138948  1
  Co  Co10  1  0.250000  0.410600  0.615942  1
  Co  Co11  1  0.250000  0.910600  0.884058  1
  Co  Co12  1  0.997959  0.261244  0.372434  1
  Co  Co13  1  0.502041  0.761244  0.127566  1
  Co  Co14  1  0.496959  0.740156  0.617462  1
  Co  Co15  1  0.003041  0.240156  0.882538  1
  Co  Co16  1  0.003041  0.740156  0.617462  1
  Co  Co17  1  0.496959  0.240156  0.882538  1
  Co  Co18  1  0.502041  0.261244  0.372434  1
  Co  Co19  1  0.997959  0.761244  0.127566  1
