# generated using pymatgen
data_Dy12TcRu2Rh
_symmetry_space_group_name_H-M   'P 1'
_cell_length_a   6.33481801
_cell_length_b   7.31025101
_cell_length_c   9.21853500
_cell_angle_alpha   90.00000000
_cell_angle_beta   90.00000000
_cell_angle_gamma   89.99477798
_symmetry_Int_Tables_number   1
_chemical_formula_structural   Dy12TcRu2Rh
_chemical_formula_sum   'Dy12 Tc1 Ru2 Rh1'
_cell_volume   426.90214696
_cell_formula_units_Z   1
loop_
 _symmetry_equiv_pos_site_id
 _symmetry_equiv_pos_as_xyz
  1  'x, y, z'
loop_
 _atom_site_type_symbol
 _atom_site_label
 _atom_site_symmetry_multiplicity
 _atom_site_fract_x
 _atom_site_fract_y
 _atom_site_fract_z
 _atom_site_occupancy
  Dy  Dy0  1  0.333413  0.676040  0.063229  1
  Dy  Dy1  1  0.169260  0.179959  0.437025  1
  Dy  Dy2  1  0.666715  0.323144  0.563306  1
  Dy  Dy3  1  0.828125  0.822045  0.933080  1
  Dy  Dy4  1  0.666715  0.323144  0.936694  1
  Dy  Dy5  1  0.828125  0.822045  0.566920  1
  Dy  Dy6  1  0.333413  0.676040  0.436771  1
  Dy  Dy7  1  0.169260  0.179959  0.062975  1
  Dy  Dy8  1  0.871389  0.538097  0.250000  1
  Dy  Dy9  1  0.631509  0.039700  0.250000  1
  Dy  Dy10  1  0.133169  0.459346  0.750000  1
  Dy  Dy11  1  0.364960  0.959417  0.750000  1
  Tc  Tc12  1  0.460913  0.387016  0.250000  1
  Ru  Ru13  1  0.962046  0.112288  0.750000  1
  Ru  Ru14  1  0.540560  0.615801  0.750000  1
  Rh  Rh15  1  0.040426  0.885952  0.250000  1
