# generated using pymatgen
data_KEuBi2F10
_symmetry_space_group_name_H-M   'P 1'
_cell_length_a   8.52137865
_cell_length_b   8.52137773
_cell_length_c   8.55662200
_cell_angle_alpha   59.86308824
_cell_angle_beta   59.86309181
_cell_angle_gamma   60.27382051
_symmetry_Int_Tables_number   1
_chemical_formula_structural   KEuBi2F10
_chemical_formula_sum   'K2 Eu2 Bi4 F20'
_cell_volume   439.33126568
_cell_formula_units_Z   2
loop_
 _symmetry_equiv_pos_site_id
 _symmetry_equiv_pos_as_xyz
  1  'x, y, z'
loop_
 _atom_site_type_symbol
 _atom_site_label
 _atom_site_symmetry_multiplicity
 _atom_site_fract_x
 _atom_site_fract_y
 _atom_site_fract_z
 _atom_site_occupancy
  K  K0  1  0.250000  0.250000  0.250000  1
  K  K1  1  0.750000  0.750000  0.750000  1
  Eu  Eu2  1  0.238896  0.238896  0.761104  1
  Eu  Eu3  1  0.761104  0.761104  0.238896  1
  Bi  Bi4  1  0.758643  0.241357  0.241357  1
  Bi  Bi5  1  0.241357  0.758643  0.758643  1
  Bi  Bi6  1  0.241357  0.758643  0.241357  1
  Bi  Bi7  1  0.758643  0.241357  0.758643  1
  F  F8  1  0.827807  0.498992  0.501008  1
  F  F9  1  0.172193  0.501008  0.498992  1
  F  F10  1  0.498992  0.827807  0.172193  1
  F  F11  1  0.501008  0.172193  0.827807  1
  F  F12  1  0.498992  0.827807  0.501008  1
  F  F13  1  0.172193  0.501008  0.827807  1
  F  F14  1  0.501008  0.172193  0.498992  1
  F  F15  1  0.827807  0.498992  0.172193  1
  F  F16  1  0.500000  0.500000  0.831110  1
  F  F17  1  0.500000  0.500000  0.168890  1
  F  F18  1  0.168890  0.831110  0.500000  1
  F  F19  1  0.831110  0.168890  0.500000  1
  F  F20  1  0.115439  0.115439  0.111194  1
  F  F21  1  0.884561  0.884561  0.888806  1
  F  F22  1  0.115439  0.115439  0.657930  1
  F  F23  1  0.111194  0.657930  0.115439  1
  F  F24  1  0.884561  0.884561  0.342070  1
  F  F25  1  0.888806  0.342070  0.884561  1
  F  F26  1  0.657930  0.111194  0.115439  1
  F  F27  1  0.342070  0.888806  0.884561  1
