# generated using pymatgen
data_CsP2IrOs
_symmetry_space_group_name_H-M   'P 1'
_cell_length_a   7.74352239
_cell_length_b   7.74352222
_cell_length_c   7.74352147
_cell_angle_alpha   149.88154145
_cell_angle_beta   149.88154024
_cell_angle_gamma   43.11531412
_symmetry_Int_Tables_number   1
_chemical_formula_structural   CsP2IrOs
_chemical_formula_sum   'Cs1 P2 Ir1 Os1'
_cell_volume   116.60513564
_cell_formula_units_Z   1
loop_
 _symmetry_equiv_pos_site_id
 _symmetry_equiv_pos_as_xyz
  1  'x, y, z'
loop_
 _atom_site_type_symbol
 _atom_site_label
 _atom_site_symmetry_multiplicity
 _atom_site_fract_x
 _atom_site_fract_y
 _atom_site_fract_z
 _atom_site_occupancy
  Cs  Cs0  1  0.000000  0.000000  0.000000  1
  P  P1  1  0.334851  0.334851  0.000000  1
  P  P2  1  0.665149  0.665149  0.000000  1
  Ir  Ir3  1  0.250000  0.750000  0.500000  1
  Os  Os4  1  0.750000  0.250000  0.500000  1
