# generated using pymatgen
data_Na4Ta5NbS12
_symmetry_space_group_name_H-M   'P 1'
_cell_length_a   14.99136007
_cell_length_b   14.99135991
_cell_length_c   14.99136000
_cell_angle_alpha   22.37423376
_cell_angle_beta   22.37423527
_cell_angle_gamma   22.37422772
_symmetry_Int_Tables_number   1
_chemical_formula_structural   Na4Ta5NbS12
_chemical_formula_sum   'Na4 Ta5 Nb1 S12'
_cell_volume   428.15155159
_cell_formula_units_Z   1
loop_
 _symmetry_equiv_pos_site_id
 _symmetry_equiv_pos_as_xyz
  1  'x, y, z'
loop_
 _atom_site_type_symbol
 _atom_site_label
 _atom_site_symmetry_multiplicity
 _atom_site_fract_x
 _atom_site_fract_y
 _atom_site_fract_z
 _atom_site_occupancy
  Na  Na0  1  0.916554  0.916554  0.916554  1
  Na  Na1  1  0.583228  0.583228  0.583228  1
  Na  Na2  1  0.416910  0.416910  0.416910  1
  Na  Na3  1  0.083434  0.083434  0.083434  1
  Ta  Ta4  1  0.666779  0.666779  0.666779  1
  Ta  Ta5  1  0.999997  0.999997  0.999997  1
  Ta  Ta6  1  0.833229  0.166812  0.500009  1
  Ta  Ta7  1  0.500009  0.833229  0.166812  1
  Ta  Ta8  1  0.166812  0.500009  0.833229  1
  Nb  Nb9  1  0.333180  0.333180  0.333180  1
  S  S10  1  0.963177  0.631816  0.297654  1
  S  S11  1  0.297654  0.963177  0.631816  1
  S  S12  1  0.631816  0.297654  0.963177  1
  S  S13  1  0.704079  0.370199  0.032911  1
  S  S14  1  0.032911  0.704079  0.370199  1
  S  S15  1  0.370199  0.032911  0.704079  1
  S  S16  1  0.869935  0.534680  0.202282  1
  S  S17  1  0.202282  0.869935  0.534680  1
  S  S18  1  0.534680  0.202282  0.869935  1
  S  S19  1  0.797774  0.465339  0.130020  1
  S  S20  1  0.130020  0.797774  0.465339  1
  S  S21  1  0.465339  0.130020  0.797774  1
