# generated using pymatgen
data_Er3Lu5Se12
_symmetry_space_group_name_H-M   'P 1'
_cell_length_a   6.98225167
_cell_length_b   6.99551647
_cell_length_c   12.72601556
_cell_angle_alpha   100.71396146
_cell_angle_beta   100.67372362
_cell_angle_gamma   108.91869608
_symmetry_Int_Tables_number   1
_chemical_formula_structural   Er3Lu5Se12
_chemical_formula_sum   'Er3 Lu5 Se12'
_cell_volume   557.25020094
_cell_formula_units_Z   1
loop_
 _symmetry_equiv_pos_site_id
 _symmetry_equiv_pos_as_xyz
  1  'x, y, z'
loop_
 _atom_site_type_symbol
 _atom_site_label
 _atom_site_symmetry_multiplicity
 _atom_site_fract_x
 _atom_site_fract_y
 _atom_site_fract_z
 _atom_site_occupancy
  Er  Er0  1  0.872318  0.622318  0.744635  1
  Er  Er1  1  0.377542  0.127542  0.755084  1
  Er  Er2  1  0.958973  0.208974  0.917946  1
  Lu  Lu3  1  0.041766  0.791766  0.083533  1
  Lu  Lu4  1  0.622785  0.872785  0.245568  1
  Lu  Lu5  1  0.127596  0.377596  0.255193  1
  Lu  Lu6  1  0.208381  0.958381  0.416763  1
  Lu  Lu7  1  0.791104  0.041105  0.582209  1
  Se  Se8  1  0.804164  0.047671  0.089102  1
  Se  Se9  1  0.284939  0.541432  0.089102  1
  Se  Se10  1  0.367249  0.117308  0.249983  1
  Se  Se11  1  0.882733  0.632674  0.249983  1
  Se  Se12  1  0.951260  0.194837  0.412003  1
  Se  Se13  1  0.460744  0.717166  0.412003  1
  Se  Se14  1  0.538425  0.281415  0.585615  1
  Se  Se15  1  0.047190  0.804199  0.585615  1
  Se  Se16  1  0.117783  0.367615  0.748639  1
  Se  Se17  1  0.630856  0.881023  0.748639  1
  Se  Se18  1  0.716367  0.463691  0.914193  1
  Se  Se19  1  0.197826  0.950501  0.914193  1
