# generated using pymatgen
data_HfP2(S4Cl)2
_symmetry_space_group_name_H-M   'P 1'
_cell_length_a   13.04109700
_cell_length_b   7.17837946
_cell_length_c   17.56307200
_cell_angle_alpha   66.58659950
_cell_angle_beta   90.00000000
_cell_angle_gamma   90.00000000
_symmetry_Int_Tables_number   1
_chemical_formula_structural   HfP2(S4Cl)2
_chemical_formula_sum   'Hf4 P8 S32 Cl8'
_cell_volume   1508.77205585
_cell_formula_units_Z   4
loop_
 _symmetry_equiv_pos_site_id
 _symmetry_equiv_pos_as_xyz
  1  'x, y, z'
loop_
 _atom_site_type_symbol
 _atom_site_label
 _atom_site_symmetry_multiplicity
 _atom_site_fract_x
 _atom_site_fract_y
 _atom_site_fract_z
 _atom_site_occupancy
  Hf  Hf0  1  0.257692  0.182242  0.533414  1
  Hf  Hf1  1  0.242308  0.182242  0.033414  1
  Hf  Hf2  1  0.742308  0.817758  0.466586  1
  Hf  Hf3  1  0.757692  0.817758  0.966586  1
  P  P4  1  0.088707  0.939026  0.664052  1
  P  P5  1  0.411293  0.939026  0.164052  1
  P  P6  1  0.911293  0.060974  0.335948  1
  P  P7  1  0.588707  0.060974  0.835948  1
  P  P8  1  0.854851  0.765002  0.633676  1
  P  P9  1  0.645149  0.765002  0.133676  1
  P  P10  1  0.145149  0.234998  0.366324  1
  P  P11  1  0.354851  0.234998  0.866324  1
  S  S12  1  0.933708  0.028240  0.630610  1
  S  S13  1  0.566292  0.028240  0.130610  1
  S  S14  1  0.066292  0.971760  0.369390  1
  S  S15  1  0.433708  0.971760  0.869390  1
  S  S16  1  0.158948  0.828124  0.590294  1
  S  S17  1  0.341052  0.828124  0.090294  1
  S  S18  1  0.841052  0.171876  0.409706  1
  S  S19  1  0.658948  0.171876  0.909706  1
  S  S20  1  0.155721  0.197751  0.657646  1
  S  S21  1  0.344279  0.197751  0.157646  1
  S  S22  1  0.844279  0.802249  0.342354  1
  S  S23  1  0.655721  0.802249  0.842354  1
  S  S24  1  0.083179  0.731784  0.790021  1
  S  S25  1  0.416821  0.731784  0.290021  1
  S  S26  1  0.916821  0.268216  0.209979  1
  S  S27  1  0.583179  0.268216  0.709979  1
  S  S28  1  0.011559  0.499513  0.769755  1
  S  S29  1  0.488441  0.499513  0.269755  1
  S  S30  1  0.988441  0.500487  0.230245  1
  S  S31  1  0.511559  0.500487  0.730245  1
  S  S32  1  0.856197  0.557672  0.759680  1
  S  S33  1  0.643803  0.557672  0.259680  1
  S  S34  1  0.143803  0.442328  0.240320  1
  S  S35  1  0.356197  0.442328  0.740320  1
  S  S36  1  0.711427  0.872935  0.602019  1
  S  S37  1  0.788573  0.872935  0.102019  1
  S  S38  1  0.288573  0.127065  0.397981  1
  S  S39  1  0.211427  0.127065  0.897981  1
  S  S40  1  0.908070  0.646192  0.556372  1
  S  S41  1  0.591930  0.646192  0.056372  1
  S  S42  1  0.091930  0.353808  0.443628  1
  S  S43  1  0.408070  0.353808  0.943628  1
  Cl  Cl44  1  0.412539  0.006653  0.580331  1
  Cl  Cl45  1  0.087461  0.006653  0.080331  1
  Cl  Cl46  1  0.587461  0.993347  0.419669  1
  Cl  Cl47  1  0.912539  0.993347  0.919669  1
  Cl  Cl48  1  0.321439  0.504901  0.514886  1
  Cl  Cl49  1  0.178561  0.504901  0.014886  1
  Cl  Cl50  1  0.678561  0.495099  0.485114  1
  Cl  Cl51  1  0.821439  0.495099  0.985114  1
