# generated using pymatgen
data_Y4MnTcOs6
_symmetry_space_group_name_H-M   'P 1'
_cell_length_a   5.31588405
_cell_length_b   5.31588382
_cell_length_c   8.79854713
_cell_angle_alpha   89.95006476
_cell_angle_beta   90.04993497
_cell_angle_gamma   119.20119896
_symmetry_Int_Tables_number   1
_chemical_formula_structural   Y4MnTcOs6
_chemical_formula_sum   'Y4 Mn1 Tc1 Os6'
_cell_volume   217.03617236
_cell_formula_units_Z   1
loop_
 _symmetry_equiv_pos_site_id
 _symmetry_equiv_pos_as_xyz
  1  'x, y, z'
loop_
 _atom_site_type_symbol
 _atom_site_label
 _atom_site_symmetry_multiplicity
 _atom_site_fract_x
 _atom_site_fract_y
 _atom_site_fract_z
 _atom_site_occupancy
  Y  Y0  1  0.332552  0.667448  0.433403  1
  Y  Y1  1  0.666270  0.333730  0.569057  1
  Y  Y2  1  0.665891  0.334109  0.934382  1
  Y  Y3  1  0.332060  0.667940  0.063220  1
  Mn  Mn4  1  0.000499  0.999501  0.501642  1
  Tc  Tc5  1  0.830184  0.169816  0.251425  1
  Os  Os6  1  0.999175  0.000825  0.998545  1
  Os  Os7  1  0.829033  0.659200  0.253380  1
  Os  Os8  1  0.340800  0.170967  0.253380  1
  Os  Os9  1  0.172960  0.827040  0.747513  1
  Os  Os10  1  0.169136  0.338561  0.747026  1
  Os  Os11  1  0.661439  0.830864  0.747026  1
