# generated using pymatgen
data_Tb3Ho(Lu3Ir2)2
_symmetry_space_group_name_H-M   'P 1'
_cell_length_a   6.44227289
_cell_length_b   7.18091782
_cell_length_c   8.44625100
_cell_angle_alpha   96.73968055
_cell_angle_beta   112.37281439
_cell_angle_gamma   89.94116926
_symmetry_Int_Tables_number   1
_chemical_formula_structural   Tb3Ho(Lu3Ir2)2
_chemical_formula_sum   'Tb3 Ho1 Lu6 Ir4'
_cell_volume   358.42138227
_cell_formula_units_Z   1
loop_
 _symmetry_equiv_pos_site_id
 _symmetry_equiv_pos_as_xyz
  1  'x, y, z'
loop_
 _atom_site_type_symbol
 _atom_site_label
 _atom_site_symmetry_multiplicity
 _atom_site_fract_x
 _atom_site_fract_y
 _atom_site_fract_z
 _atom_site_occupancy
  Tb  Tb0  1  0.973088  0.919579  0.187535  1
  Tb  Tb1  1  0.786251  0.580858  0.813399  1
  Tb  Tb2  1  0.027337  0.080568  0.813154  1
  Ho  Ho3  1  0.213466  0.418597  0.186387  1
  Lu  Lu4  1  0.647991  0.817095  0.438969  1
  Lu  Lu5  1  0.209606  0.681677  0.560158  1
  Lu  Lu6  1  0.351694  0.183327  0.560774  1
  Lu  Lu7  1  0.789379  0.317947  0.439041  1
  Lu  Lu8  1  0.428205  0.749755  0.000328  1
  Lu  Lu9  1  0.571792  0.250098  0.000129  1
  Ir  Ir10  1  0.822079  0.572807  0.222009  1
  Ir  Ir11  1  0.597342  0.926452  0.778037  1
  Ir  Ir12  1  0.180081  0.426625  0.778562  1
  Ir  Ir13  1  0.401690  0.074615  0.221519  1
