# generated using pymatgen
data_TbDy2AlIn2Au3
_symmetry_space_group_name_H-M   'P 1'
_cell_length_a   7.68291463
_cell_length_b   7.68589931
_cell_length_c   4.00101000
_cell_angle_alpha   90.00000000
_cell_angle_beta   90.00000000
_cell_angle_gamma   120.69350413
_symmetry_Int_Tables_number   1
_chemical_formula_structural   TbDy2AlIn2Au3
_chemical_formula_sum   'Tb1 Dy2 Al1 In2 Au3'
_cell_volume   203.16243491
_cell_formula_units_Z   1
loop_
 _symmetry_equiv_pos_site_id
 _symmetry_equiv_pos_as_xyz
  1  'x, y, z'
loop_
 _atom_site_type_symbol
 _atom_site_label
 _atom_site_symmetry_multiplicity
 _atom_site_fract_x
 _atom_site_fract_y
 _atom_site_fract_z
 _atom_site_occupancy
  Tb  Tb0  1  0.593254  0.000682  0.500000  1
  Dy  Dy1  1  0.410373  0.410418  0.500000  1
  Dy  Dy2  1  0.000371  0.593596  0.500000  1
  Al  Al3  1  0.745542  0.745220  0.000000  1
  In  In4  1  0.999883  0.255838  0.000000  1
  In  In5  1  0.255819  0.999730  0.000000  1
  Au  Au6  1  0.348589  0.669109  0.000000  1
  Au  Au7  1  0.670635  0.350498  0.000000  1
  Au  Au8  1  0.975534  0.974909  0.500000  1
