# generated using pymatgen
data_K6Li4LuTaP6
_symmetry_space_group_name_H-M   'P 1'
_cell_length_a   10.18270269
_cell_length_b   10.18270252
_cell_length_c   14.84311400
_cell_angle_alpha   90.00000000
_cell_angle_beta   90.00000000
_cell_angle_gamma   143.44940897
_symmetry_Int_Tables_number   1
_chemical_formula_structural   K6Li4LuTaP6
_chemical_formula_sum   'K12 Li8 Lu2 Ta2 P12'
_cell_volume   916.55070671
_cell_formula_units_Z   2
loop_
 _symmetry_equiv_pos_site_id
 _symmetry_equiv_pos_as_xyz
  1  'x, y, z'
loop_
 _atom_site_type_symbol
 _atom_site_label
 _atom_site_symmetry_multiplicity
 _atom_site_fract_x
 _atom_site_fract_y
 _atom_site_fract_z
 _atom_site_occupancy
  K  K0  1  0.104415  0.449719  0.674793  1
  K  K1  1  0.707951  0.712113  0.680902  1
  K  K2  1  0.212113  0.207951  0.819098  1
  K  K3  1  0.792049  0.787887  0.180902  1
  K  K4  1  0.949719  0.604415  0.825207  1
  K  K5  1  0.550281  0.895585  0.325207  1
  K  K6  1  0.395585  0.050281  0.174793  1
  K  K7  1  0.049461  0.395623  0.174342  1
  K  K8  1  0.895623  0.549461  0.325658  1
  K  K9  1  0.450539  0.104377  0.674342  1
  K  K10  1  0.604377  0.950540  0.825658  1
  K  K11  1  0.287887  0.292049  0.319098  1
  Li  Li12  1  0.916627  0.083373  0.000000  1
  Li  Li13  1  0.583373  0.416627  0.500000  1
  Li  Li14  1  0.086263  0.913737  0.000000  1
  Li  Li15  1  0.413737  0.586263  0.500000  1
  Li  Li16  1  0.750359  0.249641  0.000000  1
  Li  Li17  1  0.749641  0.250359  0.500000  1
  Li  Li18  1  0.248333  0.751667  0.000000  1
  Li  Li19  1  0.251667  0.748333  0.500000  1
  Lu  Lu20  1  0.911629  0.088371  0.500000  1
  Lu  Lu21  1  0.588371  0.411629  0.000000  1
  Ta  Ta22  1  0.087092  0.912908  0.500000  1
  Ta  Ta23  1  0.412908  0.587092  0.000000  1
  P  P24  1  0.912030  0.580150  0.096314  1
  P  P25  1  0.419850  0.087970  0.903686  1
  P  P26  1  0.587970  0.919850  0.596314  1
  P  P27  1  0.934929  0.617504  0.589128  1
  P  P28  1  0.117504  0.434929  0.910872  1
  P  P29  1  0.565071  0.882496  0.089128  1
  P  P30  1  0.382496  0.065071  0.410872  1
  P  P31  1  0.233554  0.213960  0.588294  1
  P  P32  1  0.713960  0.733554  0.911706  1
  P  P33  1  0.266446  0.286040  0.088294  1
  P  P34  1  0.080150  0.412030  0.403686  1
  P  P35  1  0.786040  0.766446  0.411706  1
