# generated using pymatgen
data_Dy6Y2In3Fe
_symmetry_space_group_name_H-M   'P 1'
_cell_length_a   10.34822300
_cell_length_b   10.35311903
_cell_length_c   7.05253695
_cell_angle_alpha   89.90073245
_cell_angle_beta   90.00000000
_cell_angle_gamma   119.98435451
_symmetry_Int_Tables_number   1
_chemical_formula_structural   Dy6Y2In3Fe
_chemical_formula_sum   'Dy12 Y4 In6 Fe2'
_cell_volume   654.45616886
_cell_formula_units_Z   2
loop_
 _symmetry_equiv_pos_site_id
 _symmetry_equiv_pos_as_xyz
  1  'x, y, z'
loop_
 _atom_site_type_symbol
 _atom_site_label
 _atom_site_symmetry_multiplicity
 _atom_site_fract_x
 _atom_site_fract_y
 _atom_site_fract_z
 _atom_site_occupancy
  Dy  Dy0  1  0.072193  0.536292  0.013385  1
  Dy  Dy1  1  0.464097  0.536292  0.013385  1
  Dy  Dy2  1  0.178110  0.356218  0.720181  1
  Dy  Dy3  1  0.643498  0.821389  0.719390  1
  Dy  Dy4  1  0.177891  0.821389  0.719390  1
  Dy  Dy5  1  0.821605  0.643209  0.218765  1
  Dy  Dy6  1  0.356466  0.178639  0.218894  1
  Dy  Dy7  1  0.822174  0.178639  0.218894  1
  Dy  Dy8  1  0.666760  0.333518  0.903447  1
  Dy  Dy9  1  0.333334  0.666671  0.402167  1
  Dy  Dy10  1  0.000034  0.000068  0.501591  1
  Dy  Dy11  1  0.999890  0.999782  0.001456  1
  Y  Y12  1  0.535671  0.071341  0.514198  1
  Y  Y13  1  0.929285  0.464606  0.514076  1
  Y  Y14  1  0.535324  0.464606  0.514076  1
  Y  Y15  1  0.464537  0.929074  0.014093  1
  In  In16  1  0.836622  0.673244  0.761502  1
  In  In17  1  0.326950  0.163351  0.761256  1
  In  In18  1  0.836401  0.163351  0.761256  1
  In  In19  1  0.163362  0.326724  0.261277  1
  In  In20  1  0.673321  0.836677  0.261394  1
  In  In21  1  0.163356  0.836677  0.261394  1
  Fe  Fe22  1  0.666690  0.333378  0.283505  1
  Fe  Fe23  1  0.332431  0.664863  0.785227  1
