# generated using pymatgen
data_Tb11Dy5(In3Fe)2
_symmetry_space_group_name_H-M   'P 1'
_cell_length_a   10.38464101
_cell_length_b   10.38643425
_cell_length_c   7.06872220
_cell_angle_alpha   89.98641906
_cell_angle_beta   90.02378814
_cell_angle_gamma   119.94795159
_symmetry_Int_Tables_number   1
_chemical_formula_structural   Tb11Dy5(In3Fe)2
_chemical_formula_sum   'Tb11 Dy5 In6 Fe2'
_cell_volume   660.62804990
_cell_formula_units_Z   1
loop_
 _symmetry_equiv_pos_site_id
 _symmetry_equiv_pos_as_xyz
  1  'x, y, z'
loop_
 _atom_site_type_symbol
 _atom_site_label
 _atom_site_symmetry_multiplicity
 _atom_site_fract_x
 _atom_site_fract_y
 _atom_site_fract_z
 _atom_site_occupancy
  Tb  Tb0  1  0.177968  0.821987  0.993356  1
  Tb  Tb1  1  0.666619  0.333294  0.177870  1
  Tb  Tb2  1  0.333483  0.666527  0.677488  1
  Tb  Tb3  1  0.536322  0.072519  0.787675  1
  Tb  Tb4  1  0.927144  0.463581  0.787632  1
  Tb  Tb5  1  0.536388  0.463586  0.787621  1
  Tb  Tb6  1  0.464098  0.927789  0.288037  1
  Tb  Tb7  1  0.072302  0.535717  0.287922  1
  Tb  Tb8  1  0.463408  0.536314  0.287256  1
  Tb  Tb9  1  0.000262  0.000451  0.774835  1
  Tb  Tb10  1  0.000222  0.000234  0.274962  1
  Dy  Dy11  1  0.822119  0.644433  0.492900  1
  Dy  Dy12  1  0.355554  0.177804  0.493259  1
  Dy  Dy13  1  0.822073  0.177794  0.493017  1
  Dy  Dy14  1  0.177938  0.355924  0.992482  1
  Dy  Dy15  1  0.644176  0.822111  0.992935  1
  In  In16  1  0.836455  0.673420  0.036160  1
  In  In17  1  0.326572  0.163562  0.036167  1
  In  In18  1  0.836985  0.163111  0.035756  1
  In  In19  1  0.163232  0.326430  0.535971  1
  In  In20  1  0.673672  0.836839  0.536063  1
  In  In21  1  0.163025  0.836866  0.535600  1
  Fe  Fe22  1  0.666771  0.333142  0.560377  1
  Fe  Fe23  1  0.333210  0.666564  0.060731  1
