# generated using pymatgen
data_MgNb8AlSe16
_symmetry_space_group_name_H-M   'P 1'
_cell_length_a   7.00625200
_cell_length_b   7.00625268
_cell_length_c   13.29158200
_cell_angle_alpha   90.00000000
_cell_angle_beta   90.00000000
_cell_angle_gamma   119.99999680
_symmetry_Int_Tables_number   1
_chemical_formula_structural   MgNb8AlSe16
_chemical_formula_sum   'Mg1 Nb8 Al1 Se16'
_cell_volume   565.03958005
_cell_formula_units_Z   1
loop_
 _symmetry_equiv_pos_site_id
 _symmetry_equiv_pos_as_xyz
  1  'x, y, z'
loop_
 _atom_site_type_symbol
 _atom_site_label
 _atom_site_symmetry_multiplicity
 _atom_site_fract_x
 _atom_site_fract_y
 _atom_site_fract_z
 _atom_site_occupancy
  Mg  Mg0  1  0.000000  0.000000  0.000000  1
  Nb  Nb1  1  0.000000  0.000000  0.257138  1
  Nb  Nb2  1  0.000000  0.000000  0.742862  1
  Nb  Nb3  1  0.507432  0.014863  0.258356  1
  Nb  Nb4  1  0.492568  0.985137  0.741644  1
  Nb  Nb5  1  0.985137  0.492568  0.258356  1
  Nb  Nb6  1  0.014863  0.507432  0.741644  1
  Nb  Nb7  1  0.507432  0.492568  0.258356  1
  Nb  Nb8  1  0.492568  0.507432  0.741644  1
  Al  Al9  1  0.000000  0.000000  0.500000  1
  Se  Se10  1  0.333333  0.666667  0.612160  1
  Se  Se11  1  0.666667  0.333333  0.387840  1
  Se  Se12  1  0.666667  0.333333  0.128018  1
  Se  Se13  1  0.333333  0.666667  0.871982  1
  Se  Se14  1  0.169103  0.338208  0.132766  1
  Se  Se15  1  0.830897  0.661792  0.867234  1
  Se  Se16  1  0.661792  0.830897  0.132766  1
  Se  Se17  1  0.831477  0.662953  0.616319  1
  Se  Se18  1  0.338208  0.169103  0.867234  1
  Se  Se19  1  0.168523  0.337047  0.383681  1
  Se  Se20  1  0.169103  0.830897  0.132766  1
  Se  Se21  1  0.337047  0.168523  0.616319  1
  Se  Se22  1  0.830897  0.169103  0.867234  1
  Se  Se23  1  0.662953  0.831477  0.383681  1
  Se  Se24  1  0.831477  0.168523  0.616319  1
  Se  Se25  1  0.168523  0.831477  0.383681  1
