# generated using pymatgen
data_Hf6Al6ZnCuPt4
_symmetry_space_group_name_H-M   'P 1'
_cell_length_a   6.68927800
_cell_length_b   6.68927828
_cell_length_c   8.05161700
_cell_angle_alpha   90.00000000
_cell_angle_beta   90.00000000
_cell_angle_gamma   119.99999863
_symmetry_Int_Tables_number   1
_chemical_formula_structural   Hf6Al6ZnCuPt4
_chemical_formula_sum   'Hf6 Al6 Zn1 Cu1 Pt4'
_cell_volume   312.01268741
_cell_formula_units_Z   1
loop_
 _symmetry_equiv_pos_site_id
 _symmetry_equiv_pos_as_xyz
  1  'x, y, z'
loop_
 _atom_site_type_symbol
 _atom_site_label
 _atom_site_symmetry_multiplicity
 _atom_site_fract_x
 _atom_site_fract_y
 _atom_site_fract_z
 _atom_site_occupancy
  Hf  Hf0  1  0.582427  0.001912  0.753681  1
  Hf  Hf1  1  0.998088  0.580516  0.753681  1
  Hf  Hf2  1  0.419484  0.417573  0.753681  1
  Hf  Hf3  1  0.998037  0.580490  0.246373  1
  Hf  Hf4  1  0.582454  0.001963  0.246373  1
  Hf  Hf5  1  0.419510  0.417546  0.246373  1
  Al  Al6  1  0.753263  0.748637  0.000029  1
  Al  Al7  1  0.251363  0.004626  0.000029  1
  Al  Al8  1  0.995374  0.246737  0.000029  1
  Al  Al9  1  0.750702  0.754886  0.500024  1
  Al  Al10  1  0.245114  0.995816  0.500024  1
  Al  Al11  1  0.004184  0.249298  0.500024  1
  Zn  Zn12  1  0.666667  0.333333  0.500059  1
  Cu  Cu13  1  0.666667  0.333333  0.999391  1
  Pt  Pt14  1  0.000000  0.000000  0.749978  1
  Pt  Pt15  1  0.000000  0.000000  0.250147  1
  Pt  Pt16  1  0.333333  0.666667  0.500037  1
  Pt  Pt17  1  0.333333  0.666667  0.000070  1
