# generated using pymatgen
data_Tb4DyNb2P12Ir17
_symmetry_space_group_name_H-M   'P 1'
_cell_length_a   12.59616601
_cell_length_b   12.80252491
_cell_length_c   4.01000900
_cell_angle_alpha   90.00000000
_cell_angle_beta   90.00000000
_cell_angle_gamma   119.47252772
_symmetry_Int_Tables_number   1
_chemical_formula_structural   Tb4DyNb2P12Ir17
_chemical_formula_sum   'Tb4 Dy1 Nb2 P12 Ir17'
_cell_volume   562.98117993
_cell_formula_units_Z   1
loop_
 _symmetry_equiv_pos_site_id
 _symmetry_equiv_pos_as_xyz
  1  'x, y, z'
loop_
 _atom_site_type_symbol
 _atom_site_label
 _atom_site_symmetry_multiplicity
 _atom_site_fract_x
 _atom_site_fract_y
 _atom_site_fract_z
 _atom_site_occupancy
  Tb  Tb0  1  0.330119  0.661455  0.500000  1
  Tb  Tb1  1  0.999741  0.813398  0.000000  1
  Tb  Tb2  1  0.186315  0.186630  0.000000  1
  Tb  Tb3  1  0.815024  0.999975  0.000000  1
  Dy  Dy4  1  0.668781  0.338663  0.500000  1
  Nb  Nb5  1  0.996945  0.450459  0.500000  1
  Nb  Nb6  1  0.546618  0.549394  0.500000  1
  P  P7  1  0.002656  0.641683  0.500000  1
  P  P8  1  0.360913  0.358410  0.500000  1
  P  P9  1  0.645350  0.999876  0.500000  1
  P  P10  1  0.514608  0.683179  0.000000  1
  P  P11  1  0.308564  0.823478  0.000000  1
  P  P12  1  0.162890  0.480398  0.000000  1
  P  P13  1  0.485309  0.176816  0.000000  1
  P  P14  1  0.682536  0.519425  0.000000  1
  P  P15  1  0.831104  0.316684  0.000000  1
  P  P16  1  0.000115  0.175666  0.500000  1
  P  P17  1  0.824532  0.824249  0.500000  1
  P  P18  1  0.181597  0.000087  0.500000  1
  Ir  Ir19  1  0.505766  0.864259  0.000000  1
  Ir  Ir20  1  0.127131  0.640785  0.000000  1
  Ir  Ir21  1  0.354487  0.493253  0.000000  1
  Ir  Ir22  1  0.486799  0.359233  0.000000  1
  Ir  Ir23  1  0.860735  0.506270  0.000000  1
  Ir  Ir24  1  0.641483  0.136130  0.000000  1
  Ir  Ir25  1  0.464551  0.000100  0.500000  1
  Ir  Ir26  1  0.997095  0.282117  0.000000  1
  Ir  Ir27  1  0.715106  0.717795  0.000000  1
  Ir  Ir28  1  0.292543  0.000108  0.000000  1
  Ir  Ir29  1  0.624295  0.807009  0.500000  1
  Ir  Ir30  1  0.202141  0.824000  0.500000  1
  Ir  Ir31  1  0.177160  0.368673  0.500000  1
  Ir  Ir32  1  0.378309  0.176212  0.500000  1
  Ir  Ir33  1  0.808546  0.631192  0.500000  1
  Ir  Ir34  1  0.817076  0.192931  0.500000  1
  Ir  Ir35  1  0.003059  0.000006  0.500000  1
