# generated using pymatgen
data_Er8Ti3Si16(Mo2W)3
_symmetry_space_group_name_H-M   'P 1'
_cell_length_a   6.89013269
_cell_length_b   6.88264809
_cell_length_c   12.75576271
_cell_angle_alpha   90.04761502
_cell_angle_beta   90.09464266
_cell_angle_gamma   89.84770342
_symmetry_Int_Tables_number   1
_chemical_formula_structural   Er8Ti3Si16(Mo2W)3
_chemical_formula_sum   'Er8 Ti3 Si16 Mo6 W3'
_cell_volume   604.90518426
_cell_formula_units_Z   1
loop_
 _symmetry_equiv_pos_site_id
 _symmetry_equiv_pos_as_xyz
  1  'x, y, z'
loop_
 _atom_site_type_symbol
 _atom_site_label
 _atom_site_symmetry_multiplicity
 _atom_site_fract_x
 _atom_site_fract_y
 _atom_site_fract_z
 _atom_site_occupancy
  Er  Er0  1  0.339751  0.001206  0.468752  1
  Er  Er1  1  0.498128  0.839127  0.719175  1
  Er  Er2  1  0.498425  0.161695  0.217774  1
  Er  Er3  1  0.838259  0.497463  0.280764  1
  Er  Er4  1  0.161595  0.499578  0.782222  1
  Er  Er5  1  0.659814  0.000380  0.968780  1
  Er  Er6  1  0.001555  0.339453  0.531411  1
  Er  Er7  1  0.999778  0.660136  0.031010  1
  Ti  Ti8  1  0.170019  0.830784  0.248447  1
  Ti  Ti9  1  0.832544  0.169857  0.751572  1
  Ti  Ti10  1  0.668975  0.668715  0.500126  1
  Si  Si11  1  0.201275  0.129157  0.683159  1
  Si  Si12  1  0.373461  0.698824  0.932678  1
  Si  Si13  1  0.629247  0.298625  0.433194  1
  Si  Si14  1  0.698214  0.372317  0.066794  1
  Si  Si15  1  0.298909  0.628865  0.566713  1
  Si  Si16  1  0.795981  0.871097  0.183542  1
  Si  Si17  1  0.129181  0.200346  0.317118  1
  Si  Si18  1  0.871814  0.797678  0.816500  1
  Si  Si19  1  0.288798  0.962970  0.062625  1
  Si  Si20  1  0.539277  0.791372  0.313685  1
  Si  Si21  1  0.459629  0.210811  0.814411  1
  Si  Si22  1  0.791766  0.538802  0.686286  1
  Si  Si23  1  0.208301  0.458182  0.185382  1
  Si  Si24  1  0.709511  0.040869  0.563900  1
  Si  Si25  1  0.962956  0.290150  0.938079  1
  Si  Si26  1  0.040797  0.709351  0.436018  1
  Mo  Mo27  1  0.504874  0.340390  0.624449  1
  Mo  Mo28  1  0.666876  0.496782  0.875764  1
  Mo  Mo29  1  0.340558  0.504919  0.375427  1
  Mo  Mo30  1  0.840255  0.993878  0.374161  1
  Mo  Mo31  1  0.001204  0.156229  0.126708  1
  Mo  Mo32  1  0.993884  0.840116  0.625683  1
  W  W33  1  0.331524  0.331915  0.999845  1
  W  W34  1  0.157818  0.003565  0.873938  1
  W  W35  1  0.495047  0.664401  0.123907  1
