# generated using pymatgen
data_Dy4Al18Ir5Pd
_symmetry_space_group_name_H-M   'P 1'
_cell_length_a   7.56751534
_cell_length_b   7.56751485
_cell_length_c   9.45553800
_cell_angle_alpha   90.09919897
_cell_angle_beta   90.09920653
_cell_angle_gamma   119.72439003
_symmetry_Int_Tables_number   1
_chemical_formula_structural   Dy4Al18Ir5Pd
_chemical_formula_sum   'Dy4 Al18 Ir5 Pd1'
_cell_volume   470.24082842
_cell_formula_units_Z   1
loop_
 _symmetry_equiv_pos_site_id
 _symmetry_equiv_pos_as_xyz
  1  'x, y, z'
loop_
 _atom_site_type_symbol
 _atom_site_label
 _atom_site_symmetry_multiplicity
 _atom_site_fract_x
 _atom_site_fract_y
 _atom_site_fract_z
 _atom_site_occupancy
  Dy  Dy0  1  0.995397  0.669787  0.750698  1
  Dy  Dy1  1  0.004603  0.330213  0.249302  1
  Dy  Dy2  1  0.669787  0.995397  0.750698  1
  Dy  Dy3  1  0.330213  0.004603  0.249302  1
  Al  Al4  1  0.128534  0.128534  0.751989  1
  Al  Al5  1  0.871466  0.871466  0.248011  1
  Al  Al6  1  0.001226  0.338397  0.576598  1
  Al  Al7  1  0.998774  0.661603  0.423402  1
  Al  Al8  1  0.999695  0.665983  0.074032  1
  Al  Al9  1  0.334017  0.000305  0.925968  1
  Al  Al10  1  0.000305  0.334017  0.925968  1
  Al  Al11  1  0.665983  0.999695  0.074032  1
  Al  Al12  1  0.661603  0.998774  0.423402  1
  Al  Al13  1  0.338397  0.001226  0.576598  1
  Al  Al14  1  0.333453  0.333453  0.052464  1
  Al  Al15  1  0.666547  0.666547  0.947536  1
  Al  Al16  1  0.663288  0.663288  0.554782  1
  Al  Al17  1  0.336712  0.336712  0.445218  1
  Al  Al18  1  0.338473  0.547613  0.750316  1
  Al  Al19  1  0.661527  0.452387  0.249684  1
  Al  Al20  1  0.547613  0.338473  0.750316  1
  Al  Al21  1  0.452387  0.661527  0.249684  1
  Ir  Ir22  1  0.671965  0.328035  0.500000  1
  Ir  Ir23  1  0.328035  0.671965  0.500000  1
  Ir  Ir24  1  0.328126  0.671874  0.000000  1
  Ir  Ir25  1  0.671874  0.328126  0.000000  1
  Ir  Ir26  1  0.000000  0.000000  0.000000  1
  Pd  Pd27  1  0.000000  0.000000  0.500000  1
