# generated using pymatgen
data_TbDy3InPt11
_symmetry_space_group_name_H-M   'P 1'
_cell_length_a   4.19955400
_cell_length_b   5.86400303
_cell_length_c   11.67709674
_cell_angle_alpha   87.92621696
_cell_angle_beta   90.00000000
_cell_angle_gamma   90.00000000
_symmetry_Int_Tables_number   1
_chemical_formula_structural   TbDy3InPt11
_chemical_formula_sum   'Tb1 Dy3 In1 Pt11'
_cell_volume   287.37415180
_cell_formula_units_Z   1
loop_
 _symmetry_equiv_pos_site_id
 _symmetry_equiv_pos_as_xyz
  1  'x, y, z'
loop_
 _atom_site_type_symbol
 _atom_site_label
 _atom_site_symmetry_multiplicity
 _atom_site_fract_x
 _atom_site_fract_y
 _atom_site_fract_z
 _atom_site_occupancy
  Tb  Tb0  1  0.500000  0.754810  0.376032  1
  Dy  Dy1  1  0.500000  0.719275  0.862174  1
  Dy  Dy2  1  0.500000  0.280719  0.137738  1
  Dy  Dy3  1  0.500000  0.245210  0.623964  1
  In  In4  1  0.000000  0.000056  0.000033  1
  Pt  Pt5  1  0.000000  0.014351  0.249367  1
  Pt  Pt6  1  0.000000  0.986051  0.750411  1
  Pt  Pt7  1  0.000000  0.499955  0.999979  1
  Pt  Pt8  1  0.000000  0.499558  0.500229  1
  Pt  Pt9  1  0.000000  0.516064  0.249695  1
  Pt  Pt10  1  0.000000  0.483520  0.750104  1
  Pt  Pt11  1  0.500000  0.253647  0.377642  1
  Pt  Pt12  1  0.500000  0.229259  0.880811  1
  Pt  Pt13  1  0.500000  0.770772  0.118928  1
  Pt  Pt14  1  0.500000  0.746412  0.622672  1
  Pt  Pt15  1  0.000000  0.000343  0.500222  1
