# generated using pymatgen
data_Eu4GaSiRh4
_symmetry_space_group_name_H-M   'P 1'
_cell_length_a   5.86121259
_cell_length_b   5.86121086
_cell_length_c   7.58684733
_cell_angle_alpha   79.23184148
_cell_angle_beta   79.23184568
_cell_angle_gamma   59.50564009
_symmetry_Int_Tables_number   1
_chemical_formula_structural   Eu4GaSiRh4
_chemical_formula_sum   'Eu4 Ga1 Si1 Rh4'
_cell_volume   219.32323000
_cell_formula_units_Z   1
loop_
 _symmetry_equiv_pos_site_id
 _symmetry_equiv_pos_as_xyz
  1  'x, y, z'
loop_
 _atom_site_type_symbol
 _atom_site_label
 _atom_site_symmetry_multiplicity
 _atom_site_fract_x
 _atom_site_fract_y
 _atom_site_fract_z
 _atom_site_occupancy
  Eu  Eu0  1  0.778821  0.513312  0.355487  1
  Eu  Eu1  1  0.486688  0.221179  0.144513  1
  Eu  Eu2  1  0.217255  0.488149  0.644389  1
  Eu  Eu3  1  0.511851  0.782745  0.855611  1
  Ga  Ga4  1  0.898131  0.101869  0.750000  1
  Si  Si5  1  0.088457  0.911543  0.250000  1
  Rh  Rh6  1  0.011894  0.734247  0.020518  1
  Rh  Rh7  1  0.265753  0.988106  0.479482  1
  Rh  Rh8  1  0.003313  0.262162  0.003885  1
  Rh  Rh9  1  0.737838  0.996687  0.496115  1
