# generated using pymatgen
data_Ta3Be2FeRu4
_symmetry_space_group_name_H-M   'P 1'
_cell_length_a   9.26422200
_cell_length_b   9.26422200
_cell_length_c   3.14858600
_cell_angle_alpha   90.00000000
_cell_angle_beta   90.00000000
_cell_angle_gamma   90.00000000
_symmetry_Int_Tables_number   1
_chemical_formula_structural   Ta3Be2FeRu4
_chemical_formula_sum   'Ta6 Be4 Fe2 Ru8'
_cell_volume   270.22994149
_cell_formula_units_Z   2
loop_
 _symmetry_equiv_pos_site_id
 _symmetry_equiv_pos_as_xyz
  1  'x, y, z'
loop_
 _atom_site_type_symbol
 _atom_site_label
 _atom_site_symmetry_multiplicity
 _atom_site_fract_x
 _atom_site_fract_y
 _atom_site_fract_z
 _atom_site_occupancy
  Ta  Ta0  1  0.826851  0.673149  0.000000  1
  Ta  Ta1  1  0.173149  0.326851  0.000000  1
  Ta  Ta2  1  0.326851  0.826851  0.000000  1
  Ta  Ta3  1  0.673149  0.173149  0.000000  1
  Ta  Ta4  1  0.500000  0.500000  0.000000  1
  Ta  Ta5  1  0.000000  0.000000  0.000000  1
  Be  Be6  1  0.613780  0.886220  0.000000  1
  Be  Be7  1  0.386220  0.113780  0.000000  1
  Be  Be8  1  0.113780  0.613780  0.000000  1
  Be  Be9  1  0.886220  0.386220  0.000000  1
  Fe  Fe10  1  0.500000  0.000000  0.500000  1
  Fe  Fe11  1  0.000000  0.500000  0.500000  1
  Ru  Ru12  1  0.566694  0.717430  0.500000  1
  Ru  Ru13  1  0.433306  0.282570  0.500000  1
  Ru  Ru14  1  0.066694  0.782570  0.500000  1
  Ru  Ru15  1  0.933306  0.217430  0.500000  1
  Ru  Ru16  1  0.282570  0.566694  0.500000  1
  Ru  Ru17  1  0.717430  0.433306  0.500000  1
  Ru  Ru18  1  0.217430  0.066694  0.500000  1
  Ru  Ru19  1  0.782570  0.933306  0.500000  1
