# generated using pymatgen
data_Er2Tm5Co4Sn23Ir2
_symmetry_space_group_name_H-M   'P 1'
_cell_length_a   9.73097517
_cell_length_b   9.73894023
_cell_length_c   10.00770751
_cell_angle_alpha   90.24920268
_cell_angle_beta   89.71846958
_cell_angle_gamma   120.03238060
_symmetry_Int_Tables_number   1
_chemical_formula_structural   Er2Tm5Co4Sn23Ir2
_chemical_formula_sum   'Er2 Tm5 Co4 Sn23 Ir2'
_cell_volume   821.07952953
_cell_formula_units_Z   1
loop_
 _symmetry_equiv_pos_site_id
 _symmetry_equiv_pos_as_xyz
  1  'x, y, z'
loop_
 _atom_site_type_symbol
 _atom_site_label
 _atom_site_symmetry_multiplicity
 _atom_site_fract_x
 _atom_site_fract_y
 _atom_site_fract_z
 _atom_site_occupancy
  Er  Er0  1  0.960045  0.481384  0.693809  1
  Er  Er1  1  0.000511  0.000202  0.000236  1
  Tm  Tm2  1  0.479918  0.520198  0.307335  1
  Tm  Tm3  1  0.520221  0.480007  0.692604  1
  Tm  Tm4  1  0.481889  0.961105  0.305737  1
  Tm  Tm5  1  0.518122  0.038748  0.694238  1
  Tm  Tm6  1  0.038705  0.518026  0.305631  1
  Co  Co7  1  0.829859  0.662841  0.197930  1
  Co  Co8  1  0.170345  0.336983  0.802128  1
  Co  Co9  1  0.337208  0.170101  0.198042  1
  Co  Co10  1  0.662560  0.829790  0.802051  1
  Sn  Sn11  1  0.118207  0.882016  0.273484  1
  Sn  Sn12  1  0.882071  0.117607  0.726591  1
  Sn  Sn13  1  0.125427  0.239122  0.279646  1
  Sn  Sn14  1  0.874723  0.761430  0.720515  1
  Sn  Sn15  1  0.760995  0.874633  0.279588  1
  Sn  Sn16  1  0.239251  0.125572  0.720229  1
  Sn  Sn17  1  0.778125  0.221255  0.459092  1
  Sn  Sn18  1  0.221748  0.778486  0.540679  1
  Sn  Sn19  1  0.780058  0.559950  0.450955  1
  Sn  Sn20  1  0.219948  0.440100  0.548866  1
  Sn  Sn21  1  0.440060  0.219783  0.451035  1
  Sn  Sn22  1  0.560086  0.780343  0.548877  1
  Sn  Sn23  1  0.351761  0.005264  0.006187  1
  Sn  Sn24  1  0.648519  0.994890  0.994047  1
  Sn  Sn25  1  0.005144  0.351611  0.993893  1
  Sn  Sn26  1  0.994838  0.648362  0.005960  1
  Sn  Sn27  1  0.653928  0.654045  0.999934  1
  Sn  Sn28  1  0.346251  0.346144  0.000154  1
  Sn  Sn29  1  0.333756  0.666270  0.124381  1
  Sn  Sn30  1  0.665208  0.333168  0.875892  1
  Sn  Sn31  1  0.336201  0.663824  0.821903  1
  Sn  Sn32  1  0.663695  0.336120  0.178148  1
  Sn  Sn33  1  0.000146  0.000050  0.500105  1
  Ir  Ir34  1  0.831703  0.168406  0.197268  1
  Ir  Ir35  1  0.168770  0.832165  0.802830  1
