# generated using pymatgen
data_Tb4Gd4Re(B8Ru)3
_symmetry_space_group_name_H-M   'P 1'
_cell_length_a   3.69719700
_cell_length_b   9.19859634
_cell_length_c   11.58945500
_cell_angle_alpha   90.14348557
_cell_angle_beta   90.00000000
_cell_angle_gamma   90.00000000
_symmetry_Int_Tables_number   1
_chemical_formula_structural   Tb4Gd4Re(B8Ru)3
_chemical_formula_sum   'Tb4 Gd4 Re1 B24 Ru3'
_cell_volume   394.14480323
_cell_formula_units_Z   1
loop_
 _symmetry_equiv_pos_site_id
 _symmetry_equiv_pos_as_xyz
  1  'x, y, z'
loop_
 _atom_site_type_symbol
 _atom_site_label
 _atom_site_symmetry_multiplicity
 _atom_site_fract_x
 _atom_site_fract_y
 _atom_site_fract_z
 _atom_site_occupancy
  Tb  Tb0  1  0.000000  0.943263  0.370781  1
  Tb  Tb1  1  0.000000  0.056233  0.627614  1
  Tb  Tb2  1  0.000000  0.442735  0.129007  1
  Tb  Tb3  1  0.000000  0.555794  0.872364  1
  Gd  Gd4  1  0.000000  0.323878  0.414850  1
  Gd  Gd5  1  0.000000  0.678898  0.588125  1
  Gd  Gd6  1  0.000000  0.823562  0.083916  1
  Gd  Gd7  1  0.000000  0.175196  0.913250  1
  Re  Re8  1  0.000000  0.861823  0.821088  1
  B  B9  1  0.500000  0.554540  0.432609  1
  B  B10  1  0.500000  0.446017  0.567817  1
  B  B11  1  0.500000  0.054108  0.068030  1
  B  B12  1  0.500000  0.946562  0.932552  1
  B  B13  1  0.500000  0.747824  0.419114  1
  B  B14  1  0.500000  0.252712  0.580600  1
  B  B15  1  0.500000  0.247400  0.081172  1
  B  B16  1  0.500000  0.752191  0.919023  1
  B  B17  1  0.500000  0.789690  0.266455  1
  B  B18  1  0.500000  0.209629  0.732631  1
  B  B19  1  0.500000  0.290145  0.233687  1
  B  B20  1  0.500000  0.708887  0.766501  1
  B  B21  1  0.500000  0.631521  0.185863  1
  B  B22  1  0.500000  0.367818  0.813739  1
  B  B23  1  0.500000  0.132260  0.314319  1
  B  B24  1  0.500000  0.868193  0.685976  1
  B  B25  1  0.500000  0.984865  0.212435  1
  B  B26  1  0.500000  0.016398  0.787239  1
  B  B27  1  0.500000  0.484704  0.288048  1
  B  B28  1  0.500000  0.515559  0.712636  1
  B  B29  1  0.500000  0.606807  0.030482  1
  B  B30  1  0.500000  0.391343  0.970550  1
  B  B31  1  0.500000  0.108644  0.469306  1
  B  B32  1  0.500000  0.892155  0.529145  1
  Ru  Ru33  1  0.000000  0.638163  0.321208  1
  Ru  Ru34  1  0.000000  0.361949  0.678345  1
  Ru  Ru35  1  0.000000  0.138529  0.179527  1
