# generated using pymatgen
data_TbLu3Al8
_symmetry_space_group_name_H-M   'P 1'
_cell_length_a   9.57441320
_cell_length_b   9.57441315
_cell_length_c   9.57441365
_cell_angle_alpha   33.45940376
_cell_angle_beta   33.45940150
_cell_angle_gamma   33.45940726
_symmetry_Int_Tables_number   1
_chemical_formula_structural   TbLu3Al8
_chemical_formula_sum   'Tb1 Lu3 Al8'
_cell_volume   237.60637833
_cell_formula_units_Z   1
loop_
 _symmetry_equiv_pos_site_id
 _symmetry_equiv_pos_as_xyz
  1  'x, y, z'
loop_
 _atom_site_type_symbol
 _atom_site_label
 _atom_site_symmetry_multiplicity
 _atom_site_fract_x
 _atom_site_fract_y
 _atom_site_fract_z
 _atom_site_occupancy
  Tb  Tb0  1  0.812511  0.812511  0.812511  1
  Lu  Lu1  1  0.312634  0.312634  0.312634  1
  Lu  Lu2  1  0.687441  0.687441  0.687441  1
  Lu  Lu3  1  0.187447  0.187447  0.187447  1
  Al  Al4  1  0.500115  0.500115  0.500115  1
  Al  Al5  1  0.999955  0.999955  0.999955  1
  Al  Al6  1  0.249676  0.249676  0.749930  1
  Al  Al7  1  0.750146  0.750146  0.250322  1
  Al  Al8  1  0.249676  0.749930  0.249676  1
  Al  Al9  1  0.750146  0.250322  0.750146  1
  Al  Al10  1  0.749930  0.249676  0.249676  1
  Al  Al11  1  0.250322  0.750146  0.750146  1
