# generated using pymatgen
data_CuBi2Ir4PbO14
_symmetry_space_group_name_H-M   'P 1'
_cell_length_a   7.35000495
_cell_length_b   7.35000420
_cell_length_c   7.18973923
_cell_angle_alpha   59.34729273
_cell_angle_beta   59.34730171
_cell_angle_gamma   60.18680842
_symmetry_Int_Tables_number   1
_chemical_formula_structural   CuBi2Ir4PbO14
_chemical_formula_sum   'Cu1 Bi2 Ir4 Pb1 O14'
_cell_volume   272.27922118
_cell_formula_units_Z   1
loop_
 _symmetry_equiv_pos_site_id
 _symmetry_equiv_pos_as_xyz
  1  'x, y, z'
loop_
 _atom_site_type_symbol
 _atom_site_label
 _atom_site_symmetry_multiplicity
 _atom_site_fract_x
 _atom_site_fract_y
 _atom_site_fract_z
 _atom_site_occupancy
  Cu  Cu0  1  0.125000  0.125000  0.625000  1
  Bi  Bi1  1  0.625000  0.125000  0.125000  1
  Bi  Bi2  1  0.125000  0.625000  0.125000  1
  Ir  Ir3  1  0.125000  0.625000  0.625000  1
  Ir  Ir4  1  0.625000  0.125000  0.625000  1
  Ir  Ir5  1  0.625000  0.625000  0.125000  1
  Ir  Ir6  1  0.625000  0.625000  0.625000  1
  Pb  Pb7  1  0.125000  0.125000  0.125000  1
  O  O8  1  0.708409  0.708409  0.289665  1
  O  O9  1  0.301328  0.301328  0.703689  1
  O  O10  1  0.695873  0.299913  0.704910  1
  O  O11  1  0.294464  0.706454  0.289831  1
  O  O12  1  0.299913  0.695873  0.704910  1
  O  O13  1  0.706454  0.294464  0.289831  1
  O  O14  1  0.541591  0.541591  0.960335  1
  O  O15  1  0.948672  0.948672  0.546311  1
  O  O16  1  0.554127  0.950087  0.545090  1
  O  O17  1  0.955536  0.543546  0.960169  1
  O  O18  1  0.950087  0.554127  0.545090  1
  O  O19  1  0.543546  0.955536  0.960169  1
  O  O20  1  0.237685  0.237685  0.298662  1
  O  O21  1  0.012315  0.012315  0.951338  1
