# generated using pymatgen
data_Ac(YS2)3
_symmetry_space_group_name_H-M   'P 1'
_cell_length_a   11.50022530
_cell_length_b   11.22815137
_cell_length_c   4.07525500
_cell_angle_alpha   90.00000000
_cell_angle_beta   90.00000000
_cell_angle_gamma   108.74415907
_symmetry_Int_Tables_number   1
_chemical_formula_structural   Ac(YS2)3
_chemical_formula_sum   'Ac2 Y6 S12'
_cell_volume   498.31316153
_cell_formula_units_Z   2
loop_
 _symmetry_equiv_pos_site_id
 _symmetry_equiv_pos_as_xyz
  1  'x, y, z'
loop_
 _atom_site_type_symbol
 _atom_site_label
 _atom_site_symmetry_multiplicity
 _atom_site_fract_x
 _atom_site_fract_y
 _atom_site_fract_z
 _atom_site_occupancy
  Ac  Ac0  1  0.197076  0.552400  0.250001  1
  Ac  Ac1  1  0.802924  0.447600  0.750001  1
  Y  Y2  1  0.000725  0.177287  0.250001  1
  Y  Y3  1  0.589718  0.662346  0.250001  1
  Y  Y4  1  0.333761  0.946993  0.250001  1
  Y  Y5  1  0.666238  0.053007  0.750001  1
  Y  Y6  1  0.410282  0.337654  0.750001  1
  Y  Y7  1  0.999275  0.822713  0.750001  1
  S  S8  1  0.768757  0.226364  0.250001  1
  S  S9  1  0.251850  0.299617  0.250001  1
  S  S10  1  0.588696  0.417708  0.250001  1
  S  S11  1  0.963533  0.625345  0.250001  1
  S  S12  1  0.556256  0.893570  0.250001  1
  S  S13  1  0.110377  0.977327  0.250001  1
  S  S14  1  0.889624  0.022673  0.750001  1
  S  S15  1  0.443744  0.106430  0.750001  1
  S  S16  1  0.036467  0.374655  0.750001  1
  S  S17  1  0.411304  0.582292  0.750001  1
  S  S18  1  0.748151  0.700384  0.750001  1
  S  S19  1  0.231243  0.773636  0.750001  1
