# generated using pymatgen
data_Sc2CoCuSb2
_symmetry_space_group_name_H-M   'P 1'
_cell_length_a   7.52296870
_cell_length_b   7.52296860
_cell_length_c   7.52296903
_cell_angle_alpha   33.72301396
_cell_angle_beta   33.72301968
_cell_angle_gamma   33.72301543
_symmetry_Int_Tables_number   1
_chemical_formula_structural   Sc2CoCuSb2
_chemical_formula_sum   'Sc2 Co1 Cu1 Sb2'
_cell_volume   116.92159692
_cell_formula_units_Z   1
loop_
 _symmetry_equiv_pos_site_id
 _symmetry_equiv_pos_as_xyz
  1  'x, y, z'
loop_
 _atom_site_type_symbol
 _atom_site_label
 _atom_site_symmetry_multiplicity
 _atom_site_fract_x
 _atom_site_fract_y
 _atom_site_fract_z
 _atom_site_occupancy
  Sc  Sc0  1  0.255360  0.255360  0.255360  1
  Sc  Sc1  1  0.745654  0.745654  0.745654  1
  Co  Co2  1  0.372953  0.372953  0.372953  1
  Cu  Cu3  1  0.875584  0.875584  0.875584  1
  Sb  Sb4  1  0.003784  0.003784  0.003784  1
  Sb  Sb5  1  0.496667  0.496667  0.496667  1
