# generated using pymatgen
data_Gd2MoC2
_symmetry_space_group_name_H-M   'P 1'
_cell_length_a   5.77548000
_cell_length_b   5.77548000
_cell_length_c   10.02309800
_cell_angle_alpha   90.00000000
_cell_angle_beta   90.00000000
_cell_angle_gamma   90.00000000
_symmetry_Int_Tables_number   1
_chemical_formula_structural   Gd2MoC2
_chemical_formula_sum   'Gd8 Mo4 C8'
_cell_volume   334.33215310
_cell_formula_units_Z   4
loop_
 _symmetry_equiv_pos_site_id
 _symmetry_equiv_pos_as_xyz
  1  'x, y, z'
loop_
 _atom_site_type_symbol
 _atom_site_label
 _atom_site_symmetry_multiplicity
 _atom_site_fract_x
 _atom_site_fract_y
 _atom_site_fract_z
 _atom_site_occupancy
  Gd  Gd0  1  0.200125  0.799875  0.156459  1
  Gd  Gd1  1  0.799875  0.200125  0.843541  1
  Gd  Gd2  1  0.200125  0.799875  0.843541  1
  Gd  Gd3  1  0.299875  0.299875  0.343541  1
  Gd  Gd4  1  0.700125  0.700125  0.343541  1
  Gd  Gd5  1  0.299875  0.299875  0.656459  1
  Gd  Gd6  1  0.799875  0.200125  0.156459  1
  Gd  Gd7  1  0.700125  0.700125  0.656459  1
  Mo  Mo8  1  0.324185  0.324185  0.000000  1
  Mo  Mo9  1  0.175815  0.824185  0.500000  1
  Mo  Mo10  1  0.675815  0.675815  0.000000  1
  Mo  Mo11  1  0.824185  0.175815  0.500000  1
  C  C12  1  0.000000  0.500000  0.500000  1
  C  C13  1  0.000000  0.000000  0.348058  1
  C  C14  1  0.500000  0.000000  0.000000  1
  C  C15  1  0.000000  0.000000  0.651942  1
  C  C16  1  0.500000  0.500000  0.848058  1
  C  C17  1  0.500000  0.500000  0.151942  1
  C  C18  1  0.500000  0.000000  0.500000  1
  C  C19  1  0.000000  0.500000  0.000000  1
