# generated using pymatgen
data_Ho10BiPb5
_symmetry_space_group_name_H-M   'P 1'
_cell_length_a   9.05378000
_cell_length_b   9.05115615
_cell_length_c   6.54242100
_cell_angle_alpha   90.00000000
_cell_angle_beta   90.00000000
_cell_angle_gamma   120.00959728
_symmetry_Int_Tables_number   1
_chemical_formula_structural   Ho10BiPb5
_chemical_formula_sum   'Ho10 Bi1 Pb5'
_cell_volume   464.25982743
_cell_formula_units_Z   1
loop_
 _symmetry_equiv_pos_site_id
 _symmetry_equiv_pos_as_xyz
  1  'x, y, z'
loop_
 _atom_site_type_symbol
 _atom_site_label
 _atom_site_symmetry_multiplicity
 _atom_site_fract_x
 _atom_site_fract_y
 _atom_site_fract_z
 _atom_site_occupancy
  Ho  Ho0  1  0.331867  0.664851  0.999212  1
  Ho  Ho1  1  0.667017  0.335149  0.500788  1
  Ho  Ho2  1  0.667017  0.335149  0.999212  1
  Ho  Ho3  1  0.331867  0.664851  0.500788  1
  Ho  Ho4  1  0.235996  0.000000  0.250000  1
  Ho  Ho5  1  0.237233  0.237780  0.750000  1
  Ho  Ho6  1  0.999453  0.762220  0.750000  1
  Ho  Ho7  1  0.003069  0.239298  0.250000  1
  Ho  Ho8  1  0.763771  0.760702  0.250000  1
  Ho  Ho9  1  0.762742  0.000000  0.750000  1
  Bi  Bi10  1  0.606170  0.000000  0.250000  1
  Pb  Pb11  1  0.605378  0.606194  0.750000  1
  Pb  Pb12  1  0.999184  0.393806  0.750000  1
  Pb  Pb13  1  0.000116  0.605256  0.250000  1
  Pb  Pb14  1  0.394860  0.394744  0.250000  1
  Pb  Pb15  1  0.394260  0.000000  0.750000  1
