# generated using pymatgen
data_RePt5Rh3
_symmetry_space_group_name_H-M   'P 1'
_cell_length_a   6.24897768
_cell_length_b   6.24897756
_cell_length_c   6.20554416
_cell_angle_alpha   95.57639988
_cell_angle_beta   95.57639878
_cell_angle_gamma   143.80431855
_symmetry_Int_Tables_number   1
_chemical_formula_structural   RePt5Rh3
_chemical_formula_sum   'Re1 Pt5 Rh3'
_cell_volume   135.92186849
_cell_formula_units_Z   1
loop_
 _symmetry_equiv_pos_site_id
 _symmetry_equiv_pos_as_xyz
  1  'x, y, z'
loop_
 _atom_site_type_symbol
 _atom_site_label
 _atom_site_symmetry_multiplicity
 _atom_site_fract_x
 _atom_site_fract_y
 _atom_site_fract_z
 _atom_site_occupancy
  Re  Re0  1  0.004040  0.995960  0.000000  1
  Pt  Pt1  1  0.338243  0.661757  0.000000  1
  Pt  Pt2  1  0.001992  0.327677  0.329668  1
  Pt  Pt3  1  0.998082  0.673094  0.671176  1
  Pt  Pt4  1  0.672323  0.998008  0.670332  1
  Pt  Pt5  1  0.326906  0.001918  0.328824  1
  Rh  Rh6  1  0.340916  0.339818  0.680734  1
  Rh  Rh7  1  0.660182  0.659084  0.319266  1
  Rh  Rh8  1  0.657315  0.342685  0.000000  1
