# generated using pymatgen
data_Er6Al24Tc2RuPtRh4
_symmetry_space_group_name_H-M   'P 1'
_cell_length_a   8.78170905
_cell_length_b   8.79709528
_cell_length_c   9.50560100
_cell_angle_alpha   90.24278709
_cell_angle_beta   89.89046755
_cell_angle_gamma   119.64375942
_symmetry_Int_Tables_number   1
_chemical_formula_structural   Er6Al24Tc2RuPtRh4
_chemical_formula_sum   'Er6 Al24 Tc2 Ru1 Pt1 Rh4'
_cell_volume   638.22303016
_cell_formula_units_Z   1
loop_
 _symmetry_equiv_pos_site_id
 _symmetry_equiv_pos_as_xyz
  1  'x, y, z'
loop_
 _atom_site_type_symbol
 _atom_site_label
 _atom_site_symmetry_multiplicity
 _atom_site_fract_x
 _atom_site_fract_y
 _atom_site_fract_z
 _atom_site_occupancy
  Er  Er0  1  0.191520  0.384583  0.250578  1
  Er  Er1  1  0.808480  0.615417  0.749422  1
  Er  Er2  1  0.614665  0.810124  0.251126  1
  Er  Er3  1  0.385335  0.189876  0.748874  1
  Er  Er4  1  0.194057  0.809271  0.250253  1
  Er  Er5  1  0.805943  0.190729  0.749747  1
  Al  Al6  1  0.332665  0.667214  0.027638  1
  Al  Al7  1  0.667335  0.332786  0.972362  1
  Al  Al8  1  0.668349  0.329367  0.526949  1
  Al  Al9  1  0.331651  0.670633  0.473051  1
  Al  Al10  1  0.160008  0.324807  0.577946  1
  Al  Al11  1  0.839992  0.675193  0.422054  1
  Al  Al12  1  0.674530  0.841321  0.577436  1
  Al  Al13  1  0.837288  0.674765  0.077499  1
  Al  Al14  1  0.325470  0.158679  0.422564  1
  Al  Al15  1  0.162712  0.325235  0.922501  1
  Al  Al16  1  0.164929  0.837990  0.578827  1
  Al  Al17  1  0.326208  0.163563  0.077343  1
  Al  Al18  1  0.835071  0.162010  0.421173  1
  Al  Al19  1  0.673792  0.836437  0.922657  1
  Al  Al20  1  0.836680  0.164163  0.078506  1
  Al  Al21  1  0.163320  0.835837  0.921494  1
  Al  Al22  1  0.562136  0.125515  0.250846  1
  Al  Al23  1  0.437864  0.874485  0.749154  1
  Al  Al24  1  0.875758  0.438510  0.249925  1
  Al  Al25  1  0.124242  0.561490  0.750075  1
  Al  Al26  1  0.563281  0.437394  0.247192  1
  Al  Al27  1  0.436719  0.562606  0.752808  1
  Al  Al28  1  0.999587  0.001438  0.249946  1
  Al  Al29  1  0.000413  0.998562  0.750054  1
  Tc  Tc30  1  0.000000  0.000000  0.000000  1
  Tc  Tc31  1  0.000000  0.000000  0.500000  1
  Ru  Ru32  1  0.500000  0.000000  0.500000  1
  Pt  Pt33  1  0.500000  0.500000  0.500000  1
  Rh  Rh34  1  0.500000  0.000000  0.000000  1
  Rh  Rh35  1  0.000000  0.500000  0.000000  1
  Rh  Rh36  1  0.500000  0.500000  0.000000  1
  Rh  Rh37  1  0.000000  0.500000  0.500000  1
