# generated using pymatgen
data_Ta10Ga4Pd
_symmetry_space_group_name_H-M   'P 1'
_cell_length_a   9.88238300
_cell_length_b   9.88238300
_cell_length_c   5.22701100
_cell_angle_alpha   90.00000000
_cell_angle_beta   90.00000000
_cell_angle_gamma   90.00000000
_symmetry_Int_Tables_number   1
_chemical_formula_structural   Ta10Ga4Pd
_chemical_formula_sum   'Ta20 Ga8 Pd2'
_cell_volume   510.47770215
_cell_formula_units_Z   2
loop_
 _symmetry_equiv_pos_site_id
 _symmetry_equiv_pos_as_xyz
  1  'x, y, z'
loop_
 _atom_site_type_symbol
 _atom_site_label
 _atom_site_symmetry_multiplicity
 _atom_site_fract_x
 _atom_site_fract_y
 _atom_site_fract_z
 _atom_site_occupancy
  Ta  Ta0  1  0.399507  0.399507  0.000000  1
  Ta  Ta1  1  0.899507  0.100493  0.500000  1
  Ta  Ta2  1  0.100493  0.899507  0.500000  1
  Ta  Ta3  1  0.600493  0.600493  0.000000  1
  Ta  Ta4  1  0.131525  0.465956  0.000000  1
  Ta  Ta5  1  0.965956  0.368475  0.500000  1
  Ta  Ta6  1  0.034044  0.631525  0.500000  1
  Ta  Ta7  1  0.868475  0.534044  0.000000  1
  Ta  Ta8  1  0.368475  0.965956  0.500000  1
  Ta  Ta9  1  0.631525  0.034044  0.500000  1
  Ta  Ta10  1  0.465956  0.131525  0.000000  1
  Ta  Ta11  1  0.534044  0.868475  0.000000  1
  Ta  Ta12  1  0.184478  0.184478  0.251553  1
  Ta  Ta13  1  0.684478  0.315522  0.751553  1
  Ta  Ta14  1  0.315522  0.684478  0.751553  1
  Ta  Ta15  1  0.815522  0.815522  0.251553  1
  Ta  Ta16  1  0.315522  0.684478  0.248447  1
  Ta  Ta17  1  0.684478  0.315522  0.248447  1
  Ta  Ta18  1  0.184478  0.184478  0.748447  1
  Ta  Ta19  1  0.815522  0.815522  0.748447  1
  Ga  Ga20  1  0.259602  0.936311  0.000000  1
  Ga  Ga21  1  0.436311  0.240398  0.500000  1
  Ga  Ga22  1  0.563689  0.759602  0.500000  1
  Ga  Ga23  1  0.740398  0.063689  0.000000  1
  Ga  Ga24  1  0.240398  0.436311  0.500000  1
  Ga  Ga25  1  0.759602  0.563689  0.500000  1
  Ga  Ga26  1  0.936311  0.259602  0.000000  1
  Ga  Ga27  1  0.063689  0.740398  0.000000  1
  Pd  Pd28  1  0.000000  0.000000  0.000000  1
  Pd  Pd29  1  0.500000  0.500000  0.500000  1
