# generated using pymatgen
data_SmTm3(Si5Pt3)2
_symmetry_space_group_name_H-M   'P 1'
_cell_length_a   8.14403429
_cell_length_b   8.15023430
_cell_length_c   8.15023371
_cell_angle_alpha   136.34168857
_cell_angle_beta   104.43122885
_cell_angle_gamma   91.57716241
_symmetry_Int_Tables_number   1
_chemical_formula_structural   SmTm3(Si5Pt3)2
_chemical_formula_sum   'Sm1 Tm3 Si10 Pt6'
_cell_volume   343.76586286
_cell_formula_units_Z   1
loop_
 _symmetry_equiv_pos_site_id
 _symmetry_equiv_pos_as_xyz
  1  'x, y, z'
loop_
 _atom_site_type_symbol
 _atom_site_label
 _atom_site_symmetry_multiplicity
 _atom_site_fract_x
 _atom_site_fract_y
 _atom_site_fract_z
 _atom_site_occupancy
  Sm  Sm0  1  0.899395  0.129357  0.770037  1
  Tm  Tm1  1  0.642009  0.370117  0.271892  1
  Tm  Tm2  1  0.358487  0.630030  0.728457  1
  Tm  Tm3  1  0.098687  0.870043  0.228644  1
  Si  Si4  1  0.272777  0.522131  0.250618  1
  Si  Si5  1  0.728327  0.478112  0.749663  1
  Si  Si6  1  0.728327  0.978664  0.250215  1
  Si  Si7  1  0.272777  0.022159  0.750646  1
  Si  Si8  1  0.460416  0.111618  0.348797  1
  Si  Si9  1  0.537185  0.886276  0.650909  1
  Si  Si10  1  0.763579  0.611774  0.151805  1
  Si  Si11  1  0.237542  0.389493  0.848050  1
  Si  Si12  1  0.000103  0.249063  0.249497  1
  Si  Si13  1  0.000103  0.750605  0.751040  1
  Pt  Pt14  1  0.251926  0.137912  0.114013  1
  Pt  Pt15  1  0.747473  0.860787  0.886687  1
  Pt  Pt16  1  0.025481  0.637747  0.387734  1
  Pt  Pt17  1  0.976842  0.364420  0.612422  1
  Pt  Pt18  1  0.499282  0.250513  0.750105  1
  Pt  Pt19  1  0.499282  0.749178  0.248769  1
