# generated using pymatgen
data_PuTh(Si2Ni)2
_symmetry_space_group_name_H-M   'P 1'
_cell_length_a   8.36920847
_cell_length_b   8.36920921
_cell_length_c   4.07487900
_cell_angle_alpha   90.00000000
_cell_angle_beta   90.00000000
_cell_angle_gamma   151.51318392
_symmetry_Int_Tables_number   1
_chemical_formula_structural   PuTh(Si2Ni)2
_chemical_formula_sum   'Pu1 Th1 Si4 Ni2'
_cell_volume   136.13265849
_cell_formula_units_Z   1
loop_
 _symmetry_equiv_pos_site_id
 _symmetry_equiv_pos_as_xyz
  1  'x, y, z'
loop_
 _atom_site_type_symbol
 _atom_site_label
 _atom_site_symmetry_multiplicity
 _atom_site_fract_x
 _atom_site_fract_y
 _atom_site_fract_z
 _atom_site_occupancy
  Pu  Pu0  1  0.604897  0.395103  0.250000  1
  Th  Th1  1  0.394433  0.605567  0.750000  1
  Si  Si2  1  0.963526  0.036474  0.250000  1
  Si  Si3  1  0.042028  0.957972  0.750000  1
  Si  Si4  1  0.247154  0.752846  0.250000  1
  Si  Si5  1  0.746798  0.253202  0.750000  1
  Ni  Ni6  1  0.819577  0.180423  0.250000  1
  Ni  Ni7  1  0.181588  0.818412  0.750000  1
