# generated using pymatgen
data_Er4InAgPd4
_symmetry_space_group_name_H-M   'P 1'
_cell_length_a   7.66834300
_cell_length_b   7.66834300
_cell_length_c   3.68037800
_cell_angle_alpha   90.00000000
_cell_angle_beta   90.00000000
_cell_angle_gamma   90.00000000
_symmetry_Int_Tables_number   1
_chemical_formula_structural   Er4InAgPd4
_chemical_formula_sum   'Er4 In1 Ag1 Pd4'
_cell_volume   216.41905018
_cell_formula_units_Z   1
loop_
 _symmetry_equiv_pos_site_id
 _symmetry_equiv_pos_as_xyz
  1  'x, y, z'
loop_
 _atom_site_type_symbol
 _atom_site_label
 _atom_site_symmetry_multiplicity
 _atom_site_fract_x
 _atom_site_fract_y
 _atom_site_fract_z
 _atom_site_occupancy
  Er  Er0  1  0.327466  0.828192  0.500000  1
  Er  Er1  1  0.828192  0.672534  0.500000  1
  Er  Er2  1  0.171808  0.327466  0.500000  1
  Er  Er3  1  0.672534  0.171808  0.500000  1
  In  In4  1  0.500000  0.500000  0.000000  1
  Ag  Ag5  1  0.000000  0.000000  0.000000  1
  Pd  Pd6  1  0.369503  0.127811  0.000000  1
  Pd  Pd7  1  0.872189  0.369503  0.000000  1
  Pd  Pd8  1  0.127811  0.630497  0.000000  1
  Pd  Pd9  1  0.630497  0.872189  0.000000  1
