# generated using pymatgen
data_Ho8TaNb11Si15Ge
_symmetry_space_group_name_H-M   'P 1'
_cell_length_a   6.87274374
_cell_length_b   7.06735030
_cell_length_c   13.43541000
_cell_angle_alpha   90.04793016
_cell_angle_beta   89.92625865
_cell_angle_gamma   90.03121271
_symmetry_Int_Tables_number   1
_chemical_formula_structural   Ho8TaNb11Si15Ge
_chemical_formula_sum   'Ho8 Ta1 Nb11 Si15 Ge1'
_cell_volume   652.58504560
_cell_formula_units_Z   1
loop_
 _symmetry_equiv_pos_site_id
 _symmetry_equiv_pos_as_xyz
  1  'x, y, z'
loop_
 _atom_site_type_symbol
 _atom_site_label
 _atom_site_symmetry_multiplicity
 _atom_site_fract_x
 _atom_site_fract_y
 _atom_site_fract_z
 _atom_site_occupancy
  Ho  Ho0  1  0.502477  0.328251  0.095614  1
  Ho  Ho1  1  0.001455  0.171102  0.403912  1
  Ho  Ho2  1  0.500552  0.673594  0.596406  1
  Ho  Ho3  1  0.997497  0.828080  0.904707  1
  Ho  Ho4  1  0.497308  0.671463  0.904547  1
  Ho  Ho5  1  0.997307  0.829102  0.595935  1
  Ho  Ho6  1  0.503076  0.326804  0.403500  1
  Ho  Ho7  1  0.002486  0.171922  0.095461  1
  Ta  Ta8  1  0.664789  0.008779  0.750194  1
  Nb  Nb9  1  0.164495  0.490943  0.751840  1
  Nb  Nb10  1  0.334849  0.992038  0.249778  1
  Nb  Nb11  1  0.835175  0.508633  0.249867  1
  Nb  Nb12  1  0.836260  0.324443  0.625879  1
  Nb  Nb13  1  0.338229  0.175009  0.874809  1
  Nb  Nb14  1  0.161775  0.675057  0.125181  1
  Nb  Nb15  1  0.661536  0.825383  0.374335  1
  Nb  Nb16  1  0.160110  0.677516  0.373044  1
  Nb  Nb17  1  0.661125  0.824689  0.125102  1
  Nb  Nb18  1  0.837833  0.324734  0.874740  1
  Nb  Nb19  1  0.340699  0.171553  0.626649  1
  Si  Si20  1  0.797185  0.627780  0.750197  1
  Si  Si21  1  0.296895  0.872062  0.750564  1
  Si  Si22  1  0.203092  0.373272  0.249716  1
  Si  Si23  1  0.703268  0.126918  0.249568  1
  Si  Si24  1  0.542842  0.376771  0.750352  1
  Si  Si25  1  0.042683  0.122828  0.750094  1
  Si  Si26  1  0.456657  0.623264  0.249918  1
  Si  Si27  1  0.956230  0.877603  0.249050  1
  Si  Si28  1  0.664624  0.037004  0.540426  1
  Si  Si29  1  0.163637  0.463088  0.959692  1
  Si  Si30  1  0.335824  0.963300  0.040386  1
  Si  Si31  1  0.832299  0.537578  0.458855  1
  Si  Si32  1  0.335590  0.962721  0.459721  1
  Si  Si33  1  0.836364  0.536766  0.040590  1
  Si  Si34  1  0.663994  0.036499  0.959226  1
  Ge  Ge35  1  0.169778  0.463451  0.540140  1
