# generated using pymatgen
data_NaCrFeF6
_symmetry_space_group_name_H-M   'P 1'
_cell_length_a   9.08152700
_cell_length_b   9.08152854
_cell_length_c   5.04422500
_cell_angle_alpha   90.00000000
_cell_angle_beta   90.00000000
_cell_angle_gamma   120.00000532
_symmetry_Int_Tables_number   1
_chemical_formula_structural   NaCrFeF6
_chemical_formula_sum   'Na3 Cr3 Fe3 F18'
_cell_volume   360.28226907
_cell_formula_units_Z   3
loop_
 _symmetry_equiv_pos_site_id
 _symmetry_equiv_pos_as_xyz
  1  'x, y, z'
loop_
 _atom_site_type_symbol
 _atom_site_label
 _atom_site_symmetry_multiplicity
 _atom_site_fract_x
 _atom_site_fract_y
 _atom_site_fract_z
 _atom_site_occupancy
  Na  Na0  1  0.628153  0.000000  0.000000  1
  Na  Na1  1  0.000000  0.628153  0.000000  1
  Na  Na2  1  0.371847  0.371847  0.000000  1
  Cr  Cr3  1  0.333333  0.666667  0.501224  1
  Cr  Cr4  1  0.666667  0.333333  0.498776  1
  Cr  Cr5  1  0.000000  0.000000  0.000000  1
  Fe  Fe6  1  0.298799  0.000000  0.500000  1
  Fe  Fe7  1  0.000000  0.298799  0.500000  1
  Fe  Fe8  1  0.701201  0.701201  0.500000  1
  F  F9  1  0.127535  0.535794  0.289427  1
  F  F10  1  0.464206  0.591740  0.289427  1
  F  F11  1  0.535794  0.127535  0.710573  1
  F  F12  1  0.408260  0.872465  0.289427  1
  F  F13  1  0.591740  0.464206  0.710573  1
  F  F14  1  0.872465  0.408260  0.710573  1
  F  F15  1  0.101013  0.201302  0.226521  1
  F  F16  1  0.798698  0.899711  0.226521  1
  F  F17  1  0.201302  0.101013  0.773479  1
  F  F18  1  0.100289  0.898987  0.226521  1
  F  F19  1  0.899711  0.798698  0.773479  1
  F  F20  1  0.898987  0.100289  0.773479  1
  F  F21  1  0.457067  0.229617  0.288709  1
  F  F22  1  0.770383  0.227450  0.288709  1
  F  F23  1  0.229617  0.457067  0.711291  1
  F  F24  1  0.772550  0.542933  0.288709  1
  F  F25  1  0.227450  0.770383  0.711291  1
  F  F26  1  0.542933  0.772550  0.711291  1
