# generated using pymatgen
data_Er2Lu(ThSn2)2
_symmetry_space_group_name_H-M   'P 1'
_cell_length_a   8.09584700
_cell_length_b   8.18572900
_cell_length_c   15.46353200
_cell_angle_alpha   90.00000000
_cell_angle_beta   90.00000000
_cell_angle_gamma   90.00000000
_symmetry_Int_Tables_number   1
_chemical_formula_structural   Er2Lu(ThSn2)2
_chemical_formula_sum   'Er8 Lu4 Th8 Sn16'
_cell_volume   1024.77459900
_cell_formula_units_Z   4
loop_
 _symmetry_equiv_pos_site_id
 _symmetry_equiv_pos_as_xyz
  1  'x, y, z'
loop_
 _atom_site_type_symbol
 _atom_site_label
 _atom_site_symmetry_multiplicity
 _atom_site_fract_x
 _atom_site_fract_y
 _atom_site_fract_z
 _atom_site_occupancy
  Er  Er0  1  0.360425  0.837591  0.875718  1
  Er  Er1  1  0.860425  0.662409  0.624282  1
  Er  Er2  1  0.639575  0.162409  0.375718  1
  Er  Er3  1  0.139575  0.337591  0.124282  1
  Er  Er4  1  0.639575  0.162409  0.124282  1
  Er  Er5  1  0.139575  0.337591  0.375718  1
  Er  Er6  1  0.360425  0.837591  0.624282  1
  Er  Er7  1  0.860425  0.662409  0.875718  1
  Lu  Lu8  1  0.190456  0.498395  0.750000  1
  Lu  Lu9  1  0.690456  0.001605  0.750000  1
  Lu  Lu10  1  0.809544  0.501605  0.250000  1
  Lu  Lu11  1  0.309544  0.998395  0.250000  1
  Th  Th12  1  0.519044  0.321548  0.903995  1
  Th  Th13  1  0.019044  0.178452  0.596005  1
  Th  Th14  1  0.480956  0.678452  0.403995  1
  Th  Th15  1  0.980956  0.821548  0.096005  1
  Th  Th16  1  0.480956  0.678452  0.096005  1
  Th  Th17  1  0.980956  0.821548  0.403995  1
  Th  Th18  1  0.519044  0.321548  0.596005  1
  Th  Th19  1  0.019044  0.178452  0.903995  1
  Sn  Sn20  1  0.300031  0.040374  0.042774  1
  Sn  Sn21  1  0.800031  0.459626  0.457226  1
  Sn  Sn22  1  0.699969  0.959626  0.542774  1
  Sn  Sn23  1  0.199969  0.540374  0.957226  1
  Sn  Sn24  1  0.699969  0.959626  0.957226  1
  Sn  Sn25  1  0.199969  0.540374  0.542774  1
  Sn  Sn26  1  0.300031  0.040374  0.457226  1
  Sn  Sn27  1  0.800031  0.459626  0.042774  1
  Sn  Sn28  1  0.555077  0.623738  0.750000  1
  Sn  Sn29  1  0.055077  0.876262  0.750000  1
  Sn  Sn30  1  0.444923  0.376262  0.250000  1
  Sn  Sn31  1  0.944923  0.123738  0.250000  1
  Sn  Sn32  1  0.325919  0.144316  0.750000  1
  Sn  Sn33  1  0.825919  0.355684  0.750000  1
  Sn  Sn34  1  0.674081  0.855684  0.250000  1
  Sn  Sn35  1  0.174081  0.644316  0.250000  1
