# generated using pymatgen
data_LiNb4Re6Si6W
_symmetry_space_group_name_H-M   'P 1'
_cell_length_a   7.63973065
_cell_length_b   7.54648782
_cell_length_c   7.63973210
_cell_angle_alpha   126.05698838
_cell_angle_beta   129.43081352
_cell_angle_gamma   77.33633513
_symmetry_Int_Tables_number   1
_chemical_formula_structural   LiNb4Re6Si6W
_chemical_formula_sum   'Li1 Nb4 Re6 Si6 W1'
_cell_volume   266.46706655
_cell_formula_units_Z   1
loop_
 _symmetry_equiv_pos_site_id
 _symmetry_equiv_pos_as_xyz
  1  'x, y, z'
loop_
 _atom_site_type_symbol
 _atom_site_label
 _atom_site_symmetry_multiplicity
 _atom_site_fract_x
 _atom_site_fract_y
 _atom_site_fract_z
 _atom_site_occupancy
  Li  Li0  1  0.558059  0.109889  0.051830  1
  Nb  Nb1  1  0.950156  0.492545  0.042389  1
  Nb  Nb2  1  0.047569  0.091200  0.543632  1
  Nb  Nb3  1  0.755110  0.907143  0.652033  1
  Nb  Nb4  1  0.241126  0.887178  0.146052  1
  Re  Re5  1  0.500816  0.240075  0.735844  1
  Re  Re6  1  0.004231  0.240075  0.239261  1
  Re  Re7  1  0.127432  0.754046  0.623271  1
  Re  Re8  1  0.871455  0.499377  0.631231  1
  Re  Re9  1  0.630775  0.754046  0.126613  1
  Re  Re10  1  0.368146  0.499377  0.127921  1
  Si  Si11  1  0.746424  0.491824  0.245400  1
  Si  Si12  1  0.249993  0.496869  0.746878  1
  Si  Si13  1  0.345549  0.833230  0.518004  1
  Si  Si14  1  0.654510  0.161195  0.475064  1
  Si  Si15  1  0.815226  0.833230  0.987681  1
  Si  Si16  1  0.186130  0.161195  0.006685  1
  W  W17  1  0.447292  0.489703  0.542411  1
