# generated using pymatgen
data_Tm2Re7Si4W
_symmetry_space_group_name_H-M   'P 1'
_cell_length_a   7.15259275
_cell_length_b   7.65035474
_cell_length_c   4.16779700
_cell_angle_alpha   90.00000000
_cell_angle_beta   90.00000000
_cell_angle_gamma   89.99854217
_symmetry_Int_Tables_number   1
_chemical_formula_structural   Tm2Re7Si4W
_chemical_formula_sum   'Tm2 Re7 Si4 W1'
_cell_volume   228.06131789
_cell_formula_units_Z   1
loop_
 _symmetry_equiv_pos_site_id
 _symmetry_equiv_pos_as_xyz
  1  'x, y, z'
loop_
 _atom_site_type_symbol
 _atom_site_label
 _atom_site_symmetry_multiplicity
 _atom_site_fract_x
 _atom_site_fract_y
 _atom_site_fract_z
 _atom_site_occupancy
  Tm  Tm0  1  0.500804  0.498020  0.000000  1
  Tm  Tm1  1  0.999380  0.999718  0.500000  1
  Re  Re2  1  0.156228  0.604576  0.500000  1
  Re  Re3  1  0.084162  0.340858  0.000000  1
  Re  Re4  1  0.917025  0.659077  0.000000  1
  Re  Re5  1  0.416693  0.839399  0.500000  1
  Re  Re6  1  0.583703  0.163974  0.500000  1
  Re  Re7  1  0.341590  0.106940  0.000000  1
  Re  Re8  1  0.846026  0.393960  0.500000  1
  Si  Si9  1  0.222241  0.805579  0.000000  1
  Si  Si10  1  0.780123  0.196647  0.000000  1
  Si  Si11  1  0.722694  0.692367  0.500000  1
  Si  Si12  1  0.278340  0.304731  0.500000  1
  W  W13  1  0.650992  0.894154  0.000000  1
