# generated using pymatgen
data_YMnFePC
_symmetry_space_group_name_H-M   'P 1'
_cell_length_a   5.50208466
_cell_length_b   5.50208386
_cell_length_c   6.79464064
_cell_angle_alpha   88.86412659
_cell_angle_beta   91.13587508
_cell_angle_gamma   141.06876860
_symmetry_Int_Tables_number   1
_chemical_formula_structural   YMnFePC
_chemical_formula_sum   'Y2 Mn2 Fe2 P2 C2'
_cell_volume   129.22670388
_cell_formula_units_Z   2
loop_
 _symmetry_equiv_pos_site_id
 _symmetry_equiv_pos_as_xyz
  1  'x, y, z'
loop_
 _atom_site_type_symbol
 _atom_site_label
 _atom_site_symmetry_multiplicity
 _atom_site_fract_x
 _atom_site_fract_y
 _atom_site_fract_z
 _atom_site_occupancy
  Y  Y0  1  0.545915  0.454085  0.251918  1
  Y  Y1  1  0.454085  0.545915  0.748082  1
  Mn  Mn2  1  0.827801  0.172199  0.056490  1
  Mn  Mn3  1  0.172199  0.827801  0.943510  1
  Fe  Fe4  1  0.167310  0.832690  0.558429  1
  Fe  Fe5  1  0.832690  0.167310  0.441571  1
  P  P6  1  0.268691  0.731309  0.262389  1
  P  P7  1  0.731309  0.268691  0.737611  1
  C  C8  1  0.000000  0.000000  0.000000  1
  C  C9  1  0.000000  0.000000  0.500000  1
