# generated using pymatgen
data_SmAgRuPtO7
_symmetry_space_group_name_H-M   'P 1'
_cell_length_a   7.11848833
_cell_length_b   7.28497201
_cell_length_c   7.28497264
_cell_angle_alpha   61.61055040
_cell_angle_beta   60.75312820
_cell_angle_gamma   60.75313964
_symmetry_Int_Tables_number   1
_chemical_formula_structural   SmAgRuPtO7
_chemical_formula_sum   'Sm2 Ag2 Ru2 Pt2 O14'
_cell_volume   273.34366195
_cell_formula_units_Z   2
loop_
 _symmetry_equiv_pos_site_id
 _symmetry_equiv_pos_as_xyz
  1  'x, y, z'
loop_
 _atom_site_type_symbol
 _atom_site_label
 _atom_site_symmetry_multiplicity
 _atom_site_fract_x
 _atom_site_fract_y
 _atom_site_fract_z
 _atom_site_occupancy
  Sm  Sm0  1  0.625000  0.625000  0.125000  1
  Sm  Sm1  1  0.625000  0.125000  0.625000  1
  Ag  Ag2  1  0.625000  0.625000  0.625000  1
  Ag  Ag3  1  0.125000  0.625000  0.625000  1
  Ru  Ru4  1  0.125000  0.125000  0.625000  1
  Ru  Ru5  1  0.125000  0.625000  0.125000  1
  Pt  Pt6  1  0.125000  0.125000  0.125000  1
  Pt  Pt7  1  0.625000  0.125000  0.125000  1
  O  O8  1  0.488581  0.511419  0.511419  1
  O  O9  1  0.761419  0.738581  0.738581  1
  O  O10  1  0.046008  0.046032  0.455137  1
  O  O11  1  0.797176  0.794863  0.203968  1
  O  O12  1  0.452824  0.046032  0.455137  1
  O  O13  1  0.469790  0.030210  0.030210  1
  O  O14  1  0.070723  0.429277  0.429277  1
  O  O15  1  0.046008  0.455137  0.046032  1
  O  O16  1  0.452824  0.455137  0.046032  1
  O  O17  1  0.179277  0.820723  0.820723  1
  O  O18  1  0.780210  0.219790  0.219790  1
  O  O19  1  0.203992  0.203968  0.794863  1
  O  O20  1  0.203992  0.794863  0.203968  1
  O  O21  1  0.797176  0.203968  0.794863  1
