# generated using pymatgen
data_Ho3LuBBr6
_symmetry_space_group_name_H-M   'P 1'
_cell_length_a   3.92383700
_cell_length_b   13.06973757
_cell_length_c   13.53050467
_cell_angle_alpha   89.75613069
_cell_angle_beta   90.00000000
_cell_angle_gamma   90.00000000
_symmetry_Int_Tables_number   1
_chemical_formula_structural   Ho3LuBBr6
_chemical_formula_sum   'Ho6 Lu2 B2 Br12'
_cell_volume   693.88561947
_cell_formula_units_Z   2
loop_
 _symmetry_equiv_pos_site_id
 _symmetry_equiv_pos_as_xyz
  1  'x, y, z'
loop_
 _atom_site_type_symbol
 _atom_site_label
 _atom_site_symmetry_multiplicity
 _atom_site_fract_x
 _atom_site_fract_y
 _atom_site_fract_z
 _atom_site_occupancy
  Ho  Ho0  1  0.000000  0.101567  0.080700  1
  Ho  Ho1  1  0.000000  0.898433  0.919300  1
  Ho  Ho2  1  0.500000  0.123029  0.855487  1
  Ho  Ho3  1  0.500000  0.876971  0.144513  1
  Ho  Ho4  1  0.500000  0.622275  0.643661  1
  Ho  Ho5  1  0.500000  0.377725  0.356339  1
  Lu  Lu6  1  0.000000  0.598931  0.421299  1
  Lu  Lu7  1  0.000000  0.401069  0.578701  1
  B  B8  1  0.500000  0.000000  0.000000  1
  B  B9  1  0.500000  0.500000  0.500000  1
  Br  Br10  1  0.500000  0.271232  0.679549  1
  Br  Br11  1  0.500000  0.728768  0.320451  1
  Br  Br12  1  0.500000  0.767324  0.817104  1
  Br  Br13  1  0.500000  0.232676  0.182896  1
  Br  Br14  1  0.000000  0.262182  0.930887  1
  Br  Br15  1  0.000000  0.737818  0.069113  1
  Br  Br16  1  0.000000  0.483014  0.240112  1
  Br  Br17  1  0.000000  0.516986  0.759888  1
  Br  Br18  1  0.000000  0.980271  0.261920  1
  Br  Br19  1  0.000000  0.019729  0.738080  1
  Br  Br20  1  0.000000  0.239366  0.433674  1
  Br  Br21  1  0.000000  0.760634  0.566326  1
