# generated using pymatgen
data_Hf4InBiRh10
_symmetry_space_group_name_H-M   'P 1'
_cell_length_a   4.15399600
_cell_length_b   5.65820609
_cell_length_c   11.20775855
_cell_angle_alpha   90.31981878
_cell_angle_beta   90.00000000
_cell_angle_gamma   90.00000000
_symmetry_Int_Tables_number   1
_chemical_formula_structural   Hf4InBiRh10
_chemical_formula_sum   'Hf4 In1 Bi1 Rh10'
_cell_volume   263.42490747
_cell_formula_units_Z   1
loop_
 _symmetry_equiv_pos_site_id
 _symmetry_equiv_pos_as_xyz
  1  'x, y, z'
loop_
 _atom_site_type_symbol
 _atom_site_label
 _atom_site_symmetry_multiplicity
 _atom_site_fract_x
 _atom_site_fract_y
 _atom_site_fract_z
 _atom_site_occupancy
  Hf  Hf0  1  0.500000  0.180040  0.646161  1
  Hf  Hf1  1  0.500000  0.819960  0.353839  1
  Hf  Hf2  1  0.500000  0.687663  0.862127  1
  Hf  Hf3  1  0.500000  0.312337  0.137873  1
  In  In4  1  0.000000  0.000000  0.000000  1
  Bi  Bi5  1  0.000000  0.500000  0.500000  1
  Rh  Rh6  1  0.500000  0.212142  0.882854  1
  Rh  Rh7  1  0.500000  0.787858  0.117146  1
  Rh  Rh8  1  0.500000  0.711050  0.619148  1
  Rh  Rh9  1  0.500000  0.288950  0.380852  1
  Rh  Rh10  1  0.000000  0.445135  0.750882  1
  Rh  Rh11  1  0.000000  0.554865  0.249118  1
  Rh  Rh12  1  0.000000  0.000000  0.500000  1
  Rh  Rh13  1  0.000000  0.500000  0.000000  1
  Rh  Rh14  1  0.000000  0.053943  0.248544  1
  Rh  Rh15  1  0.000000  0.946057  0.751456  1
