# generated using pymatgen
data_Sc22Os6RuPt
_symmetry_space_group_name_H-M   'P 1'
_cell_length_a   9.48684336
_cell_length_b   9.45119636
_cell_length_c   9.48684302
_cell_angle_alpha   60.12421339
_cell_angle_beta   59.92093193
_cell_angle_gamma   60.12422237
_symmetry_Int_Tables_number   1
_chemical_formula_structural   Sc22Os6RuPt
_chemical_formula_sum   'Sc22 Os6 Ru1 Pt1'
_cell_volume   602.23631635
_cell_formula_units_Z   1
loop_
 _symmetry_equiv_pos_site_id
 _symmetry_equiv_pos_as_xyz
  1  'x, y, z'
loop_
 _atom_site_type_symbol
 _atom_site_label
 _atom_site_symmetry_multiplicity
 _atom_site_fract_x
 _atom_site_fract_y
 _atom_site_fract_z
 _atom_site_occupancy
  Sc  Sc0  1  0.843683  0.843487  0.843683  1
  Sc  Sc1  1  0.530975  0.158467  0.152090  1
  Sc  Sc2  1  0.152090  0.158467  0.530975  1
  Sc  Sc3  1  0.156317  0.530854  0.156317  1
  Sc  Sc4  1  0.847910  0.841533  0.469025  1
  Sc  Sc5  1  0.843683  0.469146  0.843683  1
  Sc  Sc6  1  0.469025  0.841533  0.847910  1
  Sc  Sc7  1  0.156317  0.156513  0.156317  1
  Sc  Sc8  1  0.198182  0.801818  0.198182  1
  Sc  Sc9  1  0.196446  0.800737  0.803554  1
  Sc  Sc10  1  0.803554  0.199263  0.196446  1
  Sc  Sc11  1  0.803554  0.800737  0.196446  1
  Sc  Sc12  1  0.196446  0.199263  0.803554  1
  Sc  Sc13  1  0.801818  0.198182  0.801818  1
  Sc  Sc14  1  0.380820  0.388120  0.380820  1
  Sc  Sc15  1  0.149250  0.616622  0.617507  1
  Sc  Sc16  1  0.619180  0.149763  0.619180  1
  Sc  Sc17  1  0.617507  0.616622  0.149250  1
  Sc  Sc18  1  0.380820  0.850237  0.380820  1
  Sc  Sc19  1  0.382493  0.383378  0.850750  1
  Sc  Sc20  1  0.850750  0.383378  0.382493  1
  Sc  Sc21  1  0.619180  0.611880  0.619180  1
  Os  Os22  1  0.500000  0.500000  0.000000  1
  Os  Os23  1  0.000000  0.000000  0.500000  1
  Os  Os24  1  0.000000  0.500000  0.500000  1
  Os  Os25  1  0.500000  0.000000  0.000000  1
  Os  Os26  1  0.000000  0.500000  0.000000  1
  Os  Os27  1  0.500000  0.500000  0.500000  1
  Ru  Ru28  1  0.000000  0.000000  0.000000  1
  Pt  Pt29  1  0.500000  0.000000  0.500000  1
