# generated using pymatgen
data_Ba2PaMnS6
_symmetry_space_group_name_H-M   'P 1'
_cell_length_a   6.96564434
_cell_length_b   6.98224801
_cell_length_c   12.38750595
_cell_angle_alpha   89.99694571
_cell_angle_beta   123.66033653
_cell_angle_gamma   89.99867251
_symmetry_Int_Tables_number   1
_chemical_formula_structural   Ba2PaMnS6
_chemical_formula_sum   'Ba4 Pa2 Mn2 S12'
_cell_volume   501.46447642
_cell_formula_units_Z   2
loop_
 _symmetry_equiv_pos_site_id
 _symmetry_equiv_pos_as_xyz
  1  'x, y, z'
loop_
 _atom_site_type_symbol
 _atom_site_label
 _atom_site_symmetry_multiplicity
 _atom_site_fract_x
 _atom_site_fract_y
 _atom_site_fract_z
 _atom_site_occupancy
  Ba  Ba0  1  0.238840  0.967406  0.247989  1
  Ba  Ba1  1  0.761217  0.467445  0.252003  1
  Ba  Ba2  1  0.238785  0.532555  0.747998  1
  Ba  Ba3  1  0.761160  0.032594  0.752011  1
  Pa  Pa4  1  0.500000  0.000000  0.000000  1
  Pa  Pa5  1  0.500001  0.499999  0.500000  1
  Mn  Mn6  1  0.000000  0.499999  0.000000  1
  Mn  Mn7  1  0.000000  0.000000  0.500000  1
  S  S8  1  0.755060  0.702952  0.025268  1
  S  S9  1  0.822324  0.229013  0.025782  1
  S  S10  1  0.699904  0.000365  0.248977  1
  S  S11  1  0.299877  0.500279  0.250791  1
  S  S12  1  0.177512  0.729004  0.474134  1
  S  S13  1  0.245103  0.203002  0.474795  1
  S  S14  1  0.754898  0.796998  0.525205  1
  S  S15  1  0.822488  0.270996  0.525866  1
  S  S16  1  0.700123  0.499721  0.749208  1
  S  S17  1  0.300095  0.999635  0.751023  1
  S  S18  1  0.177677  0.770987  0.974218  1
  S  S19  1  0.244940  0.297048  0.974732  1
