# generated using pymatgen
data_La4Nd3Ho(CdIr)2
_symmetry_space_group_name_H-M   'P 1'
_cell_length_a   9.99985045
_cell_length_b   9.99984977
_cell_length_c   10.01765800
_cell_angle_alpha   59.94106582
_cell_angle_beta   59.94106808
_cell_angle_gamma   60.11786110
_symmetry_Int_Tables_number   1
_chemical_formula_structural   La4Nd3Ho(CdIr)2
_chemical_formula_sum   'La8 Nd6 Ho2 Cd4 Ir4'
_cell_volume   708.32962660
_cell_formula_units_Z   2
loop_
 _symmetry_equiv_pos_site_id
 _symmetry_equiv_pos_as_xyz
  1  'x, y, z'
loop_
 _atom_site_type_symbol
 _atom_site_label
 _atom_site_symmetry_multiplicity
 _atom_site_fract_x
 _atom_site_fract_y
 _atom_site_fract_z
 _atom_site_occupancy
  La  La0  1  0.346267  0.346267  0.352719  1
  La  La1  1  0.346267  0.346267  0.954745  1
  La  La2  1  0.352719  0.954745  0.346267  1
  La  La3  1  0.954745  0.352719  0.346267  1
  La  La4  1  0.812704  0.187296  0.187296  1
  La  La5  1  0.187296  0.812704  0.812704  1
  La  La6  1  0.187296  0.812704  0.187296  1
  La  La7  1  0.812704  0.187296  0.812704  1
  Nd  Nd8  1  0.936627  0.563373  0.563373  1
  Nd  Nd9  1  0.563373  0.936627  0.936627  1
  Nd  Nd10  1  0.563373  0.936627  0.563373  1
  Nd  Nd11  1  0.936627  0.563373  0.936627  1
  Nd  Nd12  1  0.562335  0.562335  0.937665  1
  Nd  Nd13  1  0.937665  0.937665  0.562335  1
  Ho  Ho14  1  0.193098  0.193098  0.806902  1
  Ho  Ho15  1  0.806902  0.806902  0.193098  1
  Cd  Cd16  1  0.581542  0.581542  0.577889  1
  Cd  Cd17  1  0.581542  0.581542  0.259027  1
  Cd  Cd18  1  0.577889  0.259027  0.581542  1
  Cd  Cd19  1  0.259027  0.577889  0.581542  1
  Ir  Ir20  1  0.141082  0.141082  0.138214  1
  Ir  Ir21  1  0.141082  0.141082  0.579621  1
  Ir  Ir22  1  0.138214  0.579621  0.141082  1
  Ir  Ir23  1  0.579621  0.138214  0.141082  1
