# generated using pymatgen
data_Tb8In4Cu5Ir3
_symmetry_space_group_name_H-M   'P 1'
_cell_length_a   7.69410743
_cell_length_b   7.70510168
_cell_length_c   7.38171100
_cell_angle_alpha   89.98918050
_cell_angle_beta   89.96510472
_cell_angle_gamma   90.07464426
_symmetry_Int_Tables_number   1
_chemical_formula_structural   Tb8In4Cu5Ir3
_chemical_formula_sum   'Tb8 In4 Cu5 Ir3'
_cell_volume   437.61600902
_cell_formula_units_Z   1
loop_
 _symmetry_equiv_pos_site_id
 _symmetry_equiv_pos_as_xyz
  1  'x, y, z'
loop_
 _atom_site_type_symbol
 _atom_site_label
 _atom_site_symmetry_multiplicity
 _atom_site_fract_x
 _atom_site_fract_y
 _atom_site_fract_z
 _atom_site_occupancy
  Tb  Tb0  1  0.186012  0.165665  0.996282  1
  Tb  Tb1  1  0.842715  0.820802  0.001204  1
  Tb  Tb2  1  0.662319  0.326112  0.503324  1
  Tb  Tb3  1  0.312430  0.676390  0.504075  1
  Tb  Tb4  1  0.663932  0.324295  0.996700  1
  Tb  Tb5  1  0.311548  0.677833  0.995772  1
  Tb  Tb6  1  0.841635  0.819322  0.499182  1
  Tb  Tb7  1  0.187034  0.167002  0.503675  1
  In  In8  1  0.507244  0.994449  0.250245  1
  In  In9  1  0.509111  0.995790  0.749406  1
  In  In10  1  0.995038  0.490792  0.249932  1
  In  In11  1  0.996272  0.491146  0.750573  1
  Cu  Cu12  1  0.378492  0.388378  0.247909  1
  Cu  Cu13  1  0.620592  0.628868  0.752015  1
  Cu  Cu14  1  0.614110  0.621139  0.247360  1
  Cu  Cu15  1  0.875803  0.127048  0.748919  1
  Cu  Cu16  1  0.878242  0.128149  0.252307  1
  Ir  Ir17  1  0.384221  0.383991  0.750937  1
  Ir  Ir18  1  0.117306  0.885027  0.251155  1
  Ir  Ir19  1  0.115943  0.887803  0.749032  1
