# generated using pymatgen
data_Tb16CdHg3Ir4
_symmetry_space_group_name_H-M   'P 1'
_cell_length_a   9.64953593
_cell_length_b   9.65363972
_cell_length_c   9.65363900
_cell_angle_alpha   59.99999903
_cell_angle_beta   59.98592976
_cell_angle_gamma   59.98593739
_symmetry_Int_Tables_number   1
_chemical_formula_structural   Tb16CdHg3Ir4
_chemical_formula_sum   'Tb16 Cd1 Hg3 Ir4'
_cell_volume   635.74242975
_cell_formula_units_Z   1
loop_
 _symmetry_equiv_pos_site_id
 _symmetry_equiv_pos_as_xyz
  1  'x, y, z'
loop_
 _atom_site_type_symbol
 _atom_site_label
 _atom_site_symmetry_multiplicity
 _atom_site_fract_x
 _atom_site_fract_y
 _atom_site_fract_z
 _atom_site_occupancy
  Tb  Tb0  1  0.600522  0.599910  0.599910  1
  Tb  Tb1  1  0.600522  0.599910  0.199658  1
  Tb  Tb2  1  0.600522  0.199658  0.599910  1
  Tb  Tb3  1  0.197554  0.600816  0.600816  1
  Tb  Tb4  1  0.058743  0.441143  0.441143  1
  Tb  Tb5  1  0.440137  0.059597  0.059597  1
  Tb  Tb6  1  0.440137  0.059597  0.440669  1
  Tb  Tb7  1  0.058743  0.441143  0.058970  1
  Tb  Tb8  1  0.440137  0.440669  0.059597  1
  Tb  Tb9  1  0.058743  0.058970  0.441143  1
  Tb  Tb10  1  0.187660  0.811262  0.811262  1
  Tb  Tb11  1  0.810776  0.189006  0.189006  1
  Tb  Tb12  1  0.810776  0.189006  0.811213  1
  Tb  Tb13  1  0.187660  0.811262  0.189817  1
  Tb  Tb14  1  0.810776  0.811213  0.189006  1
  Tb  Tb15  1  0.187660  0.189817  0.811262  1
  Cd  Cd16  1  0.507309  0.830897  0.830897  1
  Hg  Hg17  1  0.834120  0.836041  0.836041  1
  Hg  Hg18  1  0.834120  0.836041  0.493799  1
  Hg  Hg19  1  0.834120  0.493799  0.836041  1
  Ir  Ir20  1  0.391449  0.391878  0.391878  1
  Ir  Ir21  1  0.391449  0.391878  0.824795  1
  Ir  Ir22  1  0.391449  0.824795  0.391878  1
  Ir  Ir23  1  0.824918  0.391694  0.391694  1
