# generated using pymatgen
data_Sr6CaCd(CoO6)2
_symmetry_space_group_name_H-M   'P 1'
_cell_length_a   6.76573874
_cell_length_b   6.76232556
_cell_length_c   6.76028628
_cell_angle_alpha   90.91967796
_cell_angle_beta   91.19308610
_cell_angle_gamma   91.07411678
_symmetry_Int_Tables_number   1
_chemical_formula_structural   Sr6CaCd(CoO6)2
_chemical_formula_sum   'Sr6 Ca1 Cd1 Co2 O12'
_cell_volume   309.13426942
_cell_formula_units_Z   1
loop_
 _symmetry_equiv_pos_site_id
 _symmetry_equiv_pos_as_xyz
  1  'x, y, z'
loop_
 _atom_site_type_symbol
 _atom_site_label
 _atom_site_symmetry_multiplicity
 _atom_site_fract_x
 _atom_site_fract_y
 _atom_site_fract_z
 _atom_site_occupancy
  Sr  Sr0  1  0.887169  0.249271  0.613116  1
  Sr  Sr1  1  0.249105  0.614323  0.885408  1
  Sr  Sr2  1  0.613516  0.886454  0.251687  1
  Sr  Sr3  1  0.750962  0.382540  0.117960  1
  Sr  Sr4  1  0.383114  0.116621  0.748333  1
  Sr  Sr5  1  0.116091  0.750702  0.383705  1
  Ca  Ca6  1  0.750151  0.750428  0.749324  1
  Cd  Cd7  1  0.249664  0.249436  0.250841  1
  Co  Co8  1  0.998050  0.998449  0.998510  1
  Co  Co9  1  0.501865  0.501491  0.501822  1
  O  O10  1  0.227401  0.421383  0.552162  1
  O  O11  1  0.423883  0.552860  0.228778  1
  O  O12  1  0.552838  0.226565  0.421729  1
  O  O13  1  0.920609  0.724869  0.050266  1
  O  O14  1  0.726162  0.050983  0.919775  1
  O  O15  1  0.050559  0.919184  0.723865  1
  O  O16  1  0.775335  0.581041  0.449592  1
  O  O17  1  0.578650  0.449214  0.773551  1
  O  O18  1  0.449390  0.776150  0.580677  1
  O  O19  1  0.077086  0.272601  0.947695  1
  O  O20  1  0.271318  0.947217  0.077712  1
  O  O21  1  0.947081  0.078222  0.273491  1
