# generated using pymatgen
data_TbHo3Al18ZnIr5
_symmetry_space_group_name_H-M   'P 1'
_cell_length_a   7.58758380
_cell_length_b   7.58737851
_cell_length_c   9.44711129
_cell_angle_alpha   90.04486538
_cell_angle_beta   90.01825508
_cell_angle_gamma   119.60857022
_symmetry_Int_Tables_number   1
_chemical_formula_structural   TbHo3Al18ZnIr5
_chemical_formula_sum   'Tb1 Ho3 Al18 Zn1 Ir5'
_cell_volume   472.85082433
_cell_formula_units_Z   1
loop_
 _symmetry_equiv_pos_site_id
 _symmetry_equiv_pos_as_xyz
  1  'x, y, z'
loop_
 _atom_site_type_symbol
 _atom_site_label
 _atom_site_symmetry_multiplicity
 _atom_site_fract_x
 _atom_site_fract_y
 _atom_site_fract_z
 _atom_site_occupancy
  Tb  Tb0  1  0.325588  0.004914  0.750570  1
  Ho  Ho1  1  0.995158  0.674423  0.249715  1
  Ho  Ho2  1  0.004858  0.325619  0.750290  1
  Ho  Ho3  1  0.674575  0.995147  0.249713  1
  Al  Al4  1  0.134221  0.134298  0.255982  1
  Al  Al5  1  0.865362  0.865613  0.743946  1
  Al  Al6  1  0.001604  0.343987  0.079397  1
  Al  Al7  1  0.998045  0.655561  0.920848  1
  Al  Al8  1  0.000770  0.664518  0.571587  1
  Al  Al9  1  0.335085  0.998840  0.427837  1
  Al  Al10  1  0.998868  0.335129  0.428128  1
  Al  Al11  1  0.665164  0.001148  0.571644  1
  Al  Al12  1  0.656340  0.998369  0.920913  1
  Al  Al13  1  0.344084  0.001605  0.079667  1
  Al  Al14  1  0.332656  0.332969  0.551521  1
  Al  Al15  1  0.667291  0.667314  0.448201  1
  Al  Al16  1  0.658184  0.658219  0.059786  1
  Al  Al17  1  0.341835  0.342175  0.940523  1
  Al  Al18  1  0.338673  0.550358  0.251393  1
  Al  Al19  1  0.661636  0.450070  0.748611  1
  Al  Al20  1  0.550353  0.338709  0.251398  1
  Al  Al21  1  0.449710  0.661076  0.748606  1
  Zn  Zn22  1  0.000035  0.999988  0.999981  1
  Ir  Ir23  1  0.672376  0.328096  0.000272  1
  Ir  Ir24  1  0.327786  0.671912  0.000253  1
  Ir  Ir25  1  0.328412  0.671445  0.499791  1
  Ir  Ir26  1  0.671773  0.328594  0.499720  1
  Ir  Ir27  1  0.999560  0.999905  0.499706  1
