# generated using pymatgen
data_Hf2ZrIn3Ir2
_symmetry_space_group_name_H-M   'P 1'
_cell_length_a   7.55477600
_cell_length_b   7.57792110
_cell_length_c   3.26278300
_cell_angle_alpha   90.00000000
_cell_angle_beta   90.00000000
_cell_angle_gamma   119.89901654
_symmetry_Int_Tables_number   1
_chemical_formula_structural   Hf2ZrIn3Ir2
_chemical_formula_sum   'Hf2 Zr1 In3 Ir2'
_cell_volume   161.93156846
_cell_formula_units_Z   1
loop_
 _symmetry_equiv_pos_site_id
 _symmetry_equiv_pos_as_xyz
  1  'x, y, z'
loop_
 _atom_site_type_symbol
 _atom_site_label
 _atom_site_symmetry_multiplicity
 _atom_site_fract_x
 _atom_site_fract_y
 _atom_site_fract_z
 _atom_site_occupancy
  Hf  Hf0  1  0.421654  0.421956  0.500001  1
  Hf  Hf1  1  0.999697  0.578044  0.500001  1
  Zr  Zr2  1  0.579707  0.000000  0.500001  1
  In  In3  1  0.231242  0.000000  0.000000  1
  In  In4  1  0.000437  0.230794  0.000000  1
  In  In5  1  0.769643  0.769207  0.000000  1
  Ir  Ir6  1  0.667380  0.337142  0.000000  1
  Ir  Ir7  1  0.330239  0.662858  0.000000  1
