# generated using pymatgen
data_Rb4NbV(AgTe4)2
_symmetry_space_group_name_H-M   'P 1'
_cell_length_a   15.12729185
_cell_length_b   13.51798689
_cell_length_c   8.15743671
_cell_angle_alpha   84.68096628
_cell_angle_beta   62.84408874
_cell_angle_gamma   32.47495174
_symmetry_Int_Tables_number   1
_chemical_formula_structural   Rb4NbV(AgTe4)2
_chemical_formula_sum   'Rb4 Nb1 V1 Ag2 Te8'
_cell_volume   630.31026589
_cell_formula_units_Z   1
loop_
 _symmetry_equiv_pos_site_id
 _symmetry_equiv_pos_as_xyz
  1  'x, y, z'
loop_
 _atom_site_type_symbol
 _atom_site_label
 _atom_site_symmetry_multiplicity
 _atom_site_fract_x
 _atom_site_fract_y
 _atom_site_fract_z
 _atom_site_occupancy
  Rb  Rb0  1  0.681359  0.681359  0.318641  1
  Rb  Rb1  1  0.318641  0.318641  0.681359  1
  Rb  Rb2  1  0.931840  0.931840  0.568160  1
  Rb  Rb3  1  0.568160  0.568160  0.931840  1
  Nb  Nb4  1  0.750000  0.750000  0.750000  1
  V  V5  1  0.500000  0.500000  0.500000  1
  Ag  Ag6  1  0.250000  0.250000  0.250000  1
  Ag  Ag7  1  0.000000  0.000000  0.000000  1
  Te  Te8  1  0.559308  0.326268  0.240139  1
  Te  Te9  1  0.874285  0.240139  0.326268  1
  Te  Te10  1  0.023616  0.357486  0.684663  1
  Te  Te11  1  0.934235  0.684663  0.357486  1
  Te  Te12  1  0.240139  0.874285  0.559308  1
  Te  Te13  1  0.326268  0.559308  0.874285  1
  Te  Te14  1  0.357486  0.023616  0.934235  1
  Te  Te15  1  0.684663  0.934235  0.023616  1
