# generated using pymatgen
data_Y3HoEr4(CdPt)2
_symmetry_space_group_name_H-M   'P 1'
_cell_length_a   9.64142519
_cell_length_b   9.64130492
_cell_length_c   9.64255500
_cell_angle_alpha   59.99649672
_cell_angle_beta   59.99662354
_cell_angle_gamma   60.00657748
_symmetry_Int_Tables_number   1
_chemical_formula_structural   Y3HoEr4(CdPt)2
_chemical_formula_sum   'Y6 Ho2 Er8 Cd4 Pt4'
_cell_volume   633.80137941
_cell_formula_units_Z   2
loop_
 _symmetry_equiv_pos_site_id
 _symmetry_equiv_pos_as_xyz
  1  'x, y, z'
loop_
 _atom_site_type_symbol
 _atom_site_label
 _atom_site_symmetry_multiplicity
 _atom_site_fract_x
 _atom_site_fract_y
 _atom_site_fract_z
 _atom_site_occupancy
  Y  Y0  1  0.936586  0.563096  0.563842  1
  Y  Y1  1  0.563121  0.936629  0.936406  1
  Y  Y2  1  0.563095  0.936628  0.563821  1
  Y  Y3  1  0.936583  0.563116  0.936463  1
  Y  Y4  1  0.564207  0.564267  0.935771  1
  Y  Y5  1  0.937322  0.937339  0.562682  1
  Ho  Ho6  1  0.352420  0.352421  0.350641  1
  Ho  Ho7  1  0.352424  0.352415  0.944512  1
  Er  Er8  1  0.354039  0.941575  0.352198  1
  Er  Er9  1  0.941579  0.354061  0.352167  1
  Er  Er10  1  0.811351  0.188862  0.189488  1
  Er  Er11  1  0.188879  0.811324  0.810305  1
  Er  Er12  1  0.188861  0.811343  0.189490  1
  Er  Er13  1  0.811344  0.188868  0.810305  1
  Er  Er14  1  0.189692  0.189689  0.810313  1
  Er  Er15  1  0.811340  0.811313  0.188673  1
  Cd  Cd16  1  0.581367  0.581323  0.581608  1
  Cd  Cd17  1  0.581362  0.581297  0.255728  1
  Cd  Cd18  1  0.581524  0.254935  0.581772  1
  Cd  Cd19  1  0.254912  0.581495  0.581798  1
  Pt  Pt20  1  0.142709  0.142722  0.145199  1
  Pt  Pt21  1  0.142711  0.142722  0.569369  1
  Pt  Pt22  1  0.141379  0.571177  0.143728  1
  Pt  Pt23  1  0.571193  0.141382  0.143718  1
