# generated using pymatgen
data_Li2Co3P7Ru9
_symmetry_space_group_name_H-M   'P 1'
_cell_length_a   9.28942900
_cell_length_b   9.28942918
_cell_length_c   3.74347400
_cell_angle_alpha   90.00000000
_cell_angle_beta   90.00000000
_cell_angle_gamma   119.99999579
_symmetry_Int_Tables_number   1
_chemical_formula_structural   Li2Co3P7Ru9
_chemical_formula_sum   'Li2 Co3 P7 Ru9'
_cell_volume   279.75864719
_cell_formula_units_Z   1
loop_
 _symmetry_equiv_pos_site_id
 _symmetry_equiv_pos_as_xyz
  1  'x, y, z'
loop_
 _atom_site_type_symbol
 _atom_site_label
 _atom_site_symmetry_multiplicity
 _atom_site_fract_x
 _atom_site_fract_y
 _atom_site_fract_z
 _atom_site_occupancy
  Li  Li0  1  0.000000  0.000000  0.000000  1
  Li  Li1  1  0.333333  0.666667  0.500000  1
  Co  Co2  1  0.820937  0.601977  0.000000  1
  Co  Co3  1  0.398023  0.218960  0.000000  1
  Co  Co4  1  0.781040  0.179063  0.000000  1
  P  P5  1  0.780239  0.734168  0.500000  1
  P  P6  1  0.265832  0.046071  0.500000  1
  P  P7  1  0.953929  0.219761  0.500000  1
  P  P8  1  0.666667  0.333333  0.000000  1
  P  P9  1  0.076901  0.637093  0.000000  1
  P  P10  1  0.362907  0.439808  0.000000  1
  P  P11  1  0.560192  0.923099  0.000000  1
  Ru  Ru12  1  0.093890  0.399600  0.000000  1
  Ru  Ru13  1  0.600400  0.694290  0.000000  1
  Ru  Ru14  1  0.305710  0.906110  0.000000  1
  Ru  Ru15  1  0.048155  0.772888  0.500000  1
  Ru  Ru16  1  0.227112  0.275268  0.500000  1
  Ru  Ru17  1  0.724732  0.951845  0.500000  1
  Ru  Ru18  1  0.868547  0.418653  0.500000  1
  Ru  Ru19  1  0.581347  0.449894  0.500000  1
  Ru  Ru20  1  0.550106  0.131453  0.500000  1
