# generated using pymatgen
data_Np3Sb4Pd2Au
_symmetry_space_group_name_H-M   'P 1'
_cell_length_a   8.54229293
_cell_length_b   8.54229402
_cell_length_c   8.54229346
_cell_angle_alpha   109.32114434
_cell_angle_beta   109.77178347
_cell_angle_gamma   109.32114991
_symmetry_Int_Tables_number   1
_chemical_formula_structural   Np3Sb4Pd2Au
_chemical_formula_sum   'Np6 Sb8 Pd4 Au2'
_cell_volume   479.83576800
_cell_formula_units_Z   2
loop_
 _symmetry_equiv_pos_site_id
 _symmetry_equiv_pos_as_xyz
  1  'x, y, z'
loop_
 _atom_site_type_symbol
 _atom_site_label
 _atom_site_symmetry_multiplicity
 _atom_site_fract_x
 _atom_site_fract_y
 _atom_site_fract_z
 _atom_site_occupancy
  Np  Np0  1  0.875000  0.250000  0.125000  1
  Np  Np1  1  0.625000  0.750000  0.375000  1
  Np  Np2  1  0.250000  0.129286  0.879286  1
  Np  Np3  1  0.750000  0.370714  0.620714  1
  Np  Np4  1  0.120714  0.870714  0.250000  1
  Np  Np5  1  0.379286  0.629286  0.750000  1
  Sb  Sb6  1  0.678741  0.503163  0.007158  1
  Sb  Sb7  1  0.503995  0.996837  0.675579  1
  Sb  Sb8  1  0.996005  0.671584  0.492842  1
  Sb  Sb9  1  0.821259  0.828416  0.824421  1
  Sb  Sb10  1  0.507158  0.003163  0.178741  1
  Sb  Sb11  1  0.175579  0.496837  0.003995  1
  Sb  Sb12  1  0.992842  0.171584  0.496005  1
  Sb  Sb13  1  0.324421  0.328416  0.321259  1
  Pd  Pd14  1  0.250000  0.627219  0.377219  1
  Pd  Pd15  1  0.750000  0.872781  0.122781  1
  Pd  Pd16  1  0.622781  0.372781  0.250000  1
  Pd  Pd17  1  0.877219  0.127219  0.750000  1
  Au  Au18  1  0.375000  0.250000  0.625000  1
  Au  Au19  1  0.125000  0.750000  0.875000  1
