# generated using pymatgen
data_Nd2Ge2Pt3Rh
_symmetry_space_group_name_H-M   'P 1'
_cell_length_a   9.71030415
_cell_length_b   9.71030392
_cell_length_c   4.18116600
_cell_angle_alpha   90.00000000
_cell_angle_beta   90.00000000
_cell_angle_gamma   155.88240422
_symmetry_Int_Tables_number   1
_chemical_formula_structural   Nd2Ge2Pt3Rh
_chemical_formula_sum   'Nd2 Ge2 Pt3 Rh1'
_cell_volume   161.09159545
_cell_formula_units_Z   1
loop_
 _symmetry_equiv_pos_site_id
 _symmetry_equiv_pos_as_xyz
  1  'x, y, z'
loop_
 _atom_site_type_symbol
 _atom_site_label
 _atom_site_symmetry_multiplicity
 _atom_site_fract_x
 _atom_site_fract_y
 _atom_site_fract_z
 _atom_site_occupancy
  Nd  Nd0  1  0.100666  0.899334  0.750000  1
  Nd  Nd1  1  0.898661  0.101339  0.250000  1
  Ge  Ge2  1  0.325057  0.674943  0.750000  1
  Ge  Ge3  1  0.675014  0.324986  0.250000  1
  Pt  Pt4  1  0.544902  0.455098  0.250000  1
  Pt  Pt5  1  0.455145  0.544855  0.750000  1
  Pt  Pt6  1  0.250977  0.749023  0.250000  1
  Rh  Rh7  1  0.749576  0.250424  0.750000  1
