# generated using pymatgen
data_MgZr7(Si4W3)4
_symmetry_space_group_name_H-M   'P 1'
_cell_length_a   6.60062528
_cell_length_b   6.78298412
_cell_length_c   12.71075603
_cell_angle_alpha   89.98756866
_cell_angle_beta   90.01319399
_cell_angle_gamma   90.00148626
_symmetry_Int_Tables_number   1
_chemical_formula_structural   MgZr7(Si4W3)4
_chemical_formula_sum   'Mg1 Zr7 Si16 W12'
_cell_volume   569.08513265
_cell_formula_units_Z   1
loop_
 _symmetry_equiv_pos_site_id
 _symmetry_equiv_pos_as_xyz
  1  'x, y, z'
loop_
 _atom_site_type_symbol
 _atom_site_label
 _atom_site_symmetry_multiplicity
 _atom_site_fract_x
 _atom_site_fract_y
 _atom_site_fract_z
 _atom_site_occupancy
  Mg  Mg0  1  0.983915  0.836853  0.585566  1
  Zr  Zr1  1  0.497199  0.670003  0.592993  1
  Zr  Zr2  1  0.995790  0.829101  0.909846  1
  Zr  Zr3  1  0.506178  0.328364  0.092469  1
  Zr  Zr4  1  0.006644  0.174012  0.407117  1
  Zr  Zr5  1  0.505904  0.328317  0.407978  1
  Zr  Zr6  1  0.005094  0.169654  0.093143  1
  Zr  Zr7  1  0.492973  0.671306  0.907724  1
  Si  Si8  1  0.666422  0.959949  0.457314  1
  Si  Si9  1  0.167567  0.540927  0.043359  1
  Si  Si10  1  0.332926  0.042414  0.957129  1
  Si  Si11  1  0.836003  0.461902  0.544866  1
  Si  Si12  1  0.328104  0.036539  0.543698  1
  Si  Si13  1  0.832467  0.458090  0.957916  1
  Si  Si14  1  0.667194  0.957902  0.042620  1
  Si  Si15  1  0.167723  0.541559  0.457181  1
  Si  Si16  1  0.465470  0.379958  0.750983  1
  Si  Si17  1  0.967542  0.118278  0.748733  1
  Si  Si18  1  0.535000  0.618442  0.249493  1
  Si  Si19  1  0.034918  0.878499  0.251787  1
  Si  Si20  1  0.702910  0.858459  0.748563  1
  Si  Si21  1  0.192377  0.646047  0.746273  1
  Si  Si22  1  0.300850  0.139524  0.249659  1
  Si  Si23  1  0.800451  0.359846  0.251008  1
  W  W24  1  0.664667  0.165204  0.624425  1
  W  W25  1  0.166941  0.337525  0.875515  1
  W  W26  1  0.333416  0.836511  0.123731  1
  W  W27  1  0.831649  0.663174  0.376882  1
  W  W28  1  0.336799  0.835886  0.375052  1
  W  W29  1  0.833710  0.664764  0.124820  1
  W  W30  1  0.667906  0.162280  0.875648  1
  W  W31  1  0.170165  0.335314  0.624883  1
  W  W32  1  0.834258  0.504342  0.750510  1
  W  W33  1  0.334129  0.992613  0.749678  1
  W  W34  1  0.167635  0.489413  0.251429  1
  W  W35  1  0.667102  0.007030  0.250009  1
