# generated using pymatgen
data_HgRu4Pb3O14
_symmetry_space_group_name_H-M   'P 1'
_cell_length_a   7.41471874
_cell_length_b   7.32235769
_cell_length_c   7.41471900
_cell_angle_alpha   59.58186531
_cell_angle_beta   60.00000328
_cell_angle_gamma   59.58186419
_symmetry_Int_Tables_number   1
_chemical_formula_structural   HgRu4Pb3O14
_chemical_formula_sum   'Hg1 Ru4 Pb3 O14'
_cell_volume   282.84690572
_cell_formula_units_Z   1
loop_
 _symmetry_equiv_pos_site_id
 _symmetry_equiv_pos_as_xyz
  1  'x, y, z'
loop_
 _atom_site_type_symbol
 _atom_site_label
 _atom_site_symmetry_multiplicity
 _atom_site_fract_x
 _atom_site_fract_y
 _atom_site_fract_z
 _atom_site_occupancy
  Hg  Hg0  1  0.625000  0.125000  0.625000  1
  Ru  Ru1  1  0.625000  0.125000  0.125000  1
  Ru  Ru2  1  0.125000  0.625000  0.125000  1
  Ru  Ru3  1  0.125000  0.125000  0.625000  1
  Ru  Ru4  1  0.125000  0.125000  0.125000  1
  Pb  Pb5  1  0.625000  0.625000  0.125000  1
  Pb  Pb6  1  0.125000  0.625000  0.625000  1
  Pb  Pb7  1  0.625000  0.625000  0.625000  1
  O  O8  1  0.183806  0.198103  0.809046  1
  O  O9  1  0.198562  0.799811  0.198562  1
  O  O10  1  0.440954  0.051897  0.066194  1
  O  O11  1  0.198562  0.799811  0.803066  1
  O  O12  1  0.051438  0.450189  0.446934  1
  O  O13  1  0.803066  0.799811  0.198562  1
  O  O14  1  0.446934  0.450189  0.051438  1
  O  O15  1  0.509655  0.471035  0.509655  1
  O  O16  1  0.066194  0.051897  0.440954  1
  O  O17  1  0.440954  0.051897  0.440954  1
  O  O18  1  0.051438  0.450189  0.051438  1
  O  O19  1  0.740345  0.778965  0.740345  1
  O  O20  1  0.809046  0.198103  0.809046  1
  O  O21  1  0.809046  0.198103  0.183806  1
