# generated using pymatgen
data_Lu4Hf3TcF28
_symmetry_space_group_name_H-M   'P 1'
_cell_length_a   5.53175717
_cell_length_b   8.84032931
_cell_length_c   11.95695226
_cell_angle_alpha   62.63103509
_cell_angle_beta   90.02552194
_cell_angle_gamma   90.02295570
_symmetry_Int_Tables_number   1
_chemical_formula_structural   Lu4Hf3TcF28
_chemical_formula_sum   'Lu4 Hf3 Tc1 F28'
_cell_volume   519.27392580
_cell_formula_units_Z   1
loop_
 _symmetry_equiv_pos_site_id
 _symmetry_equiv_pos_as_xyz
  1  'x, y, z'
loop_
 _atom_site_type_symbol
 _atom_site_label
 _atom_site_symmetry_multiplicity
 _atom_site_fract_x
 _atom_site_fract_y
 _atom_site_fract_z
 _atom_site_occupancy
  Lu  Lu0  1  0.258051  0.817064  0.263966  1
  Lu  Lu1  1  0.743655  0.184309  0.736052  1
  Lu  Lu2  1  0.756865  0.182753  0.236347  1
  Lu  Lu3  1  0.242857  0.817167  0.761655  1
  Hf  Hf4  1  0.757341  0.725578  0.042570  1
  Hf  Hf5  1  0.243176  0.275051  0.956764  1
  Hf  Hf6  1  0.256818  0.274856  0.457344  1
  Tc  Tc7  1  0.741175  0.726174  0.542941  1
  F  F8  1  0.943045  0.708961  0.414660  1
  F  F9  1  0.050213  0.289515  0.588582  1
  F  F10  1  0.449526  0.290104  0.088359  1
  F  F11  1  0.550424  0.710304  0.911202  1
  F  F12  1  0.466089  0.730458  0.141132  1
  F  F13  1  0.534247  0.269894  0.858520  1
  F  F14  1  0.965451  0.268467  0.359292  1
  F  F15  1  0.029340  0.729134  0.638445  1
  F  F16  1  0.958618  0.745246  0.176590  1
  F  F17  1  0.041692  0.254712  0.823867  1
  F  F18  1  0.459022  0.254044  0.324446  1
  F  F19  1  0.544317  0.743864  0.674494  1
  F  F20  1  0.774362  0.471770  0.142534  1
  F  F21  1  0.225624  0.528775  0.856831  1
  F  F22  1  0.272963  0.528774  0.357853  1
  F  F23  1  0.727677  0.477220  0.641164  1
  F  F24  1  0.936574  0.275910  0.049140  1
  F  F25  1  0.063688  0.724372  0.950442  1
  F  F26  1  0.442237  0.723230  0.452428  1
  F  F27  1  0.563491  0.276059  0.549270  1
  F  F28  1  0.739735  0.975295  0.445879  1
  F  F29  1  0.261413  0.020646  0.557371  1
  F  F30  1  0.238475  0.020826  0.057310  1
  F  F31  1  0.761564  0.979558  0.942711  1
  F  F32  1  0.582885  0.969877  0.231799  1
  F  F33  1  0.416925  0.030037  0.767646  1
  F  F34  1  0.083212  0.030310  0.267678  1
  F  F35  1  0.917252  0.969688  0.732717  1
