# generated using pymatgen
data_NdDyMg3Ni9As7
_symmetry_space_group_name_H-M   'P 1'
_cell_length_a   9.59028500
_cell_length_b   9.59028537
_cell_length_c   3.88343300
_cell_angle_alpha   90.00000000
_cell_angle_beta   90.00000000
_cell_angle_gamma   120.00000907
_symmetry_Int_Tables_number   1
_chemical_formula_structural   NdDyMg3Ni9As7
_chemical_formula_sum   'Nd1 Dy1 Mg3 Ni9 As7'
_cell_volume   309.32103350
_cell_formula_units_Z   1
loop_
 _symmetry_equiv_pos_site_id
 _symmetry_equiv_pos_as_xyz
  1  'x, y, z'
loop_
 _atom_site_type_symbol
 _atom_site_label
 _atom_site_symmetry_multiplicity
 _atom_site_fract_x
 _atom_site_fract_y
 _atom_site_fract_z
 _atom_site_occupancy
  Nd  Nd0  1  0.333333  0.666667  0.500000  1
  Dy  Dy1  1  0.666667  0.333333  0.000000  1
  Mg  Mg2  1  0.113088  0.890633  0.500000  1
  Mg  Mg3  1  0.109367  0.222454  0.500000  1
  Mg  Mg4  1  0.777546  0.886912  0.500000  1
  Ni  Ni5  1  0.362913  0.939284  0.000000  1
  Ni  Ni6  1  0.060716  0.423630  0.000000  1
  Ni  Ni7  1  0.576370  0.637087  0.000000  1
  Ni  Ni8  1  0.869043  0.710659  0.000000  1
  Ni  Ni9  1  0.289341  0.158385  0.000000  1
  Ni  Ni10  1  0.841615  0.130957  0.000000  1
  Ni  Ni11  1  0.949431  0.562752  0.500000  1
  Ni  Ni12  1  0.437248  0.386678  0.500000  1
  Ni  Ni13  1  0.613322  0.050569  0.500000  1
  As  As14  1  0.105424  0.688412  0.000000  1
  As  As15  1  0.311588  0.417012  0.000000  1
  As  As16  1  0.582988  0.894576  0.000000  1
  As  As17  1  0.707887  0.582163  0.500000  1
  As  As18  1  0.417837  0.125725  0.500000  1
  As  As19  1  0.874275  0.292113  0.500000  1
  As  As20  1  0.000000  0.000000  0.000000  1
