# generated using pymatgen
data_Ho2ZnGa3Au2
_symmetry_space_group_name_H-M   'P 1'
_cell_length_a   5.58182786
_cell_length_b   5.58182770
_cell_length_c   6.67407027
_cell_angle_alpha   89.86618907
_cell_angle_beta   90.13381279
_cell_angle_gamma   132.36216206
_symmetry_Int_Tables_number   1
_chemical_formula_structural   Ho2ZnGa3Au2
_chemical_formula_sum   'Ho2 Zn1 Ga3 Au2'
_cell_volume   153.64844803
_cell_formula_units_Z   1
loop_
 _symmetry_equiv_pos_site_id
 _symmetry_equiv_pos_as_xyz
  1  'x, y, z'
loop_
 _atom_site_type_symbol
 _atom_site_label
 _atom_site_symmetry_multiplicity
 _atom_site_fract_x
 _atom_site_fract_y
 _atom_site_fract_z
 _atom_site_occupancy
  Ho  Ho0  1  0.092564  0.907435  0.249524  1
  Ho  Ho1  1  0.908031  0.091968  0.751552  1
  Zn  Zn2  1  0.378118  0.621880  0.053229  1
  Ga  Ga3  1  0.377852  0.622146  0.444840  1
  Ga  Ga4  1  0.620727  0.379271  0.551313  1
  Ga  Ga5  1  0.621410  0.378588  0.949785  1
  Au  Au6  1  0.800512  0.199486  0.251669  1
  Au  Au7  1  0.200779  0.799219  0.748085  1
