# generated using pymatgen
data_Ce2Ga3Ru2
_symmetry_space_group_name_H-M   'P 1'
_cell_length_a   4.47358207
_cell_length_b   7.14784313
_cell_length_c   16.82787700
_cell_angle_alpha   90.06157749
_cell_angle_beta   90.01007957
_cell_angle_gamma   90.00078273
_symmetry_Int_Tables_number   1
_chemical_formula_structural   Ce2Ga3Ru2
_chemical_formula_sum   'Ce8 Ga12 Ru8'
_cell_volume   538.09566467
_cell_formula_units_Z   4
loop_
 _symmetry_equiv_pos_site_id
 _symmetry_equiv_pos_as_xyz
  1  'x, y, z'
loop_
 _atom_site_type_symbol
 _atom_site_label
 _atom_site_symmetry_multiplicity
 _atom_site_fract_x
 _atom_site_fract_y
 _atom_site_fract_z
 _atom_site_occupancy
  Ce  Ce0  1  0.750418  0.059093  0.145831  1
  Ce  Ce1  1  0.249805  0.558692  0.354241  1
  Ce  Ce2  1  0.250186  0.450540  0.924247  1
  Ce  Ce3  1  0.749860  0.951429  0.575770  1
  Ce  Ce4  1  0.249811  0.941287  0.853912  1
  Ce  Ce5  1  0.750250  0.441216  0.645923  1
  Ce  Ce6  1  0.249609  0.048222  0.424562  1
  Ce  Ce7  1  0.750214  0.549091  0.075857  1
  Ga  Ga8  1  0.250341  0.763721  0.192262  1
  Ga  Ga9  1  0.750106  0.129864  0.967115  1
  Ga  Ga10  1  0.250066  0.629918  0.533367  1
  Ga  Ga11  1  0.250247  0.363262  0.185675  1
  Ga  Ga12  1  0.749796  0.262232  0.307514  1
  Ga  Ga13  1  0.250279  0.135780  0.685642  1
  Ga  Ga14  1  0.749979  0.369826  0.467035  1
  Ga  Ga15  1  0.749886  0.635556  0.814174  1
  Ga  Ga16  1  0.749754  0.237551  0.807505  1
  Ga  Ga17  1  0.749898  0.864537  0.313955  1
  Ga  Ga18  1  0.249906  0.870603  0.033443  1
  Ga  Ga19  1  0.250007  0.737386  0.692161  1
  Ru  Ru20  1  0.249505  0.255236  0.535784  1
  Ru  Ru21  1  0.250069  0.435069  0.782144  1
  Ru  Ru22  1  0.250102  0.244989  0.035675  1
  Ru  Ru23  1  0.249635  0.065561  0.281214  1
  Ru  Ru24  1  0.749906  0.754697  0.964684  1
  Ru  Ru25  1  0.750216  0.934452  0.717752  1
  Ru  Ru26  1  0.750395  0.565106  0.217870  1
  Ru  Ru27  1  0.749755  0.745085  0.464684  1
