# generated using pymatgen
data_Ba2Co3TcAs4
_symmetry_space_group_name_H-M   'P 1'
_cell_length_a   5.70009800
_cell_length_b   6.98110214
_cell_length_c   5.69790267
_cell_angle_alpha   65.92498331
_cell_angle_beta   90.00004021
_cell_angle_gamma   90.00004105
_symmetry_Int_Tables_number   1
_chemical_formula_structural   Ba2Co3TcAs4
_chemical_formula_sum   'Ba2 Co3 Tc1 As4'
_cell_volume   207.01313083
_cell_formula_units_Z   1
loop_
 _symmetry_equiv_pos_site_id
 _symmetry_equiv_pos_as_xyz
  1  'x, y, z'
loop_
 _atom_site_type_symbol
 _atom_site_label
 _atom_site_symmetry_multiplicity
 _atom_site_fract_x
 _atom_site_fract_y
 _atom_site_fract_z
 _atom_site_occupancy
  Ba  Ba0  1  0.998792  0.000001  0.999999  1
  Ba  Ba1  1  0.501418  0.999999  0.500000  1
  Co  Co2  1  0.250152  0.499999  0.000000  1
  Co  Co3  1  0.749919  0.500001  0.000000  1
  Co  Co4  1  0.750043  0.499999  0.500000  1
  Tc  Tc5  1  0.249963  0.500000  0.500002  1
  As  As6  1  0.506031  0.695619  0.146339  1
  As  As7  1  0.993824  0.695838  0.658415  1
  As  As8  1  0.993825  0.304161  0.341584  1
  As  As9  1  0.506033  0.304380  0.853661  1
