# generated using pymatgen
data_HoEr2Tl(SbO4)4
_symmetry_space_group_name_H-M   'P 1'
_cell_length_a   5.37302701
_cell_length_b   7.70195177
_cell_length_c   7.54936021
_cell_angle_alpha   80.69528835
_cell_angle_beta   91.08656817
_cell_angle_gamma   91.60712744
_symmetry_Int_Tables_number   1
_chemical_formula_structural   HoEr2Tl(SbO4)4
_chemical_formula_sum   'Ho1 Er2 Tl1 Sb4 O16'
_cell_volume   308.14877584
_cell_formula_units_Z   1
loop_
 _symmetry_equiv_pos_site_id
 _symmetry_equiv_pos_as_xyz
  1  'x, y, z'
loop_
 _atom_site_type_symbol
 _atom_site_label
 _atom_site_symmetry_multiplicity
 _atom_site_fract_x
 _atom_site_fract_y
 _atom_site_fract_z
 _atom_site_occupancy
  Ho  Ho0  1  0.735695  0.863089  0.381934  1
  Er  Er1  1  0.215321  0.155017  0.111049  1
  Er  Er2  1  0.785611  0.843219  0.890385  1
  Tl  Tl3  1  0.259969  0.138437  0.620211  1
  Sb  Sb4  1  0.240239  0.662463  0.193974  1
  Sb  Sb5  1  0.759842  0.339194  0.805927  1
  Sb  Sb6  1  0.729244  0.335839  0.307362  1
  Sb  Sb7  1  0.268353  0.666683  0.691357  1
  O  O8  1  0.082309  0.438541  0.692761  1
  O  O9  1  0.913649  0.564702  0.308947  1
  O  O10  1  0.610820  0.327294  0.558351  1
  O  O11  1  0.389872  0.676273  0.440076  1
  O  O12  1  0.880607  0.331504  0.062690  1
  O  O13  1  0.123160  0.671663  0.938702  1
  O  O14  1  0.400957  0.429701  0.195531  1
  O  O15  1  0.594324  0.570770  0.806727  1
  O  O16  1  0.041296  0.886444  0.173288  1
  O  O17  1  0.955724  0.113657  0.832233  1
  O  O18  1  0.532059  0.111385  0.305446  1
  O  O19  1  0.484226  0.890855  0.676550  1
  O  O20  1  0.468549  0.188502  0.883887  1
  O  O21  1  0.535160  0.808905  0.118774  1
  O  O22  1  0.007289  0.166914  0.383786  1
  O  O23  1  0.985726  0.818952  0.620050  1
