# generated using pymatgen
data_PrTh2In3Pt2Rh
_symmetry_space_group_name_H-M   'P 1'
_cell_length_a   7.76717400
_cell_length_b   7.74300629
_cell_length_c   4.06836800
_cell_angle_alpha   90.00000000
_cell_angle_beta   90.00000000
_cell_angle_gamma   120.10330331
_symmetry_Int_Tables_number   1
_chemical_formula_structural   PrTh2In3Pt2Rh
_chemical_formula_sum   'Pr1 Th2 In3 Pt2 Rh1'
_cell_volume   211.67544719
_cell_formula_units_Z   1
loop_
 _symmetry_equiv_pos_site_id
 _symmetry_equiv_pos_as_xyz
  1  'x, y, z'
loop_
 _atom_site_type_symbol
 _atom_site_label
 _atom_site_symmetry_multiplicity
 _atom_site_fract_x
 _atom_site_fract_y
 _atom_site_fract_z
 _atom_site_occupancy
  Pr  Pr0  1  0.589850  0.000000  0.500000  1
  Th  Th1  1  0.995183  0.588538  0.500000  1
  Th  Th2  1  0.406646  0.411462  0.500000  1
  In  In3  1  0.752312  0.761953  0.000000  1
  In  In4  1  0.990358  0.238047  0.000000  1
  In  In5  1  0.258040  0.000000  0.000000  1
  Pt  Pt6  1  0.318680  0.649474  0.000000  1
  Pt  Pt7  1  0.669207  0.350526  0.000000  1
  Rh  Rh8  1  0.019725  0.000000  0.500000  1
