# generated using pymatgen
data_DyErCBr
_symmetry_space_group_name_H-M   'P 1'
_cell_length_a   3.66897300
_cell_length_b   3.66897204
_cell_length_c   14.05583700
_cell_angle_alpha   90.00000000
_cell_angle_beta   90.00000000
_cell_angle_gamma   119.99999967
_symmetry_Int_Tables_number   1
_chemical_formula_structural   DyErCBr
_chemical_formula_sum   'Dy2 Er2 C2 Br2'
_cell_volume   163.86124975
_cell_formula_units_Z   2
loop_
 _symmetry_equiv_pos_site_id
 _symmetry_equiv_pos_as_xyz
  1  'x, y, z'
loop_
 _atom_site_type_symbol
 _atom_site_label
 _atom_site_symmetry_multiplicity
 _atom_site_fract_x
 _atom_site_fract_y
 _atom_site_fract_z
 _atom_site_occupancy
  Dy  Dy0  1  0.666667  0.333333  0.910139  1
  Dy  Dy1  1  0.333333  0.666667  0.410139  1
  Er  Er2  1  0.333333  0.666667  0.089581  1
  Er  Er3  1  0.666667  0.333333  0.589581  1
  C  C4  1  0.000000  0.000000  0.002097  1
  C  C5  1  0.000000  0.000000  0.502097  1
  Br  Br6  1  0.333333  0.666667  0.748182  1
  Br  Br7  1  0.666667  0.333333  0.248182  1
