# generated using pymatgen
data_Sr5Si12Ir19
_symmetry_space_group_name_H-M   'P 1'
_cell_length_a   12.94595000
_cell_length_b   12.94595087
_cell_length_c   4.06510900
_cell_angle_alpha   90.00000000
_cell_angle_beta   90.00000000
_cell_angle_gamma   120.00000289
_symmetry_Int_Tables_number   1
_chemical_formula_structural   Sr5Si12Ir19
_chemical_formula_sum   'Sr5 Si12 Ir19'
_cell_volume   590.02538083
_cell_formula_units_Z   1
loop_
 _symmetry_equiv_pos_site_id
 _symmetry_equiv_pos_as_xyz
  1  'x, y, z'
loop_
 _atom_site_type_symbol
 _atom_site_label
 _atom_site_symmetry_multiplicity
 _atom_site_fract_x
 _atom_site_fract_y
 _atom_site_fract_z
 _atom_site_occupancy
  Sr  Sr0  1  0.000000  0.818340  0.500000  1
  Sr  Sr1  1  0.181660  0.181660  0.500000  1
  Sr  Sr2  1  0.818340  0.000000  0.500000  1
  Sr  Sr3  1  0.333333  0.666667  0.000000  1
  Sr  Sr4  1  0.666667  0.333333  0.000000  1
  Si  Si5  1  0.000000  0.186497  0.000000  1
  Si  Si6  1  0.813503  0.813503  0.000000  1
  Si  Si7  1  0.186497  0.000000  0.000000  1
  Si  Si8  1  0.521047  0.687949  0.500000  1
  Si  Si9  1  0.312051  0.833098  0.500000  1
  Si  Si10  1  0.166902  0.478953  0.500000  1
  Si  Si11  1  0.478953  0.166902  0.500000  1
  Si  Si12  1  0.687949  0.521047  0.500000  1
  Si  Si13  1  0.833098  0.312051  0.500000  1
  Si  Si14  1  0.000000  0.628760  0.000000  1
  Si  Si15  1  0.371240  0.371240  0.000000  1
  Si  Si16  1  0.628760  0.000000  0.000000  1
  Ir  Ir17  1  0.000000  0.286501  0.500000  1
  Ir  Ir18  1  0.713499  0.713499  0.500000  1
  Ir  Ir19  1  0.286501  0.000000  0.500000  1
  Ir  Ir20  1  0.619685  0.803400  0.000000  1
  Ir  Ir21  1  0.196600  0.816285  0.000000  1
  Ir  Ir22  1  0.183715  0.380315  0.000000  1
  Ir  Ir23  1  0.380315  0.183715  0.000000  1
  Ir  Ir24  1  0.803400  0.619685  0.000000  1
  Ir  Ir25  1  0.816285  0.196600  0.000000  1
  Ir  Ir26  1  0.514354  0.875709  0.500000  1
  Ir  Ir27  1  0.124291  0.638645  0.500000  1
  Ir  Ir28  1  0.361355  0.485646  0.500000  1
  Ir  Ir29  1  0.485646  0.361355  0.500000  1
  Ir  Ir30  1  0.875709  0.514354  0.500000  1
  Ir  Ir31  1  0.638645  0.124291  0.500000  1
  Ir  Ir32  1  0.000000  0.000000  0.000000  1
  Ir  Ir33  1  0.000000  0.447303  0.000000  1
  Ir  Ir34  1  0.552697  0.552697  0.000000  1
  Ir  Ir35  1  0.447303  0.000000  0.000000  1
