# generated using pymatgen
data_DyPa2(AlPt)3
_symmetry_space_group_name_H-M   'P 1'
_cell_length_a   7.10822688
_cell_length_b   7.09395822
_cell_length_c   4.12619200
_cell_angle_alpha   90.00000000
_cell_angle_beta   90.00000000
_cell_angle_gamma   119.93361558
_symmetry_Int_Tables_number   1
_chemical_formula_structural   DyPa2(AlPt)3
_chemical_formula_sum   'Dy1 Pa2 Al3 Pt3'
_cell_volume   180.31011794
_cell_formula_units_Z   1
loop_
 _symmetry_equiv_pos_site_id
 _symmetry_equiv_pos_as_xyz
  1  'x, y, z'
loop_
 _atom_site_type_symbol
 _atom_site_label
 _atom_site_symmetry_multiplicity
 _atom_site_fract_x
 _atom_site_fract_y
 _atom_site_fract_z
 _atom_site_occupancy
  Dy  Dy0  1  0.000000  0.583960  0.500000  1
  Pa  Pa1  1  0.422799  0.420804  0.500000  1
  Pa  Pa2  1  0.577201  0.998004  0.500000  1
  Al  Al3  1  0.766802  0.760538  0.000000  1
  Al  Al4  1  0.233198  0.993738  0.000000  1
  Al  Al5  1  0.000000  0.243977  0.000000  1
  Pt  Pt6  1  0.652515  0.321194  0.000000  1
  Pt  Pt7  1  0.347485  0.668680  0.000000  1
  Pt  Pt8  1  0.000000  0.009103  0.500000  1
