# generated using pymatgen
data_Nb12Al4FeOs7N4
_symmetry_space_group_name_H-M   'P 1'
_cell_length_a   8.28044944
_cell_length_b   8.28044929
_cell_length_c   8.28044994
_cell_angle_alpha   60.06390510
_cell_angle_beta   60.06390830
_cell_angle_gamma   60.06390322
_symmetry_Int_Tables_number   1
_chemical_formula_structural   Nb12Al4FeOs7N4
_chemical_formula_sum   'Nb12 Al4 Fe1 Os7 N4'
_cell_volume   402.04557730
_cell_formula_units_Z   1
loop_
 _symmetry_equiv_pos_site_id
 _symmetry_equiv_pos_as_xyz
  1  'x, y, z'
loop_
 _atom_site_type_symbol
 _atom_site_label
 _atom_site_symmetry_multiplicity
 _atom_site_fract_x
 _atom_site_fract_y
 _atom_site_fract_z
 _atom_site_occupancy
  Nb  Nb0  1  0.804850  0.804850  0.192671  1
  Nb  Nb1  1  0.196112  0.196112  0.802965  1
  Nb  Nb2  1  0.804850  0.192671  0.804850  1
  Nb  Nb3  1  0.196112  0.802965  0.196112  1
  Nb  Nb4  1  0.192671  0.804850  0.804850  1
  Nb  Nb5  1  0.802965  0.196112  0.196112  1
  Nb  Nb6  1  0.445563  0.445563  0.054238  1
  Nb  Nb7  1  0.054035  0.054035  0.444459  1
  Nb  Nb8  1  0.445563  0.054238  0.445563  1
  Nb  Nb9  1  0.054035  0.444459  0.054035  1
  Nb  Nb10  1  0.054238  0.445563  0.445563  1
  Nb  Nb11  1  0.444459  0.054035  0.054035  1
  Al  Al12  1  0.120258  0.629893  0.629893  1
  Al  Al13  1  0.629893  0.120258  0.629893  1
  Al  Al14  1  0.629893  0.629893  0.120258  1
  Al  Al15  1  0.625199  0.625199  0.625199  1
  Fe  Fe16  1  0.833163  0.833163  0.833163  1
  Os  Os17  1  0.751499  0.415953  0.415953  1
  Os  Os18  1  0.415953  0.751499  0.415953  1
  Os  Os19  1  0.415953  0.415953  0.751499  1
  Os  Os20  1  0.416448  0.416448  0.416448  1
  Os  Os21  1  0.499720  0.834023  0.834023  1
  Os  Os22  1  0.834023  0.499720  0.834023  1
  Os  Os23  1  0.834023  0.834023  0.499720  1
  N  N24  1  0.624935  0.124353  0.124353  1
  N  N25  1  0.124353  0.624935  0.124353  1
  N  N26  1  0.124353  0.124353  0.624935  1
  N  N27  1  0.124878  0.124878  0.124878  1
