# generated using pymatgen
data_Pr2Dy3Sn4
_symmetry_space_group_name_H-M   'P 1'
_cell_length_a   8.13563200
_cell_length_b   8.32433300
_cell_length_c   15.71344200
_cell_angle_alpha   90.00000000
_cell_angle_beta   90.00000000
_cell_angle_gamma   90.00000000
_symmetry_Int_Tables_number   1
_chemical_formula_structural   Pr2Dy3Sn4
_chemical_formula_sum   'Pr8 Dy12 Sn16'
_cell_volume   1064.17258806
_cell_formula_units_Z   4
loop_
 _symmetry_equiv_pos_site_id
 _symmetry_equiv_pos_as_xyz
  1  'x, y, z'
loop_
 _atom_site_type_symbol
 _atom_site_label
 _atom_site_symmetry_multiplicity
 _atom_site_fract_x
 _atom_site_fract_y
 _atom_site_fract_z
 _atom_site_occupancy
  Pr  Pr0  1  0.514304  0.321792  0.903073  1
  Pr  Pr1  1  0.014304  0.178208  0.596927  1
  Pr  Pr2  1  0.485696  0.678208  0.403073  1
  Pr  Pr3  1  0.985696  0.821792  0.096927  1
  Pr  Pr4  1  0.485696  0.678208  0.096927  1
  Pr  Pr5  1  0.985696  0.821792  0.403073  1
  Pr  Pr6  1  0.514304  0.321792  0.596927  1
  Pr  Pr7  1  0.014304  0.178208  0.903073  1
  Dy  Dy8  1  0.361164  0.836157  0.877109  1
  Dy  Dy9  1  0.861164  0.663843  0.622891  1
  Dy  Dy10  1  0.638836  0.163843  0.377109  1
  Dy  Dy11  1  0.138836  0.336157  0.122891  1
  Dy  Dy12  1  0.638836  0.163843  0.122891  1
  Dy  Dy13  1  0.138836  0.336157  0.377109  1
  Dy  Dy14  1  0.361164  0.836157  0.622891  1
  Dy  Dy15  1  0.861164  0.663843  0.877109  1
  Dy  Dy16  1  0.195747  0.502405  0.750000  1
  Dy  Dy17  1  0.695747  0.997595  0.750000  1
  Dy  Dy18  1  0.804253  0.497595  0.250000  1
  Dy  Dy19  1  0.304253  0.002405  0.250000  1
  Sn  Sn20  1  0.303477  0.041195  0.042033  1
  Sn  Sn21  1  0.803477  0.458805  0.457967  1
  Sn  Sn22  1  0.696523  0.958805  0.542033  1
  Sn  Sn23  1  0.196523  0.541195  0.957967  1
  Sn  Sn24  1  0.696523  0.958805  0.957967  1
  Sn  Sn25  1  0.196523  0.541195  0.542033  1
  Sn  Sn26  1  0.303477  0.041195  0.457967  1
  Sn  Sn27  1  0.803477  0.458805  0.042033  1
  Sn  Sn28  1  0.560695  0.624439  0.750000  1
  Sn  Sn29  1  0.060695  0.875561  0.750000  1
  Sn  Sn30  1  0.439305  0.375561  0.250000  1
  Sn  Sn31  1  0.939305  0.124439  0.250000  1
  Sn  Sn32  1  0.324247  0.141714  0.750000  1
  Sn  Sn33  1  0.824247  0.358286  0.750000  1
  Sn  Sn34  1  0.675753  0.858286  0.250000  1
  Sn  Sn35  1  0.175753  0.641714  0.250000  1
