# generated using pymatgen
data_Tm2CrP4Rh5
_symmetry_space_group_name_H-M   'P 1'
_cell_length_a   3.87484000
_cell_length_b   11.19772100
_cell_length_c   12.68095700
_cell_angle_alpha   90.00000000
_cell_angle_beta   90.00000000
_cell_angle_gamma   90.00000000
_symmetry_Int_Tables_number   1
_chemical_formula_structural   Tm2CrP4Rh5
_chemical_formula_sum   'Tm6 Cr3 P12 Rh15'
_cell_volume   550.21882703
_cell_formula_units_Z   3
loop_
 _symmetry_equiv_pos_site_id
 _symmetry_equiv_pos_as_xyz
  1  'x, y, z'
loop_
 _atom_site_type_symbol
 _atom_site_label
 _atom_site_symmetry_multiplicity
 _atom_site_fract_x
 _atom_site_fract_y
 _atom_site_fract_z
 _atom_site_occupancy
  Tm  Tm0  1  0.000000  0.500000  0.519115  1
  Tm  Tm1  1  0.500000  0.000000  0.480303  1
  Tm  Tm2  1  0.500000  0.814852  0.202406  1
  Tm  Tm3  1  0.500000  0.185148  0.202406  1
  Tm  Tm4  1  0.000000  0.680369  0.796668  1
  Tm  Tm5  1  0.000000  0.319631  0.796668  1
  Cr  Cr6  1  0.500000  0.500000  0.160513  1
  Cr  Cr7  1  0.000000  0.000000  0.839432  1
  Cr  Cr8  1  0.000000  0.500000  0.987876  1
  P  P9  1  0.500000  0.500000  0.878139  1
  P  P10  1  0.000000  0.000000  0.122624  1
  P  P11  1  0.500000  0.500000  0.345945  1
  P  P12  1  0.000000  0.000000  0.654419  1
  P  P13  1  0.500000  0.313885  0.619275  1
  P  P14  1  0.500000  0.686115  0.619275  1
  P  P15  1  0.000000  0.184930  0.381631  1
  P  P16  1  0.000000  0.815070  0.381631  1
  P  P17  1  0.500000  0.846569  0.890913  1
  P  P18  1  0.500000  0.153431  0.890913  1
  P  P19  1  0.000000  0.648015  0.107835  1
  P  P20  1  0.000000  0.351985  0.107835  1
  Rh  Rh21  1  0.500000  0.500000  0.696570  1
  Rh  Rh22  1  0.000000  0.000000  0.301067  1
  Rh  Rh23  1  0.500000  0.000000  0.015251  1
  Rh  Rh24  1  0.500000  0.333760  0.987674  1
  Rh  Rh25  1  0.500000  0.666240  0.987674  1
  Rh  Rh26  1  0.000000  0.167526  0.010629  1
  Rh  Rh27  1  0.000000  0.832474  0.010629  1
  Rh  Rh28  1  0.500000  0.293865  0.431048  1
  Rh  Rh29  1  0.500000  0.706135  0.431048  1
  Rh  Rh30  1  0.000000  0.206054  0.569791  1
  Rh  Rh31  1  0.000000  0.793946  0.569791  1
  Rh  Rh32  1  0.500000  0.874790  0.712234  1
  Rh  Rh33  1  0.500000  0.125210  0.712234  1
  Rh  Rh34  1  0.000000  0.625824  0.289270  1
  Rh  Rh35  1  0.000000  0.374176  0.289270  1
