# generated using pymatgen
data_Dy3Er2SnBi2
_symmetry_space_group_name_H-M   'P 1'
_cell_length_a   9.09305821
_cell_length_b   9.06486320
_cell_length_c   6.41476400
_cell_angle_alpha   90.00000000
_cell_angle_beta   90.00000000
_cell_angle_gamma   119.89747850
_symmetry_Int_Tables_number   1
_chemical_formula_structural   Dy3Er2SnBi2
_chemical_formula_sum   'Dy6 Er4 Sn2 Bi4'
_cell_volume   458.38486832
_cell_formula_units_Z   2
loop_
 _symmetry_equiv_pos_site_id
 _symmetry_equiv_pos_as_xyz
  1  'x, y, z'
loop_
 _atom_site_type_symbol
 _atom_site_label
 _atom_site_symmetry_multiplicity
 _atom_site_fract_x
 _atom_site_fract_y
 _atom_site_fract_z
 _atom_site_occupancy
  Dy  Dy0  1  0.994776  0.758342  0.750000  1
  Dy  Dy1  1  0.994776  0.236433  0.250000  1
  Dy  Dy2  1  0.756490  0.761463  0.250000  1
  Dy  Dy3  1  0.756490  0.995026  0.750000  1
  Dy  Dy4  1  0.245119  0.245225  0.750000  1
  Dy  Dy5  1  0.245119  0.999894  0.250000  1
  Er  Er6  1  0.340951  0.670476  0.500000  1
  Er  Er7  1  0.664880  0.332440  0.000000  1
  Er  Er8  1  0.664880  0.332440  0.500000  1
  Er  Er9  1  0.340951  0.670476  0.000000  1
  Sn  Sn10  1  0.606994  0.605123  0.750000  1
  Sn  Sn11  1  0.606994  0.001873  0.250000  1
  Bi  Bi12  1  0.389635  0.998983  0.750000  1
  Bi  Bi13  1  0.389635  0.390652  0.250000  1
  Bi  Bi14  1  0.001154  0.608660  0.250000  1
  Bi  Bi15  1  0.001154  0.392494  0.750000  1
