# generated using pymatgen
data_La3Yb7PrIn9Pd4
_symmetry_space_group_name_H-M   'P 1'
_cell_length_a   13.49475891
_cell_length_b   13.49476130
_cell_length_c   3.80028800
_cell_angle_alpha   90.00000000
_cell_angle_beta   90.00000000
_cell_angle_gamma   111.98414529
_symmetry_Int_Tables_number   1
_chemical_formula_structural   La3Yb7PrIn9Pd4
_chemical_formula_sum   'La3 Yb7 Pr1 In9 Pd4'
_cell_volume   641.74315211
_cell_formula_units_Z   1
loop_
 _symmetry_equiv_pos_site_id
 _symmetry_equiv_pos_as_xyz
  1  'x, y, z'
loop_
 _atom_site_type_symbol
 _atom_site_label
 _atom_site_symmetry_multiplicity
 _atom_site_fract_x
 _atom_site_fract_y
 _atom_site_fract_z
 _atom_site_occupancy
  La  La0  1  0.625095  0.374902  0.000000  1
  La  La1  1  0.309335  0.311939  0.000000  1
  La  La2  1  0.688060  0.690666  0.000000  1
  Yb  Yb3  1  0.414921  0.067659  0.000000  1
  Yb  Yb4  1  0.583783  0.929536  0.000000  1
  Yb  Yb5  1  0.070463  0.416217  0.000000  1
  Yb  Yb6  1  0.932341  0.585081  0.000000  1
  Yb  Yb7  1  0.161639  0.838361  0.000000  1
  Yb  Yb8  1  0.838295  0.161703  0.000000  1
  Yb  Yb9  1  0.373645  0.626356  0.000000  1
  Pr  Pr10  1  0.000313  0.999686  0.000000  1
  In  In11  1  0.367764  0.834138  0.500000  1
  In  In12  1  0.631875  0.160928  0.500000  1
  In  In13  1  0.839073  0.368125  0.500000  1
  In  In14  1  0.165860  0.632235  0.500000  1
  In  In15  1  0.218929  0.073642  0.500000  1
  In  In16  1  0.780592  0.924212  0.500000  1
  In  In17  1  0.075787  0.219406  0.500000  1
  In  In18  1  0.926357  0.781069  0.500000  1
  In  In19  1  0.495683  0.504317  0.500000  1
  Pd  Pd20  1  0.446324  0.239732  0.500000  1
  Pd  Pd21  1  0.554074  0.760480  0.500000  1
  Pd  Pd22  1  0.239525  0.445928  0.500000  1
  Pd  Pd23  1  0.760271  0.553679  0.500000  1
