# generated using pymatgen
data_Tm16Sc4(HgBi3)3
_symmetry_space_group_name_H-M   'P 1'
_cell_length_a   8.03430579
_cell_length_b   9.29482200
_cell_length_c   11.73392882
_cell_angle_alpha   90.00000000
_cell_angle_beta   89.81470311
_cell_angle_gamma   90.00000000
_symmetry_Int_Tables_number   1
_chemical_formula_structural   Tm16Sc4(HgBi3)3
_chemical_formula_sum   'Tm16 Sc4 Hg3 Bi9'
_cell_volume   876.25520885
_cell_formula_units_Z   1
loop_
 _symmetry_equiv_pos_site_id
 _symmetry_equiv_pos_as_xyz
  1  'x, y, z'
loop_
 _atom_site_type_symbol
 _atom_site_label
 _atom_site_symmetry_multiplicity
 _atom_site_fract_x
 _atom_site_fract_y
 _atom_site_fract_z
 _atom_site_occupancy
  Tm  Tm0  1  0.346739  0.250000  0.290804  1
  Tm  Tm1  1  0.655880  0.750000  0.706920  1
  Tm  Tm2  1  0.146829  0.750000  0.792235  1
  Tm  Tm3  1  0.847030  0.250000  0.215318  1
  Tm  Tm4  1  0.194588  0.250000  0.777235  1
  Tm  Tm5  1  0.816018  0.750000  0.216265  1
  Tm  Tm6  1  0.317725  0.750000  0.283538  1
  Tm  Tm7  1  0.681443  0.250000  0.713740  1
  Tm  Tm8  1  0.196942  0.055417  0.059641  1
  Tm  Tm9  1  0.806149  0.930400  0.944123  1
  Tm  Tm10  1  0.308362  0.939615  0.556863  1
  Tm  Tm11  1  0.806149  0.569600  0.944123  1
  Tm  Tm12  1  0.690737  0.060967  0.445178  1
  Tm  Tm13  1  0.196942  0.444583  0.059641  1
  Tm  Tm14  1  0.690737  0.439033  0.445178  1
  Tm  Tm15  1  0.308362  0.560385  0.556863  1
  Sc  Sc16  1  0.031696  0.250000  0.508862  1
  Sc  Sc17  1  0.966283  0.750000  0.490976  1
  Sc  Sc18  1  0.465656  0.750000  0.007934  1
  Sc  Sc19  1  0.522166  0.250000  0.990113  1
  Hg  Hg20  1  0.401610  0.250000  0.539494  1
  Hg  Hg21  1  0.595467  0.750000  0.458524  1
  Hg  Hg22  1  0.096376  0.750000  0.042730  1
  Bi  Bi23  1  0.904266  0.250000  0.954900  1
  Bi  Bi24  1  0.057662  0.001181  0.326143  1
  Bi  Bi25  1  0.942298  0.999409  0.673319  1
  Bi  Bi26  1  0.443444  0.997947  0.826419  1
  Bi  Bi27  1  0.942298  0.500591  0.673319  1
  Bi  Bi28  1  0.559520  0.002126  0.173520  1
  Bi  Bi29  1  0.057662  0.498819  0.326143  1
  Bi  Bi30  1  0.559520  0.497874  0.173520  1
  Bi  Bi31  1  0.443444  0.502053  0.826419  1
