# generated using pymatgen
data_Eu3Ho2P12Ir10Ru9
_symmetry_space_group_name_H-M   'P 1'
_cell_length_a   12.63647100
_cell_length_b   12.63647134
_cell_length_c   4.00762400
_cell_angle_alpha   90.00000000
_cell_angle_beta   90.00000000
_cell_angle_gamma   120.00000174
_symmetry_Int_Tables_number   1
_chemical_formula_structural   Eu3Ho2P12Ir10Ru9
_chemical_formula_sum   'Eu3 Ho2 P12 Ir10 Ru9'
_cell_volume   554.20343653
_cell_formula_units_Z   1
loop_
 _symmetry_equiv_pos_site_id
 _symmetry_equiv_pos_as_xyz
  1  'x, y, z'
loop_
 _atom_site_type_symbol
 _atom_site_label
 _atom_site_symmetry_multiplicity
 _atom_site_fract_x
 _atom_site_fract_y
 _atom_site_fract_z
 _atom_site_occupancy
  Eu  Eu0  1  0.000000  0.183820  0.500000  1
  Eu  Eu1  1  0.816180  0.816180  0.500000  1
  Eu  Eu2  1  0.183820  0.000000  0.500000  1
  Ho  Ho3  1  0.666667  0.333333  0.000000  1
  Ho  Ho4  1  0.333333  0.666667  0.000000  1
  P  P5  1  0.000000  0.815256  0.000000  1
  P  P6  1  0.184744  0.184744  0.000000  1
  P  P7  1  0.815256  0.000000  0.000000  1
  P  P8  1  0.691741  0.175710  0.500000  1
  P  P9  1  0.824290  0.516032  0.500000  1
  P  P10  1  0.483968  0.308259  0.500000  1
  P  P11  1  0.175710  0.691741  0.500000  1
  P  P12  1  0.516032  0.824290  0.500000  1
  P  P13  1  0.308259  0.483968  0.500000  1
  P  P14  1  0.000000  0.367714  0.000000  1
  P  P15  1  0.632286  0.632286  0.000000  1
  P  P16  1  0.367714  0.000000  0.000000  1
  Ir  Ir17  1  0.000000  0.548229  0.000000  1
  Ir  Ir18  1  0.451771  0.451771  0.000000  1
  Ir  Ir19  1  0.548229  0.000000  0.000000  1
  Ir  Ir20  1  0.803097  0.182951  0.000000  1
  Ir  Ir21  1  0.817049  0.620146  0.000000  1
  Ir  Ir22  1  0.379854  0.196903  0.000000  1
  Ir  Ir23  1  0.182951  0.803097  0.000000  1
  Ir  Ir24  1  0.620146  0.817049  0.000000  1
  Ir  Ir25  1  0.196903  0.379854  0.000000  1
  Ir  Ir26  1  0.000000  0.000000  0.000000  1
  Ru  Ru27  1  0.000000  0.708264  0.500000  1
  Ru  Ru28  1  0.291736  0.291736  0.500000  1
  Ru  Ru29  1  0.708264  0.000000  0.500000  1
  Ru  Ru30  1  0.872663  0.364541  0.500000  1
  Ru  Ru31  1  0.635459  0.508123  0.500000  1
  Ru  Ru32  1  0.491877  0.127337  0.500000  1
  Ru  Ru33  1  0.364541  0.872663  0.500000  1
  Ru  Ru34  1  0.508123  0.635459  0.500000  1
  Ru  Ru35  1  0.127337  0.491877  0.500000  1
