# generated using pymatgen
data_Ce2NiIrPb
_symmetry_space_group_name_H-M   'P 1'
_cell_length_a   7.72851300
_cell_length_b   7.71468700
_cell_length_c   3.70869700
_cell_angle_alpha   90.00000000
_cell_angle_beta   90.00000000
_cell_angle_gamma   90.00000000
_symmetry_Int_Tables_number   1
_chemical_formula_structural   Ce2NiIrPb
_chemical_formula_sum   'Ce4 Ni2 Ir2 Pb2'
_cell_volume   221.12385919
_cell_formula_units_Z   2
loop_
 _symmetry_equiv_pos_site_id
 _symmetry_equiv_pos_as_xyz
  1  'x, y, z'
loop_
 _atom_site_type_symbol
 _atom_site_label
 _atom_site_symmetry_multiplicity
 _atom_site_fract_x
 _atom_site_fract_y
 _atom_site_fract_z
 _atom_site_occupancy
  Ce  Ce0  1  0.328669  0.177340  0.500000  1
  Ce  Ce1  1  0.828669  0.322661  0.500000  1
  Ce  Ce2  1  0.176754  0.669356  0.500000  1
  Ce  Ce3  1  0.676754  0.830645  0.500000  1
  Ni  Ni4  1  0.868800  0.631590  0.000000  1
  Ni  Ni5  1  0.368799  0.868410  0.000000  1
  Ir  Ir6  1  0.619109  0.116317  0.000000  1
  Ir  Ir7  1  0.119110  0.383683  0.000000  1
  Pb  Pb8  1  0.006669  0.991939  0.000000  1
  Pb  Pb9  1  0.506669  0.508061  0.000000  1
