# generated using pymatgen
data_MgNb3(Pt3Rh)3
_symmetry_space_group_name_H-M   'P 1'
_cell_length_a   5.61243800
_cell_length_b   5.61243760
_cell_length_c   9.10672300
_cell_angle_alpha   90.00000000
_cell_angle_beta   90.00000000
_cell_angle_gamma   119.99999057
_symmetry_Int_Tables_number   1
_chemical_formula_structural   MgNb3(Pt3Rh)3
_chemical_formula_sum   'Mg1 Nb3 Pt9 Rh3'
_cell_volume   248.42533356
_cell_formula_units_Z   1
loop_
 _symmetry_equiv_pos_site_id
 _symmetry_equiv_pos_as_xyz
  1  'x, y, z'
loop_
 _atom_site_type_symbol
 _atom_site_label
 _atom_site_symmetry_multiplicity
 _atom_site_fract_x
 _atom_site_fract_y
 _atom_site_fract_z
 _atom_site_occupancy
  Mg  Mg0  1  0.333333  0.666667  0.000000  1
  Nb  Nb1  1  0.666667  0.333333  0.500000  1
  Nb  Nb2  1  0.000000  0.000000  0.742589  1
  Nb  Nb3  1  0.000000  0.000000  0.257411  1
  Pt  Pt4  1  0.831993  0.168007  0.000000  1
  Pt  Pt5  1  0.831993  0.663986  0.000000  1
  Pt  Pt6  1  0.336014  0.168007  0.000000  1
  Pt  Pt7  1  0.997834  0.498917  0.745952  1
  Pt  Pt8  1  0.501083  0.498917  0.745952  1
  Pt  Pt9  1  0.501083  0.002166  0.745952  1
  Pt  Pt10  1  0.997834  0.498917  0.254048  1
  Pt  Pt11  1  0.501083  0.498917  0.254048  1
  Pt  Pt12  1  0.501083  0.002166  0.254048  1
  Rh  Rh13  1  0.168779  0.831221  0.500000  1
  Rh  Rh14  1  0.168779  0.337560  0.500000  1
  Rh  Rh15  1  0.662440  0.831221  0.500000  1
