# generated using pymatgen
data_TbNd3(CuP2)4
_symmetry_space_group_name_H-M   'P 1'
_cell_length_a   3.76222800
_cell_length_b   3.85228898
_cell_length_c   19.91440739
_cell_angle_alpha   89.95330926
_cell_angle_beta   90.00000000
_cell_angle_gamma   90.00000000
_symmetry_Int_Tables_number   1
_chemical_formula_structural   TbNd3(CuP2)4
_chemical_formula_sum   'Tb1 Nd3 Cu4 P8'
_cell_volume   288.62318326
_cell_formula_units_Z   1
loop_
 _symmetry_equiv_pos_site_id
 _symmetry_equiv_pos_as_xyz
  1  'x, y, z'
loop_
 _atom_site_type_symbol
 _atom_site_label
 _atom_site_symmetry_multiplicity
 _atom_site_fract_x
 _atom_site_fract_y
 _atom_site_fract_z
 _atom_site_occupancy
  Tb  Tb0  1  0.750000  0.212975  0.118969  1
  Nd  Nd1  1  0.250000  0.714194  0.378584  1
  Nd  Nd2  1  0.250000  0.785028  0.885405  1
  Nd  Nd3  1  0.750000  0.286409  0.619015  1
  Cu  Cu4  1  0.250000  0.216939  0.245262  1
  Cu  Cu5  1  0.750000  0.784046  0.752569  1
  Cu  Cu6  1  0.250000  0.284071  0.751825  1
  Cu  Cu7  1  0.750000  0.716644  0.245892  1
  P  P8  1  0.750000  0.815773  0.501161  1
  P  P9  1  0.750000  0.684323  0.007365  1
  P  P10  1  0.250000  0.184681  0.496386  1
  P  P11  1  0.250000  0.314981  0.002523  1
  P  P12  1  0.250000  0.714454  0.171224  1
  P  P13  1  0.750000  0.214984  0.319427  1
  P  P14  1  0.750000  0.285072  0.825985  1
  P  P15  1  0.250000  0.785427  0.678407  1
