# generated using pymatgen
data_Cs2Th(NO3)6
_symmetry_space_group_name_H-M   'P 1'
_cell_length_a   7.12728800
_cell_length_b   8.60744404
_cell_length_c   13.65273500
_cell_angle_alpha   91.55039042
_cell_angle_beta   90.00000000
_cell_angle_gamma   90.00000000
_symmetry_Int_Tables_number   1
_chemical_formula_structural   Cs2Th(NO3)6
_chemical_formula_sum   'Cs4 Th2 N12 O36'
_cell_volume   837.25771810
_cell_formula_units_Z   2
loop_
 _symmetry_equiv_pos_site_id
 _symmetry_equiv_pos_as_xyz
  1  'x, y, z'
loop_
 _atom_site_type_symbol
 _atom_site_label
 _atom_site_symmetry_multiplicity
 _atom_site_fract_x
 _atom_site_fract_y
 _atom_site_fract_z
 _atom_site_occupancy
  Cs  Cs0  1  0.233951  0.027840  0.660732  1
  Cs  Cs1  1  0.266049  0.527840  0.160732  1
  Cs  Cs2  1  0.733951  0.472160  0.839268  1
  Cs  Cs3  1  0.766049  0.972160  0.339268  1
  Th  Th4  1  0.500000  0.500000  0.500000  1
  Th  Th5  1  0.000000  0.000000  0.000000  1
  N  N6  1  0.255292  0.772464  0.446199  1
  N  N7  1  0.755634  0.534940  0.324144  1
  N  N8  1  0.244366  0.465060  0.675856  1
  N  N9  1  0.755292  0.727536  0.053801  1
  N  N10  1  0.744708  0.227536  0.553801  1
  N  N11  1  0.267398  0.783921  0.890925  1
  N  N12  1  0.232602  0.283921  0.390925  1
  N  N13  1  0.255634  0.965060  0.175856  1
  N  N14  1  0.767398  0.716079  0.609075  1
  N  N15  1  0.244708  0.272464  0.946199  1
  N  N16  1  0.744366  0.034940  0.824144  1
  N  N17  1  0.732602  0.216079  0.109075  1
  O  O18  1  0.631332  0.060419  0.758587  1
  O  O19  1  0.368668  0.939581  0.241413  1
  O  O20  1  0.592981  0.211063  0.502159  1
  O  O21  1  0.092981  0.288937  0.997841  1
  O  O22  1  0.878397  0.797320  0.655834  1
  O  O23  1  0.853020  0.118437  0.564971  1
  O  O24  1  0.121603  0.202680  0.344166  1
  O  O25  1  0.225535  0.575552  0.615858  1
  O  O26  1  0.227182  0.635975  0.409360  1
  O  O27  1  0.283041  0.812554  0.983522  1
  O  O28  1  0.407019  0.788937  0.497841  1
  O  O29  1  0.716959  0.187446  0.016478  1
  O  O30  1  0.392046  0.378613  0.662397  1
  O  O31  1  0.107954  0.878613  0.162397  1
  O  O32  1  0.274465  0.075552  0.115858  1
  O  O33  1  0.725535  0.924448  0.884142  1
  O  O34  1  0.621603  0.297320  0.155834  1
  O  O35  1  0.131332  0.439581  0.741413  1
  O  O36  1  0.727182  0.864025  0.090640  1
  O  O37  1  0.146980  0.881563  0.435029  1
  O  O38  1  0.646980  0.618437  0.064971  1
  O  O39  1  0.624345  0.651409  0.650233  1
  O  O40  1  0.378397  0.702680  0.844166  1
  O  O41  1  0.868668  0.560419  0.258587  1
  O  O42  1  0.774465  0.424448  0.384142  1
  O  O43  1  0.772818  0.364025  0.590640  1
  O  O44  1  0.353020  0.381563  0.935029  1
  O  O45  1  0.907019  0.711063  0.002159  1
  O  O46  1  0.124345  0.848591  0.849767  1
  O  O47  1  0.607954  0.621387  0.337603  1
  O  O48  1  0.875655  0.151409  0.150233  1
  O  O49  1  0.272818  0.135975  0.909360  1
  O  O50  1  0.892046  0.121387  0.837603  1
  O  O51  1  0.216959  0.312554  0.483522  1
  O  O52  1  0.375655  0.348591  0.349767  1
  O  O53  1  0.783041  0.687446  0.516478  1
