# generated using pymatgen
data_LaHo11(SiAu)12
_symmetry_space_group_name_H-M   'P 1'
_cell_length_a   4.33151300
_cell_length_b   7.52988106
_cell_length_c   22.38772900
_cell_angle_alpha   89.99291591
_cell_angle_beta   90.00000000
_cell_angle_gamma   90.00000000
_symmetry_Int_Tables_number   1
_chemical_formula_structural   LaHo11(SiAu)12
_chemical_formula_sum   'La1 Ho11 Si12 Au12'
_cell_volume   730.19318645
_cell_formula_units_Z   1
loop_
 _symmetry_equiv_pos_site_id
 _symmetry_equiv_pos_as_xyz
  1  'x, y, z'
loop_
 _atom_site_type_symbol
 _atom_site_label
 _atom_site_symmetry_multiplicity
 _atom_site_fract_x
 _atom_site_fract_y
 _atom_site_fract_z
 _atom_site_occupancy
  La  La0  1  0.250000  0.770640  0.497617  1
  Ho  Ho1  1  0.250000  0.723687  0.328595  1
  Ho  Ho2  1  0.750000  0.261026  0.669146  1
  Ho  Ho3  1  0.750000  0.216172  0.164306  1
  Ho  Ho4  1  0.250000  0.767892  0.836367  1
  Ho  Ho5  1  0.250000  0.782669  0.165408  1
  Ho  Ho6  1  0.750000  0.233494  0.835912  1
  Ho  Ho7  1  0.750000  0.270102  0.329138  1
  Ho  Ho8  1  0.250000  0.738595  0.670497  1
  Ho  Ho9  1  0.250000  0.724037  0.000321  1
  Ho  Ho10  1  0.750000  0.273930  0.002627  1
  Ho  Ho11  1  0.750000  0.227951  0.500217  1
  Si  Si12  1  0.250000  0.088873  0.077926  1
  Si  Si13  1  0.750000  0.912330  0.931194  1
  Si  Si14  1  0.750000  0.582653  0.407240  1
  Si  Si15  1  0.250000  0.412538  0.575126  1
  Si  Si16  1  0.250000  0.089130  0.248803  1
  Si  Si17  1  0.750000  0.915584  0.759306  1
  Si  Si18  1  0.750000  0.589126  0.234123  1
  Si  Si19  1  0.250000  0.411816  0.756923  1
  Si  Si20  1  0.250000  0.089402  0.406728  1
  Si  Si21  1  0.750000  0.916271  0.584614  1
  Si  Si22  1  0.750000  0.589530  0.100362  1
  Si  Si23  1  0.250000  0.411536  0.913818  1
  Au  Au24  1  0.250000  0.420065  0.237372  1
  Au  Au25  1  0.750000  0.581731  0.756414  1
  Au  Au26  1  0.750000  0.918614  0.258613  1
  Au  Au27  1  0.250000  0.080954  0.743358  1
  Au  Au28  1  0.250000  0.414725  0.423289  1
  Au  Au29  1  0.750000  0.579528  0.588440  1
  Au  Au30  1  0.750000  0.915047  0.068698  1
  Au  Au31  1  0.250000  0.081166  0.927027  1
  Au  Au32  1  0.250000  0.422864  0.092383  1
  Au  Au33  1  0.750000  0.580965  0.912009  1
  Au  Au34  1  0.750000  0.920575  0.398444  1
  Au  Au35  1  0.250000  0.084783  0.597640  1
