# generated using pymatgen
data_DyLuZrFe9
_symmetry_space_group_name_H-M   'P 1'
_cell_length_a   5.02100308
_cell_length_b   5.02100295
_cell_length_c   8.49789827
_cell_angle_alpha   72.81690174
_cell_angle_beta   72.81690205
_cell_angle_gamma   59.99999380
_symmetry_Int_Tables_number   1
_chemical_formula_structural   DyLuZrFe9
_chemical_formula_sum   'Dy1 Lu1 Zr1 Fe9'
_cell_volume   174.40486638
_cell_formula_units_Z   1
loop_
 _symmetry_equiv_pos_site_id
 _symmetry_equiv_pos_as_xyz
  1  'x, y, z'
loop_
 _atom_site_type_symbol
 _atom_site_label
 _atom_site_symmetry_multiplicity
 _atom_site_fract_x
 _atom_site_fract_y
 _atom_site_fract_z
 _atom_site_occupancy
  Dy  Dy0  1  0.999866  0.999866  0.000403  1
  Lu  Lu1  1  0.142120  0.142120  0.573639  1
  Zr  Zr2  1  0.857639  0.857639  0.427082  1
  Fe  Fe3  1  0.082830  0.584466  0.748236  1
  Fe  Fe4  1  0.584466  0.584466  0.748236  1
  Fe  Fe5  1  0.584466  0.082830  0.748236  1
  Fe  Fe6  1  0.917120  0.415777  0.251326  1
  Fe  Fe7  1  0.415777  0.415777  0.251326  1
  Fe  Fe8  1  0.415777  0.917120  0.251326  1
  Fe  Fe9  1  0.332606  0.332606  0.002182  1
  Fe  Fe10  1  0.667251  0.667251  0.998245  1
  Fe  Fe11  1  0.500079  0.500079  0.499763  1
