# generated using pymatgen
data_Cs9K3(FeSe3)4
_symmetry_space_group_name_H-M   'P 1'
_cell_length_a   10.74303802
_cell_length_b   10.74303788
_cell_length_c   13.94523915
_cell_angle_alpha   89.69011944
_cell_angle_beta   89.69012358
_cell_angle_gamma   139.06558364
_symmetry_Int_Tables_number   1
_chemical_formula_structural   Cs9K3(FeSe3)4
_chemical_formula_sum   'Cs9 K3 Fe4 Se12'
_cell_volume   1054.38355052
_cell_formula_units_Z   1
loop_
 _symmetry_equiv_pos_site_id
 _symmetry_equiv_pos_as_xyz
  1  'x, y, z'
loop_
 _atom_site_type_symbol
 _atom_site_label
 _atom_site_symmetry_multiplicity
 _atom_site_fract_x
 _atom_site_fract_y
 _atom_site_fract_z
 _atom_site_occupancy
  Cs  Cs0  1  0.369361  0.369361  0.814031  1
  Cs  Cs1  1  0.161953  0.516659  0.128620  1
  Cs  Cs2  1  0.487620  0.836410  0.876640  1
  Cs  Cs3  1  0.981857  0.337092  0.627713  1
  Cs  Cs4  1  0.665549  0.015524  0.375670  1
  Cs  Cs5  1  0.836410  0.487620  0.876640  1
  Cs  Cs6  1  0.516659  0.161953  0.128620  1
  Cs  Cs7  1  0.015524  0.665549  0.375670  1
  Cs  Cs8  1  0.337092  0.981857  0.627713  1
  K  K9  1  0.850817  0.850817  0.660913  1
  K  K10  1  0.150773  0.150773  0.326302  1
  K  K11  1  0.647851  0.647851  0.172943  1
  Fe  Fe12  1  0.934011  0.078445  0.003476  1
  Fe  Fe13  1  0.423817  0.565598  0.497554  1
  Fe  Fe14  1  0.078445  0.934011  0.003476  1
  Fe  Fe15  1  0.565598  0.423817  0.497554  1
  Se  Se16  1  0.265273  0.265273  0.562660  1
  Se  Se17  1  0.711873  0.711873  0.419998  1
  Se  Se18  1  0.220398  0.220398  0.077511  1
  Se  Se19  1  0.805741  0.805741  0.922053  1
  Se  Se20  1  0.714303  0.988964  0.121061  1
  Se  Se21  1  0.000211  0.288561  0.888950  1
  Se  Se22  1  0.501083  0.773153  0.619710  1
  Se  Se23  1  0.213358  0.493747  0.382399  1
  Se  Se24  1  0.288561  0.000211  0.888950  1
  Se  Se25  1  0.988964  0.714303  0.121061  1
  Se  Se26  1  0.493747  0.213358  0.382399  1
  Se  Se27  1  0.773153  0.501083  0.619710  1
