# generated using pymatgen
data_Ca3Ho(OsC2)2
_symmetry_space_group_name_H-M   'P 1'
_cell_length_a   5.15801500
_cell_length_b   6.49793689
_cell_length_c   10.26887815
_cell_angle_alpha   90.48720184
_cell_angle_beta   90.00000000
_cell_angle_gamma   90.00000000
_symmetry_Int_Tables_number   1
_chemical_formula_structural   Ca3Ho(OsC2)2
_chemical_formula_sum   'Ca6 Ho2 Os4 C8'
_cell_volume   344.16395922
_cell_formula_units_Z   2
loop_
 _symmetry_equiv_pos_site_id
 _symmetry_equiv_pos_as_xyz
  1  'x, y, z'
loop_
 _atom_site_type_symbol
 _atom_site_label
 _atom_site_symmetry_multiplicity
 _atom_site_fract_x
 _atom_site_fract_y
 _atom_site_fract_z
 _atom_site_occupancy
  Ca  Ca0  1  0.750000  0.808693  0.053352  1
  Ca  Ca1  1  0.250000  0.191307  0.946648  1
  Ca  Ca2  1  0.250000  0.536122  0.219652  1
  Ca  Ca3  1  0.750000  0.463878  0.780348  1
  Ca  Ca4  1  0.750000  0.964787  0.723174  1
  Ca  Ca5  1  0.250000  0.035213  0.276826  1
  Ho  Ho6  1  0.250000  0.682429  0.552826  1
  Ho  Ho7  1  0.750000  0.317571  0.447174  1
  Os  Os8  1  0.250000  0.729053  0.849419  1
  Os  Os9  1  0.750000  0.270947  0.150581  1
  Os  Os10  1  0.750000  0.772198  0.357324  1
  Os  Os11  1  0.250000  0.227802  0.642676  1
  C  C12  1  0.250000  0.467137  0.752650  1
  C  C13  1  0.750000  0.532863  0.247350  1
  C  C14  1  0.750000  0.037603  0.266497  1
  C  C15  1  0.250000  0.962397  0.733503  1
  C  C16  1  0.250000  0.792457  0.025212  1
  C  C17  1  0.750000  0.207543  0.974788  1
  C  C18  1  0.750000  0.684499  0.532677  1
  C  C19  1  0.250000  0.315501  0.467323  1
