# generated using pymatgen
data_Tb2Al9Ni2Ru
_symmetry_space_group_name_H-M   'P 1'
_cell_length_a   7.46268578
_cell_length_b   7.46268655
_cell_length_c   9.38570300
_cell_angle_alpha   90.00000000
_cell_angle_beta   90.00000000
_cell_angle_gamma   118.70733198
_symmetry_Int_Tables_number   1
_chemical_formula_structural   Tb2Al9Ni2Ru
_chemical_formula_sum   'Tb4 Al18 Ni4 Ru2'
_cell_volume   458.45709800
_cell_formula_units_Z   2
loop_
 _symmetry_equiv_pos_site_id
 _symmetry_equiv_pos_as_xyz
  1  'x, y, z'
loop_
 _atom_site_type_symbol
 _atom_site_label
 _atom_site_symmetry_multiplicity
 _atom_site_fract_x
 _atom_site_fract_y
 _atom_site_fract_z
 _atom_site_occupancy
  Tb  Tb0  1  0.994159  0.675570  0.250000  1
  Tb  Tb1  1  0.005841  0.324430  0.750000  1
  Tb  Tb2  1  0.675570  0.994159  0.250000  1
  Tb  Tb3  1  0.324430  0.005841  0.750000  1
  Al  Al4  1  0.132823  0.132823  0.250000  1
  Al  Al5  1  0.867177  0.867177  0.750000  1
  Al  Al6  1  0.998555  0.337188  0.073265  1
  Al  Al7  1  0.001445  0.662812  0.926735  1
  Al  Al8  1  0.001445  0.662812  0.573265  1
  Al  Al9  1  0.337188  0.998555  0.426735  1
  Al  Al10  1  0.998555  0.337188  0.426735  1
  Al  Al11  1  0.662812  0.001445  0.573265  1
  Al  Al12  1  0.662812  0.001445  0.926735  1
  Al  Al13  1  0.337188  0.998555  0.073265  1
  Al  Al14  1  0.333885  0.333885  0.546289  1
  Al  Al15  1  0.666115  0.666115  0.453711  1
  Al  Al16  1  0.666115  0.666115  0.046289  1
  Al  Al17  1  0.333885  0.333885  0.953711  1
  Al  Al18  1  0.342620  0.555546  0.250000  1
  Al  Al19  1  0.657380  0.444454  0.750000  1
  Al  Al20  1  0.555546  0.342620  0.250000  1
  Al  Al21  1  0.444454  0.657380  0.750000  1
  Ni  Ni22  1  0.670850  0.329150  0.000000  1
  Ni  Ni23  1  0.329150  0.670850  0.000000  1
  Ni  Ni24  1  0.329150  0.670850  0.500000  1
  Ni  Ni25  1  0.670850  0.329150  0.500000  1
  Ru  Ru26  1  0.000000  0.000000  0.000000  1
  Ru  Ru27  1  0.000000  0.000000  0.500000  1
