# generated using pymatgen
data_Ce2Pa(SnRh)3
_symmetry_space_group_name_H-M   'P 1'
_cell_length_a   7.47793636
_cell_length_b   7.58067910
_cell_length_c   4.05475600
_cell_angle_alpha   90.00000000
_cell_angle_beta   90.00000000
_cell_angle_gamma   120.45554285
_symmetry_Int_Tables_number   1
_chemical_formula_structural   Ce2Pa(SnRh)3
_chemical_formula_sum   'Ce2 Pa1 Sn3 Rh3'
_cell_volume   198.14052590
_cell_formula_units_Z   1
loop_
 _symmetry_equiv_pos_site_id
 _symmetry_equiv_pos_as_xyz
  1  'x, y, z'
loop_
 _atom_site_type_symbol
 _atom_site_label
 _atom_site_symmetry_multiplicity
 _atom_site_fract_x
 _atom_site_fract_y
 _atom_site_fract_z
 _atom_site_occupancy
  Ce  Ce0  1  0.586704  0.587413  0.000000  1
  Ce  Ce1  1  0.413296  0.000709  0.000000  1
  Pa  Pa2  1  0.000000  0.415668  0.000000  1
  Sn  Sn3  1  0.260256  0.252574  0.500000  1
  Sn  Sn4  1  0.000000  0.755905  0.500000  1
  Sn  Sn5  1  0.739744  0.992318  0.500000  1
  Rh  Rh6  1  0.695619  0.335872  0.500000  1
  Rh  Rh7  1  0.304381  0.640254  0.500000  1
  Rh  Rh8  1  0.000000  0.019286  0.000000  1
