# generated using pymatgen
data_Tb3DyMg2Ir3
_symmetry_space_group_name_H-M   'P 1'
_cell_length_a   7.47109120
_cell_length_b   7.49862290
_cell_length_c   4.08204800
_cell_angle_alpha   90.00000000
_cell_angle_beta   90.00000000
_cell_angle_gamma   120.12197849
_symmetry_Int_Tables_number   1
_chemical_formula_structural   Tb3DyMg2Ir3
_chemical_formula_sum   'Tb3 Dy1 Mg2 Ir3'
_cell_volume   197.80586757
_cell_formula_units_Z   1
loop_
 _symmetry_equiv_pos_site_id
 _symmetry_equiv_pos_as_xyz
  1  'x, y, z'
loop_
 _atom_site_type_symbol
 _atom_site_label
 _atom_site_symmetry_multiplicity
 _atom_site_fract_x
 _atom_site_fract_y
 _atom_site_fract_z
 _atom_site_occupancy
  Tb  Tb0  1  0.432608  0.412439  0.000000  1
  Tb  Tb1  1  0.567392  0.979831  0.000000  1
  Tb  Tb2  1  0.000000  0.611246  0.000000  1
  Dy  Dy3  1  0.000000  0.247515  0.500000  1
  Mg  Mg4  1  0.747686  0.751582  0.500000  1
  Mg  Mg5  1  0.252314  0.003896  0.500000  1
  Ir  Ir6  1  0.000000  0.997010  0.000000  1
  Ir  Ir7  1  0.329209  0.662845  0.500000  1
  Ir  Ir8  1  0.670791  0.333635  0.500000  1
