# generated using pymatgen
data_Zr2Nb12AlAs7
_symmetry_space_group_name_H-M   'P 1'
_cell_length_a   7.98740614
_cell_length_b   7.98740836
_cell_length_c   14.44117863
_cell_angle_alpha   76.12480123
_cell_angle_beta   76.12479774
_cell_angle_gamma   25.86524555
_symmetry_Int_Tables_number   1
_chemical_formula_structural   Zr2Nb12AlAs7
_chemical_formula_sum   'Zr2 Nb12 Al1 As7'
_cell_volume   389.57839698
_cell_formula_units_Z   1
loop_
 _symmetry_equiv_pos_site_id
 _symmetry_equiv_pos_as_xyz
  1  'x, y, z'
loop_
 _atom_site_type_symbol
 _atom_site_label
 _atom_site_symmetry_multiplicity
 _atom_site_fract_x
 _atom_site_fract_y
 _atom_site_fract_z
 _atom_site_occupancy
  Zr  Zr0  1  0.176848  0.176848  0.453292  1
  Zr  Zr1  1  0.823456  0.823456  0.545644  1
  Nb  Nb2  1  0.998796  0.998796  0.000586  1
  Nb  Nb3  1  0.500134  0.500134  0.500676  1
  Nb  Nb4  1  0.430099  0.430099  0.171556  1
  Nb  Nb5  1  0.569236  0.569236  0.828225  1
  Nb  Nb6  1  0.195261  0.195261  0.696135  1
  Nb  Nb7  1  0.806316  0.806316  0.303725  1
  Nb  Nb8  1  0.211750  0.211750  0.197740  1
  Nb  Nb9  1  0.789701  0.789701  0.798258  1
  Nb  Nb10  1  0.332577  0.332577  0.969578  1
  Nb  Nb11  1  0.666680  0.666680  0.033303  1
  Nb  Nb12  1  0.000484  0.000484  0.334642  1
  Nb  Nb13  1  0.999284  0.999284  0.664547  1
  Al  Al14  1  0.173584  0.173584  0.893900  1
  As  As15  1  0.826170  0.826170  0.107398  1
  As  As16  1  0.372258  0.372258  0.398697  1
  As  As17  1  0.627620  0.627620  0.602754  1
  As  As18  1  0.372596  0.372596  0.669626  1
  As  As19  1  0.627743  0.627743  0.329739  1
  As  As20  1  0.062994  0.062994  0.150263  1
  As  As21  1  0.936415  0.936415  0.849715  1
