# generated using pymatgen
data_Tb12Co4RhPb
_symmetry_space_group_name_H-M   'P 1'
_cell_length_a   8.35909709
_cell_length_b   8.35909643
_cell_length_c   8.35909671
_cell_angle_alpha   110.94509894
_cell_angle_beta   110.43353451
_cell_angle_gamma   107.06199128
_symmetry_Int_Tables_number   1
_chemical_formula_structural   Tb12Co4RhPb
_chemical_formula_sum   'Tb12 Co4 Rh1 Pb1'
_cell_volume   449.02844187
_cell_formula_units_Z   1
loop_
 _symmetry_equiv_pos_site_id
 _symmetry_equiv_pos_as_xyz
  1  'x, y, z'
loop_
 _atom_site_type_symbol
 _atom_site_label
 _atom_site_symmetry_multiplicity
 _atom_site_fract_x
 _atom_site_fract_y
 _atom_site_fract_z
 _atom_site_occupancy
  Tb  Tb0  1  0.404875  0.209251  0.195624  1
  Tb  Tb1  1  0.595125  0.790749  0.804376  1
  Tb  Tb2  1  0.013627  0.209251  0.804376  1
  Tb  Tb3  1  0.986373  0.790749  0.195624  1
  Tb  Tb4  1  0.184951  0.292370  0.477320  1
  Tb  Tb5  1  0.815049  0.707630  0.522680  1
  Tb  Tb6  1  0.184951  0.707630  0.892580  1
  Tb  Tb7  1  0.815049  0.292370  0.107420  1
  Tb  Tb8  1  0.313147  0.619986  0.306839  1
  Tb  Tb9  1  0.686853  0.380014  0.693161  1
  Tb  Tb10  1  0.313147  0.006309  0.693161  1
  Tb  Tb11  1  0.686853  0.993691  0.306839  1
  Co  Co12  1  0.379770  0.000000  0.379770  1
  Co  Co13  1  0.620230  0.000000  0.620230  1
  Co  Co14  1  0.111526  0.611526  0.500000  1
  Co  Co15  1  0.888474  0.388474  0.500000  1
  Rh  Rh16  1  0.000000  0.000000  0.000000  1
  Pb  Pb17  1  0.500000  0.500000  0.000000  1
