# generated using pymatgen
data_Pu2ZnSi2Ge
_symmetry_space_group_name_H-M   'P 1'
_cell_length_a   4.22582166
_cell_length_b   3.95389478
_cell_length_c   7.74667190
_cell_angle_alpha   75.21459697
_cell_angle_beta   74.17198585
_cell_angle_gamma   89.99999650
_symmetry_Int_Tables_number   1
_chemical_formula_structural   Pu2ZnSi2Ge
_chemical_formula_sum   'Pu2 Zn1 Si2 Ge1'
_cell_volume   120.06651520
_cell_formula_units_Z   1
loop_
 _symmetry_equiv_pos_site_id
 _symmetry_equiv_pos_as_xyz
  1  'x, y, z'
loop_
 _atom_site_type_symbol
 _atom_site_label
 _atom_site_symmetry_multiplicity
 _atom_site_fract_x
 _atom_site_fract_y
 _atom_site_fract_z
 _atom_site_occupancy
  Pu  Pu0  1  0.761731  0.261731  0.476537  1
  Pu  Pu1  1  0.988654  0.988654  0.022691  1
  Zn  Zn2  1  0.165377  0.665377  0.669247  1
  Si  Si3  1  0.329936  0.829936  0.340127  1
  Si  Si4  1  0.419110  0.419110  0.161781  1
  Ge  Ge5  1  0.585191  0.585191  0.829616  1
