# generated using pymatgen
data_Ce5CrReB6
_symmetry_space_group_name_H-M   'P 1'
_cell_length_a   5.41543838
_cell_length_b   5.41543983
_cell_length_c   8.46183957
_cell_angle_alpha   71.33755562
_cell_angle_beta   71.33757509
_cell_angle_gamma   59.99999399
_symmetry_Int_Tables_number   1
_chemical_formula_structural   Ce5CrReB6
_chemical_formula_sum   'Ce5 Cr1 Re1 B6'
_cell_volume   199.70423554
_cell_formula_units_Z   1
loop_
 _symmetry_equiv_pos_site_id
 _symmetry_equiv_pos_as_xyz
  1  'x, y, z'
loop_
 _atom_site_type_symbol
 _atom_site_label
 _atom_site_symmetry_multiplicity
 _atom_site_fract_x
 _atom_site_fract_y
 _atom_site_fract_z
 _atom_site_occupancy
  Ce  Ce0  1  0.988878  0.988878  0.033366  1
  Ce  Ce1  1  0.746801  0.746801  0.759596  1
  Ce  Ce2  1  0.252336  0.252336  0.242992  1
  Ce  Ce3  1  0.586366  0.586366  0.240901  1
  Ce  Ce4  1  0.414125  0.414125  0.757626  1
  Cr  Cr5  1  0.891305  0.891305  0.326086  1
  Re  Re6  1  0.110302  0.110302  0.669095  1
  B  B7  1  0.504357  0.168878  0.495057  1
  B  B8  1  0.831709  0.504357  0.495057  1
  B  B9  1  0.168878  0.831709  0.495057  1
  B  B10  1  0.168878  0.504357  0.495057  1
  B  B11  1  0.831709  0.168878  0.495057  1
  B  B12  1  0.504357  0.831709  0.495057  1
