# generated using pymatgen
data_Tb6Zn15Ag8S
_symmetry_space_group_name_H-M   'P 1'
_cell_length_a   9.15575646
_cell_length_b   9.15572751
_cell_length_c   9.15574600
_cell_angle_alpha   60.00022225
_cell_angle_beta   59.99987881
_cell_angle_gamma   60.00006993
_symmetry_Int_Tables_number   1
_chemical_formula_structural   Tb6Zn15Ag8S
_chemical_formula_sum   'Tb6 Zn15 Ag8 S1'
_cell_volume   542.70820836
_cell_formula_units_Z   1
loop_
 _symmetry_equiv_pos_site_id
 _symmetry_equiv_pos_as_xyz
  1  'x, y, z'
loop_
 _atom_site_type_symbol
 _atom_site_label
 _atom_site_symmetry_multiplicity
 _atom_site_fract_x
 _atom_site_fract_y
 _atom_site_fract_z
 _atom_site_occupancy
  Tb  Tb0  1  0.710608  0.289400  0.289409  1
  Tb  Tb1  1  0.710595  0.289395  0.710587  1
  Tb  Tb2  1  0.710593  0.710597  0.289395  1
  Tb  Tb3  1  0.289392  0.710600  0.710591  1
  Tb  Tb4  1  0.289405  0.710605  0.289413  1
  Tb  Tb5  1  0.289407  0.289403  0.710605  1
  Zn  Zn6  1  0.500000  0.000000  0.000000  1
  Zn  Zn7  1  0.500000  0.000000  0.500000  1
  Zn  Zn8  1  0.500000  0.500000  0.000000  1
  Zn  Zn9  1  0.000000  0.500000  0.500000  1
  Zn  Zn10  1  0.000000  0.500000  0.000000  1
  Zn  Zn11  1  0.000000  0.000000  0.500000  1
  Zn  Zn12  1  0.000000  0.000000  0.000000  1
  Zn  Zn13  1  0.015239  0.328257  0.328248  1
  Zn  Zn14  1  0.328257  0.015239  0.328253  1
  Zn  Zn15  1  0.328253  0.328259  0.015231  1
  Zn  Zn16  1  0.328262  0.328255  0.328257  1
  Zn  Zn17  1  0.984761  0.671743  0.671752  1
  Zn  Zn18  1  0.671743  0.984761  0.671747  1
  Zn  Zn19  1  0.671747  0.671741  0.984769  1
  Zn  Zn20  1  0.671738  0.671745  0.671743  1
  Ag  Ag21  1  0.637810  0.120757  0.120714  1
  Ag  Ag22  1  0.120747  0.637797  0.120723  1
  Ag  Ag23  1  0.120738  0.120745  0.637827  1
  Ag  Ag24  1  0.120733  0.120751  0.120690  1
  Ag  Ag25  1  0.362190  0.879243  0.879286  1
  Ag  Ag26  1  0.879253  0.362203  0.879277  1
  Ag  Ag27  1  0.879262  0.879255  0.362173  1
  Ag  Ag28  1  0.879267  0.879249  0.879310  1
  S  S29  1  0.500000  0.500000  0.500000  1
