# generated using pymatgen
data_YbDyPt2O7
_symmetry_space_group_name_H-M   'P 1'
_cell_length_a   7.26279717
_cell_length_b   7.26279657
_cell_length_c   7.25598300
_cell_angle_alpha   60.03102422
_cell_angle_beta   60.03102697
_cell_angle_gamma   59.98678752
_symmetry_Int_Tables_number   1
_chemical_formula_structural   YbDyPt2O7
_chemical_formula_sum   'Yb2 Dy2 Pt4 O14'
_cell_volume   270.73794784
_cell_formula_units_Z   2
loop_
 _symmetry_equiv_pos_site_id
 _symmetry_equiv_pos_as_xyz
  1  'x, y, z'
loop_
 _atom_site_type_symbol
 _atom_site_label
 _atom_site_symmetry_multiplicity
 _atom_site_fract_x
 _atom_site_fract_y
 _atom_site_fract_z
 _atom_site_occupancy
  Yb  Yb0  1  0.125000  0.625000  0.125000  1
  Yb  Yb1  1  0.625000  0.125000  0.125000  1
  Dy  Dy2  1  0.125000  0.125000  0.625000  1
  Dy  Dy3  1  0.125000  0.125000  0.125000  1
  Pt  Pt4  1  0.625000  0.625000  0.625000  1
  Pt  Pt5  1  0.125000  0.625000  0.625000  1
  Pt  Pt6  1  0.625000  0.125000  0.625000  1
  Pt  Pt7  1  0.625000  0.625000  0.125000  1
  O  O8  1  0.288998  0.714913  0.706146  1
  O  O9  1  0.535087  0.961002  0.960057  1
  O  O10  1  0.714913  0.288998  0.706146  1
  O  O11  1  0.287504  0.287504  0.712496  1
  O  O12  1  0.708685  0.708685  0.291315  1
  O  O13  1  0.004590  0.004590  0.995410  1
  O  O14  1  0.288998  0.714913  0.289943  1
  O  O15  1  0.961002  0.535087  0.960057  1
  O  O16  1  0.962496  0.962496  0.537504  1
  O  O17  1  0.541315  0.541315  0.958685  1
  O  O18  1  0.245410  0.245410  0.254590  1
  O  O19  1  0.535087  0.961002  0.543854  1
  O  O20  1  0.714913  0.288998  0.289943  1
  O  O21  1  0.961002  0.535087  0.543854  1
