# generated using pymatgen
data_Dy3Lu5In3Os
_symmetry_space_group_name_H-M   'P 1'
_cell_length_a   10.24681300
_cell_length_b   10.24681243
_cell_length_c   7.02998500
_cell_angle_alpha   90.00000000
_cell_angle_beta   90.00000000
_cell_angle_gamma   119.99999860
_symmetry_Int_Tables_number   1
_chemical_formula_structural   Dy3Lu5In3Os
_chemical_formula_sum   'Dy6 Lu10 In6 Os2'
_cell_volume   639.23807254
_cell_formula_units_Z   2
loop_
 _symmetry_equiv_pos_site_id
 _symmetry_equiv_pos_as_xyz
  1  'x, y, z'
loop_
 _atom_site_type_symbol
 _atom_site_label
 _atom_site_symmetry_multiplicity
 _atom_site_fract_x
 _atom_site_fract_y
 _atom_site_fract_z
 _atom_site_occupancy
  Dy  Dy0  1  0.531567  0.063133  0.523416  1
  Dy  Dy1  1  0.936867  0.468433  0.523416  1
  Dy  Dy2  1  0.531567  0.468433  0.523416  1
  Dy  Dy3  1  0.468433  0.936867  0.023416  1
  Dy  Dy4  1  0.063133  0.531567  0.023416  1
  Dy  Dy5  1  0.468433  0.531567  0.023416  1
  Lu  Lu6  1  0.177365  0.354728  0.728556  1
  Lu  Lu7  1  0.645272  0.822635  0.728556  1
  Lu  Lu8  1  0.177365  0.822635  0.728556  1
  Lu  Lu9  1  0.822635  0.645272  0.228556  1
  Lu  Lu10  1  0.354728  0.177365  0.228556  1
  Lu  Lu11  1  0.822635  0.177365  0.228556  1
  Lu  Lu12  1  0.666667  0.333333  0.902650  1
  Lu  Lu13  1  0.333333  0.666667  0.402650  1
  Lu  Lu14  1  0.000000  0.000000  0.506238  1
  Lu  Lu15  1  0.000000  0.000000  0.006238  1
  In  In16  1  0.837114  0.674228  0.772169  1
  In  In17  1  0.325772  0.162886  0.772169  1
  In  In18  1  0.837114  0.162886  0.772169  1
  In  In19  1  0.162886  0.325772  0.272169  1
  In  In20  1  0.674228  0.837114  0.272169  1
  In  In21  1  0.162886  0.837114  0.272169  1
  Os  Os22  1  0.666667  0.333333  0.296525  1
  Os  Os23  1  0.333333  0.666667  0.796525  1
