# generated using pymatgen
data_Cu2Ni3IrS8
_symmetry_space_group_name_H-M   'P 1'
_cell_length_a   6.81311640
_cell_length_b   6.85919866
_cell_length_c   6.81311700
_cell_angle_alpha   60.22199426
_cell_angle_beta   60.00000196
_cell_angle_gamma   60.22199639
_symmetry_Int_Tables_number   1
_chemical_formula_structural   Cu2Ni3IrS8
_chemical_formula_sum   'Cu2 Ni3 Ir1 S8'
_cell_volume   225.89113214
_cell_formula_units_Z   1
loop_
 _symmetry_equiv_pos_site_id
 _symmetry_equiv_pos_as_xyz
  1  'x, y, z'
loop_
 _atom_site_type_symbol
 _atom_site_label
 _atom_site_symmetry_multiplicity
 _atom_site_fract_x
 _atom_site_fract_y
 _atom_site_fract_z
 _atom_site_occupancy
  Cu  Cu0  1  0.999023  0.002931  0.999023  1
  Cu  Cu1  1  0.250977  0.247069  0.250977  1
  Ni  Ni2  1  0.625000  0.625000  0.625000  1
  Ni  Ni3  1  0.625000  0.625000  0.125000  1
  Ni  Ni4  1  0.125000  0.625000  0.625000  1
  Ir  Ir5  1  0.625000  0.125000  0.625000  1
  S  S6  1  0.382305  0.394071  0.841320  1
  S  S7  1  0.382305  0.394071  0.382305  1
  S  S8  1  0.867695  0.855929  0.867695  1
  S  S9  1  0.867695  0.855929  0.408680  1
  S  S10  1  0.387223  0.838332  0.387223  1
  S  S11  1  0.841320  0.394071  0.382305  1
  S  S12  1  0.408680  0.855929  0.867695  1
  S  S13  1  0.862777  0.411668  0.862777  1
