# generated using pymatgen
data_Tb4Er2Si24Os5Ru3
_symmetry_space_group_name_H-M   'P 1'
_cell_length_a   10.12624505
_cell_length_b   10.12624671
_cell_length_c   8.16400302
_cell_angle_alpha   90.00269833
_cell_angle_beta   90.00273202
_cell_angle_gamma   132.45191286
_symmetry_Int_Tables_number   1
_chemical_formula_structural   Tb4Er2Si24Os5Ru3
_chemical_formula_sum   'Tb4 Er2 Si24 Os5 Ru3'
_cell_volume   617.68163743
_cell_formula_units_Z   1
loop_
 _symmetry_equiv_pos_site_id
 _symmetry_equiv_pos_as_xyz
  1  'x, y, z'
loop_
 _atom_site_type_symbol
 _atom_site_label
 _atom_site_symmetry_multiplicity
 _atom_site_fract_x
 _atom_site_fract_y
 _atom_site_fract_z
 _atom_site_occupancy
  Tb  Tb0  1  0.501606  0.001609  0.749431  1
  Tb  Tb1  1  0.998252  0.498577  0.250597  1
  Tb  Tb2  1  0.498577  0.998252  0.250597  1
  Tb  Tb3  1  0.001609  0.501605  0.749430  1
  Er  Er4  1  0.499395  0.499395  0.500088  1
  Er  Er5  1  0.999866  0.999866  0.999533  1
  Si  Si6  1  0.795445  0.204808  0.500216  1
  Si  Si7  1  0.295875  0.704095  0.000176  1
  Si  Si8  1  0.204808  0.795445  0.500217  1
  Si  Si9  1  0.704095  0.295875  0.000176  1
  Si  Si10  1  0.332609  0.332609  0.833333  1
  Si  Si11  1  0.667808  0.667808  0.167100  1
  Si  Si12  1  0.166546  0.166546  0.331202  1
  Si  Si13  1  0.830985  0.830985  0.666160  1
  Si  Si14  1  0.119990  0.885968  0.727967  1
  Si  Si15  1  0.114488  0.881080  0.272191  1
  Si  Si16  1  0.610876  0.378255  0.228449  1
  Si  Si17  1  0.622413  0.389252  0.771765  1
  Si  Si18  1  0.881080  0.114488  0.272191  1
  Si  Si19  1  0.885968  0.119991  0.727967  1
  Si  Si20  1  0.389252  0.622414  0.771765  1
  Si  Si21  1  0.378255  0.610876  0.228449  1
  Si  Si22  1  0.344840  0.111519  0.503529  1
  Si  Si23  1  0.888272  0.655603  0.496905  1
  Si  Si24  1  0.387774  0.155007  0.005886  1
  Si  Si25  1  0.844939  0.612718  0.994610  1
  Si  Si26  1  0.655603  0.888272  0.496905  1
  Si  Si27  1  0.111519  0.344840  0.503529  1
  Si  Si28  1  0.612718  0.844939  0.994610  1
  Si  Si29  1  0.155007  0.387774  0.005886  1
  Os  Os30  1  0.668776  0.331268  0.499907  1
  Os  Os31  1  0.169385  0.830496  0.000045  1
  Os  Os32  1  0.331268  0.668776  0.499907  1
  Os  Os33  1  0.830496  0.169386  0.000044  1
  Os  Os34  1  0.126235  0.126234  0.626691  1
  Ru  Ru35  1  0.873691  0.873691  0.372919  1
  Ru  Ru36  1  0.372640  0.372640  0.127852  1
  Ru  Ru37  1  0.627043  0.627042  0.871773  1
