# generated using pymatgen
data_Tb2BeB3Ir5
_symmetry_space_group_name_H-M   'P 1'
_cell_length_a   7.53026451
_cell_length_b   6.44318156
_cell_length_c   5.59812016
_cell_angle_alpha   78.34992890
_cell_angle_beta   56.50400678
_cell_angle_gamma   46.43145999
_symmetry_Int_Tables_number   1
_chemical_formula_structural   Tb2BeB3Ir5
_chemical_formula_sum   'Tb2 Be1 B3 Ir5'
_cell_volume   156.79560373
_cell_formula_units_Z   1
loop_
 _symmetry_equiv_pos_site_id
 _symmetry_equiv_pos_as_xyz
  1  'x, y, z'
loop_
 _atom_site_type_symbol
 _atom_site_label
 _atom_site_symmetry_multiplicity
 _atom_site_fract_x
 _atom_site_fract_y
 _atom_site_fract_z
 _atom_site_occupancy
  Tb  Tb0  1  0.863464  0.865419  0.134580  1
  Tb  Tb1  1  0.139107  0.141296  0.858703  1
  Be  Be2  1  0.492315  0.779900  0.220099  1
  B  B3  1  0.206551  0.533478  0.466521  1
  B  B4  1  0.784656  0.476582  0.523417  1
  B  B5  1  0.528313  0.205718  0.794281  1
  Ir  Ir6  1  0.500801  0.498575  0.998753  1
  Ir  Ir7  1  0.243849  0.258973  0.247880  1
  Ir  Ir8  1  0.998129  0.001247  0.501426  1
  Ir  Ir9  1  0.492120  0.486689  0.513310  1
  Ir  Ir10  1  0.750702  0.752120  0.741028  1
