# generated using pymatgen
data_Dy4VRe(B8W)2
_symmetry_space_group_name_H-M   'P 1'
_cell_length_a   3.59148500
_cell_length_b   6.01348970
_cell_length_c   11.61580340
_cell_angle_alpha   89.91751001
_cell_angle_beta   90.00000000
_cell_angle_gamma   90.00000000
_symmetry_Int_Tables_number   1
_chemical_formula_structural   Dy4VRe(B8W)2
_chemical_formula_sum   'Dy4 V1 Re1 B16 W2'
_cell_volume   250.87040513
_cell_formula_units_Z   1
loop_
 _symmetry_equiv_pos_site_id
 _symmetry_equiv_pos_as_xyz
  1  'x, y, z'
loop_
 _atom_site_type_symbol
 _atom_site_label
 _atom_site_symmetry_multiplicity
 _atom_site_fract_x
 _atom_site_fract_y
 _atom_site_fract_z
 _atom_site_occupancy
  Dy  Dy0  1  0.000000  0.626071  0.352058  1
  Dy  Dy1  1  0.000000  0.374844  0.648225  1
  Dy  Dy2  1  0.000000  0.126734  0.151023  1
  Dy  Dy3  1  0.000000  0.872739  0.847532  1
  V  V4  1  0.000000  0.871537  0.581626  1
  Re  Re5  1  0.000000  0.127729  0.417255  1
  B  B6  1  0.500000  0.787786  0.187978  1
  B  B7  1  0.500000  0.212457  0.812298  1
  B  B8  1  0.500000  0.283736  0.316045  1
  B  B9  1  0.500000  0.716279  0.684065  1
  B  B10  1  0.500000  0.867118  0.032116  1
  B  B11  1  0.500000  0.132947  0.967689  1
  B  B12  1  0.500000  0.364126  0.468239  1
  B  B13  1  0.500000  0.635917  0.531971  1
  B  B14  1  0.500000  0.886861  0.453100  1
  B  B15  1  0.500000  0.113372  0.547117  1
  B  B16  1  0.500000  0.385784  0.047686  1
  B  B17  1  0.500000  0.614807  0.952600  1
  B  B18  1  0.500000  0.977128  0.308722  1
  B  B19  1  0.500000  0.022542  0.691378  1
  B  B20  1  0.500000  0.474476  0.194608  1
  B  B21  1  0.500000  0.525354  0.805561  1
  W  W22  1  0.000000  0.630525  0.085814  1
  W  W23  1  0.000000  0.369129  0.915295  1
