# generated using pymatgen
data_Y9ErCo4
_symmetry_space_group_name_H-M   'P 1'
_cell_length_a   6.34337743
_cell_length_b   6.98357894
_cell_length_c   8.58935601
_cell_angle_alpha   96.31951977
_cell_angle_beta   111.66986100
_cell_angle_gamma   89.99999718
_symmetry_Int_Tables_number   1
_chemical_formula_structural   Y9ErCo4
_chemical_formula_sum   'Y9 Er1 Co4'
_cell_volume   351.12343812
_cell_formula_units_Z   1
loop_
 _symmetry_equiv_pos_site_id
 _symmetry_equiv_pos_as_xyz
  1  'x, y, z'
loop_
 _atom_site_type_symbol
 _atom_site_label
 _atom_site_symmetry_multiplicity
 _atom_site_fract_x
 _atom_site_fract_y
 _atom_site_fract_z
 _atom_site_occupancy
  Y  Y0  1  0.794461  0.586854  0.812416  1
  Y  Y1  1  0.982045  0.913146  0.187584  1
  Y  Y2  1  0.205149  0.411227  0.187486  1
  Y  Y3  1  0.017663  0.088773  0.812514  1
  Y  Y4  1  0.214305  0.683629  0.566814  1
  Y  Y5  1  0.647490  0.816371  0.433186  1
  Y  Y6  1  0.785016  0.315630  0.432101  1
  Y  Y7  1  0.352915  0.184370  0.567899  1
  Y  Y8  1  0.427484  0.750000  0.000000  1
  Er  Er9  1  0.571466  0.250000  0.000000  1
  Co  Co10  1  0.602501  0.929838  0.781454  1
  Co  Co11  1  0.821046  0.570162  0.218546  1
  Co  Co12  1  0.398760  0.072409  0.219064  1
  Co  Co13  1  0.179697  0.427591  0.780936  1
