# generated using pymatgen
data_NdY7(InRh)2
_symmetry_space_group_name_H-M   'P 1'
_cell_length_a   9.73397817
_cell_length_b   9.74997339
_cell_length_c   9.73398000
_cell_angle_alpha   59.94563711
_cell_angle_beta   59.91657609
_cell_angle_gamma   59.94563837
_symmetry_Int_Tables_number   1
_chemical_formula_structural   NdY7(InRh)2
_chemical_formula_sum   'Nd2 Y14 In4 Rh4'
_cell_volume   652.28560926
_cell_formula_units_Z   2
loop_
 _symmetry_equiv_pos_site_id
 _symmetry_equiv_pos_as_xyz
  1  'x, y, z'
loop_
 _atom_site_type_symbol
 _atom_site_label
 _atom_site_symmetry_multiplicity
 _atom_site_fract_x
 _atom_site_fract_y
 _atom_site_fract_z
 _atom_site_occupancy
  Nd  Nd0  1  0.600642  0.197610  0.600625  1
  Nd  Nd1  1  0.600642  0.601124  0.600625  1
  Y  Y2  1  0.187102  0.187273  0.812664  1
  Y  Y3  1  0.601480  0.601250  0.196020  1
  Y  Y4  1  0.436545  0.063331  0.436792  1
  Y  Y5  1  0.437194  0.438151  0.063142  1
  Y  Y6  1  0.814094  0.185910  0.814085  1
  Y  Y7  1  0.188777  0.811226  0.188771  1
  Y  Y8  1  0.437194  0.061514  0.063142  1
  Y  Y9  1  0.187102  0.812961  0.812664  1
  Y  Y10  1  0.061423  0.438575  0.061427  1
  Y  Y11  1  0.812682  0.812991  0.187167  1
  Y  Y12  1  0.196029  0.601280  0.601410  1
  Y  Y13  1  0.063144  0.438101  0.437250  1
  Y  Y14  1  0.063144  0.061506  0.437250  1
  Y  Y15  1  0.812682  0.187160  0.187167  1
  In  In16  1  0.834758  0.832131  0.834772  1
  In  In17  1  0.834887  0.832743  0.499628  1
  In  In18  1  0.499668  0.832770  0.834792  1
  In  In19  1  0.834758  0.498339  0.834772  1
  Rh  Rh20  1  0.391324  0.821514  0.391155  1
  Rh  Rh21  1  0.391324  0.396007  0.391155  1
  Rh  Rh22  1  0.824831  0.393230  0.388708  1
  Rh  Rh23  1  0.388575  0.393302  0.824821  1
