# generated using pymatgen
data_LuSc(NbSe2)8
_symmetry_space_group_name_H-M   'P 1'
_cell_length_a   7.01644800
_cell_length_b   7.01644868
_cell_length_c   13.85091500
_cell_angle_alpha   90.00000000
_cell_angle_beta   90.00000000
_cell_angle_gamma   119.99999678
_symmetry_Int_Tables_number   1
_chemical_formula_structural   LuSc(NbSe2)8
_chemical_formula_sum   'Lu1 Sc1 Nb8 Se16'
_cell_volume   590.53245912
_cell_formula_units_Z   1
loop_
 _symmetry_equiv_pos_site_id
 _symmetry_equiv_pos_as_xyz
  1  'x, y, z'
loop_
 _atom_site_type_symbol
 _atom_site_label
 _atom_site_symmetry_multiplicity
 _atom_site_fract_x
 _atom_site_fract_y
 _atom_site_fract_z
 _atom_site_occupancy
  Lu  Lu0  1  0.000000  0.000000  0.000000  1
  Sc  Sc1  1  0.000000  0.000000  0.500000  1
  Nb  Nb2  1  0.000000  0.000000  0.252321  1
  Nb  Nb3  1  0.000000  0.000000  0.747679  1
  Nb  Nb4  1  0.506617  0.013233  0.252644  1
  Nb  Nb5  1  0.986767  0.493383  0.252644  1
  Nb  Nb6  1  0.506617  0.493383  0.252644  1
  Nb  Nb7  1  0.493383  0.986767  0.747356  1
  Nb  Nb8  1  0.013233  0.506617  0.747356  1
  Nb  Nb9  1  0.493383  0.506617  0.747356  1
  Se  Se10  1  0.333333  0.666667  0.872044  1
  Se  Se11  1  0.666667  0.333333  0.127956  1
  Se  Se12  1  0.666667  0.333333  0.376638  1
  Se  Se13  1  0.333333  0.666667  0.623362  1
  Se  Se14  1  0.168564  0.831436  0.372745  1
  Se  Se15  1  0.168564  0.337125  0.372745  1
  Se  Se16  1  0.662875  0.831436  0.372745  1
  Se  Se17  1  0.831436  0.168564  0.627255  1
  Se  Se18  1  0.831436  0.662875  0.627255  1
  Se  Se19  1  0.337125  0.168564  0.627255  1
  Se  Se20  1  0.829956  0.170044  0.867708  1
  Se  Se21  1  0.829956  0.659913  0.867708  1
  Se  Se22  1  0.340087  0.170044  0.867708  1
  Se  Se23  1  0.170044  0.829956  0.132292  1
  Se  Se24  1  0.170044  0.340087  0.132292  1
  Se  Se25  1  0.659913  0.829956  0.132292  1
