# generated using pymatgen
data_Ce2FeCo9Mo2P7
_symmetry_space_group_name_H-M   'P 1'
_cell_length_a   9.07820966
_cell_length_b   9.09388064
_cell_length_c   3.72020100
_cell_angle_alpha   90.00000000
_cell_angle_beta   90.00000000
_cell_angle_gamma   120.12602608
_symmetry_Int_Tables_number   1
_chemical_formula_structural   Ce2FeCo9Mo2P7
_chemical_formula_sum   'Ce2 Fe1 Co9 Mo2 P7'
_cell_volume   265.64006196
_cell_formula_units_Z   1
loop_
 _symmetry_equiv_pos_site_id
 _symmetry_equiv_pos_as_xyz
  1  'x, y, z'
loop_
 _atom_site_type_symbol
 _atom_site_label
 _atom_site_symmetry_multiplicity
 _atom_site_fract_x
 _atom_site_fract_y
 _atom_site_fract_z
 _atom_site_occupancy
  Ce  Ce0  1  0.996485  0.996196  0.000000  1
  Ce  Ce1  1  0.334076  0.664926  0.500000  1
  Fe  Fe2  1  0.568943  0.455174  0.500000  1
  Co  Co3  1  0.100464  0.396427  0.000000  1
  Co  Co4  1  0.295713  0.899877  0.000000  1
  Co  Co5  1  0.602586  0.704182  0.000000  1
  Co  Co6  1  0.821899  0.612586  0.000000  1
  Co  Co7  1  0.791907  0.177139  0.000000  1
  Co  Co8  1  0.386334  0.210809  0.000000  1
  Co  Co9  1  0.048776  0.770569  0.500000  1
  Co  Co10  1  0.720928  0.949271  0.500000  1
  Co  Co11  1  0.233813  0.283704  0.500000  1
  Mo  Mo12  1  0.884892  0.431110  0.500000  1
  Mo  Mo13  1  0.549885  0.117255  0.500000  1
  P  P14  1  0.075311  0.636379  0.000000  1
  P  P15  1  0.560238  0.925095  0.000000  1
  P  P16  1  0.368729  0.440508  0.000000  1
  P  P17  1  0.772339  0.730124  0.500000  1
  P  P18  1  0.961505  0.221140  0.500000  1
  P  P19  1  0.261749  0.042439  0.500000  1
  P  P20  1  0.663427  0.335090  0.000000  1
