# generated using pymatgen
data_Rb2Sm10Co2Br17
_symmetry_space_group_name_H-M   'P 1'
_cell_length_a   9.35008005
_cell_length_b   10.96430691
_cell_length_c   10.96446900
_cell_angle_alpha   108.14877302
_cell_angle_beta   93.38439360
_cell_angle_gamma   93.38903437
_symmetry_Int_Tables_number   1
_chemical_formula_structural   Rb2Sm10Co2Br17
_chemical_formula_sum   'Rb2 Sm10 Co2 Br17'
_cell_volume   1062.69807622
_cell_formula_units_Z   1
loop_
 _symmetry_equiv_pos_site_id
 _symmetry_equiv_pos_as_xyz
  1  'x, y, z'
loop_
 _atom_site_type_symbol
 _atom_site_label
 _atom_site_symmetry_multiplicity
 _atom_site_fract_x
 _atom_site_fract_y
 _atom_site_fract_z
 _atom_site_occupancy
  Rb  Rb0  1  0.999238  0.819866  0.179197  1
  Rb  Rb1  1  0.999228  0.179194  0.819872  1
  Sm  Sm2  1  0.439150  0.169569  0.169568  1
  Sm  Sm3  1  0.573789  0.510415  0.203062  1
  Sm  Sm4  1  0.821664  0.292946  0.292951  1
  Sm  Sm5  1  0.314345  0.436065  0.436076  1
  Sm  Sm6  1  0.426428  0.797336  0.489724  1
  Sm  Sm7  1  0.573739  0.203043  0.510400  1
  Sm  Sm8  1  0.686059  0.564372  0.564370  1
  Sm  Sm9  1  0.178300  0.706845  0.706859  1
  Sm  Sm10  1  0.426444  0.489732  0.797351  1
  Sm  Sm11  1  0.560851  0.830649  0.830637  1
  Co  Co12  1  0.569650  0.358889  0.358892  1
  Co  Co13  1  0.430644  0.641425  0.641429  1
  Br  Br14  1  0.581057  0.687400  0.022188  1
  Br  Br15  1  0.711671  0.066601  0.066597  1
  Br  Br16  1  0.858210  0.449408  0.119508  1
  Br  Br17  1  0.131481  0.209562  0.209504  1
  Br  Br18  1  0.282597  0.603638  0.255251  1
  Br  Br19  1  0.418979  0.978131  0.312311  1
  Br  Br20  1  0.717722  0.745152  0.396664  1
  Br  Br21  1  0.858160  0.119504  0.449419  1
  Br  Br22  1  0.999889  0.499946  0.500002  1
  Br  Br23  1  0.141734  0.880253  0.550145  1
  Br  Br24  1  0.282549  0.255258  0.603679  1
  Br  Br25  1  0.581018  0.022192  0.687384  1
  Br  Br26  1  0.717711  0.396648  0.745125  1
  Br  Br27  1  0.868719  0.790547  0.790450  1
  Br  Br28  1  0.141734  0.550142  0.880269  1
  Br  Br29  1  0.288233  0.932926  0.932953  1
  Br  Br30  1  0.419009  0.312344  0.978168  1
