# generated using pymatgen
data_Nd3Dy2(Sn5Rh2)2
_symmetry_space_group_name_H-M   'P 1'
_cell_length_a   14.17265600
_cell_length_b   14.17265600
_cell_length_c   4.58267900
_cell_angle_alpha   90.00000000
_cell_angle_beta   90.00000000
_cell_angle_gamma   90.00000000
_symmetry_Int_Tables_number   1
_chemical_formula_structural   Nd3Dy2(Sn5Rh2)2
_chemical_formula_sum   'Nd6 Dy4 Sn20 Rh8'
_cell_volume   920.49605081
_cell_formula_units_Z   2
loop_
 _symmetry_equiv_pos_site_id
 _symmetry_equiv_pos_as_xyz
  1  'x, y, z'
loop_
 _atom_site_type_symbol
 _atom_site_label
 _atom_site_symmetry_multiplicity
 _atom_site_fract_x
 _atom_site_fract_y
 _atom_site_fract_z
 _atom_site_occupancy
  Nd  Nd0  1  0.500000  0.500000  0.000000  1
  Nd  Nd1  1  0.000000  0.000000  0.000000  1
  Nd  Nd2  1  0.888122  0.388122  0.500000  1
  Nd  Nd3  1  0.111878  0.611878  0.500000  1
  Nd  Nd4  1  0.388122  0.111878  0.500000  1
  Nd  Nd5  1  0.611878  0.888122  0.500000  1
  Dy  Dy6  1  0.677161  0.177161  0.500000  1
  Dy  Dy7  1  0.322839  0.822839  0.500000  1
  Dy  Dy8  1  0.177161  0.322839  0.500000  1
  Dy  Dy9  1  0.822839  0.677161  0.500000  1
  Sn  Sn10  1  0.570048  0.070048  0.000000  1
  Sn  Sn11  1  0.429952  0.929952  0.000000  1
  Sn  Sn12  1  0.070048  0.429952  0.000000  1
  Sn  Sn13  1  0.929952  0.570048  0.000000  1
  Sn  Sn14  1  0.654522  0.698201  0.000000  1
  Sn  Sn15  1  0.345478  0.301799  0.000000  1
  Sn  Sn16  1  0.154522  0.801799  0.000000  1
  Sn  Sn17  1  0.845478  0.198201  0.000000  1
  Sn  Sn18  1  0.301799  0.654522  0.000000  1
  Sn  Sn19  1  0.698201  0.345478  0.000000  1
  Sn  Sn20  1  0.198201  0.154522  0.000000  1
  Sn  Sn21  1  0.801799  0.845478  0.000000  1
  Sn  Sn22  1  0.663807  0.505457  0.500000  1
  Sn  Sn23  1  0.336193  0.494543  0.500000  1
  Sn  Sn24  1  0.163807  0.994543  0.500000  1
  Sn  Sn25  1  0.836193  0.005457  0.500000  1
  Sn  Sn26  1  0.494543  0.663807  0.500000  1
  Sn  Sn27  1  0.505457  0.336193  0.500000  1
  Sn  Sn28  1  0.005457  0.163807  0.500000  1
  Sn  Sn29  1  0.994543  0.836193  0.500000  1
  Rh  Rh30  1  0.747203  0.529237  0.000000  1
  Rh  Rh31  1  0.252797  0.470763  0.000000  1
  Rh  Rh32  1  0.247203  0.970763  0.000000  1
  Rh  Rh33  1  0.752797  0.029237  0.000000  1
  Rh  Rh34  1  0.470763  0.747203  0.000000  1
  Rh  Rh35  1  0.529237  0.252797  0.000000  1
  Rh  Rh36  1  0.029237  0.247203  0.000000  1
  Rh  Rh37  1  0.970763  0.752797  0.000000  1
