# generated using pymatgen
data_Tm3LuAl2(B2Rh5)2
_symmetry_space_group_name_H-M   'P 1'
_cell_length_a   9.45469673
_cell_length_b   9.45476373
_cell_length_c   3.16064900
_cell_angle_alpha   90.00000000
_cell_angle_beta   90.00000000
_cell_angle_gamma   90.04496529
_symmetry_Int_Tables_number   1
_chemical_formula_structural   Tm3LuAl2(B2Rh5)2
_chemical_formula_sum   'Tm3 Lu1 Al2 B4 Rh10'
_cell_volume   282.53640718
_cell_formula_units_Z   1
loop_
 _symmetry_equiv_pos_site_id
 _symmetry_equiv_pos_as_xyz
  1  'x, y, z'
loop_
 _atom_site_type_symbol
 _atom_site_label
 _atom_site_symmetry_multiplicity
 _atom_site_fract_x
 _atom_site_fract_y
 _atom_site_fract_z
 _atom_site_occupancy
  Tm  Tm0  1  0.825410  0.325412  0.000000  1
  Tm  Tm1  1  0.325122  0.174827  0.000000  1
  Tm  Tm2  1  0.674829  0.825125  0.000000  1
  Lu  Lu3  1  0.174673  0.674674  0.000000  1
  Al  Al4  1  0.000021  0.999986  0.000000  1
  Al  Al5  1  0.499985  0.500022  0.000000  1
  B  B6  1  0.622844  0.122844  0.000000  1
  B  B7  1  0.122766  0.377636  0.000000  1
  B  B8  1  0.877632  0.622771  0.000000  1
  B  B9  1  0.376758  0.876761  0.000000  1
  Rh  Rh10  1  0.070398  0.217943  0.500000  1
  Rh  Rh11  1  0.217747  0.928948  0.500000  1
  Rh  Rh12  1  0.782012  0.070324  0.500000  1
  Rh  Rh13  1  0.930191  0.782043  0.500000  1
  Rh  Rh14  1  0.428952  0.717746  0.500000  1
  Rh  Rh15  1  0.570322  0.282007  0.500000  1
  Rh  Rh16  1  0.717944  0.570389  0.500000  1
  Rh  Rh17  1  0.282045  0.430193  0.500000  1
  Rh  Rh18  1  0.499907  0.999907  0.500000  1
  Rh  Rh19  1  0.000441  0.500442  0.500000  1
