# generated using pymatgen
data_Nd10Sb9I
_symmetry_space_group_name_H-M   'P 1'
_cell_length_a   7.84840574
_cell_length_b   9.10870031
_cell_length_c   10.10802370
_cell_angle_alpha   102.79300629
_cell_angle_beta   97.57948522
_cell_angle_gamma   106.94350559
_symmetry_Int_Tables_number   1
_chemical_formula_structural   Nd10Sb9I
_chemical_formula_sum   'Nd10 Sb9 I1'
_cell_volume   658.97018657
_cell_formula_units_Z   1
loop_
 _symmetry_equiv_pos_site_id
 _symmetry_equiv_pos_as_xyz
  1  'x, y, z'
loop_
 _atom_site_type_symbol
 _atom_site_label
 _atom_site_symmetry_multiplicity
 _atom_site_fract_x
 _atom_site_fract_y
 _atom_site_fract_z
 _atom_site_occupancy
  Nd  Nd0  1  0.903156  0.548651  0.800066  1
  Nd  Nd1  1  0.684530  0.156068  0.396510  1
  Nd  Nd2  1  0.500769  0.749133  0.002431  1
  Nd  Nd3  1  0.687482  0.633606  0.393668  1
  Nd  Nd4  1  0.312518  0.366394  0.606332  1
  Nd  Nd5  1  0.102705  0.944052  0.185175  1
  Nd  Nd6  1  0.499231  0.250867  0.997569  1
  Nd  Nd7  1  0.315470  0.843932  0.603490  1
  Nd  Nd8  1  0.096844  0.451349  0.199934  1
  Nd  Nd9  1  0.897295  0.055948  0.814825  1
  Sb  Sb10  1  0.800147  0.601520  0.101845  1
  Sb  Sb11  1  0.598472  0.198493  0.699388  1
  Sb  Sb12  1  0.401528  0.801507  0.300612  1
  Sb  Sb13  1  0.800432  0.100221  0.105149  1
  Sb  Sb14  1  0.199853  0.398480  0.898155  1
  Sb  Sb15  1  0.608797  0.703669  0.701253  1
  Sb  Sb16  1  0.391203  0.296331  0.298747  1
  Sb  Sb17  1  0.199568  0.899779  0.894851  1
  Sb  Sb18  1  0.000000  0.500000  0.500000  1
  I  I19  1  0.000000  0.000000  0.500000  1
