# generated using pymatgen
data_Hg2Bi2Ru3PtO14
_symmetry_space_group_name_H-M   'P 1'
_cell_length_a   7.42316581
_cell_length_b   7.36304412
_cell_length_c   7.32133218
_cell_angle_alpha   58.98478559
_cell_angle_beta   59.53881506
_cell_angle_gamma   59.72953484
_symmetry_Int_Tables_number   1
_chemical_formula_structural   Hg2Bi2Ru3PtO14
_chemical_formula_sum   'Hg2 Bi2 Ru3 Pt1 O14'
_cell_volume   279.18296038
_cell_formula_units_Z   1
loop_
 _symmetry_equiv_pos_site_id
 _symmetry_equiv_pos_as_xyz
  1  'x, y, z'
loop_
 _atom_site_type_symbol
 _atom_site_label
 _atom_site_symmetry_multiplicity
 _atom_site_fract_x
 _atom_site_fract_y
 _atom_site_fract_z
 _atom_site_occupancy
  Hg  Hg0  1  0.125000  0.125000  0.625000  1
  Hg  Hg1  1  0.125000  0.625000  0.125000  1
  Bi  Bi2  1  0.625000  0.125000  0.125000  1
  Bi  Bi3  1  0.125000  0.125000  0.125000  1
  Ru  Ru4  1  0.625000  0.125000  0.625000  1
  Ru  Ru5  1  0.125000  0.625000  0.625000  1
  Ru  Ru6  1  0.625000  0.625000  0.625000  1
  Pt  Pt7  1  0.625000  0.625000  0.125000  1
  O  O8  1  0.241344  0.250735  0.266576  1
  O  O9  1  0.008656  0.999265  0.983424  1
  O  O10  1  0.560161  0.947847  0.548954  1
  O  O11  1  0.290203  0.712679  0.290371  1
  O  O12  1  0.543253  0.537321  0.959629  1
  O  O13  1  0.923659  0.562675  0.590006  1
  O  O14  1  0.541064  0.960513  0.957359  1
  O  O15  1  0.943038  0.947847  0.548954  1
  O  O16  1  0.959797  0.537321  0.959629  1
  O  O17  1  0.708936  0.289487  0.292641  1
  O  O18  1  0.326341  0.687325  0.659994  1
  O  O19  1  0.689839  0.302153  0.701046  1
  O  O20  1  0.306962  0.302153  0.701046  1
  O  O21  1  0.706747  0.712679  0.290371  1
