# generated using pymatgen
data_Th2Co9Mo3P7
_symmetry_space_group_name_H-M   'P 1'
_cell_length_a   3.77349400
_cell_length_b   9.20390428
_cell_length_c   9.20390500
_cell_angle_alpha   119.99999900
_cell_angle_beta   90.00000000
_cell_angle_gamma   90.00000000
_symmetry_Int_Tables_number   1
_chemical_formula_structural   Th2Co9Mo3P7
_chemical_formula_sum   'Th2 Co9 Mo3 P7'
_cell_volume   276.83342161
_cell_formula_units_Z   1
loop_
 _symmetry_equiv_pos_site_id
 _symmetry_equiv_pos_as_xyz
  1  'x, y, z'
loop_
 _atom_site_type_symbol
 _atom_site_label
 _atom_site_symmetry_multiplicity
 _atom_site_fract_x
 _atom_site_fract_y
 _atom_site_fract_z
 _atom_site_occupancy
  Th  Th0  1  0.000000  0.666667  0.333333  1
  Th  Th1  1  0.500000  0.333333  0.666667  1
  Co  Co2  1  0.000000  0.567174  0.934905  1
  Co  Co3  1  0.000000  0.367731  0.432826  1
  Co  Co4  1  0.000000  0.065095  0.632269  1
  Co  Co5  1  0.000000  0.874324  0.153658  1
  Co  Co6  1  0.000000  0.279334  0.125676  1
  Co  Co7  1  0.000000  0.846342  0.720666  1
  Co  Co8  1  0.500000  0.944529  0.382040  1
  Co  Co9  1  0.500000  0.437511  0.055471  1
  Co  Co10  1  0.500000  0.617960  0.562489  1
  Mo  Mo11  1  0.500000  0.781672  0.898964  1
  Mo  Mo12  1  0.500000  0.117292  0.218328  1
  Mo  Mo13  1  0.500000  0.101036  0.882708  1
  P  P14  1  0.000000  0.000000  0.000000  1
  P  P15  1  0.500000  0.707307  0.108915  1
  P  P16  1  0.500000  0.401608  0.292693  1
  P  P17  1  0.500000  0.891085  0.598392  1
  P  P18  1  0.000000  0.594627  0.695992  1
  P  P19  1  0.000000  0.101367  0.405373  1
  P  P20  1  0.000000  0.304008  0.898633  1
