# generated using pymatgen
data_HoTm3MnB12Ru
_symmetry_space_group_name_H-M   'P 1'
_cell_length_a   3.57926000
_cell_length_b   9.05622422
_cell_length_c   11.43366200
_cell_angle_alpha   89.98659755
_cell_angle_beta   90.00000000
_cell_angle_gamma   90.00000000
_symmetry_Int_Tables_number   1
_chemical_formula_structural   HoTm3MnB12Ru
_chemical_formula_sum   'Ho2 Tm6 Mn2 B24 Ru2'
_cell_volume   370.61735394
_cell_formula_units_Z   2
loop_
 _symmetry_equiv_pos_site_id
 _symmetry_equiv_pos_as_xyz
  1  'x, y, z'
loop_
 _atom_site_type_symbol
 _atom_site_label
 _atom_site_symmetry_multiplicity
 _atom_site_fract_x
 _atom_site_fract_y
 _atom_site_fract_z
 _atom_site_occupancy
  Ho  Ho0  1  0.000000  0.326225  0.416315  1
  Ho  Ho1  1  0.000000  0.673775  0.583685  1
  Tm  Tm2  1  0.000000  0.820111  0.087425  1
  Tm  Tm3  1  0.000000  0.179889  0.912575  1
  Tm  Tm4  1  0.000000  0.940081  0.370737  1
  Tm  Tm5  1  0.000000  0.059919  0.629263  1
  Tm  Tm6  1  0.000000  0.445076  0.131104  1
  Tm  Tm7  1  0.000000  0.554924  0.868896  1
  Mn  Mn8  1  0.000000  0.638239  0.320057  1
  Mn  Mn9  1  0.000000  0.361761  0.679943  1
  B  B10  1  0.500000  0.554162  0.432126  1
  B  B11  1  0.500000  0.445838  0.567874  1
  B  B12  1  0.500000  0.053403  0.066626  1
  B  B13  1  0.500000  0.946597  0.933374  1
  B  B14  1  0.500000  0.746734  0.417433  1
  B  B15  1  0.500000  0.253266  0.582567  1
  B  B16  1  0.500000  0.249493  0.080899  1
  B  B17  1  0.500000  0.750507  0.919101  1
  B  B18  1  0.500000  0.789738  0.265569  1
  B  B19  1  0.500000  0.210262  0.734431  1
  B  B20  1  0.500000  0.291922  0.235261  1
  B  B21  1  0.500000  0.708078  0.764739  1
  B  B22  1  0.500000  0.631223  0.186292  1
  B  B23  1  0.500000  0.368777  0.813708  1
  B  B24  1  0.500000  0.130581  0.315197  1
  B  B25  1  0.500000  0.869419  0.684803  1
  B  B26  1  0.500000  0.981329  0.212437  1
  B  B27  1  0.500000  0.018671  0.787563  1
  B  B28  1  0.500000  0.485126  0.288582  1
  B  B29  1  0.500000  0.514874  0.711418  1
  B  B30  1  0.500000  0.603243  0.028563  1
  B  B31  1  0.500000  0.396757  0.971437  1
  B  B32  1  0.500000  0.103078  0.471671  1
  B  B33  1  0.500000  0.896922  0.528329  1
  Ru  Ru34  1  0.000000  0.137852  0.178808  1
  Ru  Ru35  1  0.000000  0.862148  0.821192  1
