# generated using pymatgen
data_Tm7U(Si4W3)4
_symmetry_space_group_name_H-M   'P 1'
_cell_length_a   6.73163695
_cell_length_b   6.90268053
_cell_length_c   12.87605797
_cell_angle_alpha   89.97124868
_cell_angle_beta   90.04666315
_cell_angle_gamma   90.21972783
_symmetry_Int_Tables_number   1
_chemical_formula_structural   Tm7U(Si4W3)4
_chemical_formula_sum   'Tm7 U1 Si16 W12'
_cell_volume   598.29860670
_cell_formula_units_Z   1
loop_
 _symmetry_equiv_pos_site_id
 _symmetry_equiv_pos_as_xyz
  1  'x, y, z'
loop_
 _atom_site_type_symbol
 _atom_site_label
 _atom_site_symmetry_multiplicity
 _atom_site_fract_x
 _atom_site_fract_y
 _atom_site_fract_z
 _atom_site_occupancy
  Tm  Tm0  1  0.494069  0.333064  0.406849  1
  Tm  Tm1  1  0.995116  0.168653  0.092573  1
  Tm  Tm2  1  0.004693  0.832831  0.593766  1
  Tm  Tm3  1  0.506838  0.665198  0.907264  1
  Tm  Tm4  1  0.504516  0.668249  0.593523  1
  Tm  Tm5  1  0.004711  0.831574  0.905664  1
  Tm  Tm6  1  0.994962  0.167612  0.407881  1
  U  U7  1  0.492020  0.329411  0.097329  1
  Si  Si8  1  0.803748  0.634665  0.749640  1
  Si  Si9  1  0.304074  0.864943  0.750261  1
  Si  Si10  1  0.698477  0.133270  0.251149  1
  Si  Si11  1  0.193180  0.366570  0.251703  1
  Si  Si12  1  0.037214  0.128021  0.749621  1
  Si  Si13  1  0.537420  0.372180  0.749387  1
  Si  Si14  1  0.461920  0.629937  0.250628  1
  Si  Si15  1  0.964326  0.872066  0.248876  1
  Si  Si16  1  0.161711  0.460432  0.546114  1
  Si  Si17  1  0.664828  0.040608  0.954483  1
  Si  Si18  1  0.662181  0.040455  0.546156  1
  Si  Si19  1  0.162424  0.459120  0.953620  1
  Si  Si20  1  0.837079  0.540571  0.453939  1
  Si  Si21  1  0.835657  0.541563  0.044297  1
  Si  Si22  1  0.336992  0.955491  0.044983  1
  Si  Si23  1  0.338645  0.959846  0.454004  1
  W  W24  1  0.829216  0.497823  0.248036  1
  W  W25  1  0.333880  0.004556  0.247681  1
  W  W26  1  0.666291  0.998644  0.750661  1
  W  W27  1  0.167772  0.500767  0.749882  1
  W  W28  1  0.168940  0.659570  0.125325  1
  W  W29  1  0.334739  0.166530  0.876221  1
  W  W30  1  0.333382  0.165598  0.624457  1
  W  W31  1  0.834324  0.335353  0.874157  1
  W  W32  1  0.165299  0.666514  0.375454  1
  W  W33  1  0.669545  0.837685  0.124987  1
  W  W34  1  0.832290  0.335366  0.624289  1
  W  W35  1  0.667519  0.835267  0.375138  1
