# generated using pymatgen
data_Nd6LuCoBr12
_symmetry_space_group_name_H-M   'P 1'
_cell_length_a   9.46573859
_cell_length_b   9.46573908
_cell_length_c   9.46573762
_cell_angle_alpha   107.05533783
_cell_angle_beta   107.05533909
_cell_angle_gamma   107.05534450
_symmetry_Int_Tables_number   1
_chemical_formula_structural   Nd6LuCoBr12
_chemical_formula_sum   'Nd6 Lu1 Co1 Br12'
_cell_volume   705.26351158
_cell_formula_units_Z   1
loop_
 _symmetry_equiv_pos_site_id
 _symmetry_equiv_pos_as_xyz
  1  'x, y, z'
loop_
 _atom_site_type_symbol
 _atom_site_label
 _atom_site_symmetry_multiplicity
 _atom_site_fract_x
 _atom_site_fract_y
 _atom_site_fract_z
 _atom_site_occupancy
  Nd  Nd0  1  0.023421  0.100114  0.308731  1
  Nd  Nd1  1  0.100114  0.308731  0.023421  1
  Nd  Nd2  1  0.308731  0.023421  0.100114  1
  Nd  Nd3  1  0.976579  0.899886  0.691269  1
  Nd  Nd4  1  0.899886  0.691269  0.976579  1
  Nd  Nd5  1  0.691269  0.976579  0.899886  1
  Lu  Lu6  1  0.500000  0.500000  0.500000  1
  Co  Co7  1  0.000000  0.000000  0.000000  1
  Br  Br8  1  0.183160  0.467698  0.393059  1
  Br  Br9  1  0.467698  0.393059  0.183160  1
  Br  Br10  1  0.393059  0.183160  0.467698  1
  Br  Br11  1  0.816840  0.532302  0.606941  1
  Br  Br12  1  0.532302  0.606941  0.816840  1
  Br  Br13  1  0.606941  0.816840  0.532302  1
  Br  Br14  1  0.681890  0.071395  0.225355  1
  Br  Br15  1  0.071395  0.225355  0.681890  1
  Br  Br16  1  0.225355  0.681890  0.071395  1
  Br  Br17  1  0.318110  0.928605  0.774645  1
  Br  Br18  1  0.928605  0.774645  0.318110  1
  Br  Br19  1  0.774645  0.318110  0.928605  1
