# generated using pymatgen
data_Y2Hf(ZrFe6)3
_symmetry_space_group_name_H-M   'P 1'
_cell_length_a   5.01839600
_cell_length_b   5.01839613
_cell_length_c   15.93907600
_cell_angle_alpha   90.00000000
_cell_angle_beta   90.00000000
_cell_angle_gamma   120.00001230
_symmetry_Int_Tables_number   1
_chemical_formula_structural   Y2Hf(ZrFe6)3
_chemical_formula_sum   'Y2 Hf1 Zr3 Fe18'
_cell_volume   347.63507426
_cell_formula_units_Z   1
loop_
 _symmetry_equiv_pos_site_id
 _symmetry_equiv_pos_as_xyz
  1  'x, y, z'
loop_
 _atom_site_type_symbol
 _atom_site_label
 _atom_site_symmetry_multiplicity
 _atom_site_fract_x
 _atom_site_fract_y
 _atom_site_fract_z
 _atom_site_occupancy
  Y  Y0  1  0.333333  0.666667  0.749570  1
  Y  Y1  1  0.666667  0.333333  0.250037  1
  Hf  Hf2  1  0.333333  0.666667  0.536348  1
  Zr  Zr3  1  0.333333  0.666667  0.963423  1
  Zr  Zr4  1  0.666667  0.333333  0.036677  1
  Zr  Zr5  1  0.666667  0.333333  0.463723  1
  Fe  Fe6  1  0.168061  0.831939  0.377071  1
  Fe  Fe7  1  0.168061  0.336122  0.377071  1
  Fe  Fe8  1  0.663878  0.831939  0.377071  1
  Fe  Fe9  1  0.832359  0.167641  0.622981  1
  Fe  Fe10  1  0.832359  0.664718  0.622981  1
  Fe  Fe11  1  0.335282  0.167641  0.622981  1
  Fe  Fe12  1  0.832431  0.167569  0.876480  1
  Fe  Fe13  1  0.832431  0.664861  0.876480  1
  Fe  Fe14  1  0.335139  0.167569  0.876480  1
  Fe  Fe15  1  0.167711  0.832289  0.123453  1
  Fe  Fe16  1  0.167711  0.335423  0.123453  1
  Fe  Fe17  1  0.664577  0.832289  0.123453  1
  Fe  Fe18  1  0.333333  0.666667  0.250022  1
  Fe  Fe19  1  0.666667  0.333333  0.750048  1
  Fe  Fe20  1  0.000000  0.000000  0.250143  1
  Fe  Fe21  1  0.000000  0.000000  0.749989  1
  Fe  Fe22  1  0.000000  0.000000  0.500036  1
  Fe  Fe23  1  0.000000  0.000000  0.000029  1
