# generated using pymatgen
data_Dy3Er5(MgSn4)2
_symmetry_space_group_name_H-M   'P 1'
_cell_length_a   7.64385101
_cell_length_b   8.21016803
_cell_length_c   15.21504306
_cell_angle_alpha   89.99117975
_cell_angle_beta   89.99430086
_cell_angle_gamma   89.99677615
_symmetry_Int_Tables_number   1
_chemical_formula_structural   Dy3Er5(MgSn4)2
_chemical_formula_sum   'Dy6 Er10 Mg4 Sn16'
_cell_volume   954.85502263
_cell_formula_units_Z   2
loop_
 _symmetry_equiv_pos_site_id
 _symmetry_equiv_pos_as_xyz
  1  'x, y, z'
loop_
 _atom_site_type_symbol
 _atom_site_label
 _atom_site_symmetry_multiplicity
 _atom_site_fract_x
 _atom_site_fract_y
 _atom_site_fract_z
 _atom_site_occupancy
  Dy  Dy0  1  0.998887  0.184765  0.090797  1
  Dy  Dy1  1  0.001113  0.815235  0.909203  1
  Dy  Dy2  1  0.501087  0.684724  0.909296  1
  Dy  Dy3  1  0.001098  0.815194  0.590754  1
  Dy  Dy4  1  0.498913  0.315276  0.090704  1
  Dy  Dy5  1  0.998902  0.184806  0.409246  1
  Er  Er6  1  0.498909  0.315232  0.409254  1
  Er  Er7  1  0.501091  0.684768  0.590746  1
  Er  Er8  1  0.335215  0.169092  0.628788  1
  Er  Er9  1  0.664785  0.830908  0.371212  1
  Er  Er10  1  0.164955  0.668968  0.371188  1
  Er  Er11  1  0.664857  0.830939  0.128794  1
  Er  Er12  1  0.835045  0.331032  0.628812  1
  Er  Er13  1  0.335143  0.169061  0.871206  1
  Er  Er14  1  0.835157  0.330961  0.871199  1
  Er  Er15  1  0.164843  0.669039  0.128801  1
  Mg  Mg16  1  0.159186  0.505228  0.750015  1
  Mg  Mg17  1  0.840814  0.494772  0.249985  1
  Mg  Mg18  1  0.340856  0.005275  0.249996  1
  Mg  Mg19  1  0.659144  0.994725  0.750004  1
  Sn  Sn20  1  0.021688  0.092088  0.749974  1
  Sn  Sn21  1  0.978312  0.907912  0.250026  1
  Sn  Sn22  1  0.478394  0.591872  0.250106  1
  Sn  Sn23  1  0.521606  0.408128  0.749894  1
  Sn  Sn24  1  0.182799  0.462932  0.538521  1
  Sn  Sn25  1  0.817201  0.537068  0.461479  1
  Sn  Sn26  1  0.317886  0.962860  0.461493  1
  Sn  Sn27  1  0.817769  0.537190  0.038493  1
  Sn  Sn28  1  0.682114  0.037140  0.538507  1
  Sn  Sn29  1  0.182231  0.462810  0.961507  1
  Sn  Sn30  1  0.682243  0.037210  0.961512  1
  Sn  Sn31  1  0.317757  0.962790  0.038488  1
  Sn  Sn32  1  0.302753  0.847057  0.749829  1
  Sn  Sn33  1  0.697247  0.152943  0.250171  1
  Sn  Sn34  1  0.197661  0.347232  0.250103  1
  Sn  Sn35  1  0.802339  0.652768  0.749897  1
