# generated using pymatgen
data_YbLu4(In2Pt)2
_symmetry_space_group_name_H-M   'P 1'
_cell_length_a   3.58048200
_cell_length_b   8.05595000
_cell_length_c   18.07544200
_cell_angle_alpha   90.00000000
_cell_angle_beta   90.00000000
_cell_angle_gamma   90.00000000
_symmetry_Int_Tables_number   1
_chemical_formula_structural   YbLu4(In2Pt)2
_chemical_formula_sum   'Yb2 Lu8 In8 Pt4'
_cell_volume   521.37137435
_cell_formula_units_Z   2
loop_
 _symmetry_equiv_pos_site_id
 _symmetry_equiv_pos_as_xyz
  1  'x, y, z'
loop_
 _atom_site_type_symbol
 _atom_site_label
 _atom_site_symmetry_multiplicity
 _atom_site_fract_x
 _atom_site_fract_y
 _atom_site_fract_z
 _atom_site_occupancy
  Yb  Yb0  1  0.000000  0.000000  0.000000  1
  Yb  Yb1  1  0.000000  0.500000  0.500000  1
  Lu  Lu2  1  0.000000  0.117761  0.414311  1
  Lu  Lu3  1  0.000000  0.882239  0.585689  1
  Lu  Lu4  1  0.000000  0.382239  0.914311  1
  Lu  Lu5  1  0.000000  0.617761  0.085689  1
  Lu  Lu6  1  0.000000  0.243998  0.220793  1
  Lu  Lu7  1  0.000000  0.756002  0.779207  1
  Lu  Lu8  1  0.000000  0.256002  0.720793  1
  Lu  Lu9  1  0.000000  0.743998  0.279207  1
  In  In10  1  0.500000  0.425672  0.352179  1
  In  In11  1  0.500000  0.574328  0.647821  1
  In  In12  1  0.500000  0.074328  0.852179  1
  In  In13  1  0.500000  0.925672  0.147821  1
  In  In14  1  0.500000  0.293188  0.066434  1
  In  In15  1  0.500000  0.706812  0.933566  1
  In  In16  1  0.500000  0.206812  0.566434  1
  In  In17  1  0.500000  0.793188  0.433566  1
  Pt  Pt18  1  0.500000  0.024965  0.303376  1
  Pt  Pt19  1  0.500000  0.975035  0.696624  1
  Pt  Pt20  1  0.500000  0.475035  0.803376  1
  Pt  Pt21  1  0.500000  0.524965  0.196624  1
