# generated using pymatgen
data_Ni3As(AuO2)4
_symmetry_space_group_name_H-M   'P 1'
_cell_length_a   5.24897290
_cell_length_b   6.12207060
_cell_length_c   7.09443302
_cell_angle_alpha   64.24685550
_cell_angle_beta   104.46667815
_cell_angle_gamma   90.09194042
_symmetry_Int_Tables_number   1
_chemical_formula_structural   Ni3As(AuO2)4
_chemical_formula_sum   'Ni3 As1 Au4 O8'
_cell_volume   197.32187272
_cell_formula_units_Z   1
loop_
 _symmetry_equiv_pos_site_id
 _symmetry_equiv_pos_as_xyz
  1  'x, y, z'
loop_
 _atom_site_type_symbol
 _atom_site_label
 _atom_site_symmetry_multiplicity
 _atom_site_fract_x
 _atom_site_fract_y
 _atom_site_fract_z
 _atom_site_occupancy
  Ni  Ni0  1  0.000064  0.002801  0.500054  1
  Ni  Ni1  1  0.500027  0.250000  0.499992  1
  Ni  Ni2  1  0.999903  0.497222  0.499938  1
  As  As3  1  0.500006  0.750002  0.499999  1
  Au  Au4  1  0.013593  0.001291  0.997287  1
  Au  Au5  1  0.499991  0.249985  0.000008  1
  Au  Au6  1  0.986419  0.498718  0.002698  1
  Au  Au7  1  0.500015  0.749963  0.000015  1
  O  O8  1  0.859446  0.668721  0.661571  1
  O  O9  1  0.401284  0.895805  0.662889  1
  O  O10  1  0.890307  0.165629  0.667657  1
  O  O11  1  0.401262  0.440204  0.662694  1
  O  O12  1  0.140565  0.831302  0.338414  1
  O  O13  1  0.598721  0.059801  0.337316  1
  O  O14  1  0.109688  0.334396  0.332337  1
  O  O15  1  0.598711  0.604162  0.337130  1
