# generated using pymatgen
data_HfZrFe12P7
_symmetry_space_group_name_H-M   'P 1'
_cell_length_a   8.86691800
_cell_length_b   8.86691816
_cell_length_c   3.59239800
_cell_angle_alpha   90.00000000
_cell_angle_beta   90.00000000
_cell_angle_gamma   119.99999195
_symmetry_Int_Tables_number   1
_chemical_formula_structural   HfZrFe12P7
_chemical_formula_sum   'Hf1 Zr1 Fe12 P7'
_cell_volume   244.60228227
_cell_formula_units_Z   1
loop_
 _symmetry_equiv_pos_site_id
 _symmetry_equiv_pos_as_xyz
  1  'x, y, z'
loop_
 _atom_site_type_symbol
 _atom_site_label
 _atom_site_symmetry_multiplicity
 _atom_site_fract_x
 _atom_site_fract_y
 _atom_site_fract_z
 _atom_site_occupancy
  Hf  Hf0  1  0.333333  0.666667  0.500000  1
  Zr  Zr1  1  0.000000  0.000000  0.000000  1
  Fe  Fe2  1  0.097510  0.396238  0.000000  1
  Fe  Fe3  1  0.298729  0.902490  0.000000  1
  Fe  Fe4  1  0.603762  0.701271  0.000000  1
  Fe  Fe5  1  0.823215  0.610138  0.000000  1
  Fe  Fe6  1  0.786923  0.176785  0.000000  1
  Fe  Fe7  1  0.389862  0.213077  0.000000  1
  Fe  Fe8  1  0.053003  0.770510  0.500000  1
  Fe  Fe9  1  0.717509  0.946997  0.500000  1
  Fe  Fe10  1  0.229490  0.282491  0.500000  1
  Fe  Fe11  1  0.884873  0.431329  0.500000  1
  Fe  Fe12  1  0.546456  0.115127  0.500000  1
  Fe  Fe13  1  0.568671  0.453544  0.500000  1
  P  P14  1  0.081168  0.632361  0.000000  1
  P  P15  1  0.551193  0.918832  0.000000  1
  P  P16  1  0.367639  0.448807  0.000000  1
  P  P17  1  0.781966  0.737415  0.500000  1
  P  P18  1  0.955449  0.218034  0.500000  1
  P  P19  1  0.262585  0.044551  0.500000  1
  P  P20  1  0.666667  0.333333  0.000000  1
