# generated using pymatgen
data_LaNd4Tm(CI5)2
_symmetry_space_group_name_H-M   'P 1'
_cell_length_a   7.90928754
_cell_length_b   9.70503713
_cell_length_c   9.81965207
_cell_angle_alpha   107.17000591
_cell_angle_beta   96.76078303
_cell_angle_gamma   104.51219988
_symmetry_Int_Tables_number   1
_chemical_formula_structural   LaNd4Tm(CI5)2
_chemical_formula_sum   'La1 Nd4 Tm1 C2 I10'
_cell_volume   682.04802151
_cell_formula_units_Z   1
loop_
 _symmetry_equiv_pos_site_id
 _symmetry_equiv_pos_as_xyz
  1  'x, y, z'
loop_
 _atom_site_type_symbol
 _atom_site_label
 _atom_site_symmetry_multiplicity
 _atom_site_fract_x
 _atom_site_fract_y
 _atom_site_fract_z
 _atom_site_occupancy
  La  La0  1  0.377733  0.136898  0.183877  1
  Nd  Nd1  1  0.028869  0.735149  0.922484  1
  Nd  Nd2  1  0.103794  0.038077  0.776598  1
  Nd  Nd3  1  0.966977  0.264016  0.075095  1
  Nd  Nd4  1  0.890758  0.958668  0.220671  1
  Tm  Tm5  1  0.635170  0.869061  0.824233  1
  C  C6  1  0.085515  0.029603  0.040599  1
  C  C7  1  0.908631  0.969167  0.958066  1
  I  I8  1  0.208625  0.738022  0.652118  1
  I  I9  1  0.910374  0.629828  0.178644  1
  I  I10  1  0.086681  0.368597  0.818926  1
  I  I11  1  0.734288  0.910982  0.547349  1
  I  I12  1  0.248374  0.082331  0.464863  1
  I  I13  1  0.647730  0.553090  0.725730  1
  I  I14  1  0.461097  0.805130  0.079191  1
  I  I15  1  0.816450  0.268934  0.359540  1
  I  I16  1  0.342758  0.463722  0.273461  1
  I  I17  1  0.546176  0.178724  0.898551  1
