# generated using pymatgen
data_TmTh5PtBr15
_symmetry_space_group_name_H-M   'P 1'
_cell_length_a   10.18894209
_cell_length_b   10.18903491
_cell_length_c   10.18903489
_cell_angle_alpha   110.22918408
_cell_angle_beta   109.09387980
_cell_angle_gamma   109.09387818
_symmetry_Int_Tables_number   1
_chemical_formula_structural   TmTh5PtBr15
_chemical_formula_sum   'Tm1 Th5 Pt1 Br15'
_cell_volume   814.16599110
_cell_formula_units_Z   1
loop_
 _symmetry_equiv_pos_site_id
 _symmetry_equiv_pos_as_xyz
  1  'x, y, z'
loop_
 _atom_site_type_symbol
 _atom_site_label
 _atom_site_symmetry_multiplicity
 _atom_site_fract_x
 _atom_site_fract_y
 _atom_site_fract_z
 _atom_site_occupancy
  Tm  Tm0  1  0.000005  0.239443  0.239443  1
  Th  Th1  1  0.999998  0.749226  0.749226  1
  Th  Th2  1  0.241693  0.004359  0.246052  1
  Th  Th3  1  0.758303  0.004360  0.762668  1
  Th  Th4  1  0.241693  0.246052  0.004359  1
  Th  Th5  1  0.758303  0.762668  0.004360  1
  Pt  Pt6  1  0.000000  0.994718  0.994718  1
  Br  Br7  1  0.496947  0.248382  0.248382  1
  Br  Br8  1  0.503053  0.751435  0.751435  1
  Br  Br9  1  0.000001  0.248382  0.751434  1
  Br  Br10  1  0.000001  0.751434  0.248382  1
  Br  Br11  1  0.239434  0.491798  0.252363  1
  Br  Br12  1  0.760566  0.012927  0.252363  1
  Br  Br13  1  0.751278  0.502115  0.750836  1
  Br  Br14  1  0.248724  0.999559  0.750837  1
  Br  Br15  1  0.239434  0.252363  0.491798  1
  Br  Br16  1  0.751278  0.750836  0.502115  1
  Br  Br17  1  0.760566  0.252363  0.012927  1
  Br  Br18  1  0.248724  0.750837  0.999559  1
  Br  Br19  1  0.999999  0.491429  0.491429  1
  Br  Br20  1  0.500001  0.997659  0.497657  1
  Br  Br21  1  0.500001  0.497657  0.997659  1
