# generated using pymatgen
data_Ti12Mn5Ir6Ru
_symmetry_space_group_name_H-M   'P 1'
_cell_length_a   4.31223600
_cell_length_b   6.12792300
_cell_length_c   12.99661500
_cell_angle_alpha   90.00000000
_cell_angle_beta   90.00010158
_cell_angle_gamma   90.00000000
_symmetry_Int_Tables_number   1
_chemical_formula_structural   Ti12Mn5Ir6Ru
_chemical_formula_sum   'Ti12 Mn5 Ir6 Ru1'
_cell_volume   343.43620336
_cell_formula_units_Z   1
loop_
 _symmetry_equiv_pos_site_id
 _symmetry_equiv_pos_as_xyz
  1  'x, y, z'
loop_
 _atom_site_type_symbol
 _atom_site_label
 _atom_site_symmetry_multiplicity
 _atom_site_fract_x
 _atom_site_fract_y
 _atom_site_fract_z
 _atom_site_occupancy
  Ti  Ti0  1  0.500000  0.255430  0.000000  1
  Ti  Ti1  1  0.500000  0.744571  0.000000  1
  Ti  Ti2  1  0.000003  0.252271  0.169515  1
  Ti  Ti3  1  0.000003  0.747728  0.169515  1
  Ti  Ti4  1  0.500011  0.249321  0.333877  1
  Ti  Ti5  1  0.500011  0.750680  0.333877  1
  Ti  Ti6  1  0.000000  0.250019  0.500000  1
  Ti  Ti7  1  0.000000  0.749980  0.500000  1
  Ti  Ti8  1  0.499991  0.249321  0.666123  1
  Ti  Ti9  1  0.499991  0.750680  0.666123  1
  Ti  Ti10  1  0.999997  0.252271  0.830485  1
  Ti  Ti11  1  0.999997  0.747728  0.830485  1
  Mn  Mn12  1  0.500006  0.500000  0.166179  1
  Mn  Mn13  1  0.000005  0.000000  0.332982  1
  Mn  Mn14  1  0.500000  0.500000  0.500000  1
  Mn  Mn15  1  0.999995  0.000000  0.667018  1
  Mn  Mn16  1  0.499992  0.500000  0.833820  1
  Ir  Ir17  1  0.000000  0.500000  0.000000  1
  Ir  Ir18  1  0.500002  0.000000  0.167060  1
  Ir  Ir19  1  0.000011  0.500000  0.333762  1
  Ir  Ir20  1  0.500000  0.000000  0.500000  1
  Ir  Ir21  1  0.999989  0.500000  0.666238  1
  Ir  Ir22  1  0.499997  0.000000  0.832940  1
  Ru  Ru23  1  0.000000  0.000000  0.000000  1
