# generated using pymatgen
data_Er20IrPt9Rh2
_symmetry_space_group_name_H-M   'P 1'
_cell_length_a   10.97493700
_cell_length_b   10.97493700
_cell_length_c   6.30873000
_cell_angle_alpha   90.00000000
_cell_angle_beta   90.00000000
_cell_angle_gamma   90.00000000
_symmetry_Int_Tables_number   1
_chemical_formula_structural   Er20IrPt9Rh2
_chemical_formula_sum   'Er20 Ir1 Pt9 Rh2'
_cell_volume   759.88174745
_cell_formula_units_Z   1
loop_
 _symmetry_equiv_pos_site_id
 _symmetry_equiv_pos_as_xyz
  1  'x, y, z'
loop_
 _atom_site_type_symbol
 _atom_site_label
 _atom_site_symmetry_multiplicity
 _atom_site_fract_x
 _atom_site_fract_y
 _atom_site_fract_z
 _atom_site_occupancy
  Er  Er0  1  0.292785  0.088098  0.376698  1
  Er  Er1  1  0.292238  0.911819  0.871878  1
  Er  Er2  1  0.707762  0.088181  0.871878  1
  Er  Er3  1  0.707215  0.911902  0.376698  1
  Er  Er4  1  0.588181  0.792238  0.871878  1
  Er  Er5  1  0.588098  0.207215  0.376698  1
  Er  Er6  1  0.411902  0.792785  0.376698  1
  Er  Er7  1  0.411819  0.207762  0.871878  1
  Er  Er8  1  0.205729  0.412671  0.624741  1
  Er  Er9  1  0.205801  0.587935  0.126838  1
  Er  Er10  1  0.794199  0.412065  0.126838  1
  Er  Er11  1  0.794271  0.587329  0.624741  1
  Er  Er12  1  0.912065  0.705801  0.126838  1
  Er  Er13  1  0.912671  0.294271  0.624741  1
  Er  Er14  1  0.087329  0.705729  0.624741  1
  Er  Er15  1  0.087935  0.294199  0.126838  1
  Er  Er16  1  0.000000  0.000000  0.500552  1
  Er  Er17  1  0.000000  0.000000  0.000684  1
  Er  Er18  1  0.500000  0.500000  0.000684  1
  Er  Er19  1  0.500000  0.500000  0.500552  1
  Ir  Ir20  1  0.000000  0.500000  0.380012  1
  Pt  Pt21  1  0.845569  0.153427  0.249890  1
  Pt  Pt22  1  0.846108  0.846054  0.750147  1
  Pt  Pt23  1  0.153892  0.153946  0.750147  1
  Pt  Pt24  1  0.154431  0.846573  0.249890  1
  Pt  Pt25  1  0.653946  0.346108  0.750147  1
  Pt  Pt26  1  0.653427  0.654431  0.249890  1
  Pt  Pt27  1  0.346573  0.345569  0.249890  1
  Pt  Pt28  1  0.346054  0.653892  0.750147  1
  Pt  Pt29  1  0.500000  0.000000  0.117978  1
  Rh  Rh30  1  0.500000  0.000000  0.618155  1
  Rh  Rh31  1  0.000000  0.500000  0.880608  1
