# generated using pymatgen
data_Sm4B2N5
_symmetry_space_group_name_H-M   'P 1'
_cell_length_a   3.52810970
_cell_length_b   6.37693713
_cell_length_c   7.11890775
_cell_angle_alpha   97.01894721
_cell_angle_beta   104.34728854
_cell_angle_gamma   73.94079143
_symmetry_Int_Tables_number   1
_chemical_formula_structural   Sm4B2N5
_chemical_formula_sum   'Sm4 B2 N5'
_cell_volume   148.86661800
_cell_formula_units_Z   1
loop_
 _symmetry_equiv_pos_site_id
 _symmetry_equiv_pos_as_xyz
  1  'x, y, z'
loop_
 _atom_site_type_symbol
 _atom_site_label
 _atom_site_symmetry_multiplicity
 _atom_site_fract_x
 _atom_site_fract_y
 _atom_site_fract_z
 _atom_site_occupancy
  Sm  Sm0  1  0.685329  0.740399  0.111056  1
  Sm  Sm1  1  0.076575  0.190896  0.344046  1
  Sm  Sm2  1  0.923425  0.809104  0.655954  1
  Sm  Sm3  1  0.314671  0.259601  0.888944  1
  B  B4  1  0.410499  0.567925  0.388923  1
  B  B5  1  0.589501  0.432075  0.611077  1
  N  N6  1  0.000000  0.000000  0.000000  1
  N  N7  1  0.382240  0.437155  0.201637  1
  N  N8  1  0.295599  0.807864  0.399061  1
  N  N9  1  0.704402  0.192135  0.600939  1
  N  N10  1  0.617760  0.562845  0.798363  1
