# generated using pymatgen
data_Hf8TiNb(CuSb3)2
_symmetry_space_group_name_H-M   'P 1'
_cell_length_a   8.51343400
_cell_length_b   8.51343340
_cell_length_c   5.72013400
_cell_angle_alpha   90.00000000
_cell_angle_beta   90.00000000
_cell_angle_gamma   119.99999457
_symmetry_Int_Tables_number   1
_chemical_formula_structural   Hf8TiNb(CuSb3)2
_chemical_formula_sum   'Hf8 Ti1 Nb1 Cu2 Sb6'
_cell_volume   359.04292603
_cell_formula_units_Z   1
loop_
 _symmetry_equiv_pos_site_id
 _symmetry_equiv_pos_as_xyz
  1  'x, y, z'
loop_
 _atom_site_type_symbol
 _atom_site_label
 _atom_site_symmetry_multiplicity
 _atom_site_fract_x
 _atom_site_fract_y
 _atom_site_fract_z
 _atom_site_occupancy
  Hf  Hf0  1  0.333333  0.666667  0.500000  1
  Hf  Hf1  1  0.666667  0.333333  0.500000  1
  Hf  Hf2  1  0.735292  0.735441  0.745915  1
  Hf  Hf3  1  0.264559  0.999852  0.745915  1
  Hf  Hf4  1  0.000148  0.264708  0.745915  1
  Hf  Hf5  1  0.264559  0.264708  0.254085  1
  Hf  Hf6  1  0.735292  0.999852  0.254085  1
  Hf  Hf7  1  0.000148  0.735441  0.254085  1
  Ti  Ti8  1  0.333333  0.666667  0.000000  1
  Nb  Nb9  1  0.666667  0.333333  0.000000  1
  Cu  Cu10  1  0.000000  0.000000  0.500000  1
  Cu  Cu11  1  0.000000  0.000000  0.000000  1
  Sb  Sb12  1  0.386519  0.387966  0.756119  1
  Sb  Sb13  1  0.612034  0.998553  0.756119  1
  Sb  Sb14  1  0.001447  0.613481  0.756119  1
  Sb  Sb15  1  0.612034  0.613481  0.243881  1
  Sb  Sb16  1  0.386519  0.998553  0.243881  1
  Sb  Sb17  1  0.001447  0.387966  0.243881  1
