# generated using pymatgen
data_Tb3(FeH6)2
_symmetry_space_group_name_H-M   'P 1'
_cell_length_a   4.62693500
_cell_length_b   4.62693317
_cell_length_c   7.93571200
_cell_angle_alpha   90.00000000
_cell_angle_beta   90.00000000
_cell_angle_gamma   119.99999166
_symmetry_Int_Tables_number   1
_chemical_formula_structural   Tb3(FeH6)2
_chemical_formula_sum   'Tb3 Fe2 H12'
_cell_volume   147.13066273
_cell_formula_units_Z   1
loop_
 _symmetry_equiv_pos_site_id
 _symmetry_equiv_pos_as_xyz
  1  'x, y, z'
loop_
 _atom_site_type_symbol
 _atom_site_label
 _atom_site_symmetry_multiplicity
 _atom_site_fract_x
 _atom_site_fract_y
 _atom_site_fract_z
 _atom_site_occupancy
  Tb  Tb0  1  0.000000  0.000000  0.000000  1
  Tb  Tb1  1  0.666667  0.333333  0.358911  1
  Tb  Tb2  1  0.333333  0.666667  0.641089  1
  Fe  Fe3  1  0.666667  0.333333  0.753354  1
  Fe  Fe4  1  0.333333  0.666667  0.246646  1
  H  H5  1  0.172789  0.827211  0.367784  1
  H  H6  1  0.654424  0.827211  0.367784  1
  H  H7  1  0.172789  0.345576  0.367784  1
  H  H8  1  0.827211  0.172789  0.632216  1
  H  H9  1  0.345576  0.172789  0.632216  1
  H  H10  1  0.827211  0.654424  0.632216  1
  H  H11  1  0.504748  0.009498  0.871655  1
  H  H12  1  0.504748  0.495252  0.871655  1
  H  H13  1  0.990502  0.495252  0.871655  1
  H  H14  1  0.495252  0.990502  0.128345  1
  H  H15  1  0.495252  0.504748  0.128345  1
  H  H16  1  0.009498  0.504748  0.128345  1
