# generated using pymatgen
data_Na4Al24SiPt8
_symmetry_space_group_name_H-M   'P 1'
_cell_length_a   7.51406035
_cell_length_b   7.53399360
_cell_length_c   13.31035700
_cell_angle_alpha   84.55825542
_cell_angle_beta   100.59492236
_cell_angle_gamma   119.73988788
_symmetry_Int_Tables_number   1
_chemical_formula_structural   Na4Al24SiPt8
_chemical_formula_sum   'Na4 Al24 Si1 Pt8'
_cell_volume   643.10347213
_cell_formula_units_Z   1
loop_
 _symmetry_equiv_pos_site_id
 _symmetry_equiv_pos_as_xyz
  1  'x, y, z'
loop_
 _atom_site_type_symbol
 _atom_site_label
 _atom_site_symmetry_multiplicity
 _atom_site_fract_x
 _atom_site_fract_y
 _atom_site_fract_z
 _atom_site_occupancy
  Na  Na0  1  0.436328  0.828880  0.810074  1
  Na  Na1  1  0.565184  0.169895  0.192357  1
  Na  Na2  1  0.766183  0.500023  0.809773  1
  Na  Na3  1  0.232991  0.499578  0.191600  1
  Al  Al4  1  0.485758  0.165937  0.949748  1
  Al  Al5  1  0.522049  0.836850  0.052421  1
  Al  Al6  1  0.010295  0.156914  0.557961  1
  Al  Al7  1  0.976034  0.832208  0.434844  1
  Al  Al8  1  0.351031  0.845808  0.557554  1
  Al  Al9  1  0.642939  0.165231  0.434650  1
  Al  Al10  1  0.616398  0.835651  0.326186  1
  Al  Al11  1  0.384269  0.160161  0.678186  1
  Al  Al12  1  0.052492  0.494452  0.677396  1
  Al  Al13  1  0.942119  0.505775  0.326198  1
  Al  Al14  1  0.737641  0.844745  0.677087  1
  Al  Al15  1  0.270440  0.160184  0.327153  1
  Al  Al16  1  0.151345  0.503148  0.951909  1
  Al  Al17  1  0.851778  0.502376  0.051442  1
  Al  Al18  1  0.819193  0.834277  0.953911  1
  Al  Al19  1  0.182992  0.167345  0.047499  1
  Al  Al20  1  0.307535  0.498397  0.430230  1
  Al  Al21  1  0.698448  0.498051  0.556837  1
  Al  Al22  1  0.106131  0.834170  0.183629  1
  Al  Al23  1  0.894830  0.165033  0.818061  1
  Al  Al24  1  0.307818  0.366461  0.819241  1
  Al  Al25  1  0.686490  0.625701  0.184194  1
  Al  Al26  1  0.104311  0.953696  0.816392  1
  Al  Al27  1  0.898495  0.045967  0.184842  1
  Si  Si28  1  0.380859  0.503571  0.637143  1
  Pt  Pt29  1  0.613761  0.493642  0.365109  1
  Pt  Pt30  1  0.172701  0.832421  0.999557  1
  Pt  Pt31  1  0.832880  0.173137  0.000777  1
  Pt  Pt32  1  0.293769  0.832072  0.366163  1
  Pt  Pt33  1  0.705159  0.165866  0.633782  1
  Pt  Pt34  1  0.042460  0.826961  0.632144  1
  Pt  Pt35  1  0.956526  0.173551  0.366490  1
  Pt  Pt36  1  0.500370  0.501865  0.997463  1
