# generated using pymatgen
data_Ti16Nb3Si16W
_symmetry_space_group_name_H-M   'P 1'
_cell_length_a   6.69763461
_cell_length_b   6.69763464
_cell_length_c   12.24325338
_cell_angle_alpha   90.04617694
_cell_angle_beta   89.95382177
_cell_angle_gamma   89.99932128
_symmetry_Int_Tables_number   1
_chemical_formula_structural   Ti16Nb3Si16W
_chemical_formula_sum   'Ti16 Nb3 Si16 W1'
_cell_volume   549.21129343
_cell_formula_units_Z   1
loop_
 _symmetry_equiv_pos_site_id
 _symmetry_equiv_pos_as_xyz
  1  'x, y, z'
loop_
 _atom_site_type_symbol
 _atom_site_label
 _atom_site_symmetry_multiplicity
 _atom_site_fract_x
 _atom_site_fract_y
 _atom_site_fract_z
 _atom_site_occupancy
  Ti  Ti0  1  0.994037  0.149263  0.620342  1
  Ti  Ti1  1  0.350874  0.494512  0.871157  1
  Ti  Ti2  1  0.649572  0.504890  0.371675  1
  Ti  Ti3  1  0.494512  0.350874  0.128843  1
  Ti  Ti4  1  0.504890  0.649572  0.628325  1
  Ti  Ti5  1  0.005025  0.851001  0.122270  1
  Ti  Ti6  1  0.149263  0.994037  0.379658  1
  Ti  Ti7  1  0.851001  0.005025  0.877730  1
  Ti  Ti8  1  0.003001  0.343698  0.221086  1
  Ti  Ti9  1  0.157204  0.503454  0.470267  1
  Ti  Ti10  1  0.843418  0.496416  0.969930  1
  Ti  Ti11  1  0.503454  0.157204  0.529733  1
  Ti  Ti12  1  0.496416  0.843418  0.030070  1
  Ti  Ti13  1  0.995957  0.656374  0.719941  1
  Ti  Ti14  1  0.343698  0.003001  0.778914  1
  Ti  Ti15  1  0.656374  0.995957  0.280059  1
  Nb  Nb16  1  0.170271  0.170271  0.000000  1
  Nb  Nb17  1  0.329238  0.670617  0.250944  1
  Nb  Nb18  1  0.670617  0.329238  0.749056  1
  Si  Si19  1  0.045842  0.302066  0.811877  1
  Si  Si20  1  0.197792  0.546123  0.062221  1
  Si  Si21  1  0.802998  0.457813  0.561713  1
  Si  Si22  1  0.546123  0.197792  0.937779  1
  Si  Si23  1  0.457813  0.802998  0.438287  1
  Si  Si24  1  0.952626  0.699840  0.313785  1
  Si  Si25  1  0.302066  0.045842  0.188123  1
  Si  Si26  1  0.699840  0.952626  0.686215  1
  Si  Si27  1  0.292074  0.359051  0.671545  1
  Si  Si28  1  0.140658  0.792151  0.921759  1
  Si  Si29  1  0.858414  0.205666  0.421935  1
  Si  Si30  1  0.792151  0.140658  0.078241  1
  Si  Si31  1  0.205666  0.858414  0.578065  1
  Si  Si32  1  0.707647  0.640847  0.172210  1
  Si  Si33  1  0.359051  0.292074  0.328455  1
  Si  Si34  1  0.640847  0.707647  0.827790  1
  W  W35  1  0.829567  0.829567  0.500000  1
