# generated using pymatgen
data_LaPr3Tc4F28
_symmetry_space_group_name_H-M   'P 1'
_cell_length_a   5.75116809
_cell_length_b   9.27025887
_cell_length_c   12.44530315
_cell_angle_alpha   62.03696242
_cell_angle_beta   90.02006827
_cell_angle_gamma   90.01176188
_symmetry_Int_Tables_number   1
_chemical_formula_structural   LaPr3Tc4F28
_chemical_formula_sum   'La1 Pr3 Tc4 F28'
_cell_volume   586.05335419
_cell_formula_units_Z   1
loop_
 _symmetry_equiv_pos_site_id
 _symmetry_equiv_pos_as_xyz
  1  'x, y, z'
loop_
 _atom_site_type_symbol
 _atom_site_label
 _atom_site_symmetry_multiplicity
 _atom_site_fract_x
 _atom_site_fract_y
 _atom_site_fract_z
 _atom_site_occupancy
  La  La0  1  0.758943  0.811780  0.764410  1
  Pr  Pr1  1  0.258877  0.190524  0.735538  1
  Pr  Pr2  1  0.241117  0.189301  0.235649  1
  Pr  Pr3  1  0.741020  0.811403  0.264388  1
  Tc  Tc4  1  0.756110  0.272303  0.958308  1
  Tc  Tc5  1  0.256026  0.726479  0.541204  1
  Tc  Tc6  1  0.243852  0.726050  0.043779  1
  Tc  Tc7  1  0.743702  0.274651  0.456807  1
  F  F8  1  0.434331  0.708849  0.919880  1
  F  F9  1  0.937136  0.290070  0.581070  1
  F  F10  1  0.562730  0.289226  0.081640  1
  F  F11  1  0.063173  0.710032  0.417437  1
  F  F12  1  0.457181  0.280853  0.542130  1
  F  F13  1  0.956670  0.718319  0.960261  1
  F  F14  1  0.543889  0.719291  0.457468  1
  F  F15  1  0.043101  0.279873  0.042561  1
  F  F16  1  0.767418  0.511241  0.863238  1
  F  F17  1  0.267394  0.486703  0.636598  1
  F  F18  1  0.233241  0.486446  0.138501  1
  F  F19  1  0.732638  0.514017  0.362307  1
  F  F20  1  0.758863  0.033594  0.051500  1
  F  F21  1  0.258882  0.965347  0.448268  1
  F  F22  1  0.241343  0.965074  0.948891  1
  F  F23  1  0.741298  0.036136  0.549104  1
  F  F24  1  0.975865  0.729127  0.630239  1
  F  F25  1  0.476196  0.269378  0.868340  1
  F  F26  1  0.023359  0.270594  0.367537  1
  F  F27  1  0.524523  0.730031  0.132583  1
  F  F28  1  0.055404  0.742812  0.169731  1
  F  F29  1  0.554272  0.258143  0.330944  1
  F  F30  1  0.945246  0.256393  0.831937  1
  F  F31  1  0.442769  0.741882  0.668108  1
  F  F32  1  0.408133  0.967713  0.230486  1
  F  F33  1  0.908506  0.033091  0.269495  1
  F  F34  1  0.592546  0.034915  0.769526  1
  F  F35  1  0.094245  0.968357  0.730134  1
