# generated using pymatgen
data_GaFeNi2F12
_symmetry_space_group_name_H-M   'P 1'
_cell_length_a   7.25954784
_cell_length_b   7.19246966
_cell_length_c   7.20609178
_cell_angle_alpha   59.94002960
_cell_angle_beta   60.24559085
_cell_angle_gamma   60.33163847
_symmetry_Int_Tables_number   1
_chemical_formula_structural   GaFeNi2F12
_chemical_formula_sum   'Ga1 Fe1 Ni2 F12'
_cell_volume   267.08767927
_cell_formula_units_Z   1
loop_
 _symmetry_equiv_pos_site_id
 _symmetry_equiv_pos_as_xyz
  1  'x, y, z'
loop_
 _atom_site_type_symbol
 _atom_site_label
 _atom_site_symmetry_multiplicity
 _atom_site_fract_x
 _atom_site_fract_y
 _atom_site_fract_z
 _atom_site_occupancy
  Ga  Ga0  1  0.000005  0.500007  0.999999  1
  Fe  Fe1  1  0.499996  0.999995  0.000006  1
  Ni  Ni2  1  0.000006  0.000007  0.999986  1
  Ni  Ni3  1  0.999993  0.000001  0.499998  1
  F  F4  1  0.687873  0.064909  0.066288  1
  F  F5  1  0.063067  0.686591  0.066141  1
  F  F6  1  0.690017  0.679432  0.065210  1
  F  F7  1  0.936946  0.313172  0.315845  1
  F  F8  1  0.311655  0.934944  0.319340  1
  F  F9  1  0.935316  0.935384  0.314323  1
  F  F10  1  0.688336  0.065047  0.680692  1
  F  F11  1  0.063058  0.686830  0.684148  1
  F  F12  1  0.064689  0.064614  0.685683  1
  F  F13  1  0.309980  0.320564  0.934792  1
  F  F14  1  0.936941  0.313421  0.933855  1
  F  F15  1  0.312122  0.935083  0.933698  1
