# generated using pymatgen
data_Nb6SbPt3N2
_symmetry_space_group_name_H-M   'P 1'
_cell_length_a   7.14182901
_cell_length_b   7.15034100
_cell_length_c   7.14852032
_cell_angle_alpha   90.00000000
_cell_angle_beta   89.72133065
_cell_angle_gamma   90.00000000
_symmetry_Int_Tables_number   1
_chemical_formula_structural   Nb6SbPt3N2
_chemical_formula_sum   'Nb12 Sb2 Pt6 N4'
_cell_volume   365.04568698
_cell_formula_units_Z   2
loop_
 _symmetry_equiv_pos_site_id
 _symmetry_equiv_pos_as_xyz
  1  'x, y, z'
loop_
 _atom_site_type_symbol
 _atom_site_label
 _atom_site_symmetry_multiplicity
 _atom_site_fract_x
 _atom_site_fract_y
 _atom_site_fract_z
 _atom_site_occupancy
  Nb  Nb0  1  0.781095  0.955141  0.380740  1
  Nb  Nb1  1  0.697136  0.045453  0.869679  1
  Nb  Nb2  1  0.218905  0.455141  0.119260  1
  Nb  Nb3  1  0.302864  0.545453  0.630321  1
  Nb  Nb4  1  0.951018  0.382012  0.792343  1
  Nb  Nb5  1  0.048982  0.882012  0.707657  1
  Nb  Nb6  1  0.461452  0.129442  0.206415  1
  Nb  Nb7  1  0.538548  0.629442  0.293585  1
  Nb  Nb8  1  0.383186  0.786621  0.947074  1
  Nb  Nb9  1  0.865368  0.701194  0.034947  1
  Nb  Nb10  1  0.134632  0.201194  0.465053  1
  Nb  Nb11  1  0.616814  0.286621  0.552926  1
  Sb  Sb12  1  0.934084  0.565677  0.428432  1
  Sb  Sb13  1  0.065916  0.065677  0.071568  1
  Pt  Pt14  1  0.180304  0.813382  0.313086  1
  Pt  Pt15  1  0.309521  0.185194  0.818263  1
  Pt  Pt16  1  0.819696  0.313382  0.186914  1
  Pt  Pt17  1  0.690479  0.685194  0.681737  1
  Pt  Pt18  1  0.566492  0.434252  0.935527  1
  Pt  Pt19  1  0.433508  0.934252  0.564473  1
  N  N20  1  0.871866  0.125559  0.626107  1
  N  N21  1  0.621050  0.876074  0.122645  1
  N  N22  1  0.128134  0.625559  0.873893  1
  N  N23  1  0.378950  0.376074  0.377355  1
