# generated using pymatgen
data_Y2HoSi6(Pd7Pt3)2
_symmetry_space_group_name_H-M   'P 1'
_cell_length_a   8.72191800
_cell_length_b   8.73413831
_cell_length_c   8.73413700
_cell_angle_alpha   60.00000116
_cell_angle_beta   59.95364221
_cell_angle_gamma   59.95363702
_symmetry_Int_Tables_number   1
_chemical_formula_structural   Y2HoSi6(Pd7Pt3)2
_chemical_formula_sum   'Y2 Ho1 Si6 Pd14 Pt6'
_cell_volume   470.14561286
_cell_formula_units_Z   1
loop_
 _symmetry_equiv_pos_site_id
 _symmetry_equiv_pos_as_xyz
  1  'x, y, z'
loop_
 _atom_site_type_symbol
 _atom_site_label
 _atom_site_symmetry_multiplicity
 _atom_site_fract_x
 _atom_site_fract_y
 _atom_site_fract_z
 _atom_site_occupancy
  Y  Y0  1  0.250736  0.249755  0.249755  1
  Y  Y1  1  0.749264  0.750245  0.750245  1
  Ho  Ho2  1  0.000000  0.000000  0.000000  1
  Si  Si3  1  0.730881  0.268228  0.268228  1
  Si  Si4  1  0.269119  0.731772  0.731772  1
  Si  Si5  1  0.269119  0.731772  0.267337  1
  Si  Si6  1  0.730881  0.268228  0.732663  1
  Si  Si7  1  0.269119  0.267337  0.731772  1
  Si  Si8  1  0.730881  0.732663  0.268228  1
  Pd  Pd9  1  0.851714  0.382762  0.382762  1
  Pd  Pd10  1  0.148286  0.617238  0.617238  1
  Pd  Pd11  1  0.344339  0.000020  0.000020  1
  Pd  Pd12  1  0.655661  0.999980  0.999980  1
  Pd  Pd13  1  0.000000  0.344709  0.655291  1
  Pd  Pd14  1  0.000000  0.655291  0.344709  1
  Pd  Pd15  1  0.000000  0.344709  0.000000  1
  Pd  Pd16  1  0.655661  0.999980  0.344379  1
  Pd  Pd17  1  0.000000  0.655291  0.000000  1
  Pd  Pd18  1  0.344339  0.000020  0.655621  1
  Pd  Pd19  1  0.000000  0.000000  0.344709  1
  Pd  Pd20  1  0.000000  0.000000  0.655291  1
  Pd  Pd21  1  0.655661  0.344379  0.999980  1
  Pd  Pd22  1  0.344339  0.655621  0.000020  1
  Pt  Pt23  1  0.381934  0.384951  0.384951  1
  Pt  Pt24  1  0.618066  0.615049  0.615049  1
  Pt  Pt25  1  0.381934  0.384951  0.848165  1
  Pt  Pt26  1  0.381934  0.848165  0.384951  1
  Pt  Pt27  1  0.618066  0.615049  0.151835  1
  Pt  Pt28  1  0.618066  0.151835  0.615049  1
