# generated using pymatgen
data_Tm12AlInCo3Cu
_symmetry_space_group_name_H-M   'P 1'
_cell_length_a   8.27087836
_cell_length_b   8.27087841
_cell_length_c   8.27087871
_cell_angle_alpha   112.68785639
_cell_angle_beta   109.97265158
_cell_angle_gamma   105.82606572
_symmetry_Int_Tables_number   1
_chemical_formula_structural   Tm12AlInCo3Cu
_chemical_formula_sum   'Tm12 Al1 In1 Co3 Cu1'
_cell_volume   433.97247205
_cell_formula_units_Z   1
loop_
 _symmetry_equiv_pos_site_id
 _symmetry_equiv_pos_as_xyz
  1  'x, y, z'
loop_
 _atom_site_type_symbol
 _atom_site_label
 _atom_site_symmetry_multiplicity
 _atom_site_fract_x
 _atom_site_fract_y
 _atom_site_fract_z
 _atom_site_occupancy
  Tm  Tm0  1  0.178960  0.275791  0.462343  1
  Tm  Tm1  1  0.813446  0.716616  0.537657  1
  Tm  Tm2  1  0.178960  0.716616  0.903170  1
  Tm  Tm3  1  0.813446  0.275791  0.096830  1
  Tm  Tm4  1  0.335765  0.644855  0.309090  1
  Tm  Tm5  1  0.677574  0.364977  0.687404  1
  Tm  Tm6  1  0.335765  0.026675  0.690910  1
  Tm  Tm7  1  0.677574  0.990170  0.312596  1
  Tm  Tm8  1  0.434119  0.234010  0.200110  1
  Tm  Tm9  1  0.565199  0.764755  0.800444  1
  Tm  Tm10  1  0.033900  0.234010  0.799890  1
  Tm  Tm11  1  0.964312  0.764755  0.199556  1
  Al  Al12  1  0.998514  0.998514  0.000000  1
  In  In13  1  0.499483  0.499483  0.000000  1
  Co  Co14  1  0.879567  0.379567  0.500000  1
  Co  Co15  1  0.332815  0.997219  0.335596  1
  Co  Co16  1  0.661622  0.997219  0.664404  1
  Cu  Cu17  1  0.118976  0.618976  0.500000  1
