# generated using pymatgen
data_Sr2ScCuSeO3
_symmetry_space_group_name_H-M   'P 1'
_cell_length_a   4.10760400
_cell_length_b   4.10760400
_cell_length_c   15.81051900
_cell_angle_alpha   90.00000000
_cell_angle_beta   90.00000000
_cell_angle_gamma   90.00000000
_symmetry_Int_Tables_number   1
_chemical_formula_structural   Sr2ScCuSeO3
_chemical_formula_sum   'Sr4 Sc2 Cu2 Se2 O6'
_cell_volume   266.76156870
_cell_formula_units_Z   2
loop_
 _symmetry_equiv_pos_site_id
 _symmetry_equiv_pos_as_xyz
  1  'x, y, z'
loop_
 _atom_site_type_symbol
 _atom_site_label
 _atom_site_symmetry_multiplicity
 _atom_site_fract_x
 _atom_site_fract_y
 _atom_site_fract_z
 _atom_site_occupancy
  Sr  Sr0  1  0.749999  0.749999  0.187170  1
  Sr  Sr1  1  0.749999  0.749999  0.413977  1
  Sr  Sr2  1  0.250000  0.250000  0.586023  1
  Sr  Sr3  1  0.250000  0.250000  0.812830  1
  Sc  Sc4  1  0.250000  0.250000  0.307052  1
  Sc  Sc5  1  0.749999  0.749999  0.692949  1
  Cu  Cu6  1  0.749999  0.250000  0.000000  1
  Cu  Cu7  1  0.250000  0.749999  0.000000  1
  Se  Se8  1  0.250000  0.250000  0.093737  1
  Se  Se9  1  0.749999  0.749999  0.906263  1
  O  O10  1  0.749999  0.250000  0.286344  1
  O  O11  1  0.250000  0.749999  0.286344  1
  O  O12  1  0.250000  0.250000  0.432828  1
  O  O13  1  0.749999  0.749999  0.567172  1
  O  O14  1  0.749999  0.250000  0.713656  1
  O  O15  1  0.250000  0.749999  0.713656  1
