# generated using pymatgen
data_YbDy(UH4)6
_symmetry_space_group_name_H-M   'P 1'
_cell_length_a   6.62928900
_cell_length_b   6.59491400
_cell_length_c   6.59491400
_cell_angle_alpha   90.00000000
_cell_angle_beta   90.00000000
_cell_angle_gamma   90.00000000
_symmetry_Int_Tables_number   1
_chemical_formula_structural   YbDy(UH4)6
_chemical_formula_sum   'Yb1 Dy1 U6 H24'
_cell_volume   288.32694168
_cell_formula_units_Z   1
loop_
 _symmetry_equiv_pos_site_id
 _symmetry_equiv_pos_as_xyz
  1  'x, y, z'
loop_
 _atom_site_type_symbol
 _atom_site_label
 _atom_site_symmetry_multiplicity
 _atom_site_fract_x
 _atom_site_fract_y
 _atom_site_fract_z
 _atom_site_occupancy
  Yb  Yb0  1  0.750000  0.000000  0.500000  1
  Dy  Dy1  1  0.250000  0.000000  0.500000  1
  U  U2  1  0.000286  0.000000  0.000000  1
  U  U3  1  0.499714  0.500000  0.500000  1
  U  U4  1  0.999631  0.500000  0.252071  1
  U  U5  1  0.999631  0.500000  0.747929  1
  U  U6  1  0.500369  0.752071  0.000000  1
  U  U7  1  0.500369  0.247929  0.000000  1
  H  H8  1  0.005526  0.157094  0.297751  1
  H  H9  1  0.494474  0.202249  0.657094  1
  H  H10  1  0.494474  0.797751  0.342906  1
  H  H11  1  0.808459  0.649354  0.500000  1
  H  H12  1  0.193351  0.653696  0.500000  1
  H  H13  1  0.344870  0.500000  0.804052  1
  H  H14  1  0.655307  0.500000  0.803783  1
  H  H15  1  0.306649  0.000000  0.153696  1
  H  H16  1  0.155130  0.304052  0.000000  1
  H  H17  1  0.844693  0.696217  0.000000  1
  H  H18  1  0.306649  0.000000  0.846304  1
  H  H19  1  0.844693  0.303783  0.000000  1
  H  H20  1  0.691541  0.000000  0.149354  1
  H  H21  1  0.691541  0.000000  0.850646  1
  H  H22  1  0.155130  0.695948  0.000000  1
  H  H23  1  0.005526  0.842906  0.702249  1
  H  H24  1  0.005526  0.157094  0.702249  1
  H  H25  1  0.005526  0.842906  0.297751  1
  H  H26  1  0.655307  0.500000  0.196217  1
  H  H27  1  0.344870  0.500000  0.195948  1
  H  H28  1  0.808459  0.350646  0.500000  1
  H  H29  1  0.193351  0.346304  0.500000  1
  H  H30  1  0.494474  0.797751  0.657094  1
  H  H31  1  0.494474  0.202249  0.342906  1
