# generated using pymatgen
data_Ho5Er(TmIn4)2
_symmetry_space_group_name_H-M   'P 1'
_cell_length_a   6.47287982
_cell_length_b   6.47287864
_cell_length_c   10.23341400
_cell_angle_alpha   90.00000000
_cell_angle_beta   90.00000000
_cell_angle_gamma   102.94636366
_symmetry_Int_Tables_number   1
_chemical_formula_structural   Ho5Er(TmIn4)2
_chemical_formula_sum   'Ho5 Er1 Tm2 In8'
_cell_volume   417.86225703
_cell_formula_units_Z   1
loop_
 _symmetry_equiv_pos_site_id
 _symmetry_equiv_pos_as_xyz
  1  'x, y, z'
loop_
 _atom_site_type_symbol
 _atom_site_label
 _atom_site_symmetry_multiplicity
 _atom_site_fract_x
 _atom_site_fract_y
 _atom_site_fract_z
 _atom_site_occupancy
  Ho  Ho0  1  0.521654  0.521654  0.250000  1
  Ho  Ho1  1  0.247662  0.752087  0.500126  1
  Ho  Ho2  1  0.247662  0.752087  0.999874  1
  Ho  Ho3  1  0.752087  0.247662  0.500126  1
  Ho  Ho4  1  0.752087  0.247662  0.999874  1
  Er  Er5  1  0.478558  0.478558  0.750000  1
  Tm  Tm6  1  0.987421  0.987421  0.250000  1
  Tm  Tm7  1  0.013097  0.013097  0.750000  1
  In  In8  1  0.251891  0.251891  0.011346  1
  In  In9  1  0.748045  0.748045  0.987983  1
  In  In10  1  0.251891  0.251891  0.488654  1
  In  In11  1  0.748045  0.748045  0.512017  1
  In  In12  1  0.492685  0.013657  0.250000  1
  In  In13  1  0.986244  0.507313  0.750000  1
  In  In14  1  0.507313  0.986244  0.750000  1
  In  In15  1  0.013657  0.492685  0.250000  1
