# generated using pymatgen
data_Dy19YBi12
_symmetry_space_group_name_H-M   'P 1'
_cell_length_a   8.26762104
_cell_length_b   9.53050300
_cell_length_c   12.08566105
_cell_angle_alpha   90.00000000
_cell_angle_beta   89.98941682
_cell_angle_gamma   90.00000000
_symmetry_Int_Tables_number   1
_chemical_formula_structural   Dy19YBi12
_chemical_formula_sum   'Dy19 Y1 Bi12'
_cell_volume   952.28465589
_cell_formula_units_Z   1
loop_
 _symmetry_equiv_pos_site_id
 _symmetry_equiv_pos_as_xyz
  1  'x, y, z'
loop_
 _atom_site_type_symbol
 _atom_site_label
 _atom_site_symmetry_multiplicity
 _atom_site_fract_x
 _atom_site_fract_y
 _atom_site_fract_z
 _atom_site_occupancy
  Dy  Dy0  1  0.026426  0.750000  0.988822  1
  Dy  Dy1  1  0.526396  0.750000  0.511192  1
  Dy  Dy2  1  0.973613  0.250000  0.011203  1
  Dy  Dy3  1  0.473640  0.250000  0.488812  1
  Dy  Dy4  1  0.186171  0.750000  0.718985  1
  Dy  Dy5  1  0.686179  0.750000  0.781031  1
  Dy  Dy6  1  0.813807  0.250000  0.281040  1
  Dy  Dy7  1  0.313839  0.250000  0.218952  1
  Dy  Dy8  1  0.306322  0.436961  0.940038  1
  Dy  Dy9  1  0.806197  0.063063  0.560043  1
  Dy  Dy10  1  0.693713  0.936973  0.060039  1
  Dy  Dy11  1  0.193704  0.563061  0.439952  1
  Dy  Dy12  1  0.693713  0.563027  0.060039  1
  Dy  Dy13  1  0.193704  0.936939  0.439952  1
  Dy  Dy14  1  0.306322  0.063039  0.940038  1
  Dy  Dy15  1  0.806197  0.436937  0.560043  1
  Dy  Dy16  1  0.354006  0.750000  0.215286  1
  Dy  Dy17  1  0.854010  0.750000  0.284703  1
  Dy  Dy18  1  0.645978  0.250000  0.784715  1
  Y  Y19  1  0.146072  0.250000  0.715077  1
  Bi  Bi20  1  0.433675  0.003663  0.673939  1
  Bi  Bi21  1  0.933486  0.496338  0.826113  1
  Bi  Bi22  1  0.566436  0.503728  0.326065  1
  Bi  Bi23  1  0.066440  0.996281  0.173928  1
  Bi  Bi24  1  0.566436  0.996272  0.326065  1
  Bi  Bi25  1  0.066440  0.503719  0.173928  1
  Bi  Bi26  1  0.433675  0.496337  0.673939  1
  Bi  Bi27  1  0.933486  0.003662  0.826113  1
  Bi  Bi28  1  0.409750  0.750000  0.957993  1
  Bi  Bi29  1  0.909710  0.750000  0.541993  1
  Bi  Bi30  1  0.590265  0.250000  0.041973  1
  Bi  Bi31  1  0.090192  0.250000  0.457993  1
