# generated using pymatgen
data_Y11HoGa20
_symmetry_space_group_name_H-M   'P 1'
_cell_length_a   6.11310000
_cell_length_b   9.64679500
_cell_length_c   11.62334900
_cell_angle_alpha   90.00007014
_cell_angle_beta   89.99939695
_cell_angle_gamma   90.00009438
_symmetry_Int_Tables_number   1
_chemical_formula_structural   Y11HoGa20
_chemical_formula_sum   'Y11 Ho1 Ga20'
_cell_volume   685.45007423
_cell_formula_units_Z   1
loop_
 _symmetry_equiv_pos_site_id
 _symmetry_equiv_pos_as_xyz
  1  'x, y, z'
loop_
 _atom_site_type_symbol
 _atom_site_label
 _atom_site_symmetry_multiplicity
 _atom_site_fract_x
 _atom_site_fract_y
 _atom_site_fract_z
 _atom_site_occupancy
  Y  Y0  1  0.849218  0.750001  0.075638  1
  Y  Y1  1  0.650731  0.750000  0.575597  1
  Y  Y2  1  0.150734  0.250000  0.924324  1
  Y  Y3  1  0.890713  0.509126  0.351142  1
  Y  Y4  1  0.609550  0.990890  0.851082  1
  Y  Y5  1  0.109576  0.009343  0.648656  1
  Y  Y6  1  0.390448  0.490733  0.148905  1
  Y  Y7  1  0.109577  0.490659  0.648657  1
  Y  Y8  1  0.390447  0.009266  0.148905  1
  Y  Y9  1  0.890715  0.990871  0.351142  1
  Y  Y10  1  0.609551  0.509110  0.851083  1
  Ho  Ho11  1  0.349096  0.250000  0.424586  1
  Ga  Ga12  1  0.875548  0.054644  0.090295  1
  Ga  Ga13  1  0.624400  0.445187  0.589878  1
  Ga  Ga14  1  0.124518  0.554448  0.909769  1
  Ga  Ga15  1  0.375514  0.946365  0.409836  1
  Ga  Ga16  1  0.124522  0.945554  0.909766  1
  Ga  Ga17  1  0.375502  0.553634  0.409829  1
  Ga  Ga18  1  0.875555  0.445349  0.090297  1
  Ga  Ga19  1  0.624396  0.054813  0.589875  1
  Ga  Ga20  1  0.172968  0.750002  0.252928  1
  Ga  Ga21  1  0.327042  0.750002  0.752886  1
  Ga  Ga22  1  0.826983  0.250000  0.747025  1
  Ga  Ga23  1  0.671894  0.250002  0.247738  1
  Ga  Ga24  1  0.373197  0.749999  0.003809  1
  Ga  Ga25  1  0.127195  0.750000  0.503764  1
  Ga  Ga26  1  0.626815  0.250000  0.996245  1
  Ga  Ga27  1  0.873660  0.250002  0.495702  1
  Ga  Ga28  1  0.601265  0.750000  0.299982  1
  Ga  Ga29  1  0.898409  0.749997  0.799838  1
  Ga  Ga30  1  0.398306  0.250000  0.699823  1
  Ga  Ga31  1  0.101959  0.250002  0.200996  1
