# generated using pymatgen
data_Ca3Tm(SbPt)4
_symmetry_space_group_name_H-M   'P 1'
_cell_length_a   4.63737500
_cell_length_b   7.33358657
_cell_length_c   7.94701564
_cell_angle_alpha   90.04557801
_cell_angle_beta   90.00000000
_cell_angle_gamma   90.00000000
_symmetry_Int_Tables_number   1
_chemical_formula_structural   Ca3Tm(SbPt)4
_chemical_formula_sum   'Ca3 Tm1 Sb4 Pt4'
_cell_volume   270.26671920
_cell_formula_units_Z   1
loop_
 _symmetry_equiv_pos_site_id
 _symmetry_equiv_pos_as_xyz
  1  'x, y, z'
loop_
 _atom_site_type_symbol
 _atom_site_label
 _atom_site_symmetry_multiplicity
 _atom_site_fract_x
 _atom_site_fract_y
 _atom_site_fract_z
 _atom_site_occupancy
  Ca  Ca0  1  0.250000  0.006339  0.302245  1
  Ca  Ca1  1  0.750000  0.492693  0.800182  1
  Ca  Ca2  1  0.250000  0.507469  0.199443  1
  Tm  Tm3  1  0.750000  0.991646  0.699267  1
  Sb  Sb4  1  0.750000  0.310651  0.408595  1
  Sb  Sb5  1  0.250000  0.187069  0.909060  1
  Sb  Sb6  1  0.250000  0.684012  0.591024  1
  Sb  Sb7  1  0.750000  0.811145  0.090267  1
  Pt  Pt8  1  0.250000  0.809912  0.909700  1
  Pt  Pt9  1  0.250000  0.291694  0.585744  1
  Pt  Pt10  1  0.750000  0.711110  0.424503  1
  Pt  Pt11  1  0.750000  0.196261  0.079972  1
