# generated using pymatgen
data_K3Rb3Gd2F12
_symmetry_space_group_name_H-M   'P 1'
_cell_length_a   6.75321149
_cell_length_b   6.52588906
_cell_length_c   11.32317700
_cell_angle_alpha   55.29600607
_cell_angle_beta   90.02185537
_cell_angle_gamma   89.93731460
_symmetry_Int_Tables_number   1
_chemical_formula_structural   K3Rb3Gd2F12
_chemical_formula_sum   'K3 Rb3 Gd2 F12'
_cell_volume   410.24632457
_cell_formula_units_Z   1
loop_
 _symmetry_equiv_pos_site_id
 _symmetry_equiv_pos_as_xyz
  1  'x, y, z'
loop_
 _atom_site_type_symbol
 _atom_site_label
 _atom_site_symmetry_multiplicity
 _atom_site_fract_x
 _atom_site_fract_y
 _atom_site_fract_z
 _atom_site_occupancy
  K  K0  1  0.499794  0.498780  0.001566  1
  K  K1  1  0.998847  0.500242  0.499135  1
  K  K2  1  0.449958  0.733026  0.254738  1
  Rb  Rb3  1  0.050222  0.731334  0.753193  1
  Rb  Rb4  1  0.950970  0.264743  0.247362  1
  Rb  Rb5  1  0.547501  0.267444  0.747466  1
  Gd  Gd6  1  0.499377  0.002576  0.497301  1
  Gd  Gd7  1  0.999747  0.997723  0.002274  1
  F  F8  1  0.771871  0.766667  0.558994  1
  F  F9  1  0.230525  0.243247  0.436713  1
  F  F10  1  0.268941  0.238600  0.939352  1
  F  F11  1  0.724805  0.763488  0.067107  1
  F  F12  1  0.456689  0.871311  0.726096  1
  F  F13  1  0.544021  0.113820  0.272343  1
  F  F14  1  0.953952  0.126877  0.773944  1
  F  F15  1  0.059334  0.868638  0.228640  1
  F  F16  1  0.315698  0.680970  0.543083  1
  F  F17  1  0.676515  0.331975  0.448127  1
  F  F18  1  0.818263  0.320505  0.958056  1
  F  F19  1  0.182971  0.678031  0.044509  1
