# generated using pymatgen
data_Ho3Tm3(AlC3)2
_symmetry_space_group_name_H-M   'P 1'
_cell_length_a   3.52868100
_cell_length_b   6.96692951
_cell_length_c   9.90704465
_cell_angle_alpha   89.90223799
_cell_angle_beta   90.00000000
_cell_angle_gamma   90.00000000
_symmetry_Int_Tables_number   1
_chemical_formula_structural   Ho3Tm3(AlC3)2
_chemical_formula_sum   'Ho3 Tm3 Al2 C6'
_cell_volume   243.55514216
_cell_formula_units_Z   1
loop_
 _symmetry_equiv_pos_site_id
 _symmetry_equiv_pos_as_xyz
  1  'x, y, z'
loop_
 _atom_site_type_symbol
 _atom_site_label
 _atom_site_symmetry_multiplicity
 _atom_site_fract_x
 _atom_site_fract_y
 _atom_site_fract_z
 _atom_site_occupancy
  Ho  Ho0  1  0.500000  0.509402  0.200232  1
  Ho  Ho1  1  0.000000  0.750239  0.458794  1
  Ho  Ho2  1  0.000000  0.250236  0.541365  1
  Tm  Tm3  1  0.500000  0.487899  0.799464  1
  Tm  Tm4  1  0.500000  0.988638  0.200980  1
  Tm  Tm5  1  0.500000  0.011544  0.798747  1
  Al  Al6  1  0.000000  0.752229  0.003514  1
  Al  Al7  1  0.000000  0.247275  0.995392  1
  C  C8  1  0.500000  0.509897  0.567812  1
  C  C9  1  0.500000  0.490832  0.434398  1
  C  C10  1  0.500000  0.990694  0.566691  1
  C  C11  1  0.500000  0.009645  0.433233  1
  C  C12  1  0.000000  0.751727  0.207950  1
  C  C13  1  0.000000  0.249744  0.791429  1
