# generated using pymatgen
data_MnIr3PdPb3O14
_symmetry_space_group_name_H-M   'P 1'
_cell_length_a   7.36720157
_cell_length_b   7.36720085
_cell_length_c   7.27152200
_cell_angle_alpha   59.69214808
_cell_angle_beta   59.69216938
_cell_angle_gamma   60.09554758
_symmetry_Int_Tables_number   1
_chemical_formula_structural   MnIr3PdPb3O14
_chemical_formula_sum   'Mn1 Ir3 Pd1 Pb3 O14'
_cell_volume   277.96397868
_cell_formula_units_Z   1
loop_
 _symmetry_equiv_pos_site_id
 _symmetry_equiv_pos_as_xyz
  1  'x, y, z'
loop_
 _atom_site_type_symbol
 _atom_site_label
 _atom_site_symmetry_multiplicity
 _atom_site_fract_x
 _atom_site_fract_y
 _atom_site_fract_z
 _atom_site_occupancy
  Mn  Mn0  1  0.125000  0.125000  0.625000  1
  Ir  Ir1  1  0.125000  0.625000  0.625000  1
  Ir  Ir2  1  0.625000  0.125000  0.625000  1
  Ir  Ir3  1  0.625000  0.625000  0.125000  1
  Pd  Pd4  1  0.625000  0.625000  0.625000  1
  Pb  Pb5  1  0.625000  0.125000  0.125000  1
  Pb  Pb6  1  0.125000  0.625000  0.125000  1
  Pb  Pb7  1  0.125000  0.125000  0.125000  1
  O  O8  1  0.707768  0.707768  0.286005  1
  O  O9  1  0.301052  0.301052  0.710886  1
  O  O10  1  0.712970  0.284617  0.702889  1
  O  O11  1  0.296474  0.708047  0.294270  1
  O  O12  1  0.284617  0.712970  0.702889  1
  O  O13  1  0.708047  0.296474  0.294270  1
  O  O14  1  0.542232  0.542232  0.963995  1
  O  O15  1  0.948948  0.948948  0.539114  1
  O  O16  1  0.537030  0.965383  0.547111  1
  O  O17  1  0.953526  0.541953  0.955730  1
  O  O18  1  0.965383  0.537030  0.547111  1
  O  O19  1  0.541953  0.953526  0.955730  1
  O  O20  1  0.238110  0.238110  0.284519  1
  O  O21  1  0.011890  0.011890  0.965481  1
