# generated using pymatgen
data_Dy6Si6Ir3Os
_symmetry_space_group_name_H-M   'P 1'
_cell_length_a   5.77211037
_cell_length_b   5.77210953
_cell_length_c   13.66819117
_cell_angle_alpha   89.91646683
_cell_angle_beta   90.08353259
_cell_angle_gamma   137.40733083
_symmetry_Int_Tables_number   1
_chemical_formula_structural   Dy6Si6Ir3Os
_chemical_formula_sum   'Dy6 Si6 Ir3 Os1'
_cell_volume   308.19696894
_cell_formula_units_Z   1
loop_
 _symmetry_equiv_pos_site_id
 _symmetry_equiv_pos_as_xyz
  1  'x, y, z'
loop_
 _atom_site_type_symbol
 _atom_site_label
 _atom_site_symmetry_multiplicity
 _atom_site_fract_x
 _atom_site_fract_y
 _atom_site_fract_z
 _atom_site_occupancy
  Dy  Dy0  1  0.578308  0.421692  0.614968  1
  Dy  Dy1  1  0.423932  0.576068  0.384501  1
  Dy  Dy2  1  0.422617  0.577383  0.116264  1
  Dy  Dy3  1  0.577494  0.422506  0.884069  1
  Dy  Dy4  1  0.142941  0.857059  0.250318  1
  Dy  Dy5  1  0.857352  0.142648  0.750517  1
  Si  Si6  1  0.884246  0.115754  0.540097  1
  Si  Si7  1  0.113701  0.886299  0.460526  1
  Si  Si8  1  0.110947  0.889053  0.039859  1
  Si  Si9  1  0.888375  0.111625  0.960847  1
  Si  Si10  1  0.831947  0.168053  0.249880  1
  Si  Si11  1  0.171375  0.828625  0.749089  1
  Ir  Ir12  1  0.284873  0.715127  0.920514  1
  Ir  Ir13  1  0.713650  0.286350  0.079529  1
  Ir  Ir14  1  0.713418  0.286582  0.418281  1
  Os  Os15  1  0.284823  0.715177  0.580742  1
