# generated using pymatgen
data_Cs2K3(PtN)3
_symmetry_space_group_name_H-M   'P 1'
_cell_length_a   9.46817437
_cell_length_b   9.62589869
_cell_length_c   3.78543800
_cell_angle_alpha   90.00000000
_cell_angle_beta   90.00000000
_cell_angle_gamma   120.55260255
_symmetry_Int_Tables_number   1
_chemical_formula_structural   Cs2K3(PtN)3
_chemical_formula_sum   'Cs2 K3 Pt3 N3'
_cell_volume   297.10430800
_cell_formula_units_Z   1
loop_
 _symmetry_equiv_pos_site_id
 _symmetry_equiv_pos_as_xyz
  1  'x, y, z'
loop_
 _atom_site_type_symbol
 _atom_site_label
 _atom_site_symmetry_multiplicity
 _atom_site_fract_x
 _atom_site_fract_y
 _atom_site_fract_z
 _atom_site_occupancy
  Cs  Cs0  1  0.734638  0.001627  0.500001  1
  Cs  Cs1  1  0.265361  0.266988  0.500001  1
  K  K2  1  0.666505  0.333379  0.500001  1
  K  K3  1  0.333494  0.666872  0.500001  1
  K  K4  1  0.000000  0.725868  0.500001  1
  Pt  Pt5  1  0.365399  0.988293  0.000000  1
  Pt  Pt6  1  0.000000  0.391315  0.000000  1
  Pt  Pt7  1  0.634601  0.622894  0.000000  1
  N  N8  1  0.366108  0.988495  0.500001  1
  N  N9  1  0.000000  0.391882  0.500001  1
  N  N10  1  0.633891  0.622387  0.500001  1
