# generated using pymatgen
data_PrNd2Tm5(CdIr)2
_symmetry_space_group_name_H-M   'P 1'
_cell_length_a   9.68309366
_cell_length_b   9.68305068
_cell_length_c   9.68305000
_cell_angle_alpha   60.00030218
_cell_angle_beta   59.99984500
_cell_angle_gamma   59.99985083
_symmetry_Int_Tables_number   1
_chemical_formula_structural   PrNd2Tm5(CdIr)2
_chemical_formula_sum   'Pr2 Nd4 Tm10 Cd4 Ir4'
_cell_volume   641.98296973
_cell_formula_units_Z   2
loop_
 _symmetry_equiv_pos_site_id
 _symmetry_equiv_pos_as_xyz
  1  'x, y, z'
loop_
 _atom_site_type_symbol
 _atom_site_label
 _atom_site_symmetry_multiplicity
 _atom_site_fract_x
 _atom_site_fract_y
 _atom_site_fract_z
 _atom_site_occupancy
  Pr  Pr0  1  0.941070  0.558930  0.558930  1
  Pr  Pr1  1  0.558930  0.941070  0.941070  1
  Nd  Nd2  1  0.558480  0.941520  0.558480  1
  Nd  Nd3  1  0.941520  0.558480  0.941520  1
  Nd  Nd4  1  0.558480  0.558480  0.941520  1
  Nd  Nd5  1  0.941520  0.941520  0.558480  1
  Tm  Tm6  1  0.346891  0.346642  0.346642  1
  Tm  Tm7  1  0.346642  0.346891  0.959827  1
  Tm  Tm8  1  0.346642  0.959827  0.346891  1
  Tm  Tm9  1  0.959827  0.346642  0.346642  1
  Tm  Tm10  1  0.813425  0.186575  0.186575  1
  Tm  Tm11  1  0.186575  0.813425  0.813425  1
  Tm  Tm12  1  0.186478  0.813522  0.186478  1
  Tm  Tm13  1  0.813522  0.186478  0.813522  1
  Tm  Tm14  1  0.186478  0.186478  0.813522  1
  Tm  Tm15  1  0.813522  0.813522  0.186478  1
  Cd  Cd16  1  0.579006  0.579390  0.579390  1
  Cd  Cd17  1  0.579390  0.579006  0.262212  1
  Cd  Cd18  1  0.579390  0.262212  0.579006  1
  Cd  Cd19  1  0.262212  0.579390  0.579390  1
  Ir  Ir20  1  0.140879  0.141338  0.141338  1
  Ir  Ir21  1  0.141338  0.140879  0.576445  1
  Ir  Ir22  1  0.141338  0.576445  0.140879  1
  Ir  Ir23  1  0.576445  0.141338  0.141338  1
