# generated using pymatgen
data_Dy4LuTh3Ni8
_symmetry_space_group_name_H-M   'P 1'
_cell_length_a   4.28838200
_cell_length_b   5.46419332
_cell_length_c   13.86188264
_cell_angle_alpha   89.49791314
_cell_angle_beta   90.00000000
_cell_angle_gamma   90.00000000
_symmetry_Int_Tables_number   1
_chemical_formula_structural   Dy4LuTh3Ni8
_chemical_formula_sum   'Dy4 Lu1 Th3 Ni8'
_cell_volume   324.80676244
_cell_formula_units_Z   1
loop_
 _symmetry_equiv_pos_site_id
 _symmetry_equiv_pos_as_xyz
  1  'x, y, z'
loop_
 _atom_site_type_symbol
 _atom_site_label
 _atom_site_symmetry_multiplicity
 _atom_site_fract_x
 _atom_site_fract_y
 _atom_site_fract_z
 _atom_site_occupancy
  Dy  Dy0  1  0.750000  0.473188  0.715792  1
  Dy  Dy1  1  0.250000  0.972918  0.781782  1
  Dy  Dy2  1  0.250000  0.749315  0.535087  1
  Dy  Dy3  1  0.250000  0.748093  0.035446  1
  Lu  Lu4  1  0.250000  0.527634  0.284851  1
  Th  Th5  1  0.750000  0.260748  0.966167  1
  Th  Th6  1  0.750000  0.027929  0.217099  1
  Th  Th7  1  0.750000  0.244187  0.465833  1
  Ni  Ni8  1  0.250000  0.030449  0.353861  1
  Ni  Ni9  1  0.750000  0.528601  0.150079  1
  Ni  Ni10  1  0.750000  0.741811  0.391007  1
  Ni  Ni11  1  0.250000  0.474954  0.856186  1
  Ni  Ni12  1  0.750000  0.974704  0.641656  1
  Ni  Ni13  1  0.750000  0.751177  0.893811  1
  Ni  Ni14  1  0.250000  0.248972  0.107145  1
  Ni  Ni15  1  0.250000  0.245320  0.604199  1
