# generated using pymatgen
data_Ba2Sb4RuPt
_symmetry_space_group_name_H-M   'P 1'
_cell_length_a   9.71498815
_cell_length_b   9.71498849
_cell_length_c   4.93216700
_cell_angle_alpha   90.00000000
_cell_angle_beta   90.00000000
_cell_angle_gamma   150.91832853
_symmetry_Int_Tables_number   1
_chemical_formula_structural   Ba2Sb4RuPt
_chemical_formula_sum   'Ba2 Sb4 Ru1 Pt1'
_cell_volume   226.26037690
_cell_formula_units_Z   1
loop_
 _symmetry_equiv_pos_site_id
 _symmetry_equiv_pos_as_xyz
  1  'x, y, z'
loop_
 _atom_site_type_symbol
 _atom_site_label
 _atom_site_symmetry_multiplicity
 _atom_site_fract_x
 _atom_site_fract_y
 _atom_site_fract_z
 _atom_site_occupancy
  Ba  Ba0  1  0.391063  0.608937  0.750000  1
  Ba  Ba1  1  0.606100  0.393900  0.250000  1
  Sb  Sb2  1  0.050535  0.949465  0.750000  1
  Sb  Sb3  1  0.956335  0.043665  0.250000  1
  Sb  Sb4  1  0.245950  0.754050  0.250000  1
  Sb  Sb5  1  0.747571  0.252429  0.750000  1
  Ru  Ru6  1  0.187961  0.812039  0.750000  1
  Pt  Pt7  1  0.814487  0.185513  0.250000  1
