# generated using pymatgen
data_Yb10In2CuPd3
_symmetry_space_group_name_H-M   'P 1'
_cell_length_a   8.96551188
_cell_length_b   8.96551058
_cell_length_c   8.98799128
_cell_angle_alpha   127.84208317
_cell_angle_beta   127.84207921
_cell_angle_gamma   76.69991618
_symmetry_Int_Tables_number   1
_chemical_formula_structural   Yb10In2CuPd3
_chemical_formula_sum   'Yb10 In2 Cu1 Pd3'
_cell_volume   437.97327287
_cell_formula_units_Z   1
loop_
 _symmetry_equiv_pos_site_id
 _symmetry_equiv_pos_as_xyz
  1  'x, y, z'
loop_
 _atom_site_type_symbol
 _atom_site_label
 _atom_site_symmetry_multiplicity
 _atom_site_fract_x
 _atom_site_fract_y
 _atom_site_fract_z
 _atom_site_occupancy
  Yb  Yb0  1  0.500524  0.501958  0.002482  1
  Yb  Yb1  1  0.998042  0.999476  0.997518  1
  Yb  Yb2  1  0.533751  0.030902  0.836673  1
  Yb  Yb3  1  0.197078  0.694229  0.163327  1
  Yb  Yb4  1  0.029881  0.200024  0.500000  1
  Yb  Yb5  1  0.697792  0.532962  0.500000  1
  Yb  Yb6  1  0.469098  0.966249  0.163327  1
  Yb  Yb7  1  0.805771  0.302922  0.836673  1
  Yb  Yb8  1  0.967038  0.802208  0.500000  1
  Yb  Yb9  1  0.299976  0.470119  0.500000  1
  In  In10  1  0.250556  0.249444  0.000000  1
  In  In11  1  0.750556  0.749444  0.000000  1
  Cu  Cu12  1  0.379526  0.120474  0.500000  1
  Pd  Pd13  1  0.128998  0.629254  0.758252  1
  Pd  Pd14  1  0.870746  0.371002  0.241748  1
  Pd  Pd15  1  0.620666  0.879334  0.500000  1
