# generated using pymatgen
data_Dy2Si6PRh12
_symmetry_space_group_name_H-M   'P 1'
_cell_length_a   9.74348046
_cell_length_b   9.71357639
_cell_length_c   3.85985415
_cell_angle_alpha   89.99196923
_cell_angle_beta   90.02981261
_cell_angle_gamma   120.15748015
_symmetry_Int_Tables_number   1
_chemical_formula_structural   Dy2Si6PRh12
_chemical_formula_sum   'Dy2 Si6 P1 Rh12'
_cell_volume   315.86636413
_cell_formula_units_Z   1
loop_
 _symmetry_equiv_pos_site_id
 _symmetry_equiv_pos_as_xyz
  1  'x, y, z'
loop_
 _atom_site_type_symbol
 _atom_site_label
 _atom_site_symmetry_multiplicity
 _atom_site_fract_x
 _atom_site_fract_y
 _atom_site_fract_z
 _atom_site_occupancy
  Dy  Dy0  1  0.332572  0.665953  0.748706  1
  Dy  Dy1  1  0.665231  0.332567  0.250885  1
  Si  Si2  1  0.000298  0.999633  0.504050  1
  Si  Si3  1  0.400344  0.288433  0.750129  1
  Si  Si4  1  0.709618  0.110895  0.751168  1
  Si  Si5  1  0.886717  0.597842  0.751275  1
  Si  Si6  1  0.600142  0.711154  0.249476  1
  Si  Si7  1  0.290375  0.888883  0.249154  1
  P  P8  1  0.112711  0.401732  0.246913  1
  Rh  Rh9  1  0.443359  0.062830  0.752090  1
  Rh  Rh10  1  0.935677  0.380622  0.751873  1
  Rh  Rh11  1  0.617135  0.556126  0.751087  1
  Rh  Rh12  1  0.557817  0.937598  0.248603  1
  Rh  Rh13  1  0.064032  0.615482  0.248473  1
  Rh  Rh14  1  0.377372  0.444350  0.247924  1
  Rh  Rh15  1  0.144629  0.265887  0.744693  1
  Rh  Rh16  1  0.740031  0.882476  0.745794  1
  Rh  Rh17  1  0.119077  0.854706  0.744706  1
  Rh  Rh18  1  0.857293  0.736046  0.254609  1
  Rh  Rh19  1  0.260329  0.118460  0.253193  1
  Rh  Rh20  1  0.885241  0.148325  0.255200  1
