# generated using pymatgen
data_LaNiIO6
_symmetry_space_group_name_H-M   'P 1'
_cell_length_a   5.24422200
_cell_length_b   5.24422295
_cell_length_c   5.20224000
_cell_angle_alpha   90.00000000
_cell_angle_beta   90.00000000
_cell_angle_gamma   120.00000659
_symmetry_Int_Tables_number   1
_chemical_formula_structural   LaNiIO6
_chemical_formula_sum   'La1 Ni1 I1 O6'
_cell_volume   123.90339379
_cell_formula_units_Z   1
loop_
 _symmetry_equiv_pos_site_id
 _symmetry_equiv_pos_as_xyz
  1  'x, y, z'
loop_
 _atom_site_type_symbol
 _atom_site_label
 _atom_site_symmetry_multiplicity
 _atom_site_fract_x
 _atom_site_fract_y
 _atom_site_fract_z
 _atom_site_occupancy
  La  La0  1  0.333333  0.666667  0.000000  1
  Ni  Ni1  1  0.666667  0.333333  0.500000  1
  I  I2  1  0.000000  0.000000  0.500000  1
  O  O3  1  0.307857  0.020355  0.709317  1
  O  O4  1  0.979645  0.692143  0.290683  1
  O  O5  1  0.307857  0.287502  0.290683  1
  O  O6  1  0.712498  0.020355  0.290683  1
  O  O7  1  0.979645  0.287502  0.709317  1
  O  O8  1  0.712498  0.692143  0.709317  1
