# generated using pymatgen
data_Fe7(Re2Mo)2
_symmetry_space_group_name_H-M   'P 1'
_cell_length_a   8.98612871
_cell_length_b   8.98612885
_cell_length_c   8.98612799
_cell_angle_alpha   30.38749336
_cell_angle_beta   30.38749452
_cell_angle_gamma   30.38749841
_symmetry_Int_Tables_number   1
_chemical_formula_structural   Fe7(Re2Mo)2
_chemical_formula_sum   'Fe7 Re4 Mo2'
_cell_volume   164.56273347
_cell_formula_units_Z   1
loop_
 _symmetry_equiv_pos_site_id
 _symmetry_equiv_pos_as_xyz
  1  'x, y, z'
loop_
 _atom_site_type_symbol
 _atom_site_label
 _atom_site_symmetry_multiplicity
 _atom_site_fract_x
 _atom_site_fract_y
 _atom_site_fract_z
 _atom_site_occupancy
  Fe  Fe0  1  0.587957  0.092121  0.092121  1
  Fe  Fe1  1  0.092121  0.092121  0.587957  1
  Fe  Fe2  1  0.908698  0.908698  0.409617  1
  Fe  Fe3  1  0.908698  0.409617  0.908698  1
  Fe  Fe4  1  0.999601  0.999601  0.999601  1
  Fe  Fe5  1  0.092121  0.587957  0.092121  1
  Fe  Fe6  1  0.409617  0.908698  0.908698  1
  Re  Re7  1  0.347063  0.347063  0.347063  1
  Re  Re8  1  0.166249  0.166249  0.166249  1
  Re  Re9  1  0.549166  0.549166  0.549166  1
  Re  Re10  1  0.653117  0.653117  0.653117  1
  Mo  Mo11  1  0.451397  0.451397  0.451397  1
  Mo  Mo12  1  0.834195  0.834195  0.834195  1
