# generated using pymatgen
data_La10CoTcAg4
_symmetry_space_group_name_H-M   'P 1'
_cell_length_a   8.20661900
_cell_length_b   8.95397200
_cell_length_c   12.51060700
_cell_angle_alpha   90.00000000
_cell_angle_beta   90.00000000
_cell_angle_gamma   90.00000000
_symmetry_Int_Tables_number   1
_chemical_formula_structural   La10CoTcAg4
_chemical_formula_sum   'La20 Co2 Tc2 Ag8'
_cell_volume   919.30238110
_cell_formula_units_Z   2
loop_
 _symmetry_equiv_pos_site_id
 _symmetry_equiv_pos_as_xyz
  1  'x, y, z'
loop_
 _atom_site_type_symbol
 _atom_site_label
 _atom_site_symmetry_multiplicity
 _atom_site_fract_x
 _atom_site_fract_y
 _atom_site_fract_z
 _atom_site_occupancy
  La  La0  1  0.316919  0.538489  0.430965  1
  La  La1  1  0.888348  0.250000  0.806672  1
  La  La2  1  0.183081  0.538489  0.930965  1
  La  La3  1  0.316919  0.961511  0.430965  1
  La  La4  1  0.115533  0.750000  0.195666  1
  La  La5  1  0.840384  0.750000  0.790766  1
  La  La6  1  0.384467  0.750000  0.695666  1
  La  La7  1  0.945205  0.750000  0.502651  1
  La  La8  1  0.437445  0.250000  0.998683  1
  La  La9  1  0.681338  0.455220  0.568917  1
  La  La10  1  0.818662  0.044780  0.068917  1
  La  La11  1  0.659616  0.750000  0.290766  1
  La  La12  1  0.554795  0.750000  0.002651  1
  La  La13  1  0.062555  0.250000  0.498683  1
  La  La14  1  0.681338  0.044780  0.568917  1
  La  La15  1  0.183081  0.961511  0.930965  1
  La  La16  1  0.611652  0.250000  0.306672  1
  La  La17  1  0.345000  0.250000  0.704738  1
  La  La18  1  0.818662  0.455220  0.068917  1
  La  La19  1  0.155000  0.250000  0.204738  1
  Co  Co20  1  0.079251  0.250000  0.985683  1
  Co  Co21  1  0.420749  0.250000  0.485683  1
  Tc  Tc22  1  0.919865  0.750000  0.015166  1
  Tc  Tc23  1  0.580135  0.750000  0.515166  1
  Ag  Ag24  1  0.925257  0.482535  0.329485  1
  Ag  Ag25  1  0.424543  0.513729  0.170621  1
  Ag  Ag26  1  0.424543  0.986271  0.170621  1
  Ag  Ag27  1  0.574743  0.482535  0.829485  1
  Ag  Ag28  1  0.075457  0.513729  0.670621  1
  Ag  Ag29  1  0.574743  0.017465  0.829485  1
  Ag  Ag30  1  0.925257  0.017465  0.329485  1
  Ag  Ag31  1  0.075457  0.986271  0.670621  1
