# generated using pymatgen
data_Lu4TcOs5W2
_symmetry_space_group_name_H-M   'P 1'
_cell_length_a   5.32647020
_cell_length_b   5.40114610
_cell_length_c   8.85946700
_cell_angle_alpha   90.00000000
_cell_angle_beta   90.00000000
_cell_angle_gamma   121.34741599
_symmetry_Int_Tables_number   1
_chemical_formula_structural   Lu4TcOs5W2
_chemical_formula_sum   'Lu4 Tc1 Os5 W2'
_cell_volume   217.67343855
_cell_formula_units_Z   1
loop_
 _symmetry_equiv_pos_site_id
 _symmetry_equiv_pos_as_xyz
  1  'x, y, z'
loop_
 _atom_site_type_symbol
 _atom_site_label
 _atom_site_symmetry_multiplicity
 _atom_site_fract_x
 _atom_site_fract_y
 _atom_site_fract_z
 _atom_site_occupancy
  Lu  Lu0  1  0.342267  0.670451  0.434818  1
  Lu  Lu1  1  0.666262  0.336988  0.561956  1
  Lu  Lu2  1  0.666262  0.336988  0.938044  1
  Lu  Lu3  1  0.342267  0.670451  0.065182  1
  Tc  Tc4  1  0.168572  0.823324  0.750000  1
  Os  Os5  1  0.827009  0.651885  0.250000  1
  Os  Os6  1  0.643027  0.820558  0.750000  1
  Os  Os7  1  0.010574  0.007747  0.998759  1
  Os  Os8  1  0.825588  0.173225  0.250000  1
  Os  Os9  1  0.010574  0.007747  0.501241  1
  W  W10  1  0.161828  0.333783  0.750000  1
  W  W11  1  0.335773  0.166854  0.250000  1
