# generated using pymatgen
data_CaTh(SiNi4)2
_symmetry_space_group_name_H-M   'P 1'
_cell_length_a   6.49025344
_cell_length_b   6.23390159
_cell_length_c   6.48742573
_cell_angle_alpha   135.14039547
_cell_angle_beta   104.77802290
_cell_angle_gamma   93.81201814
_symmetry_Int_Tables_number   1
_chemical_formula_structural   CaTh(SiNi4)2
_chemical_formula_sum   'Ca1 Th1 Si2 Ni8'
_cell_volume   166.83925447
_cell_formula_units_Z   1
loop_
 _symmetry_equiv_pos_site_id
 _symmetry_equiv_pos_as_xyz
  1  'x, y, z'
loop_
 _atom_site_type_symbol
 _atom_site_label
 _atom_site_symmetry_multiplicity
 _atom_site_fract_x
 _atom_site_fract_y
 _atom_site_fract_z
 _atom_site_occupancy
  Ca  Ca0  1  0.249973  0.499849  0.249863  1
  Th  Th1  1  0.750032  0.500170  0.750141  1
  Si  Si2  1  0.749954  0.499984  0.249967  1
  Si  Si3  1  0.250031  0.499984  0.750029  1
  Ni  Ni4  1  0.079354  0.813014  0.733832  1
  Ni  Ni5  1  0.420805  0.186863  0.765897  1
  Ni  Ni6  1  0.579318  0.818023  0.238666  1
  Ni  Ni7  1  0.920581  0.182157  0.261603  1
  Ni  Ni8  1  0.002172  0.000142  0.502201  1
  Ni  Ni9  1  0.497819  0.999852  0.997806  1
  Ni  Ni10  1  0.750067  0.999943  0.750057  1
  Ni  Ni11  1  0.249895  0.000021  0.249938  1
