# generated using pymatgen
data_La14IrAu5
_symmetry_space_group_name_H-M   'P 1'
_cell_length_a   6.63624448
_cell_length_b   10.64503661
_cell_length_c   10.58880353
_cell_angle_alpha   120.17419515
_cell_angle_beta   90.03475361
_cell_angle_gamma   90.00512900
_symmetry_Int_Tables_number   1
_chemical_formula_structural   La14IrAu5
_chemical_formula_sum   'La14 Ir1 Au5'
_cell_volume   646.66883899
_cell_formula_units_Z   1
loop_
 _symmetry_equiv_pos_site_id
 _symmetry_equiv_pos_as_xyz
  1  'x, y, z'
loop_
 _atom_site_type_symbol
 _atom_site_label
 _atom_site_symmetry_multiplicity
 _atom_site_fract_x
 _atom_site_fract_y
 _atom_site_fract_z
 _atom_site_occupancy
  La  La0  1  0.455455  0.328039  0.656095  1
  La  La1  1  0.941912  0.666583  0.333161  1
  La  La2  1  0.248940  0.128170  0.871232  1
  La  La3  1  0.248970  0.742992  0.871220  1
  La  La4  1  0.264593  0.130497  0.261007  1
  La  La5  1  0.745967  0.885434  0.137211  1
  La  La6  1  0.745988  0.251789  0.137231  1
  La  La7  1  0.749405  0.872143  0.744274  1
  La  La8  1  0.449177  0.535259  0.460771  1
  La  La9  1  0.449068  0.925521  0.460809  1
  La  La10  1  0.451735  0.536743  0.073499  1
  La  La11  1  0.941094  0.450195  0.532488  1
  La  La12  1  0.941004  0.082313  0.532446  1
  La  La13  1  0.950583  0.462538  0.925027  1
  Ir  Ir14  1  0.687433  0.188937  0.377827  1
  Au  Au15  1  0.185693  0.811577  0.187625  1
  Au  Au16  1  0.185681  0.376055  0.187625  1
  Au  Au17  1  0.187128  0.811496  0.623033  1
  Au  Au18  1  0.686096  0.188694  0.813716  1
  Au  Au19  1  0.686076  0.625024  0.813701  1
