# generated using pymatgen
data_Th4GaAu
_symmetry_space_group_name_H-M   'P 1'
_cell_length_a   6.09148002
_cell_length_b   6.09148069
_cell_length_c   6.09147993
_cell_angle_alpha   103.04222191
_cell_angle_beta   103.04222222
_cell_angle_gamma   123.27527687
_symmetry_Int_Tables_number   1
_chemical_formula_structural   Th4GaAu
_chemical_formula_sum   'Th4 Ga1 Au1'
_cell_volume   166.28805025
_cell_formula_units_Z   1
loop_
 _symmetry_equiv_pos_site_id
 _symmetry_equiv_pos_as_xyz
  1  'x, y, z'
loop_
 _atom_site_type_symbol
 _atom_site_label
 _atom_site_symmetry_multiplicity
 _atom_site_fract_x
 _atom_site_fract_y
 _atom_site_fract_z
 _atom_site_occupancy
  Th  Th0  1  0.158275  0.658275  0.816551  1
  Th  Th1  1  0.841725  0.341725  0.183449  1
  Th  Th2  1  0.341725  0.158275  0.500000  1
  Th  Th3  1  0.658275  0.841725  0.500000  1
  Ga  Ga4  1  0.250000  0.250000  0.000000  1
  Au  Au5  1  0.750000  0.750000  0.000000  1
