# generated using pymatgen
data_Dy3Er6Tm7(Ga3Co)2
_symmetry_space_group_name_H-M   'P 1'
_cell_length_a   9.89479700
_cell_length_b   9.89623303
_cell_length_c   6.90735700
_cell_angle_alpha   90.00064750
_cell_angle_beta   90.00000000
_cell_angle_gamma   119.99519662
_symmetry_Int_Tables_number   1
_chemical_formula_structural   Dy3Er6Tm7(Ga3Co)2
_chemical_formula_sum   'Dy3 Er6 Tm7 Ga6 Co2'
_cell_volume   585.78784378
_cell_formula_units_Z   1
loop_
 _symmetry_equiv_pos_site_id
 _symmetry_equiv_pos_as_xyz
  1  'x, y, z'
loop_
 _atom_site_type_symbol
 _atom_site_label
 _atom_site_symmetry_multiplicity
 _atom_site_fract_x
 _atom_site_fract_y
 _atom_site_fract_z
 _atom_site_occupancy
  Dy  Dy0  1  0.536292  0.072584  0.708212  1
  Dy  Dy1  1  0.000030  0.000059  0.232061  1
  Dy  Dy2  1  0.999994  0.999989  0.731174  1
  Er  Er3  1  0.666765  0.333529  0.327455  1
  Er  Er4  1  0.463170  0.536867  0.207578  1
  Er  Er5  1  0.073696  0.536867  0.207578  1
  Er  Er6  1  0.463072  0.926145  0.207638  1
  Er  Er7  1  0.536509  0.463649  0.708145  1
  Er  Er8  1  0.927141  0.463649  0.708145  1
  Tm  Tm9  1  0.173498  0.826146  0.511965  1
  Tm  Tm10  1  0.652647  0.826146  0.511965  1
  Tm  Tm11  1  0.173718  0.347437  0.512129  1
  Tm  Tm12  1  0.826943  0.173315  0.011488  1
  Tm  Tm13  1  0.346373  0.173315  0.011488  1
  Tm  Tm14  1  0.826711  0.653423  0.011312  1
  Tm  Tm15  1  0.333251  0.666504  0.826113  1
  Ga  Ga16  1  0.163733  0.836213  0.957872  1
  Ga  Ga17  1  0.672481  0.836213  0.957872  1
  Ga  Ga18  1  0.163756  0.327512  0.957767  1
  Ga  Ga19  1  0.837086  0.163156  0.458474  1
  Ga  Ga20  1  0.326069  0.163156  0.458474  1
  Ga  Ga21  1  0.836888  0.673777  0.458667  1
  Co  Co22  1  0.333330  0.666662  0.445113  1
  Co  Co23  1  0.666846  0.333690  0.946155  1
