# generated using pymatgen
data_Cs18Bi5Se
_symmetry_space_group_name_H-M   'P 1'
_cell_length_a   11.75138918
_cell_length_b   11.73047198
_cell_length_c   12.09029168
_cell_angle_alpha   89.56956584
_cell_angle_beta   90.21483233
_cell_angle_gamma   119.94112938
_symmetry_Int_Tables_number   1
_chemical_formula_structural   Cs18Bi5Se
_chemical_formula_sum   'Cs18 Bi5 Se1'
_cell_volume   1444.16620186
_cell_formula_units_Z   1
loop_
 _symmetry_equiv_pos_site_id
 _symmetry_equiv_pos_as_xyz
  1  'x, y, z'
loop_
 _atom_site_type_symbol
 _atom_site_label
 _atom_site_symmetry_multiplicity
 _atom_site_fract_x
 _atom_site_fract_y
 _atom_site_fract_z
 _atom_site_occupancy
  Cs  Cs0  1  0.630258  0.999810  0.509317  1
  Cs  Cs1  1  0.622200  0.630818  0.016503  1
  Cs  Cs2  1  0.000000  0.375420  0.010399  1
  Cs  Cs3  1  0.000000  0.631843  0.515960  1
  Cs  Cs4  1  0.369742  0.369552  0.509317  1
  Cs  Cs5  1  0.377800  0.008618  0.016503  1
  Cs  Cs6  1  0.709416  0.001229  0.178716  1
  Cs  Cs7  1  0.711037  0.707815  0.676369  1
  Cs  Cs8  1  0.000000  0.280465  0.671022  1
  Cs  Cs9  1  0.000000  0.705417  0.171187  1
  Cs  Cs10  1  0.290584  0.291813  0.178716  1
  Cs  Cs11  1  0.288963  0.996778  0.676369  1
  Cs  Cs12  1  0.000000  0.004089  0.408368  1
  Cs  Cs13  1  0.000000  0.984888  0.908288  1
  Cs  Cs14  1  0.661972  0.329173  0.304693  1
  Cs  Cs15  1  0.319460  0.666824  0.805487  1
  Cs  Cs16  1  0.680540  0.347364  0.805487  1
  Cs  Cs17  1  0.338028  0.667201  0.304693  1
  Bi  Bi18  1  0.000000  0.334572  0.341439  1
  Bi  Bi19  1  0.672234  0.999098  0.843964  1
  Bi  Bi20  1  0.327766  0.326865  0.843964  1
  Bi  Bi21  1  0.678528  0.672221  0.345437  1
  Bi  Bi22  1  0.321472  0.993693  0.345437  1
  Se  Se23  1  0.000000  0.674432  0.840364  1
