# generated using pymatgen
data_NaHo(NbSe2)8
_symmetry_space_group_name_H-M   'P 1'
_cell_length_a   7.01009700
_cell_length_b   7.01009804
_cell_length_c   14.60284800
_cell_angle_alpha   90.00000000
_cell_angle_beta   90.00000000
_cell_angle_gamma   119.99999980
_symmetry_Int_Tables_number   1
_chemical_formula_structural   NaHo(NbSe2)8
_chemical_formula_sum   'Na1 Ho1 Nb8 Se16'
_cell_volume   621.46448750
_cell_formula_units_Z   1
loop_
 _symmetry_equiv_pos_site_id
 _symmetry_equiv_pos_as_xyz
  1  'x, y, z'
loop_
 _atom_site_type_symbol
 _atom_site_label
 _atom_site_symmetry_multiplicity
 _atom_site_fract_x
 _atom_site_fract_y
 _atom_site_fract_z
 _atom_site_occupancy
  Na  Na0  1  0.000000  0.000000  0.000000  1
  Ho  Ho1  1  0.000000  0.000000  0.500000  1
  Nb  Nb2  1  0.000000  0.000000  0.252110  1
  Nb  Nb3  1  0.000000  0.000000  0.747890  1
  Nb  Nb4  1  0.508484  0.016968  0.251472  1
  Nb  Nb5  1  0.983032  0.491516  0.251472  1
  Nb  Nb6  1  0.508484  0.491516  0.251472  1
  Nb  Nb7  1  0.491516  0.983032  0.748528  1
  Nb  Nb8  1  0.016968  0.508484  0.748528  1
  Nb  Nb9  1  0.491516  0.508484  0.748528  1
  Se  Se10  1  0.333333  0.666667  0.867865  1
  Se  Se11  1  0.666667  0.333333  0.132135  1
  Se  Se12  1  0.666667  0.333333  0.371055  1
  Se  Se13  1  0.333333  0.666667  0.628945  1
  Se  Se14  1  0.169217  0.830783  0.365698  1
  Se  Se15  1  0.169217  0.338433  0.365698  1
  Se  Se16  1  0.661567  0.830783  0.365698  1
  Se  Se17  1  0.830783  0.169217  0.634302  1
  Se  Se18  1  0.830783  0.661567  0.634302  1
  Se  Se19  1  0.338433  0.169217  0.634302  1
  Se  Se20  1  0.830979  0.169021  0.860296  1
  Se  Se21  1  0.830979  0.661958  0.860296  1
  Se  Se22  1  0.338042  0.169021  0.860296  1
  Se  Se23  1  0.169021  0.830979  0.139704  1
  Se  Se24  1  0.169021  0.338042  0.139704  1
  Se  Se25  1  0.661958  0.830979  0.139704  1
