# generated using pymatgen
data_Ca3Tb9(PrSi2)8
_symmetry_space_group_name_H-M   'P 1'
_cell_length_a   7.52511271
_cell_length_b   7.88496339
_cell_length_c   15.00432100
_cell_angle_alpha   90.00000000
_cell_angle_beta   90.00000000
_cell_angle_gamma   90.02075974
_symmetry_Int_Tables_number   1
_chemical_formula_structural   Ca3Tb9(PrSi2)8
_chemical_formula_sum   'Ca3 Tb9 Pr8 Si16'
_cell_volume   890.28490255
_cell_formula_units_Z   1
loop_
 _symmetry_equiv_pos_site_id
 _symmetry_equiv_pos_as_xyz
  1  'x, y, z'
loop_
 _atom_site_type_symbol
 _atom_site_label
 _atom_site_symmetry_multiplicity
 _atom_site_fract_x
 _atom_site_fract_y
 _atom_site_fract_z
 _atom_site_occupancy
  Ca  Ca0  1  0.847834  0.488325  0.250000  1
  Ca  Ca1  1  0.348707  0.011934  0.250000  1
  Ca  Ca2  1  0.152396  0.512932  0.750000  1
  Tb  Tb3  1  0.320476  0.182081  0.623167  1
  Tb  Tb4  1  0.677705  0.818850  0.377632  1
  Tb  Tb5  1  0.652006  0.988267  0.750000  1
  Tb  Tb6  1  0.178213  0.682257  0.377357  1
  Tb  Tb7  1  0.822522  0.318997  0.876588  1
  Tb  Tb8  1  0.822522  0.318997  0.623412  1
  Tb  Tb9  1  0.320476  0.182081  0.876833  1
  Tb  Tb10  1  0.178213  0.682257  0.122643  1
  Tb  Tb11  1  0.677705  0.818850  0.122368  1
  Pr  Pr12  1  0.025846  0.181066  0.401275  1
  Pr  Pr13  1  0.525207  0.318922  0.401616  1
  Pr  Pr14  1  0.475485  0.679031  0.902221  1
  Pr  Pr15  1  0.475485  0.679031  0.597779  1
  Pr  Pr16  1  0.976631  0.818184  0.598974  1
  Pr  Pr17  1  0.976631  0.818184  0.901026  1
  Pr  Pr18  1  0.525207  0.318922  0.098384  1
  Pr  Pr19  1  0.025846  0.181066  0.098725  1
  Si  Si20  1  0.271283  0.889111  0.750000  1
  Si  Si21  1  0.469167  0.607523  0.250000  1
  Si  Si22  1  0.025968  0.103225  0.750000  1
  Si  Si23  1  0.531907  0.387669  0.750000  1
  Si  Si24  1  0.146918  0.466593  0.534772  1
  Si  Si25  1  0.968838  0.893983  0.250000  1
  Si  Si26  1  0.735222  0.112815  0.250000  1
  Si  Si27  1  0.852201  0.533366  0.035050  1
  Si  Si28  1  0.352826  0.968337  0.035223  1
  Si  Si29  1  0.146918  0.466593  0.965228  1
  Si  Si30  1  0.645416  0.030936  0.539068  1
  Si  Si31  1  0.352826  0.968337  0.464777  1
  Si  Si32  1  0.852201  0.533366  0.464950  1
  Si  Si33  1  0.762412  0.619326  0.750000  1
  Si  Si34  1  0.235369  0.387652  0.250000  1
  Si  Si35  1  0.645416  0.030936  0.960932  1
