# generated using pymatgen
data_Ba8LiCd(Si6Hg)2
_symmetry_space_group_name_H-M   'P 1'
_cell_length_a   12.62380871
_cell_length_b   10.99401486
_cell_length_c   8.68047233
_cell_angle_alpha   78.85712624
_cell_angle_beta   58.61370477
_cell_angle_gamma   43.03407707
_symmetry_Int_Tables_number   1
_chemical_formula_structural   Ba8LiCd(Si6Hg)2
_chemical_formula_sum   'Ba8 Li1 Cd1 Si12 Hg2'
_cell_volume   664.53446940
_cell_formula_units_Z   1
loop_
 _symmetry_equiv_pos_site_id
 _symmetry_equiv_pos_as_xyz
  1  'x, y, z'
loop_
 _atom_site_type_symbol
 _atom_site_label
 _atom_site_symmetry_multiplicity
 _atom_site_fract_x
 _atom_site_fract_y
 _atom_site_fract_z
 _atom_site_occupancy
  Ba  Ba0  1  0.872621  0.875511  0.126042  1
  Ba  Ba1  1  0.125948  0.125372  0.872494  1
  Ba  Ba2  1  0.373252  0.370856  0.128223  1
  Ba  Ba3  1  0.129126  0.129060  0.372792  1
  Ba  Ba4  1  0.623815  0.623005  0.376512  1
  Ba  Ba5  1  0.375287  0.377257  0.623691  1
  Ba  Ba6  1  0.630150  0.626476  0.869623  1
  Ba  Ba7  1  0.869345  0.873442  0.631987  1
  Li  Li8  1  0.417759  0.082936  0.418064  1
  Cd  Cd9  1  0.166615  0.834096  0.169095  1
  Si  Si10  1  0.651424  0.336052  0.190827  1
  Si  Si11  1  0.822747  0.186142  0.335743  1
  Si  Si12  1  0.186112  0.823222  0.655726  1
  Si  Si13  1  0.336549  0.650482  0.820803  1
  Si  Si14  1  0.588832  0.909971  0.587139  1
  Si  Si15  1  0.905320  0.594521  0.907537  1
  Si  Si16  1  0.660292  0.342770  0.658453  1
  Si  Si17  1  0.341908  0.659471  0.340060  1
  Si  Si18  1  0.908978  0.598357  0.435164  1
  Si  Si19  1  0.071126  0.424755  0.589704  1
  Si  Si20  1  0.435266  0.059781  0.908888  1
  Si  Si21  1  0.591326  0.913047  0.069942  1
  Hg  Hg22  1  0.834202  0.166077  0.830265  1
  Hg  Hg23  1  0.082001  0.417340  0.081225  1
