# generated using pymatgen
data_Ho10In8Pd3Ru
_symmetry_space_group_name_H-M   'P 1'
_cell_length_a   3.62035200
_cell_length_b   8.10349061
_cell_length_c   18.24784238
_cell_angle_alpha   90.04455884
_cell_angle_beta   90.00000000
_cell_angle_gamma   90.00000000
_symmetry_Int_Tables_number   1
_chemical_formula_structural   Ho10In8Pd3Ru
_chemical_formula_sum   'Ho10 In8 Pd3 Ru1'
_cell_volume   535.34570309
_cell_formula_units_Z   1
loop_
 _symmetry_equiv_pos_site_id
 _symmetry_equiv_pos_as_xyz
  1  'x, y, z'
loop_
 _atom_site_type_symbol
 _atom_site_label
 _atom_site_symmetry_multiplicity
 _atom_site_fract_x
 _atom_site_fract_y
 _atom_site_fract_z
 _atom_site_occupancy
  Ho  Ho0  1  0.000000  0.499663  0.499634  1
  Ho  Ho1  1  0.000000  0.999947  0.000540  1
  Ho  Ho2  1  0.000000  0.728426  0.277281  1
  Ho  Ho3  1  0.000000  0.259445  0.720051  1
  Ho  Ho4  1  0.000000  0.759718  0.779721  1
  Ho  Ho5  1  0.000000  0.252553  0.220060  1
  Ho  Ho6  1  0.000000  0.614094  0.087000  1
  Ho  Ho7  1  0.000000  0.384434  0.916331  1
  Ho  Ho8  1  0.000000  0.884203  0.583854  1
  Ho  Ho9  1  0.000000  0.117700  0.415560  1
  In  In10  1  0.500000  0.710806  0.931571  1
  In  In11  1  0.500000  0.291636  0.069194  1
  In  In12  1  0.500000  0.790191  0.431971  1
  In  In13  1  0.500000  0.210366  0.568234  1
  In  In14  1  0.500000  0.579742  0.649216  1
  In  In15  1  0.500000  0.424097  0.349660  1
  In  In16  1  0.500000  0.920398  0.149976  1
  In  In17  1  0.500000  0.078980  0.850861  1
  Pd  Pd18  1  0.500000  0.476947  0.804076  1
  Pd  Pd19  1  0.500000  0.977058  0.695542  1
  Pd  Pd20  1  0.500000  0.020486  0.304168  1
  Ru  Ru21  1  0.500000  0.519111  0.195499  1
