# generated using pymatgen
data_V12Fe4Si8BC3
_symmetry_space_group_name_H-M   'P 1'
_cell_length_a   7.66420577
_cell_length_b   7.64844541
_cell_length_c   7.64844500
_cell_angle_alpha   59.99999746
_cell_angle_beta   60.06799797
_cell_angle_gamma   60.06798510
_symmetry_Int_Tables_number   1
_chemical_formula_structural   V12Fe4Si8BC3
_chemical_formula_sum   'V12 Fe4 Si8 B1 C3'
_cell_volume   317.35403646
_cell_formula_units_Z   1
loop_
 _symmetry_equiv_pos_site_id
 _symmetry_equiv_pos_as_xyz
  1  'x, y, z'
loop_
 _atom_site_type_symbol
 _atom_site_label
 _atom_site_symmetry_multiplicity
 _atom_site_fract_x
 _atom_site_fract_y
 _atom_site_fract_z
 _atom_site_occupancy
  V  V0  1  0.814992  0.805059  0.189974  1
  V  V1  1  0.187068  0.192072  0.810430  1
  V  V2  1  0.814992  0.189974  0.805059  1
  V  V3  1  0.187068  0.810430  0.192072  1
  V  V4  1  0.187068  0.810430  0.810430  1
  V  V5  1  0.814992  0.189974  0.189974  1
  V  V6  1  0.435008  0.444941  0.060026  1
  V  V7  1  0.062932  0.057928  0.439570  1
  V  V8  1  0.435008  0.060026  0.444941  1
  V  V9  1  0.062932  0.439570  0.057928  1
  V  V10  1  0.062932  0.439570  0.439570  1
  V  V11  1  0.435008  0.060026  0.060026  1
  Fe  Fe12  1  0.125000  0.625000  0.625000  1
  Fe  Fe13  1  0.625000  0.125000  0.625000  1
  Fe  Fe14  1  0.625000  0.625000  0.125000  1
  Fe  Fe15  1  0.625000  0.625000  0.625000  1
  Si  Si16  1  0.760452  0.413183  0.413183  1
  Si  Si17  1  0.415927  0.759297  0.412389  1
  Si  Si18  1  0.415927  0.412389  0.759297  1
  Si  Si19  1  0.415927  0.412389  0.412389  1
  Si  Si20  1  0.489548  0.836817  0.836817  1
  Si  Si21  1  0.834073  0.490703  0.837611  1
  Si  Si22  1  0.834073  0.837611  0.490703  1
  Si  Si23  1  0.834073  0.837611  0.837611  1
  B  B24  1  0.625000  0.125000  0.125000  1
  C  C25  1  0.125000  0.625000  0.125000  1
  C  C26  1  0.125000  0.125000  0.625000  1
  C  C27  1  0.125000  0.125000  0.125000  1
