# generated using pymatgen
data_Yb7In2GeN2
_symmetry_space_group_name_H-M   'P 1'
_cell_length_a   12.24014580
_cell_length_b   12.24014663
_cell_length_c   4.78673900
_cell_angle_alpha   90.00000000
_cell_angle_beta   90.00000000
_cell_angle_gamma   157.12889080
_symmetry_Int_Tables_number   1
_chemical_formula_structural   Yb7In2GeN2
_chemical_formula_sum   'Yb7 In2 Ge1 N2'
_cell_volume   278.72898822
_cell_formula_units_Z   1
loop_
 _symmetry_equiv_pos_site_id
 _symmetry_equiv_pos_as_xyz
  1  'x, y, z'
loop_
 _atom_site_type_symbol
 _atom_site_label
 _atom_site_symmetry_multiplicity
 _atom_site_fract_x
 _atom_site_fract_y
 _atom_site_fract_z
 _atom_site_occupancy
  Yb  Yb0  1  0.000000  0.000000  0.000000  1
  Yb  Yb1  1  0.804601  0.195400  0.000000  1
  Yb  Yb2  1  0.590348  0.409653  0.000000  1
  Yb  Yb3  1  0.409653  0.590348  0.000000  1
  Yb  Yb4  1  0.195400  0.804601  0.000000  1
  Yb  Yb5  1  0.907063  0.092938  0.500000  1
  Yb  Yb6  1  0.092938  0.907063  0.500000  1
  In  In7  1  0.703459  0.296542  0.500000  1
  In  In8  1  0.296542  0.703459  0.500000  1
  Ge  Ge9  1  0.500000  0.500000  0.500000  1
  N  N10  1  0.897972  0.102029  0.000000  1
  N  N11  1  0.102029  0.897972  0.000000  1
