# generated using pymatgen
data_Ho2Lu4Bi2Mo
_symmetry_space_group_name_H-M   'P 1'
_cell_length_a   8.17384983
_cell_length_b   8.17384813
_cell_length_c   4.34657400
_cell_angle_alpha   90.00000000
_cell_angle_beta   90.00000000
_cell_angle_gamma   120.01694516
_symmetry_Int_Tables_number   1
_chemical_formula_structural   Ho2Lu4Bi2Mo
_chemical_formula_sum   'Ho2 Lu4 Bi2 Mo1'
_cell_volume   251.45295692
_cell_formula_units_Z   1
loop_
 _symmetry_equiv_pos_site_id
 _symmetry_equiv_pos_as_xyz
  1  'x, y, z'
loop_
 _atom_site_type_symbol
 _atom_site_label
 _atom_site_symmetry_multiplicity
 _atom_site_fract_x
 _atom_site_fract_y
 _atom_site_fract_z
 _atom_site_occupancy
  Ho  Ho0  1  0.612050  0.999720  0.000000  1
  Ho  Ho1  1  0.999720  0.612050  0.000000  1
  Lu  Lu2  1  0.234617  0.001020  0.500000  1
  Lu  Lu3  1  0.001020  0.234617  0.500000  1
  Lu  Lu4  1  0.767195  0.767195  0.500000  1
  Lu  Lu5  1  0.383693  0.383693  0.000000  1
  Bi  Bi6  1  0.333924  0.665482  0.500000  1
  Bi  Bi7  1  0.665482  0.333924  0.500000  1
  Mo  Mo8  1  0.002300  0.002300  0.000000  1
