# generated using pymatgen
data_Ba2PaInO6
_symmetry_space_group_name_H-M   'P 1'
_cell_length_a   6.17189760
_cell_length_b   6.17189736
_cell_length_c   6.17189700
_cell_angle_alpha   59.99999656
_cell_angle_beta   59.99999788
_cell_angle_gamma   60.00000036
_symmetry_Int_Tables_number   1
_chemical_formula_structural   Ba2PaInO6
_chemical_formula_sum   'Ba2 Pa1 In1 O6'
_cell_volume   166.24211743
_cell_formula_units_Z   1
loop_
 _symmetry_equiv_pos_site_id
 _symmetry_equiv_pos_as_xyz
  1  'x, y, z'
loop_
 _atom_site_type_symbol
 _atom_site_label
 _atom_site_symmetry_multiplicity
 _atom_site_fract_x
 _atom_site_fract_y
 _atom_site_fract_z
 _atom_site_occupancy
  Ba  Ba0  1  0.750000  0.750000  0.750000  1
  Ba  Ba1  1  0.250000  0.250000  0.250000  1
  Pa  Pa2  1  0.500000  0.500000  0.500000  1
  In  In3  1  0.000000  0.000000  0.000000  1
  O  O4  1  0.251184  0.251184  0.748816  1
  O  O5  1  0.748816  0.748816  0.251184  1
  O  O6  1  0.748816  0.251184  0.748816  1
  O  O7  1  0.251184  0.748816  0.251184  1
  O  O8  1  0.748816  0.251184  0.251184  1
  O  O9  1  0.251184  0.748816  0.748816  1
