# generated using pymatgen
data_Pr3HoUP12Ru19
_symmetry_space_group_name_H-M   'P 1'
_cell_length_a   12.63792796
_cell_length_b   12.63148579
_cell_length_c   3.98798600
_cell_angle_alpha   90.00000000
_cell_angle_beta   90.00000000
_cell_angle_gamma   119.90133799
_symmetry_Int_Tables_number   1
_chemical_formula_structural   Pr3HoUP12Ru19
_chemical_formula_sum   'Pr3 Ho1 U1 P12 Ru19'
_cell_volume   551.88104810
_cell_formula_units_Z   1
loop_
 _symmetry_equiv_pos_site_id
 _symmetry_equiv_pos_as_xyz
  1  'x, y, z'
loop_
 _atom_site_type_symbol
 _atom_site_label
 _atom_site_symmetry_multiplicity
 _atom_site_fract_x
 _atom_site_fract_y
 _atom_site_fract_z
 _atom_site_occupancy
  Pr  Pr0  1  0.812424  0.811496  0.500000  1
  Pr  Pr1  1  0.187573  0.999373  0.500000  1
  Pr  Pr2  1  0.668356  0.333041  0.000000  1
  Ho  Ho3  1  0.331694  0.664312  0.000000  1
  U  U4  1  0.999721  0.178430  0.500000  1
  P  P5  1  0.001096  0.814778  0.000000  1
  P  P6  1  0.188916  0.187288  0.000000  1
  P  P7  1  0.809652  0.995663  0.000000  1
  P  P8  1  0.693582  0.169713  0.500000  1
  P  P9  1  0.830076  0.524215  0.500000  1
  P  P10  1  0.476027  0.306830  0.500000  1
  P  P11  1  0.174091  0.694633  0.500000  1
  P  P12  1  0.520656  0.827001  0.500000  1
  P  P13  1  0.306078  0.479573  0.500000  1
  P  P14  1  0.999632  0.374288  0.000000  1
  P  P15  1  0.623374  0.624149  0.000000  1
  P  P16  1  0.376495  0.000791  0.000000  1
  Ru  Ru17  1  0.000234  0.554621  0.000000  1
  Ru  Ru18  1  0.440552  0.446194  0.000000  1
  Ru  Ru19  1  0.559151  0.005249  0.000000  1
  Ru  Ru20  1  0.001571  0.715561  0.500000  1
  Ru  Ru21  1  0.281205  0.286033  0.500000  1
  Ru  Ru22  1  0.717239  0.001517  0.500000  1
  Ru  Ru23  1  0.815915  0.183627  0.000000  1
  Ru  Ru24  1  0.816312  0.621571  0.000000  1
  Ru  Ru25  1  0.379308  0.196930  0.000000  1
  Ru  Ru26  1  0.186208  0.804421  0.000000  1
  Ru  Ru27  1  0.617675  0.815236  0.000000  1
  Ru  Ru28  1  0.184296  0.370516  0.000000  1
  Ru  Ru29  1  0.876818  0.364428  0.500000  1
  Ru  Ru30  1  0.632013  0.510251  0.500000  1
  Ru  Ru31  1  0.490455  0.124989  0.500000  1
  Ru  Ru32  1  0.368611  0.875247  0.500000  1
  Ru  Ru33  1  0.505700  0.633857  0.500000  1
  Ru  Ru34  1  0.127298  0.492470  0.500000  1
  Ru  Ru35  1  0.999996  0.011706  0.000000  1
