# generated using pymatgen
data_HfMn(GaRu2)2
_symmetry_space_group_name_H-M   'P 1'
_cell_length_a   7.51937004
_cell_length_b   7.51937040
_cell_length_c   7.51937100
_cell_angle_alpha   33.57544600
_cell_angle_beta   33.57544197
_cell_angle_gamma   33.57544284
_symmetry_Int_Tables_number   1
_chemical_formula_structural   HfMn(GaRu2)2
_chemical_formula_sum   'Hf1 Mn1 Ga2 Ru4'
_cell_volume   115.82566722
_cell_formula_units_Z   1
loop_
 _symmetry_equiv_pos_site_id
 _symmetry_equiv_pos_as_xyz
  1  'x, y, z'
loop_
 _atom_site_type_symbol
 _atom_site_label
 _atom_site_symmetry_multiplicity
 _atom_site_fract_x
 _atom_site_fract_y
 _atom_site_fract_z
 _atom_site_occupancy
  Hf  Hf0  1  0.500000  0.500000  0.500000  1
  Mn  Mn1  1  0.000000  0.000000  0.000000  1
  Ga  Ga2  1  0.249776  0.249776  0.249776  1
  Ga  Ga3  1  0.750224  0.750224  0.750224  1
  Ru  Ru4  1  0.628954  0.628954  0.628954  1
  Ru  Ru5  1  0.120936  0.120936  0.120936  1
  Ru  Ru6  1  0.879064  0.879064  0.879064  1
  Ru  Ru7  1  0.371046  0.371046  0.371046  1
