# generated using pymatgen
data_Tb2YU(VB4)4
_symmetry_space_group_name_H-M   'P 1'
_cell_length_a   3.48325000
_cell_length_b   5.99075416
_cell_length_c   11.61072045
_cell_angle_alpha   89.98022494
_cell_angle_beta   90.00000000
_cell_angle_gamma   90.00000000
_symmetry_Int_Tables_number   1
_chemical_formula_structural   Tb2YU(VB4)4
_chemical_formula_sum   'Tb2 Y1 U1 V4 B16'
_cell_volume   242.28430760
_cell_formula_units_Z   1
loop_
 _symmetry_equiv_pos_site_id
 _symmetry_equiv_pos_as_xyz
  1  'x, y, z'
loop_
 _atom_site_type_symbol
 _atom_site_label
 _atom_site_symmetry_multiplicity
 _atom_site_fract_x
 _atom_site_fract_y
 _atom_site_fract_z
 _atom_site_occupancy
  Tb  Tb0  1  0.000000  0.374469  0.651957  1
  Tb  Tb1  1  0.000000  0.123091  0.149836  1
  Y  Y2  1  0.000000  0.875421  0.849275  1
  U  U3  1  0.000000  0.626243  0.348682  1
  V  V4  1  0.000000  0.625601  0.085589  1
  V  V5  1  0.000000  0.372974  0.918230  1
  V  V6  1  0.000000  0.127697  0.415328  1
  V  V7  1  0.000000  0.871661  0.580400  1
  B  B8  1  0.500000  0.782461  0.187252  1
  B  B9  1  0.500000  0.214538  0.814347  1
  B  B10  1  0.500000  0.288807  0.315385  1
  B  B11  1  0.500000  0.716829  0.685837  1
  B  B12  1  0.500000  0.863926  0.033058  1
  B  B13  1  0.500000  0.135592  0.967513  1
  B  B14  1  0.500000  0.366514  0.465698  1
  B  B15  1  0.500000  0.636558  0.530946  1
  B  B16  1  0.500000  0.885275  0.451977  1
  B  B17  1  0.500000  0.113857  0.546306  1
  B  B18  1  0.500000  0.386532  0.046853  1
  B  B19  1  0.500000  0.614493  0.953282  1
  B  B20  1  0.500000  0.972053  0.308784  1
  B  B21  1  0.500000  0.023007  0.692132  1
  B  B22  1  0.500000  0.478315  0.193121  1
  B  B23  1  0.500000  0.524087  0.808211  1
