# generated using pymatgen
data_LaCe(ZnPd)2
_symmetry_space_group_name_H-M   'P 1'
_cell_length_a   4.47516400
_cell_length_b   7.05006139
_cell_length_c   8.09778964
_cell_angle_alpha   89.28365894
_cell_angle_beta   90.00000000
_cell_angle_gamma   90.00000000
_symmetry_Int_Tables_number   1
_chemical_formula_structural   LaCe(ZnPd)2
_chemical_formula_sum   'La2 Ce2 Zn4 Pd4'
_cell_volume   255.46676058
_cell_formula_units_Z   2
loop_
 _symmetry_equiv_pos_site_id
 _symmetry_equiv_pos_as_xyz
  1  'x, y, z'
loop_
 _atom_site_type_symbol
 _atom_site_label
 _atom_site_symmetry_multiplicity
 _atom_site_fract_x
 _atom_site_fract_y
 _atom_site_fract_z
 _atom_site_occupancy
  La  La0  1  0.250000  0.532971  0.196297  1
  La  La1  1  0.750000  0.467029  0.803703  1
  Ce  Ce2  1  0.250000  0.031935  0.305572  1
  Ce  Ce3  1  0.750000  0.968065  0.694428  1
  Zn  Zn4  1  0.250000  0.149322  0.931482  1
  Zn  Zn5  1  0.750000  0.850678  0.068518  1
  Zn  Zn6  1  0.250000  0.657177  0.569063  1
  Zn  Zn7  1  0.750000  0.342823  0.430937  1
  Pd  Pd8  1  0.750000  0.744675  0.395915  1
  Pd  Pd9  1  0.250000  0.255325  0.604085  1
  Pd  Pd10  1  0.750000  0.229520  0.111198  1
  Pd  Pd11  1  0.250000  0.770480  0.888802  1
