# generated using pymatgen
data_Tm2Th3Ir2Os
_symmetry_space_group_name_H-M   'P 1'
_cell_length_a   8.37457800
_cell_length_b   8.38237788
_cell_length_c   6.38568600
_cell_angle_alpha   90.00000000
_cell_angle_beta   90.00000000
_cell_angle_gamma   119.96921588
_symmetry_Int_Tables_number   1
_chemical_formula_structural   Tm2Th3Ir2Os
_chemical_formula_sum   'Tm4 Th6 Ir4 Os2'
_cell_volume   388.33183337
_cell_formula_units_Z   2
loop_
 _symmetry_equiv_pos_site_id
 _symmetry_equiv_pos_as_xyz
  1  'x, y, z'
loop_
 _atom_site_type_symbol
 _atom_site_label
 _atom_site_symmetry_multiplicity
 _atom_site_fract_x
 _atom_site_fract_y
 _atom_site_fract_z
 _atom_site_occupancy
  Tm  Tm0  1  0.334052  0.668104  0.000000  1
  Tm  Tm1  1  0.665948  0.331896  0.000000  1
  Tm  Tm2  1  0.665948  0.331896  0.500000  1
  Tm  Tm3  1  0.334052  0.668104  0.500000  1
  Th  Th4  1  0.257000  0.000000  0.250000  1
  Th  Th5  1  0.743000  0.000000  0.750000  1
  Th  Th6  1  0.996304  0.253599  0.250000  1
  Th  Th7  1  0.003696  0.746401  0.750000  1
  Th  Th8  1  0.742704  0.746401  0.250000  1
  Th  Th9  1  0.257296  0.253599  0.750000  1
  Ir  Ir10  1  0.998192  0.614085  0.250000  1
  Ir  Ir11  1  0.001808  0.385915  0.750000  1
  Ir  Ir12  1  0.384106  0.385915  0.250000  1
  Ir  Ir13  1  0.615894  0.614085  0.750000  1
  Os  Os14  1  0.615368  0.000000  0.250000  1
  Os  Os15  1  0.384632  0.000000  0.750000  1
