# generated using pymatgen
data_DyHo5Er4(In2Pt)4
_symmetry_space_group_name_H-M   'P 1'
_cell_length_a   3.60490700
_cell_length_b   8.14963200
_cell_length_c   18.20108800
_cell_angle_alpha   89.99763841
_cell_angle_beta   90.00000000
_cell_angle_gamma   90.00000000
_symmetry_Int_Tables_number   1
_chemical_formula_structural   DyHo5Er4(In2Pt)4
_chemical_formula_sum   'Dy1 Ho5 Er4 In8 Pt4'
_cell_volume   534.72367485
_cell_formula_units_Z   1
loop_
 _symmetry_equiv_pos_site_id
 _symmetry_equiv_pos_as_xyz
  1  'x, y, z'
loop_
 _atom_site_type_symbol
 _atom_site_label
 _atom_site_symmetry_multiplicity
 _atom_site_fract_x
 _atom_site_fract_y
 _atom_site_fract_z
 _atom_site_occupancy
  Dy  Dy0  1  0.000000  0.000000  0.000000  1
  Ho  Ho1  1  0.000000  0.243082  0.220097  1
  Ho  Ho2  1  0.000000  0.756918  0.779903  1
  Ho  Ho3  1  0.000000  0.256915  0.720100  1
  Ho  Ho4  1  0.000000  0.743085  0.279900  1
  Ho  Ho5  1  0.000000  0.500000  0.500000  1
  Er  Er6  1  0.000000  0.116901  0.414443  1
  Er  Er7  1  0.000000  0.883099  0.585557  1
  Er  Er8  1  0.000000  0.383096  0.914429  1
  Er  Er9  1  0.000000  0.616904  0.085571  1
  In  In10  1  0.500000  0.423237  0.351002  1
  In  In11  1  0.500000  0.576763  0.648998  1
  In  In12  1  0.500000  0.076786  0.850970  1
  In  In13  1  0.500000  0.923214  0.149030  1
  In  In14  1  0.500000  0.292962  0.066449  1
  In  In15  1  0.500000  0.707038  0.933551  1
  In  In16  1  0.500000  0.207117  0.566430  1
  In  In17  1  0.500000  0.792883  0.433570  1
  Pt  Pt18  1  0.500000  0.024796  0.303526  1
  Pt  Pt19  1  0.500000  0.975204  0.696474  1
  Pt  Pt20  1  0.500000  0.475207  0.803524  1
  Pt  Pt21  1  0.500000  0.524793  0.196476  1
