# generated using pymatgen
data_YEr(AlNi4)2
_symmetry_space_group_name_H-M   'P 1'
_cell_length_a   4.02401900
_cell_length_b   5.00979500
_cell_length_c   8.43179400
_cell_angle_alpha   89.99998856
_cell_angle_beta   90.00000000
_cell_angle_gamma   90.00000000
_symmetry_Int_Tables_number   1
_chemical_formula_structural   YEr(AlNi4)2
_chemical_formula_sum   'Y1 Er1 Al2 Ni8'
_cell_volume   169.98083770
_cell_formula_units_Z   1
loop_
 _symmetry_equiv_pos_site_id
 _symmetry_equiv_pos_as_xyz
  1  'x, y, z'
loop_
 _atom_site_type_symbol
 _atom_site_label
 _atom_site_symmetry_multiplicity
 _atom_site_fract_x
 _atom_site_fract_y
 _atom_site_fract_z
 _atom_site_occupancy
  Y  Y0  1  0.000000  0.499884  0.500000  1
  Er  Er1  1  0.000000  0.000138  0.000000  1
  Al  Al2  1  0.500000  0.000090  0.500000  1
  Al  Al3  1  0.500000  0.499880  0.000000  1
  Ni  Ni4  1  0.000000  0.000069  0.330568  1
  Ni  Ni5  1  0.000000  0.499882  0.833529  1
  Ni  Ni6  1  0.000000  0.499882  0.166471  1
  Ni  Ni7  1  0.000000  0.000069  0.669432  1
  Ni  Ni8  1  0.500000  0.249051  0.248734  1
  Ni  Ni9  1  0.500000  0.750901  0.751235  1
  Ni  Ni10  1  0.500000  0.750901  0.248765  1
  Ni  Ni11  1  0.500000  0.249051  0.751266  1
