# generated using pymatgen
data_Y3Lu5(Ga3Pd)4
_symmetry_space_group_name_H-M   'P 1'
_cell_length_a   8.83071200
_cell_length_b   8.85724522
_cell_length_c   6.97680700
_cell_angle_alpha   90.00000000
_cell_angle_beta   90.00000000
_cell_angle_gamma   119.89917059
_symmetry_Int_Tables_number   1
_chemical_formula_structural   Y3Lu5(Ga3Pd)4
_chemical_formula_sum   'Y3 Lu5 Ga12 Pd4'
_cell_volume   473.06638405
_cell_formula_units_Z   1
loop_
 _symmetry_equiv_pos_site_id
 _symmetry_equiv_pos_as_xyz
  1  'x, y, z'
loop_
 _atom_site_type_symbol
 _atom_site_label
 _atom_site_symmetry_multiplicity
 _atom_site_fract_x
 _atom_site_fract_y
 _atom_site_fract_z
 _atom_site_occupancy
  Y  Y0  1  0.000177  0.000033  0.250000  1
  Y  Y1  1  0.999857  0.000033  0.750000  1
  Y  Y2  1  0.518830  0.037756  0.250000  1
  Lu  Lu3  1  0.518810  0.481372  0.250000  1
  Lu  Lu4  1  0.962431  0.481340  0.250000  1
  Lu  Lu5  1  0.480473  0.960851  0.750000  1
  Lu  Lu6  1  0.481262  0.518861  0.750000  1
  Lu  Lu7  1  0.037763  0.518899  0.750000  1
  Ga  Ga8  1  0.167499  0.335048  0.044786  1
  Ga  Ga9  1  0.167010  0.831082  0.456689  1
  Ga  Ga10  1  0.664255  0.831202  0.456604  1
  Ga  Ga11  1  0.664255  0.831202  0.043396  1
  Ga  Ga12  1  0.167010  0.831082  0.043311  1
  Ga  Ga13  1  0.832564  0.665071  0.955156  1
  Ga  Ga14  1  0.832032  0.168631  0.954212  1
  Ga  Ga15  1  0.336408  0.168499  0.954163  1
  Ga  Ga16  1  0.167499  0.335048  0.455214  1
  Ga  Ga17  1  0.336408  0.168499  0.545837  1
  Ga  Ga18  1  0.832564  0.665071  0.544844  1
  Ga  Ga19  1  0.832032  0.168631  0.545788  1
  Pd  Pd20  1  0.332301  0.664500  0.027351  1
  Pd  Pd21  1  0.332301  0.664500  0.472649  1
  Pd  Pd22  1  0.668130  0.336393  0.968289  1
  Pd  Pd23  1  0.668130  0.336393  0.531711  1
