# generated using pymatgen
data_LaTaNb5Br18
_symmetry_space_group_name_H-M   'P 1'
_cell_length_a   10.73673931
_cell_length_b   10.73546219
_cell_length_c   10.73800500
_cell_angle_alpha   56.02624400
_cell_angle_beta   56.02397680
_cell_angle_gamma   56.04410148
_symmetry_Int_Tables_number   1
_chemical_formula_structural   LaTaNb5Br18
_chemical_formula_sum   'La1 Ta1 Nb5 Br18'
_cell_volume   794.73544763
_cell_formula_units_Z   1
loop_
 _symmetry_equiv_pos_site_id
 _symmetry_equiv_pos_as_xyz
  1  'x, y, z'
loop_
 _atom_site_type_symbol
 _atom_site_label
 _atom_site_symmetry_multiplicity
 _atom_site_fract_x
 _atom_site_fract_y
 _atom_site_fract_z
 _atom_site_occupancy
  La  La0  1  0.000090  0.999225  0.000338  1
  Ta  Ta1  1  0.417439  0.306111  0.641430  1
  Nb  Nb2  1  0.357700  0.583296  0.695119  1
  Nb  Nb3  1  0.695356  0.357895  0.582925  1
  Nb  Nb4  1  0.304907  0.642457  0.416802  1
  Nb  Nb5  1  0.642512  0.417117  0.304605  1
  Nb  Nb6  1  0.583385  0.696055  0.357042  1
  Br  Br7  1  0.570451  0.164349  0.438117  1
  Br  Br8  1  0.229828  0.362099  0.906833  1
  Br  Br9  1  0.908114  0.228873  0.363500  1
  Br  Br10  1  0.363437  0.908087  0.228902  1
  Br  Br11  1  0.771134  0.636714  0.091749  1
  Br  Br12  1  0.091977  0.771090  0.636458  1
  Br  Br13  1  0.683703  0.966807  0.165794  1
  Br  Br14  1  0.965068  0.165190  0.685097  1
  Br  Br15  1  0.166151  0.683725  0.965799  1
  Br  Br16  1  0.316213  0.037267  0.832114  1
  Br  Br17  1  0.034385  0.832713  0.316177  1
  Br  Br18  1  0.833829  0.314396  0.035348  1
  Br  Br19  1  0.564145  0.428192  0.835640  1
  Br  Br20  1  0.165778  0.433757  0.573315  1
  Br  Br21  1  0.435996  0.571824  0.164258  1
  Br  Br22  1  0.428131  0.835859  0.563936  1
  Br  Br23  1  0.835906  0.564238  0.427713  1
  Br  Br24  1  0.634364  0.092664  0.770987  1
