# generated using pymatgen
data_Sn4P6PbO24
_symmetry_space_group_name_H-M   'P 1'
_cell_length_a   8.47351288
_cell_length_b   8.47346101
_cell_length_c   9.24725450
_cell_angle_alpha   62.73178192
_cell_angle_beta   117.26758979
_cell_angle_gamma   119.99444095
_symmetry_Int_Tables_number   1
_chemical_formula_structural   Sn4P6PbO24
_chemical_formula_sum   'Sn4 P6 Pb1 O24'
_cell_volume   487.96944525
_cell_formula_units_Z   1
loop_
 _symmetry_equiv_pos_site_id
 _symmetry_equiv_pos_as_xyz
  1  'x, y, z'
loop_
 _atom_site_type_symbol
 _atom_site_label
 _atom_site_symmetry_multiplicity
 _atom_site_fract_x
 _atom_site_fract_y
 _atom_site_fract_z
 _atom_site_occupancy
  Sn  Sn0  1  0.349645  0.650190  0.049149  1
  Sn  Sn1  1  0.148776  0.851279  0.446231  1
  Sn  Sn2  1  0.851224  0.148721  0.553769  1
  Sn  Sn3  1  0.650355  0.349810  0.950851  1
  P  P4  1  0.038099  0.250732  0.246610  1
  P  P5  1  0.459212  0.961890  0.246615  1
  P  P6  1  0.749332  0.540752  0.246669  1
  P  P7  1  0.250668  0.459247  0.753331  1
  P  P8  1  0.540788  0.038110  0.753385  1
  P  P9  1  0.961901  0.749268  0.753389  1
  Pb  Pb10  1  0.000000  0.000000  0.000000  1
  O  O11  1  0.469072  0.154219  0.101976  1
  O  O12  1  0.787041  0.530914  0.101946  1
  O  O13  1  0.845802  0.212977  0.101955  1
  O  O14  1  0.482806  0.823884  0.200898  1
  O  O15  1  0.542074  0.517202  0.201018  1
  O  O16  1  0.176154  0.458001  0.200945  1
  O  O17  1  0.255769  0.877610  0.267529  1
  O  O18  1  0.889402  0.744175  0.267551  1
  O  O19  1  0.122377  0.110687  0.267477  1
  O  O20  1  0.796661  0.392165  0.418164  1
  O  O21  1  0.013755  0.203366  0.418149  1
  O  O22  1  0.607755  0.986196  0.418177  1
  O  O23  1  0.392245  0.013804  0.581822  1
  O  O24  1  0.986245  0.796634  0.581850  1
  O  O25  1  0.203340  0.607835  0.581837  1
  O  O26  1  0.877623  0.889314  0.732523  1
  O  O27  1  0.110598  0.255825  0.732448  1
  O  O28  1  0.744231  0.122389  0.732471  1
  O  O29  1  0.823845  0.541999  0.799055  1
  O  O30  1  0.457926  0.482799  0.798982  1
  O  O31  1  0.517194  0.176117  0.799102  1
  O  O32  1  0.154198  0.787023  0.898045  1
  O  O33  1  0.212958  0.469086  0.898053  1
  O  O34  1  0.530928  0.845781  0.898024  1
