# generated using pymatgen
data_PrThGa5Au3
_symmetry_space_group_name_H-M   'P 1'
_cell_length_a   4.37932200
_cell_length_b   4.37568300
_cell_length_c   10.76465500
_cell_angle_alpha   90.00000000
_cell_angle_beta   90.00000000
_cell_angle_gamma   90.00000000
_symmetry_Int_Tables_number   1
_chemical_formula_structural   PrThGa5Au3
_chemical_formula_sum   'Pr1 Th1 Ga5 Au3'
_cell_volume   206.27796869
_cell_formula_units_Z   1
loop_
 _symmetry_equiv_pos_site_id
 _symmetry_equiv_pos_as_xyz
  1  'x, y, z'
loop_
 _atom_site_type_symbol
 _atom_site_label
 _atom_site_symmetry_multiplicity
 _atom_site_fract_x
 _atom_site_fract_y
 _atom_site_fract_z
 _atom_site_occupancy
  Pr  Pr0  1  0.500000  0.000000  0.748006  1
  Th  Th1  1  0.000000  0.500000  0.251713  1
  Ga  Ga2  1  0.500000  0.500000  0.000243  1
  Ga  Ga3  1  0.000000  0.000000  0.000482  1
  Ga  Ga4  1  0.000000  0.500000  0.635636  1
  Ga  Ga5  1  0.500000  0.000000  0.364580  1
  Ga  Ga6  1  0.000000  0.000000  0.499443  1
  Au  Au7  1  0.000000  0.500000  0.868604  1
  Au  Au8  1  0.500000  0.000000  0.132770  1
  Au  Au9  1  0.500000  0.500000  0.498524  1
