# generated using pymatgen
data_Dy3ErTm12(CdNi)4
_symmetry_space_group_name_H-M   'P 1'
_cell_length_a   9.42665176
_cell_length_b   9.42821040
_cell_length_c   9.42821100
_cell_angle_alpha   60.00000141
_cell_angle_beta   59.99453173
_cell_angle_gamma   59.99453894
_symmetry_Int_Tables_number   1
_chemical_formula_structural   Dy3ErTm12(CdNi)4
_chemical_formula_sum   'Dy3 Er1 Tm12 Cd4 Ni4'
_cell_volume   592.46834667
_cell_formula_units_Z   1
loop_
 _symmetry_equiv_pos_site_id
 _symmetry_equiv_pos_as_xyz
  1  'x, y, z'
loop_
 _atom_site_type_symbol
 _atom_site_label
 _atom_site_symmetry_multiplicity
 _atom_site_fract_x
 _atom_site_fract_y
 _atom_site_fract_z
 _atom_site_occupancy
  Dy  Dy0  1  0.349283  0.349579  0.349579  1
  Dy  Dy1  1  0.349283  0.349579  0.951559  1
  Dy  Dy2  1  0.349283  0.951559  0.349579  1
  Er  Er3  1  0.951594  0.349469  0.349469  1
  Tm  Tm4  1  0.813220  0.187059  0.187059  1
  Tm  Tm5  1  0.187132  0.813060  0.813060  1
  Tm  Tm6  1  0.187132  0.813060  0.186747  1
  Tm  Tm7  1  0.813220  0.187059  0.812662  1
  Tm  Tm8  1  0.187132  0.186747  0.813060  1
  Tm  Tm9  1  0.813220  0.812662  0.187059  1
  Tm  Tm10  1  0.935454  0.564598  0.564598  1
  Tm  Tm11  1  0.565160  0.935036  0.935036  1
  Tm  Tm12  1  0.565160  0.935036  0.564767  1
  Tm  Tm13  1  0.935454  0.564598  0.935350  1
  Tm  Tm14  1  0.565160  0.564767  0.935036  1
  Tm  Tm15  1  0.935454  0.935350  0.564598  1
  Cd  Cd16  1  0.582374  0.581739  0.581739  1
  Cd  Cd17  1  0.582374  0.581739  0.254148  1
  Cd  Cd18  1  0.582374  0.254148  0.581739  1
  Cd  Cd19  1  0.254177  0.581941  0.581941  1
  Ni  Ni20  1  0.140135  0.142842  0.142842  1
  Ni  Ni21  1  0.140135  0.142842  0.574182  1
  Ni  Ni22  1  0.140135  0.574182  0.142842  1
  Ni  Ni23  1  0.575950  0.141350  0.141350  1
