# generated using pymatgen
data_Ce3Co2Si2Pt
_symmetry_space_group_name_H-M   'P 1'
_cell_length_a   6.12574500
_cell_length_b   7.51106900
_cell_length_c   13.27709100
_cell_angle_alpha   90.00000000
_cell_angle_beta   90.00000000
_cell_angle_gamma   90.00000000
_symmetry_Int_Tables_number   1
_chemical_formula_structural   Ce3Co2Si2Pt
_chemical_formula_sum   'Ce12 Co8 Si8 Pt4'
_cell_volume   610.89081828
_cell_formula_units_Z   4
loop_
 _symmetry_equiv_pos_site_id
 _symmetry_equiv_pos_as_xyz
  1  'x, y, z'
loop_
 _atom_site_type_symbol
 _atom_site_label
 _atom_site_symmetry_multiplicity
 _atom_site_fract_x
 _atom_site_fract_y
 _atom_site_fract_z
 _atom_site_occupancy
  Ce  Ce0  1  0.890449  0.880526  0.750000  1
  Ce  Ce1  1  0.861621  0.462422  0.403738  1
  Ce  Ce2  1  0.361621  0.037578  0.596262  1
  Ce  Ce3  1  0.138379  0.537578  0.903738  1
  Ce  Ce4  1  0.638379  0.962423  0.096262  1
  Ce  Ce5  1  0.109551  0.119474  0.250000  1
  Ce  Ce6  1  0.138379  0.537578  0.596262  1
  Ce  Ce7  1  0.638379  0.962423  0.403738  1
  Ce  Ce8  1  0.390449  0.619474  0.250000  1
  Ce  Ce9  1  0.361621  0.037578  0.903738  1
  Ce  Ce10  1  0.609551  0.380526  0.750000  1
  Ce  Ce11  1  0.861621  0.462422  0.096262  1
  Co  Co12  1  0.614318  0.382320  0.949813  1
  Co  Co13  1  0.114318  0.117680  0.449813  1
  Co  Co14  1  0.114318  0.117680  0.050187  1
  Co  Co15  1  0.885682  0.882320  0.949813  1
  Co  Co16  1  0.885682  0.882320  0.550187  1
  Co  Co17  1  0.614318  0.382320  0.550187  1
  Co  Co18  1  0.385682  0.617680  0.449813  1
  Co  Co19  1  0.385682  0.617680  0.050187  1
  Si  Si20  1  0.619954  0.680891  0.914397  1
  Si  Si21  1  0.880046  0.180891  0.585603  1
  Si  Si22  1  0.119954  0.819109  0.085603  1
  Si  Si23  1  0.119954  0.819109  0.414397  1
  Si  Si24  1  0.619954  0.680891  0.585603  1
  Si  Si25  1  0.880046  0.180891  0.914397  1
  Si  Si26  1  0.380046  0.319109  0.085603  1
  Si  Si27  1  0.380046  0.319109  0.414397  1
  Pt  Pt28  1  0.401583  0.739418  0.750000  1
  Pt  Pt29  1  0.598417  0.260582  0.250000  1
  Pt  Pt30  1  0.901583  0.760582  0.250000  1
  Pt  Pt31  1  0.098417  0.239418  0.750000  1
