# generated using pymatgen
data_Cu2Hg2OF6
_symmetry_space_group_name_H-M   'P 1'
_cell_length_a   7.46102869
_cell_length_b   7.46102855
_cell_length_c   7.46103000
_cell_angle_alpha   59.99999355
_cell_angle_beta   59.99999417
_cell_angle_gamma   59.99999805
_symmetry_Int_Tables_number   1
_chemical_formula_structural   Cu2Hg2OF6
_chemical_formula_sum   'Cu4 Hg4 O2 F12'
_cell_volume   293.68458582
_cell_formula_units_Z   2
loop_
 _symmetry_equiv_pos_site_id
 _symmetry_equiv_pos_as_xyz
  1  'x, y, z'
loop_
 _atom_site_type_symbol
 _atom_site_label
 _atom_site_symmetry_multiplicity
 _atom_site_fract_x
 _atom_site_fract_y
 _atom_site_fract_z
 _atom_site_occupancy
  Cu  Cu0  1  0.125000  0.125000  0.625000  1
  Cu  Cu1  1  0.125000  0.625000  0.125000  1
  Cu  Cu2  1  0.625000  0.125000  0.125000  1
  Cu  Cu3  1  0.125000  0.125000  0.125000  1
  Hg  Hg4  1  0.625000  0.625000  0.125000  1
  Hg  Hg5  1  0.625000  0.125000  0.625000  1
  Hg  Hg6  1  0.125000  0.625000  0.625000  1
  Hg  Hg7  1  0.625000  0.625000  0.625000  1
  O  O8  1  0.750000  0.750000  0.750000  1
  O  O9  1  0.500000  0.500000  0.500000  1
  F  F10  1  0.053443  0.446557  0.053443  1
  F  F11  1  0.803443  0.196557  0.803443  1
  F  F12  1  0.053443  0.053443  0.446557  1
  F  F13  1  0.446557  0.053443  0.053443  1
  F  F14  1  0.053443  0.446557  0.446557  1
  F  F15  1  0.446557  0.446557  0.053443  1
  F  F16  1  0.446557  0.053443  0.446557  1
  F  F17  1  0.196557  0.803443  0.803443  1
  F  F18  1  0.803443  0.196557  0.196557  1
  F  F19  1  0.196557  0.803443  0.196557  1
  F  F20  1  0.803443  0.803443  0.196557  1
  F  F21  1  0.196557  0.196557  0.803443  1
