# generated using pymatgen
data_Tm5Pd9
_symmetry_space_group_name_H-M   'P 1'
_cell_length_a   9.69378200
_cell_length_b   9.69378200
_cell_length_c   5.73029400
_cell_angle_alpha   90.00000000
_cell_angle_beta   90.00000000
_cell_angle_gamma   90.00000000
_symmetry_Int_Tables_number   1
_chemical_formula_structural   Tm5Pd9
_chemical_formula_sum   'Tm10 Pd18'
_cell_volume   538.47234323
_cell_formula_units_Z   2
loop_
 _symmetry_equiv_pos_site_id
 _symmetry_equiv_pos_as_xyz
  1  'x, y, z'
loop_
 _atom_site_type_symbol
 _atom_site_label
 _atom_site_symmetry_multiplicity
 _atom_site_fract_x
 _atom_site_fract_y
 _atom_site_fract_z
 _atom_site_occupancy
  Tm  Tm0  1  0.452805  0.808522  0.000000  1
  Tm  Tm1  1  0.547195  0.191478  0.000000  1
  Tm  Tm2  1  0.191478  0.547195  0.000000  1
  Tm  Tm3  1  0.808522  0.452805  0.000000  1
  Tm  Tm4  1  0.500000  0.500000  0.500000  1
  Tm  Tm5  1  0.308522  0.047195  0.500000  1
  Tm  Tm6  1  0.691478  0.952805  0.500000  1
  Tm  Tm7  1  0.952805  0.691478  0.500000  1
  Tm  Tm8  1  0.047195  0.308522  0.500000  1
  Tm  Tm9  1  0.000000  0.000000  0.000000  1
  Pd  Pd10  1  0.191420  0.808580  0.250200  1
  Pd  Pd11  1  0.808580  0.191420  0.749800  1
  Pd  Pd12  1  0.808580  0.191420  0.250200  1
  Pd  Pd13  1  0.191420  0.808580  0.749800  1
  Pd  Pd14  1  0.441378  0.782290  0.500000  1
  Pd  Pd15  1  0.558622  0.217710  0.500000  1
  Pd  Pd16  1  0.217710  0.558622  0.500000  1
  Pd  Pd17  1  0.782290  0.441378  0.500000  1
  Pd  Pd18  1  0.308580  0.308580  0.249800  1
  Pd  Pd19  1  0.691420  0.691420  0.750200  1
  Pd  Pd20  1  0.691420  0.691420  0.249800  1
  Pd  Pd21  1  0.308580  0.308580  0.750200  1
  Pd  Pd22  1  0.282290  0.058622  0.000000  1
  Pd  Pd23  1  0.717710  0.941378  0.000000  1
  Pd  Pd24  1  0.941378  0.717710  0.000000  1
  Pd  Pd25  1  0.058622  0.282290  0.000000  1
  Pd  Pd26  1  0.000000  0.000000  0.500000  1
  Pd  Pd27  1  0.500000  0.500000  0.000000  1
