# generated using pymatgen
data_Zr4TiSi4W3
_symmetry_space_group_name_H-M   'P 1'
_cell_length_a   3.55667900
_cell_length_b   6.98540273
_cell_length_c   8.29598468
_cell_angle_alpha   89.79383725
_cell_angle_beta   90.00000000
_cell_angle_gamma   90.00000000
_symmetry_Int_Tables_number   1
_chemical_formula_structural   Zr4TiSi4W3
_chemical_formula_sum   'Zr4 Ti1 Si4 W3'
_cell_volume   206.11103796
_cell_formula_units_Z   1
loop_
 _symmetry_equiv_pos_site_id
 _symmetry_equiv_pos_as_xyz
  1  'x, y, z'
loop_
 _atom_site_type_symbol
 _atom_site_label
 _atom_site_symmetry_multiplicity
 _atom_site_fract_x
 _atom_site_fract_y
 _atom_site_fract_z
 _atom_site_occupancy
  Zr  Zr0  1  0.250000  0.043778  0.332485  1
  Zr  Zr1  1  0.250000  0.543789  0.166582  1
  Zr  Zr2  1  0.750000  0.956300  0.666824  1
  Zr  Zr3  1  0.750000  0.461464  0.829203  1
  Ti  Ti4  1  0.250000  0.126606  0.940122  1
  Si  Si5  1  0.250000  0.255975  0.639165  1
  Si  Si6  1  0.250000  0.756288  0.863548  1
  Si  Si7  1  0.750000  0.743051  0.361407  1
  Si  Si8  1  0.750000  0.243034  0.139189  1
  W  W9  1  0.250000  0.630368  0.560319  1
  W  W10  1  0.750000  0.868228  0.060870  1
  W  W11  1  0.750000  0.371117  0.440285  1
