# generated using pymatgen
data_Pr10(IrRh)3
_symmetry_space_group_name_H-M   'P 1'
_cell_length_a   11.30288518
_cell_length_b   11.29862500
_cell_length_c   6.67684070
_cell_angle_alpha   90.00000000
_cell_angle_beta   90.05227849
_cell_angle_gamma   90.00000000
_symmetry_Int_Tables_number   1
_chemical_formula_structural   Pr10(IrRh)3
_chemical_formula_sum   'Pr20 Ir6 Rh6'
_cell_volume   852.67934712
_cell_formula_units_Z   2
loop_
 _symmetry_equiv_pos_site_id
 _symmetry_equiv_pos_as_xyz
  1  'x, y, z'
loop_
 _atom_site_type_symbol
 _atom_site_label
 _atom_site_symmetry_multiplicity
 _atom_site_fract_x
 _atom_site_fract_y
 _atom_site_fract_z
 _atom_site_occupancy
  Pr  Pr0  1  0.291240  0.090617  0.383628  1
  Pr  Pr1  1  0.291240  0.909383  0.883628  1
  Pr  Pr2  1  0.707280  0.091956  0.882280  1
  Pr  Pr3  1  0.707280  0.908044  0.382280  1
  Pr  Pr4  1  0.589056  0.790481  0.883672  1
  Pr  Pr5  1  0.589056  0.209519  0.383672  1
  Pr  Pr6  1  0.408669  0.791292  0.383761  1
  Pr  Pr7  1  0.408669  0.208708  0.883761  1
  Pr  Pr8  1  0.209068  0.408895  0.615818  1
  Pr  Pr9  1  0.209068  0.591105  0.115818  1
  Pr  Pr10  1  0.790749  0.410734  0.116706  1
  Pr  Pr11  1  0.790749  0.589266  0.616706  1
  Pr  Pr12  1  0.910028  0.708210  0.117912  1
  Pr  Pr13  1  0.910028  0.291790  0.617912  1
  Pr  Pr14  1  0.092500  0.707878  0.616235  1
  Pr  Pr15  1  0.092500  0.292122  0.116235  1
  Pr  Pr16  1  0.000049  0.999579  0.499975  1
  Pr  Pr17  1  0.000049  0.000421  0.999975  1
  Pr  Pr18  1  0.499966  0.499636  0.000054  1
  Pr  Pr19  1  0.499966  0.500364  0.500054  1
  Ir  Ir20  1  0.153492  0.153955  0.750253  1
  Ir  Ir21  1  0.153492  0.846045  0.250253  1
  Ir  Ir22  1  0.655021  0.345539  0.749900  1
  Ir  Ir23  1  0.655021  0.654461  0.249900  1
  Ir  Ir24  1  0.346141  0.345641  0.250169  1
  Ir  Ir25  1  0.346141  0.654359  0.750169  1
  Rh  Rh26  1  0.846215  0.153445  0.249680  1
  Rh  Rh27  1  0.846215  0.846555  0.749680  1
  Rh  Rh28  1  0.501346  0.000072  0.115563  1
  Rh  Rh29  1  0.501346  0.999928  0.615563  1
  Rh  Rh30  1  0.999178  0.500569  0.884397  1
  Rh  Rh31  1  0.999178  0.499431  0.384397  1
