# generated using pymatgen
data_Tb7YIn3Os
_symmetry_space_group_name_H-M   'P 1'
_cell_length_a   10.44126000
_cell_length_b   10.44126051
_cell_length_c   7.12436700
_cell_angle_alpha   90.00000000
_cell_angle_beta   90.00000000
_cell_angle_gamma   119.99999837
_symmetry_Int_Tables_number   1
_chemical_formula_structural   Tb7YIn3Os
_chemical_formula_sum   'Tb14 Y2 In6 Os2'
_cell_volume   672.64011489
_cell_formula_units_Z   2
loop_
 _symmetry_equiv_pos_site_id
 _symmetry_equiv_pos_as_xyz
  1  'x, y, z'
loop_
 _atom_site_type_symbol
 _atom_site_label
 _atom_site_symmetry_multiplicity
 _atom_site_fract_x
 _atom_site_fract_y
 _atom_site_fract_z
 _atom_site_occupancy
  Tb  Tb0  1  0.466013  0.533987  0.480260  1
  Tb  Tb1  1  0.067973  0.533987  0.480260  1
  Tb  Tb2  1  0.466013  0.932027  0.480260  1
  Tb  Tb3  1  0.533987  0.466013  0.980260  1
  Tb  Tb4  1  0.932027  0.466013  0.980260  1
  Tb  Tb5  1  0.533987  0.067973  0.980260  1
  Tb  Tb6  1  0.822944  0.177056  0.275471  1
  Tb  Tb7  1  0.354111  0.177056  0.275471  1
  Tb  Tb8  1  0.822944  0.645889  0.275471  1
  Tb  Tb9  1  0.177056  0.822944  0.775471  1
  Tb  Tb10  1  0.645889  0.822944  0.775471  1
  Tb  Tb11  1  0.177056  0.354111  0.775471  1
  Tb  Tb12  1  0.333333  0.666667  0.104417  1
  Tb  Tb13  1  0.666667  0.333333  0.604417  1
  Y  Y14  1  0.000000  0.000000  0.495900  1
  Y  Y15  1  0.000000  0.000000  0.995900  1
  In  In16  1  0.162655  0.837345  0.232707  1
  In  In17  1  0.674689  0.837345  0.232707  1
  In  In18  1  0.162655  0.325311  0.232707  1
  In  In19  1  0.837345  0.162655  0.732707  1
  In  In20  1  0.325311  0.162655  0.732707  1
  In  In21  1  0.837345  0.674689  0.732707  1
  Os  Os22  1  0.333333  0.666667  0.706646  1
  Os  Os23  1  0.666667  0.333333  0.206646  1
