# generated using pymatgen
data_La4TeI6
_symmetry_space_group_name_H-M   'P 1'
_cell_length_a   4.54811000
_cell_length_b   14.79359700
_cell_length_c   15.65532900
_cell_angle_alpha   90.00000000
_cell_angle_beta   90.00000000
_cell_angle_gamma   90.00000000
_symmetry_Int_Tables_number   1
_chemical_formula_structural   La4TeI6
_chemical_formula_sum   'La8 Te2 I12'
_cell_volume   1053.33603658
_cell_formula_units_Z   2
loop_
 _symmetry_equiv_pos_site_id
 _symmetry_equiv_pos_as_xyz
  1  'x, y, z'
loop_
 _atom_site_type_symbol
 _atom_site_label
 _atom_site_symmetry_multiplicity
 _atom_site_fract_x
 _atom_site_fract_y
 _atom_site_fract_z
 _atom_site_occupancy
  La  La0  1  0.500000  0.118822  0.340796  1
  La  La1  1  0.500000  0.881178  0.659204  1
  La  La2  1  0.500000  0.618822  0.159204  1
  La  La3  1  0.500000  0.381178  0.840796  1
  La  La4  1  0.000000  0.117212  0.578005  1
  La  La5  1  0.000000  0.882788  0.421995  1
  La  La6  1  0.000000  0.617212  0.921995  1
  La  La7  1  0.000000  0.382788  0.078005  1
  Te  Te8  1  0.500000  0.000000  0.500000  1
  Te  Te9  1  0.500000  0.500000  0.000000  1
  I  I10  1  0.500000  0.243938  0.162204  1
  I  I11  1  0.500000  0.756062  0.837796  1
  I  I12  1  0.500000  0.743938  0.337796  1
  I  I13  1  0.500000  0.256062  0.662204  1
  I  I14  1  0.000000  0.257230  0.413399  1
  I  I15  1  0.000000  0.742770  0.586601  1
  I  I16  1  0.000000  0.757230  0.086601  1
  I  I17  1  0.000000  0.242770  0.913399  1
  I  I18  1  0.000000  0.999515  0.241792  1
  I  I19  1  0.000000  0.000485  0.758208  1
  I  I20  1  0.000000  0.499515  0.258208  1
  I  I21  1  0.000000  0.500485  0.741792  1
