# generated using pymatgen
data_Ce2HfRuF14
_symmetry_space_group_name_H-M   'P 1'
_cell_length_a   5.61989000
_cell_length_b   8.96216731
_cell_length_c   12.05719500
_cell_angle_alpha   63.14122398
_cell_angle_beta   90.00000000
_cell_angle_gamma   90.00000000
_symmetry_Int_Tables_number   1
_chemical_formula_structural   Ce2HfRuF14
_chemical_formula_sum   'Ce4 Hf2 Ru2 F28'
_cell_volume   541.76606340
_cell_formula_units_Z   2
loop_
 _symmetry_equiv_pos_site_id
 _symmetry_equiv_pos_as_xyz
  1  'x, y, z'
loop_
 _atom_site_type_symbol
 _atom_site_label
 _atom_site_symmetry_multiplicity
 _atom_site_fract_x
 _atom_site_fract_y
 _atom_site_fract_z
 _atom_site_occupancy
  Ce  Ce0  1  0.752940  0.814528  0.768776  1
  Ce  Ce1  1  0.252940  0.185472  0.731224  1
  Ce  Ce2  1  0.237893  0.198152  0.239885  1
  Ce  Ce3  1  0.737893  0.801848  0.260115  1
  Hf  Hf4  1  0.751293  0.273794  0.957380  1
  Hf  Hf5  1  0.251293  0.726206  0.542620  1
  Ru  Ru6  1  0.242932  0.729647  0.039954  1
  Ru  Ru7  1  0.742932  0.270353  0.460046  1
  F  F8  1  0.437873  0.709049  0.910343  1
  F  F9  1  0.937873  0.290951  0.589657  1
  F  F10  1  0.553221  0.296000  0.084862  1
  F  F11  1  0.053221  0.704000  0.415138  1
  F  F12  1  0.440430  0.272081  0.545551  1
  F  F13  1  0.940430  0.727919  0.954449  1
  F  F14  1  0.555816  0.721795  0.456651  1
  F  F15  1  0.055816  0.278205  0.043349  1
  F  F16  1  0.780283  0.521046  0.859401  1
  F  F17  1  0.280283  0.478954  0.640599  1
  F  F18  1  0.225651  0.485164  0.139628  1
  F  F19  1  0.725651  0.514836  0.360372  1
  F  F20  1  0.755510  0.025577  0.049333  1
  F  F21  1  0.255510  0.974423  0.450667  1
  F  F22  1  0.240908  0.975636  0.942636  1
  F  F23  1  0.740908  0.024364  0.557364  1
  F  F24  1  0.960183  0.721749  0.638727  1
  F  F25  1  0.460183  0.278251  0.861273  1
  F  F26  1  0.037544  0.274532  0.368163  1
  F  F27  1  0.537544  0.725468  0.131837  1
  F  F28  1  0.061724  0.749032  0.174122  1
  F  F29  1  0.561724  0.250968  0.325878  1
  F  F30  1  0.945338  0.259209  0.823144  1
  F  F31  1  0.445338  0.740791  0.676856  1
  F  F32  1  0.408841  0.970326  0.232376  1
  F  F33  1  0.908841  0.029674  0.267624  1
  F  F34  1  0.611618  0.043623  0.775153  1
  F  F35  1  0.111618  0.956377  0.724847  1
