# generated using pymatgen
data_TbHo11Co4SnRh
_symmetry_space_group_name_H-M   'P 1'
_cell_length_a   8.29715872
_cell_length_b   8.27779086
_cell_length_c   8.27778973
_cell_angle_alpha   110.72863563
_cell_angle_beta   110.58426201
_cell_angle_gamma   107.03553507
_symmetry_Int_Tables_number   1
_chemical_formula_structural   TbHo11Co4SnRh
_chemical_formula_sum   'Tb1 Ho11 Co4 Sn1 Rh1'
_cell_volume   437.57778804
_cell_formula_units_Z   1
loop_
 _symmetry_equiv_pos_site_id
 _symmetry_equiv_pos_as_xyz
  1  'x, y, z'
loop_
 _atom_site_type_symbol
 _atom_site_label
 _atom_site_symmetry_multiplicity
 _atom_site_fract_x
 _atom_site_fract_y
 _atom_site_fract_z
 _atom_site_occupancy
  Tb  Tb0  1  0.406847  0.211470  0.195377  1
  Ho  Ho1  1  0.592045  0.787998  0.804047  1
  Ho  Ho2  1  0.015592  0.211776  0.803816  1
  Ho  Ho3  1  0.983849  0.788224  0.195625  1
  Ho  Ho4  1  0.186204  0.292157  0.478647  1
  Ho  Ho5  1  0.814440  0.709025  0.522884  1
  Ho  Ho6  1  0.186204  0.707556  0.894046  1
  Ho  Ho7  1  0.814440  0.291557  0.105416  1
  Ho  Ho8  1  0.313353  0.619988  0.305682  1
  Ho  Ho9  1  0.687187  0.381015  0.694770  1
  Ho  Ho10  1  0.313353  0.007670  0.693365  1
  Ho  Ho11  1  0.687187  0.992419  0.306172  1
  Co  Co12  1  0.378892  0.999731  0.379162  1
  Co  Co13  1  0.621887  0.000374  0.621513  1
  Co  Co14  1  0.111850  0.612171  0.499678  1
  Co  Co15  1  0.889598  0.388384  0.501214  1
  Sn  Sn16  1  0.499781  0.499824  0.999956  1
  Rh  Rh17  1  0.997291  0.998663  0.998628  1
