# generated using pymatgen
data_HfZr3Np4F28
_symmetry_space_group_name_H-M   'P 1'
_cell_length_a   5.83346106
_cell_length_b   9.47565298
_cell_length_c   12.66116861
_cell_angle_alpha   61.39516623
_cell_angle_beta   90.00330413
_cell_angle_gamma   89.98702506
_symmetry_Int_Tables_number   1
_chemical_formula_structural   HfZr3Np4F28
_chemical_formula_sum   'Hf1 Zr3 Np4 F28'
_cell_volume   614.43414276
_cell_formula_units_Z   1
loop_
 _symmetry_equiv_pos_site_id
 _symmetry_equiv_pos_as_xyz
  1  'x, y, z'
loop_
 _atom_site_type_symbol
 _atom_site_label
 _atom_site_symmetry_multiplicity
 _atom_site_fract_x
 _atom_site_fract_y
 _atom_site_fract_z
 _atom_site_occupancy
  Hf  Hf0  1  0.742968  0.277905  0.454618  1
  Zr  Zr1  1  0.243454  0.722111  0.045374  1
  Zr  Zr2  1  0.256525  0.722099  0.545313  1
  Zr  Zr3  1  0.756626  0.277860  0.954748  1
  Np  Np4  1  0.741459  0.814513  0.264753  1
  Np  Np5  1  0.241486  0.185033  0.236165  1
  Np  Np6  1  0.258581  0.185162  0.734914  1
  Np  Np7  1  0.758549  0.815558  0.764253  1
  F  F8  1  0.454079  0.714977  0.918845  1
  F  F9  1  0.950959  0.284929  0.578782  1
  F  F10  1  0.546014  0.285096  0.081217  1
  F  F11  1  0.046014  0.714845  0.418912  1
  F  F12  1  0.460107  0.286706  0.544237  1
  F  F13  1  0.955340  0.713204  0.954425  1
  F  F14  1  0.544656  0.712975  0.454586  1
  F  F15  1  0.044663  0.286860  0.045590  1
  F  F16  1  0.763655  0.521951  0.859514  1
  F  F17  1  0.263528  0.478207  0.640080  1
  F  F18  1  0.236449  0.478121  0.140713  1
  F  F19  1  0.736665  0.517916  0.361039  1
  F  F20  1  0.770527  0.031820  0.056006  1
  F  F21  1  0.270612  0.968092  0.444142  1
  F  F22  1  0.229444  0.968058  0.944036  1
  F  F23  1  0.730022  0.035687  0.554455  1
  F  F24  1  0.980435  0.734938  0.639756  1
  F  F25  1  0.480492  0.265358  0.860074  1
  F  F26  1  0.014671  0.265410  0.361794  1
  F  F27  1  0.519492  0.734512  0.139996  1
  F  F28  1  0.037906  0.736636  0.171230  1
  F  F29  1  0.540682  0.263363  0.330905  1
  F  F30  1  0.961854  0.263292  0.828599  1
  F  F31  1  0.462223  0.737095  0.671039  1
  F  F32  1  0.406941  0.965456  0.231615  1
  F  F33  1  0.906778  0.034340  0.268482  1
  F  F34  1  0.593181  0.034491  0.768374  1
  F  F35  1  0.092961  0.965424  0.731419  1
