# generated using pymatgen
data_Th4AlReOs6
_symmetry_space_group_name_H-M   'P 1'
_cell_length_a   5.63405100
_cell_length_b   5.30227907
_cell_length_c   9.19127000
_cell_angle_alpha   90.00000000
_cell_angle_beta   90.00000000
_cell_angle_gamma   122.09239055
_symmetry_Int_Tables_number   1
_chemical_formula_structural   Th4AlReOs6
_chemical_formula_sum   'Th4 Al1 Re1 Os6'
_cell_volume   232.61674602
_cell_formula_units_Z   1
loop_
 _symmetry_equiv_pos_site_id
 _symmetry_equiv_pos_as_xyz
  1  'x, y, z'
loop_
 _atom_site_type_symbol
 _atom_site_label
 _atom_site_symmetry_multiplicity
 _atom_site_fract_x
 _atom_site_fract_y
 _atom_site_fract_z
 _atom_site_occupancy
  Th  Th0  1  0.336399  0.672797  0.068753  1
  Th  Th1  1  0.668631  0.337260  0.567023  1
  Th  Th2  1  0.668631  0.337260  0.932977  1
  Th  Th3  1  0.336399  0.672797  0.431247  1
  Al  Al4  1  0.829984  0.659970  0.250000  1
  Re  Re5  1  0.159654  0.319306  0.750000  1
  Os  Os6  1  0.007872  0.015745  0.998524  1
  Os  Os7  1  0.007872  0.015745  0.501476  1
  Os  Os8  1  0.168610  0.817976  0.750000  1
  Os  Os9  1  0.649368  0.817976  0.750000  1
  Os  Os10  1  0.332910  0.166582  0.250000  1
  Os  Os11  1  0.833671  0.166582  0.250000  1
