# generated using pymatgen
data_Tm9Mg(Cu2Bi)2
_symmetry_space_group_name_H-M   'P 1'
_cell_length_a   8.50914415
_cell_length_b   8.50914415
_cell_length_c   8.50914353
_cell_angle_alpha   126.07745967
_cell_angle_beta   126.07746197
_cell_angle_gamma   79.76086331
_symmetry_Int_Tables_number   1
_chemical_formula_structural   Tm9Mg(Cu2Bi)2
_chemical_formula_sum   'Tm9 Mg1 Cu4 Bi2'
_cell_volume   388.75024809
_cell_formula_units_Z   1
loop_
 _symmetry_equiv_pos_site_id
 _symmetry_equiv_pos_as_xyz
  1  'x, y, z'
loop_
 _atom_site_type_symbol
 _atom_site_label
 _atom_site_symmetry_multiplicity
 _atom_site_fract_x
 _atom_site_fract_y
 _atom_site_fract_z
 _atom_site_occupancy
  Tm  Tm0  1  0.500000  0.500000  0.000000  1
  Tm  Tm1  1  0.800596  0.288399  0.814891  1
  Tm  Tm2  1  0.199404  0.711601  0.185109  1
  Tm  Tm3  1  0.473507  0.985705  0.185109  1
  Tm  Tm4  1  0.288399  0.473507  0.487803  1
  Tm  Tm5  1  0.014295  0.199404  0.487803  1
  Tm  Tm6  1  0.526493  0.014295  0.814891  1
  Tm  Tm7  1  0.711601  0.526493  0.512197  1
  Tm  Tm8  1  0.985705  0.800596  0.512197  1
  Mg  Mg9  1  0.000000  0.000000  0.000000  1
  Cu  Cu10  1  0.132422  0.625763  0.758185  1
  Cu  Cu11  1  0.867578  0.374237  0.241815  1
  Cu  Cu12  1  0.625763  0.867578  0.493342  1
  Cu  Cu13  1  0.374237  0.132422  0.506658  1
  Bi  Bi14  1  0.253406  0.253406  0.000000  1
  Bi  Bi15  1  0.746594  0.746594  0.000000  1
