# generated using pymatgen
data_Ho8Sc12Ga8Si7Ge
_symmetry_space_group_name_H-M   'P 1'
_cell_length_a   7.17894538
_cell_length_b   7.40661642
_cell_length_c   14.29737800
_cell_angle_alpha   90.00000000
_cell_angle_beta   90.00000000
_cell_angle_gamma   90.07095260
_symmetry_Int_Tables_number   1
_chemical_formula_structural   Ho8Sc12Ga8Si7Ge
_chemical_formula_sum   'Ho8 Sc12 Ga8 Si7 Ge1'
_cell_volume   760.21523512
_cell_formula_units_Z   1
loop_
 _symmetry_equiv_pos_site_id
 _symmetry_equiv_pos_as_xyz
  1  'x, y, z'
loop_
 _atom_site_type_symbol
 _atom_site_label
 _atom_site_symmetry_multiplicity
 _atom_site_fract_x
 _atom_site_fract_y
 _atom_site_fract_z
 _atom_site_occupancy
  Ho  Ho0  1  0.010684  0.176203  0.099757  1
  Ho  Ho1  1  0.989523  0.822408  0.900815  1
  Ho  Ho2  1  0.489521  0.676133  0.900435  1
  Ho  Ho3  1  0.989523  0.822408  0.599185  1
  Ho  Ho4  1  0.510541  0.323758  0.099757  1
  Ho  Ho5  1  0.010684  0.176203  0.400243  1
  Ho  Ho6  1  0.510541  0.323758  0.400243  1
  Ho  Ho7  1  0.489521  0.676133  0.599565  1
  Sc  Sc8  1  0.165059  0.503869  0.750000  1
  Sc  Sc9  1  0.835439  0.498078  0.250000  1
  Sc  Sc10  1  0.335535  0.001924  0.250000  1
  Sc  Sc11  1  0.661915  0.997085  0.750000  1
  Sc  Sc12  1  0.331894  0.174065  0.625144  1
  Sc  Sc13  1  0.669446  0.826129  0.374382  1
  Sc  Sc14  1  0.169460  0.674003  0.374398  1
  Sc  Sc15  1  0.669446  0.826129  0.125618  1
  Sc  Sc16  1  0.829167  0.327565  0.624681  1
  Sc  Sc17  1  0.331894  0.174065  0.874856  1
  Sc  Sc18  1  0.829167  0.327565  0.875319  1
  Sc  Sc19  1  0.169460  0.674003  0.125602  1
  Ga  Ga20  1  0.160889  0.463247  0.539719  1
  Ga  Ga21  1  0.839222  0.536727  0.460095  1
  Ga  Ga22  1  0.339223  0.963507  0.460202  1
  Ga  Ga23  1  0.839222  0.536727  0.039905  1
  Ga  Ga24  1  0.660977  0.036487  0.539740  1
  Ga  Ga25  1  0.160889  0.463247  0.960281  1
  Ga  Ga26  1  0.660977  0.036487  0.960260  1
  Ga  Ga27  1  0.339223  0.963507  0.039798  1
  Si  Si28  1  0.966986  0.886593  0.250000  1
  Si  Si29  1  0.467049  0.613492  0.250000  1
  Si  Si30  1  0.533086  0.386322  0.750000  1
  Si  Si31  1  0.287217  0.870986  0.750000  1
  Si  Si32  1  0.716048  0.125772  0.250000  1
  Si  Si33  1  0.215896  0.374100  0.250000  1
  Si  Si34  1  0.784433  0.625597  0.750000  1
  Ge  Ge35  1  0.030242  0.115716  0.750000  1
