# generated using pymatgen
data_TbTm7In3Ru
_symmetry_space_group_name_H-M   'P 1'
_cell_length_a   10.28294875
_cell_length_b   10.28294936
_cell_length_c   7.00860520
_cell_angle_alpha   89.93375696
_cell_angle_beta   90.06624526
_cell_angle_gamma   120.04990544
_symmetry_Int_Tables_number   1
_chemical_formula_structural   TbTm7In3Ru
_chemical_formula_sum   'Tb2 Tm14 In6 Ru2'
_cell_volume   641.47331064
_cell_formula_units_Z   2
loop_
 _symmetry_equiv_pos_site_id
 _symmetry_equiv_pos_as_xyz
  1  'x, y, z'
loop_
 _atom_site_type_symbol
 _atom_site_label
 _atom_site_symmetry_multiplicity
 _atom_site_fract_x
 _atom_site_fract_y
 _atom_site_fract_z
 _atom_site_occupancy
  Tb  Tb0  1  0.532056  0.064516  0.515406  1
  Tb  Tb1  1  0.935484  0.467944  0.515406  1
  Tm  Tm2  1  0.532683  0.467317  0.516343  1
  Tm  Tm3  1  0.466342  0.932649  0.015972  1
  Tm  Tm4  1  0.067351  0.533658  0.015972  1
  Tm  Tm5  1  0.466770  0.533230  0.016683  1
  Tm  Tm6  1  0.178049  0.354868  0.720147  1
  Tm  Tm7  1  0.645132  0.821951  0.720147  1
  Tm  Tm8  1  0.176963  0.823037  0.720632  1
  Tm  Tm9  1  0.822333  0.645683  0.218508  1
  Tm  Tm10  1  0.354317  0.177667  0.218508  1
  Tm  Tm11  1  0.823190  0.176810  0.217970  1
  Tm  Tm12  1  0.666158  0.333842  0.895978  1
  Tm  Tm13  1  0.333876  0.666124  0.394779  1
  Tm  Tm14  1  0.000015  0.999985  0.499897  1
  Tm  Tm15  1  0.000117  0.999883  0.000334  1
  In  In16  1  0.836780  0.674470  0.762644  1
  In  In17  1  0.325530  0.163220  0.762644  1
  In  In18  1  0.837585  0.162415  0.763191  1
  In  In19  1  0.163140  0.326069  0.262102  1
  In  In20  1  0.673931  0.836860  0.262102  1
  In  In21  1  0.163020  0.836980  0.262133  1
  Ru  Ru22  1  0.665951  0.334049  0.289301  1
  Ru  Ru23  1  0.333224  0.666776  0.791206  1
