# generated using pymatgen
data_SmThGa5Rh3
_symmetry_space_group_name_H-M   'P 1'
_cell_length_a   8.63833873
_cell_length_b   8.71440902
_cell_length_c   8.71440952
_cell_angle_alpha   141.49385689
_cell_angle_beta   108.58373450
_cell_angle_gamma   84.30018356
_symmetry_Int_Tables_number   1
_chemical_formula_structural   SmThGa5Rh3
_chemical_formula_sum   'Sm2 Th2 Ga10 Rh6'
_cell_volume   374.40415966
_cell_formula_units_Z   2
loop_
 _symmetry_equiv_pos_site_id
 _symmetry_equiv_pos_as_xyz
  1  'x, y, z'
loop_
 _atom_site_type_symbol
 _atom_site_label
 _atom_site_symmetry_multiplicity
 _atom_site_fract_x
 _atom_site_fract_y
 _atom_site_fract_z
 _atom_site_occupancy
  Sm  Sm0  1  0.089480  0.363226  0.726254  1
  Sm  Sm1  1  0.910520  0.636774  0.273746  1
  Th  Th2  1  0.635972  0.861773  0.774199  1
  Th  Th3  1  0.364028  0.138227  0.225801  1
  Ga  Ga4  1  0.288902  0.042414  0.744217  1
  Ga  Ga5  1  0.711098  0.957586  0.255783  1
  Ga  Ga6  1  0.711098  0.455315  0.753512  1
  Ga  Ga7  1  0.288902  0.544685  0.246488  1
  Ga  Ga8  1  0.424087  0.589497  0.834589  1
  Ga  Ga9  1  0.575913  0.410503  0.165411  1
  Ga  Ga10  1  0.766400  0.092470  0.673931  1
  Ga  Ga11  1  0.233600  0.907530  0.326069  1
  Ga  Ga12  1  0.000000  0.742308  0.742308  1
  Ga  Ga13  1  0.000000  0.257692  0.257692  1
  Rh  Rh14  1  0.251835  0.650841  0.600993  1
  Rh  Rh15  1  0.748165  0.349159  0.399007  1
  Rh  Rh16  1  0.058036  0.145796  0.912240  1
  Rh  Rh17  1  0.941964  0.854204  0.087760  1
  Rh  Rh18  1  0.500000  0.752607  0.252607  1
  Rh  Rh19  1  0.500000  0.247393  0.747393  1
