# generated using pymatgen
data_Ce2Al20Fe3Tc
_symmetry_space_group_name_H-M   'P 1'
_cell_length_a   6.81282182
_cell_length_b   6.81298277
_cell_length_c   9.03773960
_cell_angle_alpha   90.26261745
_cell_angle_beta   90.01779757
_cell_angle_gamma   97.45773788
_symmetry_Int_Tables_number   1
_chemical_formula_structural   Ce2Al20Fe3Tc
_chemical_formula_sum   'Ce2 Al20 Fe3 Tc1'
_cell_volume   415.93936207
_cell_formula_units_Z   1
loop_
 _symmetry_equiv_pos_site_id
 _symmetry_equiv_pos_as_xyz
  1  'x, y, z'
loop_
 _atom_site_type_symbol
 _atom_site_label
 _atom_site_symmetry_multiplicity
 _atom_site_fract_x
 _atom_site_fract_y
 _atom_site_fract_z
 _atom_site_occupancy
  Ce  Ce0  1  0.877022  0.124838  0.749058  1
  Ce  Ce1  1  0.122978  0.875162  0.250942  1
  Al  Al2  1  0.412932  0.131984  0.748958  1
  Al  Al3  1  0.133971  0.410729  0.254139  1
  Al  Al4  1  0.587068  0.868016  0.251042  1
  Al  Al5  1  0.866029  0.589271  0.745861  1
  Al  Al6  1  0.521501  0.779347  0.748971  1
  Al  Al7  1  0.777799  0.521766  0.252115  1
  Al  Al8  1  0.478499  0.220653  0.251029  1
  Al  Al9  1  0.222201  0.478234  0.747885  1
  Al  Al10  1  0.838211  0.160680  0.401925  1
  Al  Al11  1  0.161789  0.839320  0.598075  1
  Al  Al12  1  0.835757  0.156901  0.099338  1
  Al  Al13  1  0.164243  0.843099  0.900662  1
  Al  Al14  1  0.621411  0.374088  0.947889  1
  Al  Al15  1  0.378589  0.625912  0.052111  1
  Al  Al16  1  0.623463  0.375023  0.551447  1
  Al  Al17  1  0.376537  0.624977  0.448553  1
  Al  Al18  1  0.768856  0.775314  0.999275  1
  Al  Al19  1  0.771529  0.772321  0.499213  1
  Al  Al20  1  0.231144  0.224686  0.000725  1
  Al  Al21  1  0.228471  0.227679  0.500787  1
  Fe  Fe22  1  0.500000  0.000000  0.000000  1
  Fe  Fe23  1  0.500000  0.000000  0.500000  1
  Fe  Fe24  1  0.000000  0.500000  0.500000  1
  Tc  Tc25  1  0.000000  0.500000  0.000000  1
