# generated using pymatgen
data_Tb11Y5(ZnIn3)2
_symmetry_space_group_name_H-M   'P 1'
_cell_length_a   10.71120400
_cell_length_b   10.70838942
_cell_length_c   6.80865406
_cell_angle_alpha   90.03386871
_cell_angle_beta   90.00000000
_cell_angle_gamma   120.00870120
_symmetry_Int_Tables_number   1
_chemical_formula_structural   Tb11Y5(ZnIn3)2
_chemical_formula_sum   'Tb11 Y5 Zn2 In6'
_cell_volume   676.26383162
_cell_formula_units_Z   1
loop_
 _symmetry_equiv_pos_site_id
 _symmetry_equiv_pos_as_xyz
  1  'x, y, z'
loop_
 _atom_site_type_symbol
 _atom_site_label
 _atom_site_symmetry_multiplicity
 _atom_site_fract_x
 _atom_site_fract_y
 _atom_site_fract_z
 _atom_site_occupancy
  Tb  Tb0  1  0.478991  0.521959  0.477763  1
  Tb  Tb1  1  0.042969  0.521959  0.477763  1
  Tb  Tb2  1  0.478341  0.956680  0.477694  1
  Tb  Tb3  1  0.521723  0.478406  0.977936  1
  Tb  Tb4  1  0.956684  0.478406  0.977936  1
  Tb  Tb5  1  0.521637  0.043273  0.977841  1
  Tb  Tb6  1  0.827613  0.172575  0.260631  1
  Tb  Tb7  1  0.344962  0.172575  0.260631  1
  Tb  Tb8  1  0.827487  0.654973  0.260137  1
  Tb  Tb9  1  0.172590  0.827479  0.760401  1
  Tb  Tb10  1  0.654889  0.827479  0.760401  1
  Y  Y11  1  0.172405  0.344809  0.760337  1
  Y  Y12  1  0.333285  0.666570  0.129233  1
  Y  Y13  1  0.666653  0.333304  0.629932  1
  Y  Y14  1  0.999807  0.999615  0.497128  1
  Y  Y15  1  0.999721  0.999443  0.996766  1
  Zn  Zn16  1  0.333074  0.666150  0.695280  1
  Zn  Zn17  1  0.666668  0.333334  0.196096  1
  In  In18  1  0.164605  0.835352  0.244926  1
  In  In19  1  0.670747  0.835352  0.244926  1
  In  In20  1  0.164750  0.329500  0.244857  1
  In  In21  1  0.835912  0.164935  0.745499  1
  In  In22  1  0.329023  0.164935  0.745499  1
  In  In23  1  0.835467  0.670936  0.744940  1
