# generated using pymatgen
data_CsCeMnS3
_symmetry_space_group_name_H-M   'P 1'
_cell_length_a   7.98434285
_cell_length_b   7.98434221
_cell_length_c   10.89502363
_cell_angle_alpha   90.03630662
_cell_angle_beta   89.96369288
_cell_angle_gamma   149.77524660
_symmetry_Int_Tables_number   1
_chemical_formula_structural   CsCeMnS3
_chemical_formula_sum   'Cs2 Ce2 Mn2 S6'
_cell_volume   349.63413475
_cell_formula_units_Z   2
loop_
 _symmetry_equiv_pos_site_id
 _symmetry_equiv_pos_as_xyz
  1  'x, y, z'
loop_
 _atom_site_type_symbol
 _atom_site_label
 _atom_site_symmetry_multiplicity
 _atom_site_fract_x
 _atom_site_fract_y
 _atom_site_fract_z
 _atom_site_occupancy
  Cs  Cs0  1  0.259781  0.740219  0.250069  1
  Cs  Cs1  1  0.740219  0.259781  0.749931  1
  Ce  Ce2  1  0.000000  0.000000  0.000000  1
  Ce  Ce3  1  0.000000  0.000000  0.500000  1
  Mn  Mn4  1  0.535452  0.464548  0.250177  1
  Mn  Mn5  1  0.464548  0.535452  0.749823  1
  S  S6  1  0.613829  0.386171  0.065359  1
  S  S7  1  0.386171  0.613829  0.934641  1
  S  S8  1  0.386158  0.613842  0.565356  1
  S  S9  1  0.613842  0.386158  0.434644  1
  S  S10  1  0.952110  0.047890  0.250186  1
  S  S11  1  0.047890  0.952110  0.749814  1
