# generated using pymatgen
data_CaY2(BPt2)3
_symmetry_space_group_name_H-M   'P 1'
_cell_length_a   5.40181494
_cell_length_b   5.43078631
_cell_length_c   7.83047300
_cell_angle_alpha   90.00000000
_cell_angle_beta   90.00000000
_cell_angle_gamma   120.17756622
_symmetry_Int_Tables_number   1
_chemical_formula_structural   CaY2(BPt2)3
_chemical_formula_sum   'Ca1 Y2 B3 Pt6'
_cell_volume   198.58259808
_cell_formula_units_Z   1
loop_
 _symmetry_equiv_pos_site_id
 _symmetry_equiv_pos_as_xyz
  1  'x, y, z'
loop_
 _atom_site_type_symbol
 _atom_site_label
 _atom_site_symmetry_multiplicity
 _atom_site_fract_x
 _atom_site_fract_y
 _atom_site_fract_z
 _atom_site_occupancy
  Ca  Ca0  1  0.000000  0.500000  0.666667  1
  Y  Y1  1  0.500000  0.500000  0.335824  1
  Y  Y2  1  0.500000  0.000000  0.997509  1
  B  B3  1  0.000000  0.500000  0.166667  1
  B  B4  1  0.500000  0.500000  0.831315  1
  B  B5  1  0.500000  0.000000  0.502018  1
  Pt  Pt6  1  0.298219  0.149110  0.666667  1
  Pt  Pt7  1  0.154173  0.852501  0.331690  1
  Pt  Pt8  1  0.845827  0.698330  0.001643  1
  Pt  Pt9  1  0.845827  0.147499  0.331690  1
  Pt  Pt10  1  0.154173  0.301670  0.001643  1
  Pt  Pt11  1  0.701781  0.850890  0.666667  1
