# generated using pymatgen
data_NaTmSc2(B6Ir)2
_symmetry_space_group_name_H-M   'P 1'
_cell_length_a   3.52024200
_cell_length_b   8.96763922
_cell_length_c   11.32650815
_cell_angle_alpha   89.81879475
_cell_angle_beta   90.00000000
_cell_angle_gamma   90.00000000
_symmetry_Int_Tables_number   1
_chemical_formula_structural   NaTmSc2(B6Ir)2
_chemical_formula_sum   'Na2 Tm2 Sc4 B24 Ir4'
_cell_volume   357.55636855
_cell_formula_units_Z   2
loop_
 _symmetry_equiv_pos_site_id
 _symmetry_equiv_pos_as_xyz
  1  'x, y, z'
loop_
 _atom_site_type_symbol
 _atom_site_label
 _atom_site_symmetry_multiplicity
 _atom_site_fract_x
 _atom_site_fract_y
 _atom_site_fract_z
 _atom_site_occupancy
  Na  Na0  1  0.500000  0.320721  0.414670  1
  Na  Na1  1  0.500000  0.679279  0.585330  1
  Tm  Tm2  1  0.500000  0.181782  0.912787  1
  Tm  Tm3  1  0.500000  0.818218  0.087213  1
  Sc  Sc4  1  0.500000  0.445790  0.126559  1
  Sc  Sc5  1  0.500000  0.554210  0.873441  1
  Sc  Sc6  1  0.500000  0.055576  0.623656  1
  Sc  Sc7  1  0.500000  0.944424  0.376344  1
  B  B8  1  0.000000  0.098579  0.473408  1
  B  B9  1  0.000000  0.901421  0.526592  1
  B  B10  1  0.000000  0.399029  0.972797  1
  B  B11  1  0.000000  0.600971  0.027203  1
  B  B12  1  0.000000  0.130775  0.318478  1
  B  B13  1  0.000000  0.869225  0.681522  1
  B  B14  1  0.000000  0.369446  0.818266  1
  B  B15  1  0.000000  0.630554  0.181734  1
  B  B16  1  0.000000  0.054537  0.065702  1
  B  B17  1  0.000000  0.945463  0.934298  1
  B  B18  1  0.000000  0.445231  0.565830  1
  B  B19  1  0.000000  0.554769  0.434170  1
  B  B20  1  0.000000  0.482073  0.286761  1
  B  B21  1  0.000000  0.517927  0.713239  1
  B  B22  1  0.000000  0.017519  0.785030  1
  B  B23  1  0.000000  0.982481  0.214970  1
  B  B24  1  0.000000  0.253792  0.080105  1
  B  B25  1  0.000000  0.746208  0.919895  1
  B  B26  1  0.000000  0.248032  0.579961  1
  B  B27  1  0.000000  0.751968  0.420039  1
  B  B28  1  0.000000  0.294079  0.235799  1
  B  B29  1  0.000000  0.705921  0.764201  1
  B  B30  1  0.000000  0.205241  0.735349  1
  B  B31  1  0.000000  0.794759  0.264651  1
  Ir  Ir32  1  0.500000  0.138976  0.178602  1
  Ir  Ir33  1  0.500000  0.861024  0.821398  1
  Ir  Ir34  1  0.500000  0.358311  0.683127  1
  Ir  Ir35  1  0.500000  0.641689  0.316873  1
