# generated using pymatgen
data_Th2In(Si3Pd10)2
_symmetry_space_group_name_H-M   'P 1'
_cell_length_a   8.73532890
_cell_length_b   8.73532846
_cell_length_c   8.73532900
_cell_angle_alpha   60.00000173
_cell_angle_beta   60.00000342
_cell_angle_gamma   60.00000278
_symmetry_Int_Tables_number   1
_chemical_formula_structural   Th2In(Si3Pd10)2
_chemical_formula_sum   'Th2 In1 Si6 Pd20'
_cell_volume   471.32751748
_cell_formula_units_Z   1
loop_
 _symmetry_equiv_pos_site_id
 _symmetry_equiv_pos_as_xyz
  1  'x, y, z'
loop_
 _atom_site_type_symbol
 _atom_site_label
 _atom_site_symmetry_multiplicity
 _atom_site_fract_x
 _atom_site_fract_y
 _atom_site_fract_z
 _atom_site_occupancy
  Th  Th0  1  0.250000  0.250000  0.250000  1
  Th  Th1  1  0.750000  0.750000  0.750000  1
  In  In2  1  0.000000  0.000000  0.000000  1
  Si  Si3  1  0.733516  0.266484  0.266484  1
  Si  Si4  1  0.266484  0.733516  0.733516  1
  Si  Si5  1  0.266484  0.733516  0.266484  1
  Si  Si6  1  0.733516  0.266484  0.733516  1
  Si  Si7  1  0.266484  0.266484  0.733516  1
  Si  Si8  1  0.733516  0.733516  0.266484  1
  Pd  Pd9  1  0.345061  0.000000  0.000000  1
  Pd  Pd10  1  0.654939  0.000000  0.000000  1
  Pd  Pd11  1  0.000000  0.345061  0.654939  1
  Pd  Pd12  1  0.000000  0.654939  0.345061  1
  Pd  Pd13  1  0.000000  0.345061  0.000000  1
  Pd  Pd14  1  0.654939  0.000000  0.345061  1
  Pd  Pd15  1  0.000000  0.654939  0.000000  1
  Pd  Pd16  1  0.345061  0.000000  0.654939  1
  Pd  Pd17  1  0.000000  0.000000  0.345061  1
  Pd  Pd18  1  0.000000  0.000000  0.654939  1
  Pd  Pd19  1  0.654939  0.345061  0.000000  1
  Pd  Pd20  1  0.345061  0.654939  0.000000  1
  Pd  Pd21  1  0.384422  0.384422  0.384422  1
  Pd  Pd22  1  0.615578  0.615578  0.615578  1
  Pd  Pd23  1  0.384422  0.384422  0.846735  1
  Pd  Pd24  1  0.384422  0.846735  0.384422  1
  Pd  Pd25  1  0.615578  0.615578  0.153265  1
  Pd  Pd26  1  0.615578  0.153265  0.615578  1
  Pd  Pd27  1  0.846735  0.384422  0.384422  1
  Pd  Pd28  1  0.153265  0.615578  0.615578  1
