# generated using pymatgen
data_La2Pr4Pd7Rh
_symmetry_space_group_name_H-M   'P 1'
_cell_length_a   8.19699354
_cell_length_b   8.20251760
_cell_length_c   8.20113712
_cell_angle_alpha   114.45011977
_cell_angle_beta   114.37988796
_cell_angle_gamma   114.34127170
_symmetry_Int_Tables_number   1
_chemical_formula_structural   La2Pr4Pd7Rh
_chemical_formula_sum   'La2 Pr4 Pd7 Rh1'
_cell_volume   325.08489588
_cell_formula_units_Z   1
loop_
 _symmetry_equiv_pos_site_id
 _symmetry_equiv_pos_as_xyz
  1  'x, y, z'
loop_
 _atom_site_type_symbol
 _atom_site_label
 _atom_site_symmetry_multiplicity
 _atom_site_fract_x
 _atom_site_fract_y
 _atom_site_fract_z
 _atom_site_occupancy
  La  La0  1  0.398161  0.027586  0.275734  1
  La  La1  1  0.027760  0.275765  0.398233  1
  Pr  Pr2  1  0.275981  0.398188  0.027341  1
  Pr  Pr3  1  0.601760  0.972668  0.724099  1
  Pr  Pr4  1  0.972501  0.724434  0.601472  1
  Pr  Pr5  1  0.724188  0.601534  0.972850  1
  Pd  Pd6  1  0.500013  0.500046  0.499999  1
  Pd  Pd7  1  0.223058  0.058542  0.554213  1
  Pd  Pd8  1  0.058447  0.553907  0.222890  1
  Pd  Pd9  1  0.553874  0.222937  0.058400  1
  Pd  Pd10  1  0.777130  0.941435  0.445803  1
  Pd  Pd11  1  0.940989  0.445685  0.776812  1
  Pd  Pd12  1  0.445603  0.776902  0.941313  1
  Rh  Rh13  1  0.000535  0.000371  0.000841  1
