# generated using pymatgen
data_Pr8Si13Ge
_symmetry_space_group_name_H-M   'P 1'
_cell_length_a   7.58070805
_cell_length_b   7.58070831
_cell_length_c   11.85144839
_cell_angle_alpha   89.95679976
_cell_angle_beta   89.95680156
_cell_angle_gamma   134.26034011
_symmetry_Int_Tables_number   1
_chemical_formula_structural   Pr8Si13Ge
_chemical_formula_sum   'Pr8 Si13 Ge1'
_cell_volume   487.76421453
_cell_formula_units_Z   1
loop_
 _symmetry_equiv_pos_site_id
 _symmetry_equiv_pos_as_xyz
  1  'x, y, z'
loop_
 _atom_site_type_symbol
 _atom_site_label
 _atom_site_symmetry_multiplicity
 _atom_site_fract_x
 _atom_site_fract_y
 _atom_site_fract_z
 _atom_site_occupancy
  Pr  Pr0  1  0.501116  0.997318  0.124203  1
  Pr  Pr1  1  0.998662  0.500933  0.876271  1
  Pr  Pr2  1  0.499067  0.001338  0.623729  1
  Pr  Pr3  1  0.002682  0.498884  0.375797  1
  Pr  Pr4  1  0.497006  0.502994  0.250000  1
  Pr  Pr5  1  0.502173  0.497827  0.750000  1
  Pr  Pr6  1  0.007268  0.007294  0.497760  1
  Pr  Pr7  1  0.992706  0.992732  0.002240  1
  Si  Si8  1  0.595654  0.424323  0.496328  1
  Si  Si9  1  0.422650  0.594134  0.503360  1
  Si  Si10  1  0.405866  0.577350  0.996640  1
  Si  Si11  1  0.575677  0.404346  0.003672  1
  Si  Si12  1  0.594027  0.929174  0.372039  1
  Si  Si13  1  0.927763  0.589409  0.626442  1
  Si  Si14  1  0.410591  0.072237  0.873558  1
  Si  Si15  1  0.070826  0.405973  0.127961  1
  Si  Si16  1  0.399011  0.074747  0.369377  1
  Si  Si17  1  0.072659  0.393693  0.631965  1
  Si  Si18  1  0.606307  0.927341  0.868035  1
  Si  Si19  1  0.925253  0.600989  0.130623  1
  Si  Si20  1  0.927563  0.072437  0.250000  1
  Ge  Ge21  1  0.065473  0.934527  0.750000  1
