# generated using pymatgen
data_Cs2Ce(PO4)2
_symmetry_space_group_name_H-M   'P 1'
_cell_length_a   5.30352100
_cell_length_b   5.30352082
_cell_length_c   10.11852900
_cell_angle_alpha   90.00000000
_cell_angle_beta   90.00000000
_cell_angle_gamma   119.99999487
_symmetry_Int_Tables_number   1
_chemical_formula_structural   Cs2Ce(PO4)2
_chemical_formula_sum   'Cs2 Ce1 P2 O8'
_cell_volume   246.47711735
_cell_formula_units_Z   1
loop_
 _symmetry_equiv_pos_site_id
 _symmetry_equiv_pos_as_xyz
  1  'x, y, z'
loop_
 _atom_site_type_symbol
 _atom_site_label
 _atom_site_symmetry_multiplicity
 _atom_site_fract_x
 _atom_site_fract_y
 _atom_site_fract_z
 _atom_site_occupancy
  Cs  Cs0  1  0.666667  0.333333  0.362385  1
  Cs  Cs1  1  0.333333  0.666666  0.637615  1
  Ce  Ce2  1  0.000000  0.000000  0.000000  1
  P  P3  1  0.333333  0.666666  0.187047  1
  P  P4  1  0.666667  0.333333  0.812953  1
  O  O5  1  0.291751  0.372267  0.133779  1
  O  O6  1  0.080516  0.708248  0.133779  1
  O  O7  1  0.627732  0.919483  0.133779  1
  O  O8  1  0.333333  0.666666  0.338335  1
  O  O9  1  0.666667  0.333333  0.661665  1
  O  O10  1  0.372267  0.080516  0.866221  1
  O  O11  1  0.919484  0.291751  0.866221  1
  O  O12  1  0.708249  0.627732  0.866221  1
