# generated using pymatgen
data_VAg7(SO4)6
_symmetry_space_group_name_H-M   'P 1'
_cell_length_a   8.75609315
_cell_length_b   8.75609345
_cell_length_c   8.75609297
_cell_angle_alpha   108.35978095
_cell_angle_beta   108.35978663
_cell_angle_gamma   108.35979500
_symmetry_Int_Tables_number   1
_chemical_formula_structural   VAg7(SO4)6
_chemical_formula_sum   'V1 Ag7 S6 O24'
_cell_volume   536.99727126
_cell_formula_units_Z   1
loop_
 _symmetry_equiv_pos_site_id
 _symmetry_equiv_pos_as_xyz
  1  'x, y, z'
loop_
 _atom_site_type_symbol
 _atom_site_label
 _atom_site_symmetry_multiplicity
 _atom_site_fract_x
 _atom_site_fract_y
 _atom_site_fract_z
 _atom_site_occupancy
  V  V0  1  0.000000  0.000000  0.000000  1
  Ag  Ag1  1  0.500000  0.500000  0.500000  1
  Ag  Ag2  1  0.834248  0.335259  0.675316  1
  Ag  Ag3  1  0.335259  0.675316  0.834248  1
  Ag  Ag4  1  0.675316  0.834248  0.335259  1
  Ag  Ag5  1  0.165752  0.664741  0.324684  1
  Ag  Ag6  1  0.664741  0.324684  0.165752  1
  Ag  Ag7  1  0.324684  0.165752  0.664741  1
  S  S8  1  0.970162  0.749772  0.611740  1
  S  S9  1  0.749772  0.611740  0.970162  1
  S  S10  1  0.611740  0.970162  0.749772  1
  S  S11  1  0.029838  0.250228  0.388260  1
  S  S12  1  0.250228  0.388260  0.029838  1
  S  S13  1  0.388260  0.029838  0.250228  1
  O  O14  1  0.449259  0.904008  0.164230  1
  O  O15  1  0.904008  0.164230  0.449259  1
  O  O16  1  0.164230  0.449259  0.904008  1
  O  O17  1  0.550741  0.095992  0.835770  1
  O  O18  1  0.095992  0.835770  0.550741  1
  O  O19  1  0.835770  0.550741  0.095992  1
  O  O20  1  0.312474  0.978886  0.365071  1
  O  O21  1  0.978886  0.365071  0.312474  1
  O  O22  1  0.365071  0.312474  0.978886  1
  O  O23  1  0.687526  0.021114  0.634929  1
  O  O24  1  0.021114  0.634929  0.687526  1
  O  O25  1  0.634929  0.687526  0.021114  1
  O  O26  1  0.762515  0.979295  0.909965  1
  O  O27  1  0.979295  0.909965  0.762515  1
  O  O28  1  0.650479  0.467118  0.778740  1
  O  O29  1  0.778740  0.650479  0.467118  1
  O  O30  1  0.467118  0.778740  0.650479  1
  O  O31  1  0.349521  0.532882  0.221260  1
  O  O32  1  0.221260  0.349521  0.532882  1
  O  O33  1  0.532882  0.221260  0.349521  1
  O  O34  1  0.090035  0.237485  0.020705  1
  O  O35  1  0.020705  0.090035  0.237485  1
  O  O36  1  0.237485  0.020705  0.090035  1
  O  O37  1  0.909965  0.762515  0.979295  1
