# generated using pymatgen
data_Be8CrTcOs2
_symmetry_space_group_name_H-M   'P 1'
_cell_length_a   4.32198900
_cell_length_b   4.32198902
_cell_length_c   7.05538400
_cell_angle_alpha   90.00000000
_cell_angle_beta   90.00000000
_cell_angle_gamma   120.00000752
_symmetry_Int_Tables_number   1
_chemical_formula_structural   Be8CrTcOs2
_chemical_formula_sum   'Be8 Cr1 Tc1 Os2'
_cell_volume   114.13492842
_cell_formula_units_Z   1
loop_
 _symmetry_equiv_pos_site_id
 _symmetry_equiv_pos_as_xyz
  1  'x, y, z'
loop_
 _atom_site_type_symbol
 _atom_site_label
 _atom_site_symmetry_multiplicity
 _atom_site_fract_x
 _atom_site_fract_y
 _atom_site_fract_z
 _atom_site_occupancy
  Be  Be0  1  0.169411  0.338820  0.747626  1
  Be  Be1  1  0.169411  0.830589  0.747626  1
  Be  Be2  1  0.337421  0.168711  0.252555  1
  Be  Be3  1  0.831289  0.662579  0.252555  1
  Be  Be4  1  0.000000  0.000000  0.999284  1
  Be  Be5  1  0.661180  0.830589  0.747626  1
  Be  Be6  1  0.831289  0.168711  0.252555  1
  Be  Be7  1  0.000000  0.000000  0.501613  1
  Cr  Cr8  1  0.666667  0.333333  0.564393  1
  Tc  Tc9  1  0.333333  0.666667  0.059528  1
  Os  Os10  1  0.333333  0.666667  0.444520  1
  Os  Os11  1  0.666667  0.333333  0.930117  1
