# generated using pymatgen
data_Hf6TiNb3Ga5Ge
_symmetry_space_group_name_H-M   'P 1'
_cell_length_a   7.92910207
_cell_length_b   7.91884916
_cell_length_c   5.43619513
_cell_angle_alpha   90.01776931
_cell_angle_beta   90.00624613
_cell_angle_gamma   120.02920400
_symmetry_Int_Tables_number   1
_chemical_formula_structural   Hf6TiNb3Ga5Ge
_chemical_formula_sum   'Hf6 Ti1 Nb3 Ga5 Ge1'
_cell_volume   295.51792419
_cell_formula_units_Z   1
loop_
 _symmetry_equiv_pos_site_id
 _symmetry_equiv_pos_as_xyz
  1  'x, y, z'
loop_
 _atom_site_type_symbol
 _atom_site_label
 _atom_site_symmetry_multiplicity
 _atom_site_fract_x
 _atom_site_fract_y
 _atom_site_fract_z
 _atom_site_occupancy
  Hf  Hf0  1  0.247764  0.001403  0.248651  1
  Hf  Hf1  1  0.752414  0.001430  0.751439  1
  Hf  Hf2  1  0.999071  0.245398  0.248132  1
  Hf  Hf3  1  0.997302  0.753368  0.751598  1
  Hf  Hf4  1  0.755120  0.753126  0.248670  1
  Hf  Hf5  1  0.245428  0.245153  0.751623  1
  Ti  Ti6  1  0.334394  0.667504  0.500461  1
  Nb  Nb7  1  0.334431  0.667756  0.999756  1
  Nb  Nb8  1  0.666668  0.332431  0.999633  1
  Nb  Nb9  1  0.666945  0.332510  0.500224  1
  Ga  Ga10  1  0.394241  0.997574  0.748061  1
  Ga  Ga11  1  0.002816  0.603633  0.251945  1
  Ga  Ga12  1  0.002938  0.399726  0.748095  1
  Ga  Ga13  1  0.396826  0.398754  0.251959  1
  Ga  Ga14  1  0.600718  0.602594  0.747968  1
  Ge  Ge15  1  0.602923  0.997639  0.251784  1
