# generated using pymatgen
data_Zr3Pa(Co4P3)2
_symmetry_space_group_name_H-M   'P 1'
_cell_length_a   12.18206759
_cell_length_b   12.19349350
_cell_length_c   3.74013700
_cell_angle_alpha   90.00000000
_cell_angle_beta   90.00000000
_cell_angle_gamma   120.03102910
_symmetry_Int_Tables_number   1
_chemical_formula_structural   Zr3Pa(Co4P3)2
_chemical_formula_sum   'Zr6 Pa2 Co16 P12'
_cell_volume   480.98487764
_cell_formula_units_Z   2
loop_
 _symmetry_equiv_pos_site_id
 _symmetry_equiv_pos_as_xyz
  1  'x, y, z'
loop_
 _atom_site_type_symbol
 _atom_site_label
 _atom_site_symmetry_multiplicity
 _atom_site_fract_x
 _atom_site_fract_y
 _atom_site_fract_z
 _atom_site_occupancy
  Zr  Zr0  1  0.438081  0.437981  0.000000  1
  Zr  Zr1  1  0.561919  0.999901  0.000000  1
  Zr  Zr2  1  0.000000  0.557864  0.000000  1
  Zr  Zr3  1  0.665514  0.332736  0.000000  1
  Zr  Zr4  1  0.334486  0.667222  0.000000  1
  Zr  Zr5  1  0.000000  0.183987  0.500000  1
  Pa  Pa6  1  0.821271  0.823357  0.500000  1
  Pa  Pa7  1  0.178729  0.002086  0.500000  1
  Co  Co8  1  0.192337  0.376652  0.000000  1
  Co  Co9  1  0.183642  0.806779  0.000000  1
  Co  Co10  1  0.816358  0.623138  0.000000  1
  Co  Co11  1  0.807663  0.184314  0.000000  1
  Co  Co12  1  0.373300  0.191580  0.000000  1
  Co  Co13  1  0.126321  0.483210  0.500000  1
  Co  Co14  1  0.357695  0.873258  0.500000  1
  Co  Co15  1  0.517477  0.643094  0.500000  1
  Co  Co16  1  0.642305  0.515562  0.500000  1
  Co  Co17  1  0.873679  0.356889  0.500000  1
  Co  Co18  1  0.482523  0.125616  0.500000  1
  Co  Co19  1  0.000000  0.997378  0.000000  1
  Co  Co20  1  0.724720  0.001777  0.500000  1
  Co  Co21  1  0.000000  0.720506  0.500000  1
  Co  Co22  1  0.626700  0.818280  0.000000  1
  Co  Co23  1  0.275280  0.277058  0.500000  1
  P  P24  1  0.645284  0.644918  0.000000  1
  P  P25  1  0.354716  0.999636  0.000000  1
  P  P26  1  0.000000  0.349608  0.000000  1
  P  P27  1  0.479571  0.305468  0.500000  1
  P  P28  1  0.693073  0.175210  0.500000  1
  P  P29  1  0.824963  0.517024  0.500000  1
  P  P30  1  0.520429  0.825896  0.500000  1
  P  P31  1  0.175037  0.692061  0.500000  1
  P  P32  1  0.825005  0.008403  0.000000  1
  P  P33  1  0.000000  0.816013  0.000000  1
  P  P34  1  0.306927  0.482137  0.500000  1
  P  P35  1  0.174995  0.183398  0.000000  1
