# generated using pymatgen
data_Dy3In3Hg2Rh
_symmetry_space_group_name_H-M   'P 1'
_cell_length_a   7.95627700
_cell_length_b   7.95627798
_cell_length_c   3.91946000
_cell_angle_alpha   90.00000000
_cell_angle_beta   90.00000000
_cell_angle_gamma   119.99999065
_symmetry_Int_Tables_number   1
_chemical_formula_structural   Dy3In3Hg2Rh
_chemical_formula_sum   'Dy3 In3 Hg2 Rh1'
_cell_volume   214.87047919
_cell_formula_units_Z   1
loop_
 _symmetry_equiv_pos_site_id
 _symmetry_equiv_pos_as_xyz
  1  'x, y, z'
loop_
 _atom_site_type_symbol
 _atom_site_label
 _atom_site_symmetry_multiplicity
 _atom_site_fract_x
 _atom_site_fract_y
 _atom_site_fract_z
 _atom_site_occupancy
  Dy  Dy0  1  0.029233  0.612020  0.500000  1
  Dy  Dy1  1  0.582787  0.970767  0.500000  1
  Dy  Dy2  1  0.387980  0.417213  0.500000  1
  In  In3  1  0.006528  0.276623  0.000000  1
  In  In4  1  0.270095  0.993472  0.000000  1
  In  In5  1  0.723377  0.729905  0.000000  1
  Hg  Hg6  1  0.000000  0.000000  0.500000  1
  Hg  Hg7  1  0.666667  0.333333  0.000000  1
  Rh  Rh8  1  0.333333  0.666667  0.000000  1
