# generated using pymatgen
data_DySc(NbN2)2
_symmetry_space_group_name_H-M   'P 1'
_cell_length_a   3.15094000
_cell_length_b   3.15093856
_cell_length_c   10.87973200
_cell_angle_alpha   90.00000000
_cell_angle_beta   90.00000000
_cell_angle_gamma   119.99999412
_symmetry_Int_Tables_number   1
_chemical_formula_structural   DySc(NbN2)2
_chemical_formula_sum   'Dy1 Sc1 Nb2 N4'
_cell_volume   93.54679727
_cell_formula_units_Z   1
loop_
 _symmetry_equiv_pos_site_id
 _symmetry_equiv_pos_as_xyz
  1  'x, y, z'
loop_
 _atom_site_type_symbol
 _atom_site_label
 _atom_site_symmetry_multiplicity
 _atom_site_fract_x
 _atom_site_fract_y
 _atom_site_fract_z
 _atom_site_occupancy
  Dy  Dy0  1  0.000000  0.000000  0.000000  1
  Sc  Sc1  1  0.000000  0.000000  0.500000  1
  Nb  Nb2  1  0.333333  0.666667  0.256992  1
  Nb  Nb3  1  0.666667  0.333333  0.743008  1
  N  N4  1  0.333333  0.666667  0.619284  1
  N  N5  1  0.666667  0.333333  0.380716  1
  N  N6  1  0.666667  0.333333  0.136877  1
  N  N7  1  0.333333  0.666667  0.863123  1
