# generated using pymatgen
data_SrEu5(Al3Ga2)2
_symmetry_space_group_name_H-M   'P 1'
_cell_length_a   5.61746900
_cell_length_b   5.61746801
_cell_length_c   14.03549900
_cell_angle_alpha   90.00000000
_cell_angle_beta   90.00000000
_cell_angle_gamma   119.99999996
_symmetry_Int_Tables_number   1
_chemical_formula_structural   SrEu5(Al3Ga2)2
_chemical_formula_sum   'Sr1 Eu5 Al6 Ga4'
_cell_volume   383.56571557
_cell_formula_units_Z   1
loop_
 _symmetry_equiv_pos_site_id
 _symmetry_equiv_pos_as_xyz
  1  'x, y, z'
loop_
 _atom_site_type_symbol
 _atom_site_label
 _atom_site_symmetry_multiplicity
 _atom_site_fract_x
 _atom_site_fract_y
 _atom_site_fract_z
 _atom_site_occupancy
  Sr  Sr0  1  0.000000  0.000000  0.500000  1
  Eu  Eu1  1  0.333333  0.666667  0.876130  1
  Eu  Eu2  1  0.666667  0.333333  0.375218  1
  Eu  Eu3  1  0.666667  0.333333  0.123870  1
  Eu  Eu4  1  0.000000  0.000000  0.000000  1
  Eu  Eu5  1  0.333333  0.666667  0.624782  1
  Al  Al6  1  0.837530  0.675058  0.750473  1
  Al  Al7  1  0.675058  0.837530  0.249527  1
  Al  Al8  1  0.837530  0.162470  0.750473  1
  Al  Al9  1  0.162470  0.837530  0.249527  1
  Al  Al10  1  0.324942  0.162470  0.750473  1
  Al  Al11  1  0.162470  0.324942  0.249527  1
  Ga  Ga12  1  0.666667  0.333333  0.902422  1
  Ga  Ga13  1  0.333333  0.666667  0.097578  1
  Ga  Ga14  1  0.333333  0.666667  0.400876  1
  Ga  Ga15  1  0.666667  0.333333  0.599124  1
