# generated using pymatgen
data_Pr2ZnSi2Ge
_symmetry_space_group_name_H-M   'P 1'
_cell_length_a   4.28543976
_cell_length_b   4.21919590
_cell_length_c   7.72939004
_cell_angle_alpha   74.16119102
_cell_angle_beta   73.90581859
_cell_angle_gamma   90.00000188
_symmetry_Int_Tables_number   1
_chemical_formula_structural   Pr2ZnSi2Ge
_chemical_formula_sum   'Pr2 Zn1 Si2 Ge1'
_cell_volume   128.74692895
_cell_formula_units_Z   1
loop_
 _symmetry_equiv_pos_site_id
 _symmetry_equiv_pos_as_xyz
  1  'x, y, z'
loop_
 _atom_site_type_symbol
 _atom_site_label
 _atom_site_symmetry_multiplicity
 _atom_site_fract_x
 _atom_site_fract_y
 _atom_site_fract_z
 _atom_site_occupancy
  Pr  Pr0  1  0.756117  0.256117  0.487765  1
  Pr  Pr1  1  0.995103  0.995103  0.009794  1
  Zn  Zn2  1  0.166691  0.666691  0.666619  1
  Si  Si3  1  0.333936  0.833936  0.332128  1
  Si  Si4  1  0.414402  0.414402  0.171199  1
  Ge  Ge5  1  0.583752  0.583752  0.832495  1
