# generated using pymatgen
data_Y13Er3Cd4(RuPt)2
_symmetry_space_group_name_H-M   'P 1'
_cell_length_a   9.66358948
_cell_length_b   9.67230524
_cell_length_c   9.71282100
_cell_angle_alpha   59.86134064
_cell_angle_beta   59.83133388
_cell_angle_gamma   59.70189188
_symmetry_Int_Tables_number   1
_chemical_formula_structural   Y13Er3Cd4(RuPt)2
_chemical_formula_sum   'Y13 Er3 Cd4 Ru2 Pt2'
_cell_volume   639.00274175
_cell_formula_units_Z   1
loop_
 _symmetry_equiv_pos_site_id
 _symmetry_equiv_pos_as_xyz
  1  'x, y, z'
loop_
 _atom_site_type_symbol
 _atom_site_label
 _atom_site_symmetry_multiplicity
 _atom_site_fract_x
 _atom_site_fract_y
 _atom_site_fract_z
 _atom_site_occupancy
  Y  Y0  1  0.954022  0.346635  0.349672  1
  Y  Y1  1  0.814274  0.188507  0.190621  1
  Y  Y2  1  0.188777  0.814362  0.805990  1
  Y  Y3  1  0.188777  0.814362  0.190873  1
  Y  Y4  1  0.814274  0.188507  0.806599  1
  Y  Y5  1  0.188481  0.188516  0.811502  1
  Y  Y6  1  0.807897  0.808149  0.191977  1
  Y  Y7  1  0.937418  0.559366  0.566195  1
  Y  Y8  1  0.558825  0.937684  0.937635  1
  Y  Y9  1  0.558825  0.937684  0.565856  1
  Y  Y10  1  0.937418  0.559366  0.937021  1
  Y  Y11  1  0.562531  0.562895  0.937287  1
  Y  Y12  1  0.938212  0.937721  0.562034  1
  Er  Er13  1  0.348900  0.348896  0.351655  1
  Er  Er14  1  0.348900  0.348896  0.950550  1
  Er  Er15  1  0.346061  0.956277  0.348831  1
  Cd  Cd16  1  0.579649  0.579906  0.581308  1
  Cd  Cd17  1  0.579649  0.579906  0.259137  1
  Cd  Cd18  1  0.580658  0.255880  0.581731  1
  Cd  Cd19  1  0.255934  0.580827  0.581619  1
  Ru  Ru20  1  0.146466  0.143975  0.137958  1
  Ru  Ru21  1  0.146466  0.143975  0.571602  1
  Pt  Pt22  1  0.147165  0.571921  0.140458  1
  Pt  Pt23  1  0.570424  0.145791  0.141893  1
