# generated using pymatgen
data_Gd3YPu4(ReB6)4
_symmetry_space_group_name_H-M   'P 1'
_cell_length_a   3.67951300
_cell_length_b   9.27094582
_cell_length_c   11.53760854
_cell_angle_alpha   89.91047941
_cell_angle_beta   90.00000000
_cell_angle_gamma   90.00000000
_symmetry_Int_Tables_number   1
_chemical_formula_structural   Gd3YPu4(ReB6)4
_chemical_formula_sum   'Gd3 Y1 Pu4 Re4 B24'
_cell_volume   393.57694829
_cell_formula_units_Z   1
loop_
 _symmetry_equiv_pos_site_id
 _symmetry_equiv_pos_as_xyz
  1  'x, y, z'
loop_
 _atom_site_type_symbol
 _atom_site_label
 _atom_site_symmetry_multiplicity
 _atom_site_fract_x
 _atom_site_fract_y
 _atom_site_fract_z
 _atom_site_occupancy
  Gd  Gd0  1  0.000000  0.446815  0.121420  1
  Gd  Gd1  1  0.000000  0.552679  0.878091  1
  Gd  Gd2  1  0.000000  0.946039  0.376925  1
  Y  Y3  1  0.000000  0.053515  0.623239  1
  Pu  Pu4  1  0.000000  0.829125  0.088347  1
  Pu  Pu5  1  0.000000  0.171102  0.911409  1
  Pu  Pu6  1  0.000000  0.327851  0.412072  1
  Pu  Pu7  1  0.000000  0.672460  0.588492  1
  Re  Re8  1  0.000000  0.139027  0.177132  1
  Re  Re9  1  0.000000  0.861168  0.822597  1
  Re  Re10  1  0.000000  0.639097  0.322568  1
  Re  Re11  1  0.000000  0.361217  0.677817  1
  B  B12  1  0.500000  0.051872  0.066943  1
  B  B13  1  0.500000  0.948443  0.932804  1
  B  B14  1  0.500000  0.551910  0.433078  1
  B  B15  1  0.500000  0.447709  0.567028  1
  B  B16  1  0.500000  0.244374  0.077954  1
  B  B17  1  0.500000  0.755817  0.921964  1
  B  B18  1  0.500000  0.744938  0.421986  1
  B  B19  1  0.500000  0.254671  0.578001  1
  B  B20  1  0.500000  0.294916  0.231306  1
  B  B21  1  0.500000  0.705268  0.768633  1
  B  B22  1  0.500000  0.794866  0.268888  1
  B  B23  1  0.500000  0.204605  0.731238  1
  B  B24  1  0.500000  0.137043  0.312590  1
  B  B25  1  0.500000  0.863175  0.687305  1
  B  B26  1  0.500000  0.637521  0.187734  1
  B  B27  1  0.500000  0.362195  0.812215  1
  B  B28  1  0.500000  0.483901  0.286085  1
  B  B29  1  0.500000  0.515921  0.713951  1
  B  B30  1  0.500000  0.984266  0.213867  1
  B  B31  1  0.500000  0.016232  0.785897  1
  B  B32  1  0.500000  0.128251  0.464306  1
  B  B33  1  0.500000  0.872005  0.536162  1
  B  B34  1  0.500000  0.632757  0.037131  1
  B  B35  1  0.500000  0.367250  0.962823  1
