# generated using pymatgen
data_Pu6Ni20P13
_symmetry_space_group_name_H-M   'P 1'
_cell_length_a   12.67457800
_cell_length_b   12.67457841
_cell_length_c   3.73884600
_cell_angle_alpha   90.00000000
_cell_angle_beta   90.00000000
_cell_angle_gamma   119.99999894
_symmetry_Int_Tables_number   1
_chemical_formula_structural   Pu6Ni20P13
_chemical_formula_sum   'Pu6 Ni20 P13'
_cell_volume   520.15795461
_cell_formula_units_Z   1
loop_
 _symmetry_equiv_pos_site_id
 _symmetry_equiv_pos_as_xyz
  1  'x, y, z'
loop_
 _atom_site_type_symbol
 _atom_site_label
 _atom_site_symmetry_multiplicity
 _atom_site_fract_x
 _atom_site_fract_y
 _atom_site_fract_z
 _atom_site_occupancy
  Pu  Pu0  1  0.530362  0.811279  0.500000  1
  Pu  Pu1  1  0.280919  0.469638  0.500000  1
  Pu  Pu2  1  0.188721  0.719081  0.500000  1
  Pu  Pu3  1  0.472411  0.189219  0.000000  1
  Pu  Pu4  1  0.716809  0.527589  0.000000  1
  Pu  Pu5  1  0.810781  0.283191  0.000000  1
  Ni  Ni6  1  0.333333  0.666667  0.000000  1
  Ni  Ni7  1  0.666667  0.333333  0.500000  1
  Ni  Ni8  1  0.195490  0.091798  0.000000  1
  Ni  Ni9  1  0.896308  0.804510  0.000000  1
  Ni  Ni10  1  0.908202  0.103692  0.000000  1
  Ni  Ni11  1  0.850068  0.925500  0.500000  1
  Ni  Ni12  1  0.075432  0.149932  0.500000  1
  Ni  Ni13  1  0.074500  0.924568  0.500000  1
  Ni  Ni14  1  0.437296  0.415130  0.000000  1
  Ni  Ni15  1  0.977833  0.562704  0.000000  1
  Ni  Ni16  1  0.584870  0.022167  0.000000  1
  Ni  Ni17  1  0.564420  0.587118  0.500000  1
  Ni  Ni18  1  0.022698  0.435580  0.500000  1
  Ni  Ni19  1  0.412882  0.977302  0.500000  1
  Ni  Ni20  1  0.075806  0.318998  0.000000  1
  Ni  Ni21  1  0.243191  0.924194  0.000000  1
  Ni  Ni22  1  0.681002  0.756809  0.000000  1
  Ni  Ni23  1  0.932312  0.685149  0.500000  1
  Ni  Ni24  1  0.752838  0.067688  0.500000  1
  Ni  Ni25  1  0.314851  0.247162  0.500000  1
  P  P26  1  0.232937  0.282438  0.000000  1
  P  P27  1  0.049501  0.767063  0.000000  1
  P  P28  1  0.717562  0.950499  0.000000  1
  P  P29  1  0.768445  0.719320  0.500000  1
  P  P30  1  0.950873  0.231555  0.500000  1
  P  P31  1  0.280680  0.049127  0.500000  1
  P  P32  1  0.478174  0.613449  0.000000  1
  P  P33  1  0.135275  0.521826  0.000000  1
  P  P34  1  0.386551  0.864725  0.000000  1
  P  P35  1  0.520853  0.386082  0.500000  1
  P  P36  1  0.865229  0.479147  0.500000  1
  P  P37  1  0.613918  0.134771  0.500000  1
  P  P38  1  0.000000  0.000000  0.000000  1
