# generated using pymatgen
data_Na2Tm(B3Rh4)2
_symmetry_space_group_name_H-M   'P 1'
_cell_length_a   9.78782618
_cell_length_b   8.94017642
_cell_length_c   5.57898438
_cell_angle_alpha   81.20621745
_cell_angle_beta   64.51000392
_cell_angle_gamma   34.28376567
_symmetry_Int_Tables_number   1
_chemical_formula_structural   Na2Tm(B3Rh4)2
_chemical_formula_sum   'Na2 Tm1 B6 Rh8'
_cell_volume   227.64655678
_cell_formula_units_Z   1
loop_
 _symmetry_equiv_pos_site_id
 _symmetry_equiv_pos_as_xyz
  1  'x, y, z'
loop_
 _atom_site_type_symbol
 _atom_site_label
 _atom_site_symmetry_multiplicity
 _atom_site_fract_x
 _atom_site_fract_y
 _atom_site_fract_z
 _atom_site_occupancy
  Na  Na0  1  0.312258  0.312258  0.687742  1
  Na  Na1  1  0.687742  0.687742  0.312258  1
  Tm  Tm2  1  0.500000  0.500000  0.500000  1
  B  B3  1  0.668017  0.986733  0.013267  1
  B  B4  1  0.986733  0.668017  0.331983  1
  B  B5  1  0.331983  0.013267  0.986733  1
  B  B6  1  0.013267  0.331983  0.668017  1
  B  B7  1  0.168584  0.831416  0.168584  1
  B  B8  1  0.831416  0.168584  0.831416  1
  Rh  Rh9  1  0.585038  0.585038  0.914962  1
  Rh  Rh10  1  0.913527  0.913527  0.086473  1
  Rh  Rh11  1  0.414962  0.414962  0.085038  1
  Rh  Rh12  1  0.085038  0.085038  0.414962  1
  Rh  Rh13  1  0.914962  0.914962  0.585038  1
  Rh  Rh14  1  0.250000  0.250000  0.250000  1
  Rh  Rh15  1  0.086473  0.086473  0.913527  1
  Rh  Rh16  1  0.750000  0.750000  0.750000  1
