# generated using pymatgen
data_BaAl2CuPt2
_symmetry_space_group_name_H-M   'P 1'
_cell_length_a   5.34968200
_cell_length_b   6.73514300
_cell_length_c   12.96120100
_cell_angle_alpha   90.00000000
_cell_angle_beta   90.00000000
_cell_angle_gamma   90.00000000
_symmetry_Int_Tables_number   1
_chemical_formula_structural   BaAl2CuPt2
_chemical_formula_sum   'Ba4 Al8 Cu4 Pt8'
_cell_volume   467.00339072
_cell_formula_units_Z   4
loop_
 _symmetry_equiv_pos_site_id
 _symmetry_equiv_pos_as_xyz
  1  'x, y, z'
loop_
 _atom_site_type_symbol
 _atom_site_label
 _atom_site_symmetry_multiplicity
 _atom_site_fract_x
 _atom_site_fract_y
 _atom_site_fract_z
 _atom_site_occupancy
  Ba  Ba0  1  0.250000  0.619358  0.919976  1
  Ba  Ba1  1  0.250000  0.880642  0.419976  1
  Ba  Ba2  1  0.750000  0.380642  0.080024  1
  Ba  Ba3  1  0.750000  0.119358  0.580024  1
  Al  Al4  1  0.999391  0.113600  0.849732  1
  Al  Al5  1  0.500609  0.386400  0.349732  1
  Al  Al6  1  0.499391  0.886400  0.150268  1
  Al  Al7  1  0.000609  0.613600  0.650268  1
  Al  Al8  1  0.000609  0.886400  0.150268  1
  Al  Al9  1  0.499391  0.613600  0.650268  1
  Al  Al10  1  0.500609  0.113600  0.849732  1
  Al  Al11  1  0.999391  0.386400  0.349732  1
  Cu  Cu12  1  0.250000  0.307063  0.713386  1
  Cu  Cu13  1  0.250000  0.192937  0.213386  1
  Cu  Cu14  1  0.750000  0.692937  0.286614  1
  Cu  Cu15  1  0.750000  0.807063  0.786614  1
  Pt  Pt16  1  0.250000  0.911417  0.712949  1
  Pt  Pt17  1  0.250000  0.588583  0.212949  1
  Pt  Pt18  1  0.750000  0.088583  0.287051  1
  Pt  Pt19  1  0.750000  0.411417  0.787051  1
  Pt  Pt20  1  0.250000  0.399780  0.516195  1
  Pt  Pt21  1  0.250000  0.100220  0.016195  1
  Pt  Pt22  1  0.750000  0.600220  0.483805  1
  Pt  Pt23  1  0.750000  0.899780  0.983805  1
