# generated using pymatgen
data_Er5Al2GaC4
_symmetry_space_group_name_H-M   'P 1'
_cell_length_a   10.76136700
_cell_length_b   10.76136700
_cell_length_c   3.48174600
_cell_angle_alpha   90.00000000
_cell_angle_beta   90.00000000
_cell_angle_gamma   90.00000000
_symmetry_Int_Tables_number   1
_chemical_formula_structural   Er5Al2GaC4
_chemical_formula_sum   'Er10 Al4 Ga2 C8'
_cell_volume   403.21062764
_cell_formula_units_Z   2
loop_
 _symmetry_equiv_pos_site_id
 _symmetry_equiv_pos_as_xyz
  1  'x, y, z'
loop_
 _atom_site_type_symbol
 _atom_site_label
 _atom_site_symmetry_multiplicity
 _atom_site_fract_x
 _atom_site_fract_y
 _atom_site_fract_z
 _atom_site_occupancy
  Er  Er0  1  0.550145  0.729006  0.500000  1
  Er  Er1  1  0.449855  0.270994  0.500000  1
  Er  Er2  1  0.050145  0.770994  0.500000  1
  Er  Er3  1  0.949855  0.229006  0.500000  1
  Er  Er4  1  0.270994  0.550145  0.500000  1
  Er  Er5  1  0.729006  0.449855  0.500000  1
  Er  Er6  1  0.229006  0.050145  0.500000  1
  Er  Er7  1  0.770994  0.949855  0.500000  1
  Er  Er8  1  0.500000  0.000000  0.000000  1
  Er  Er9  1  0.000000  0.500000  0.000000  1
  Al  Al10  1  0.703861  0.203861  0.000000  1
  Al  Al11  1  0.296139  0.796139  0.000000  1
  Al  Al12  1  0.203861  0.296139  0.000000  1
  Al  Al13  1  0.796139  0.703861  0.000000  1
  Ga  Ga14  1  0.500000  0.500000  0.000000  1
  Ga  Ga15  1  0.000000  0.000000  0.000000  1
  C  C16  1  0.631710  0.131710  0.500000  1
  C  C17  1  0.368290  0.868290  0.500000  1
  C  C18  1  0.131710  0.368290  0.500000  1
  C  C19  1  0.868290  0.631710  0.500000  1
  C  C20  1  0.161687  0.661687  0.000000  1
  C  C21  1  0.838313  0.338313  0.000000  1
  C  C22  1  0.661687  0.838313  0.000000  1
  C  C23  1  0.338313  0.161687  0.000000  1
