# generated using pymatgen
data_Yb3Ga9Cu2
_symmetry_space_group_name_H-M   'P 1'
_cell_length_a   8.07870491
_cell_length_b   8.07870493
_cell_length_c   8.07870546
_cell_angle_alpha   148.75911837
_cell_angle_beta   109.06484523
_cell_angle_gamma   79.53514063
_symmetry_Int_Tables_number   1
_chemical_formula_structural   Yb3Ga9Cu2
_chemical_formula_sum   'Yb3 Ga9 Cu2'
_cell_volume   253.27837417
_cell_formula_units_Z   1
loop_
 _symmetry_equiv_pos_site_id
 _symmetry_equiv_pos_as_xyz
  1  'x, y, z'
loop_
 _atom_site_type_symbol
 _atom_site_label
 _atom_site_symmetry_multiplicity
 _atom_site_fract_x
 _atom_site_fract_y
 _atom_site_fract_z
 _atom_site_occupancy
  Yb  Yb0  1  0.301040  0.301040  0.000000  1
  Yb  Yb1  1  0.698960  0.698960  0.000000  1
  Yb  Yb2  1  0.000000  0.000000  0.000000  1
  Ga  Ga3  1  0.711961  0.346837  0.365124  1
  Ga  Ga4  1  0.288039  0.653163  0.634876  1
  Ga  Ga5  1  0.981714  0.346837  0.634876  1
  Ga  Ga6  1  0.018286  0.653163  0.365124  1
  Ga  Ga7  1  0.427046  0.143139  0.283907  1
  Ga  Ga8  1  0.572954  0.856861  0.716093  1
  Ga  Ga9  1  0.859232  0.143139  0.716093  1
  Ga  Ga10  1  0.140768  0.856861  0.283907  1
  Ga  Ga11  1  0.500000  0.000000  0.500000  1
  Cu  Cu12  1  0.682437  0.500000  0.182437  1
  Cu  Cu13  1  0.317563  0.500000  0.817563  1
