# generated using pymatgen
data_TbNd6FeCl12
_symmetry_space_group_name_H-M   'P 1'
_cell_length_a   9.23229942
_cell_length_b   9.23013322
_cell_length_c   9.07090218
_cell_angle_alpha   106.84113931
_cell_angle_beta   106.69878252
_cell_angle_gamma   107.33697750
_symmetry_Int_Tables_number   1
_chemical_formula_structural   TbNd6FeCl12
_chemical_formula_sum   'Tb1 Nd6 Fe1 Cl12'
_cell_volume   644.44739370
_cell_formula_units_Z   1
loop_
 _symmetry_equiv_pos_site_id
 _symmetry_equiv_pos_as_xyz
  1  'x, y, z'
loop_
 _atom_site_type_symbol
 _atom_site_label
 _atom_site_symmetry_multiplicity
 _atom_site_fract_x
 _atom_site_fract_y
 _atom_site_fract_z
 _atom_site_occupancy
  Tb  Tb0  1  0.500000  0.500000  0.500000  1
  Nd  Nd1  1  0.317042  0.108354  0.017904  1
  Nd  Nd2  1  0.020288  0.316479  0.108968  1
  Nd  Nd3  1  0.103600  0.020681  0.305437  1
  Nd  Nd4  1  0.896399  0.979319  0.694563  1
  Nd  Nd5  1  0.979712  0.683521  0.891031  1
  Nd  Nd6  1  0.682958  0.891646  0.982095  1
  Fe  Fe7  1  0.000000  0.000000  0.000000  1
  Cl  Cl8  1  0.685365  0.213811  0.075382  1
  Cl  Cl9  1  0.382215  0.461876  0.178901  1
  Cl  Cl10  1  0.074140  0.686218  0.214935  1
  Cl  Cl11  1  0.787348  0.929296  0.319642  1
  Cl  Cl12  1  0.460416  0.183335  0.382298  1
  Cl  Cl13  1  0.184264  0.382879  0.464196  1
  Cl  Cl14  1  0.815737  0.617121  0.535805  1
  Cl  Cl15  1  0.539584  0.816666  0.617702  1
  Cl  Cl16  1  0.212651  0.070704  0.680358  1
  Cl  Cl17  1  0.925860  0.313782  0.785064  1
  Cl  Cl18  1  0.617786  0.538125  0.821099  1
  Cl  Cl19  1  0.314635  0.786188  0.924618  1
