# generated using pymatgen
data_Tb16Cd3Ag(IrPt)2
_symmetry_space_group_name_H-M   'P 1'
_cell_length_a   9.67800213
_cell_length_b   9.67801574
_cell_length_c   9.65275254
_cell_angle_alpha   60.11969083
_cell_angle_beta   60.11954899
_cell_angle_gamma   60.20683437
_symmetry_Int_Tables_number   1
_chemical_formula_structural   Tb16Cd3Ag(IrPt)2
_chemical_formula_sum   'Tb16 Cd3 Ag1 Ir2 Pt2'
_cell_volume   641.45737702
_cell_formula_units_Z   1
loop_
 _symmetry_equiv_pos_site_id
 _symmetry_equiv_pos_as_xyz
  1  'x, y, z'
loop_
 _atom_site_type_symbol
 _atom_site_label
 _atom_site_symmetry_multiplicity
 _atom_site_fract_x
 _atom_site_fract_y
 _atom_site_fract_z
 _atom_site_occupancy
  Tb  Tb0  1  0.600290  0.600288  0.596373  1
  Tb  Tb1  1  0.601961  0.601960  0.199442  1
  Tb  Tb2  1  0.606065  0.193851  0.601828  1
  Tb  Tb3  1  0.193852  0.606065  0.601826  1
  Tb  Tb4  1  0.056274  0.441286  0.440661  1
  Tb  Tb5  1  0.438003  0.056580  0.062478  1
  Tb  Tb6  1  0.441287  0.056277  0.440658  1
  Tb  Tb7  1  0.056580  0.438003  0.062475  1
  Tb  Tb8  1  0.441815  0.441814  0.058409  1
  Tb  Tb9  1  0.060876  0.060874  0.436019  1
  Tb  Tb10  1  0.185642  0.815032  0.810958  1
  Tb  Tb11  1  0.813087  0.186752  0.186664  1
  Tb  Tb12  1  0.815031  0.185641  0.810962  1
  Tb  Tb13  1  0.186754  0.813086  0.186668  1
  Tb  Tb14  1  0.813007  0.813011  0.185221  1
  Tb  Tb15  1  0.186467  0.186471  0.811540  1
  Cd  Cd16  1  0.831880  0.831881  0.506166  1
  Cd  Cd17  1  0.831503  0.506658  0.831837  1
  Cd  Cd18  1  0.506662  0.831504  0.831836  1
  Ag  Ag19  1  0.833712  0.833718  0.833364  1
  Ir  Ir20  1  0.391157  0.823717  0.393426  1
  Ir  Ir21  1  0.823715  0.391153  0.393425  1
  Pt  Pt22  1  0.392333  0.392329  0.395425  1
  Pt  Pt23  1  0.392049  0.392051  0.822340  1
