# generated using pymatgen
data_La6Pd2RhAu5
_symmetry_space_group_name_H-M   'P 1'
_cell_length_a   8.44356531
_cell_length_b   8.40847344
_cell_length_c   8.46682100
_cell_angle_alpha   114.57926522
_cell_angle_beta   114.71844310
_cell_angle_gamma   114.30567055
_symmetry_Int_Tables_number   1
_chemical_formula_structural   La6Pd2RhAu5
_chemical_formula_sum   'La6 Pd2 Rh1 Au5'
_cell_volume   350.26668722
_cell_formula_units_Z   1
loop_
 _symmetry_equiv_pos_site_id
 _symmetry_equiv_pos_as_xyz
  1  'x, y, z'
loop_
 _atom_site_type_symbol
 _atom_site_label
 _atom_site_symmetry_multiplicity
 _atom_site_fract_x
 _atom_site_fract_y
 _atom_site_fract_z
 _atom_site_occupancy
  La  La0  1  0.977358  0.607053  0.731483  1
  La  La1  1  0.715864  0.964893  0.597877  1
  La  La2  1  0.610971  0.727052  0.972016  1
  La  La3  1  0.037607  0.392543  0.269684  1
  La  La4  1  0.270313  0.025829  0.385308  1
  La  La5  1  0.383232  0.278780  0.033023  1
  Pd  Pd6  1  0.505943  0.502551  0.505465  1
  Pd  Pd7  1  0.224275  0.563095  0.059080  1
  Rh  Rh8  1  0.996022  0.994032  0.996043  1
  Au  Au9  1  0.942995  0.774717  0.441102  1
  Au  Au10  1  0.439396  0.945078  0.779182  1
  Au  Au11  1  0.773303  0.436570  0.938332  1
  Au  Au12  1  0.061322  0.229558  0.565259  1
  Au  Au13  1  0.561403  0.058249  0.226146  1
