# generated using pymatgen
data_Tb12Sm8Sn13Bi3
_symmetry_space_group_name_H-M   'P 1'
_cell_length_a   8.19451805
_cell_length_b   8.27866603
_cell_length_c   15.62435597
_cell_angle_alpha   90.11230700
_cell_angle_beta   89.64506899
_cell_angle_gamma   90.05788949
_symmetry_Int_Tables_number   1
_chemical_formula_structural   Tb12Sm8Sn13Bi3
_chemical_formula_sum   'Tb12 Sm8 Sn13 Bi3'
_cell_volume   1059.92837912
_cell_formula_units_Z   1
loop_
 _symmetry_equiv_pos_site_id
 _symmetry_equiv_pos_as_xyz
  1  'x, y, z'
loop_
 _atom_site_type_symbol
 _atom_site_label
 _atom_site_symmetry_multiplicity
 _atom_site_fract_x
 _atom_site_fract_y
 _atom_site_fract_z
 _atom_site_occupancy
  Tb  Tb0  1  0.368350  0.833946  0.876484  1
  Tb  Tb1  1  0.873249  0.661529  0.624202  1
  Tb  Tb2  1  0.627910  0.161127  0.375428  1
  Tb  Tb3  1  0.131160  0.340990  0.123298  1
  Tb  Tb4  1  0.637943  0.163356  0.122668  1
  Tb  Tb5  1  0.136029  0.336250  0.377509  1
  Tb  Tb6  1  0.364330  0.836212  0.622429  1
  Tb  Tb7  1  0.866472  0.662979  0.877051  1
  Tb  Tb8  1  0.197566  0.500677  0.750484  1
  Tb  Tb9  1  0.696558  0.998909  0.753974  1
  Tb  Tb10  1  0.802505  0.499755  0.247208  1
  Tb  Tb11  1  0.302944  0.001098  0.252448  1
  Sm  Sm12  1  0.523373  0.324985  0.900236  1
  Sm  Sm13  1  0.032081  0.177339  0.602412  1
  Sm  Sm14  1  0.468105  0.677142  0.397955  1
  Sm  Sm15  1  0.972489  0.820190  0.100375  1
  Sm  Sm16  1  0.480532  0.675232  0.098532  1
  Sm  Sm17  1  0.981770  0.823776  0.398604  1
  Sm  Sm18  1  0.517906  0.322939  0.601251  1
  Sm  Sm19  1  0.017203  0.181104  0.899743  1
  Sn  Sn20  1  0.205844  0.536728  0.958063  1
  Sn  Sn21  1  0.709225  0.962934  0.957945  1
  Sn  Sn22  1  0.210493  0.535514  0.542604  1
  Sn  Sn23  1  0.289929  0.035714  0.457596  1
  Sn  Sn24  1  0.794854  0.463119  0.041714  1
  Sn  Sn25  1  0.565188  0.622418  0.747964  1
  Sn  Sn26  1  0.064880  0.879125  0.750388  1
  Sn  Sn27  1  0.436165  0.377895  0.249195  1
  Sn  Sn28  1  0.935656  0.121963  0.250769  1
  Sn  Sn29  1  0.330308  0.144472  0.751034  1
  Sn  Sn30  1  0.828751  0.355178  0.749213  1
  Sn  Sn31  1  0.669340  0.854066  0.250037  1
  Sn  Sn32  1  0.169623  0.645006  0.249226  1
  Bi  Bi33  1  0.290916  0.036891  0.042021  1
  Bi  Bi34  1  0.788717  0.464713  0.457696  1
  Bi  Bi35  1  0.711638  0.964730  0.542246  1
