# generated using pymatgen
data_Yb2Dy2Sb6Rh7
_symmetry_space_group_name_H-M   'P 1'
_cell_length_a   7.61635241
_cell_length_b   7.61635342
_cell_length_c   7.61162796
_cell_angle_alpha   109.53616241
_cell_angle_beta   109.53616248
_cell_angle_gamma   109.36661358
_symmetry_Int_Tables_number   1
_chemical_formula_structural   Yb2Dy2Sb6Rh7
_chemical_formula_sum   'Yb2 Dy2 Sb6 Rh7'
_cell_volume   339.79210207
_cell_formula_units_Z   1
loop_
 _symmetry_equiv_pos_site_id
 _symmetry_equiv_pos_as_xyz
  1  'x, y, z'
loop_
 _atom_site_type_symbol
 _atom_site_label
 _atom_site_symmetry_multiplicity
 _atom_site_fract_x
 _atom_site_fract_y
 _atom_site_fract_z
 _atom_site_occupancy
  Yb  Yb0  1  0.000000  0.000000  0.500000  1
  Yb  Yb1  1  0.500000  0.500000  0.500000  1
  Dy  Dy2  1  0.500000  0.000000  0.000000  1
  Dy  Dy3  1  0.000000  0.500000  0.000000  1
  Sb  Sb4  1  0.318193  0.002999  0.321192  1
  Sb  Sb5  1  0.997001  0.681807  0.678808  1
  Sb  Sb6  1  0.681310  0.681310  0.000000  1
  Sb  Sb7  1  0.681807  0.997001  0.678808  1
  Sb  Sb8  1  0.002999  0.318193  0.321192  1
  Sb  Sb9  1  0.318690  0.318690  0.000000  1
  Rh  Rh10  1  0.249871  0.503571  0.753442  1
  Rh  Rh11  1  0.503571  0.249871  0.753442  1
  Rh  Rh12  1  0.750000  0.250000  0.500000  1
  Rh  Rh13  1  0.496429  0.750129  0.246558  1
  Rh  Rh14  1  0.000000  0.000000  0.000000  1
  Rh  Rh15  1  0.250000  0.750000  0.500000  1
  Rh  Rh16  1  0.750129  0.496429  0.246558  1
