# generated using pymatgen
data_YbCrFe(Sb6Pt)2
_symmetry_space_group_name_H-M   'P 1'
_cell_length_a   8.13883871
_cell_length_b   8.08167261
_cell_length_c   8.13864496
_cell_angle_alpha   109.21278599
_cell_angle_beta   109.70243998
_cell_angle_gamma   109.17941093
_symmetry_Int_Tables_number   1
_chemical_formula_structural   YbCrFe(Sb6Pt)2
_chemical_formula_sum   'Yb1 Cr1 Fe1 Sb12 Pt2'
_cell_volume   413.69814434
_cell_formula_units_Z   1
loop_
 _symmetry_equiv_pos_site_id
 _symmetry_equiv_pos_as_xyz
  1  'x, y, z'
loop_
 _atom_site_type_symbol
 _atom_site_label
 _atom_site_symmetry_multiplicity
 _atom_site_fract_x
 _atom_site_fract_y
 _atom_site_fract_z
 _atom_site_occupancy
  Yb  Yb0  1  0.000000  0.000000  0.000000  1
  Cr  Cr1  1  0.000000  0.500000  0.000000  1
  Fe  Fe2  1  0.500000  0.500000  0.500000  1
  Sb  Sb3  1  0.831059  0.650672  0.503622  1
  Sb  Sb4  1  0.168941  0.349328  0.496378  1
  Sb  Sb5  1  0.148461  0.652818  0.818832  1
  Sb  Sb6  1  0.851539  0.347182  0.181168  1
  Sb  Sb7  1  0.670788  0.508567  0.834808  1
  Sb  Sb8  1  0.329212  0.491433  0.165192  1
  Sb  Sb9  1  0.653874  0.803938  0.151251  1
  Sb  Sb10  1  0.346126  0.196062  0.848749  1
  Sb  Sb11  1  0.505233  0.833220  0.652820  1
  Sb  Sb12  1  0.494767  0.166780  0.347180  1
  Sb  Sb13  1  0.181189  0.834926  0.329384  1
  Sb  Sb14  1  0.818811  0.165074  0.670616  1
  Pt  Pt15  1  0.500000  0.000000  0.000000  1
  Pt  Pt16  1  0.000000  0.000000  0.500000  1
