# generated using pymatgen
data_HoAg(PS3)2
_symmetry_space_group_name_H-M   'P 1'
_cell_length_a   6.35727900
_cell_length_b   6.35727729
_cell_length_c   14.39937400
_cell_angle_alpha   90.00000000
_cell_angle_beta   90.00000000
_cell_angle_gamma   119.99999331
_symmetry_Int_Tables_number   1
_chemical_formula_structural   HoAg(PS3)2
_chemical_formula_sum   'Ho2 Ag2 P4 S12'
_cell_volume   503.98394191
_cell_formula_units_Z   2
loop_
 _symmetry_equiv_pos_site_id
 _symmetry_equiv_pos_as_xyz
  1  'x, y, z'
loop_
 _atom_site_type_symbol
 _atom_site_label
 _atom_site_symmetry_multiplicity
 _atom_site_fract_x
 _atom_site_fract_y
 _atom_site_fract_z
 _atom_site_occupancy
  Ho  Ho0  1  0.000000  0.000000  0.250000  1
  Ho  Ho1  1  0.000000  0.000000  0.750000  1
  Ag  Ag2  1  0.666667  0.333333  0.250000  1
  Ag  Ag3  1  0.333333  0.666667  0.750000  1
  P  P4  1  0.666667  0.333333  0.671762  1
  P  P5  1  0.666667  0.333333  0.828238  1
  P  P6  1  0.333333  0.666667  0.328238  1
  P  P7  1  0.333333  0.666667  0.171762  1
  S  S8  1  0.967523  0.320720  0.869102  1
  S  S9  1  0.353196  0.320720  0.630898  1
  S  S10  1  0.967523  0.646804  0.630898  1
  S  S11  1  0.679280  0.032477  0.630898  1
  S  S12  1  0.320720  0.353196  0.130898  1
  S  S13  1  0.646804  0.967523  0.130898  1
  S  S14  1  0.032477  0.679280  0.130898  1
  S  S15  1  0.646804  0.679280  0.369102  1
  S  S16  1  0.032477  0.353196  0.369102  1
  S  S17  1  0.320720  0.967523  0.369102  1
  S  S18  1  0.679280  0.646804  0.869102  1
  S  S19  1  0.353196  0.032477  0.869102  1
