# generated using pymatgen
data_YHo2Er(Co5As3)4
_symmetry_space_group_name_H-M   'P 1'
_cell_length_a   3.78331600
_cell_length_b   12.17779222
_cell_length_c   10.66613212
_cell_angle_alpha   89.98057102
_cell_angle_beta   90.00000000
_cell_angle_gamma   90.00000000
_symmetry_Int_Tables_number   1
_chemical_formula_structural   YHo2Er(Co5As3)4
_chemical_formula_sum   'Y1 Ho2 Er1 Co20 As12'
_cell_volume   491.41466274
_cell_formula_units_Z   1
loop_
 _symmetry_equiv_pos_site_id
 _symmetry_equiv_pos_as_xyz
  1  'x, y, z'
loop_
 _atom_site_type_symbol
 _atom_site_label
 _atom_site_symmetry_multiplicity
 _atom_site_fract_x
 _atom_site_fract_y
 _atom_site_fract_z
 _atom_site_occupancy
  Y  Y0  1  0.250000  0.798211  0.582133  1
  Ho  Ho1  1  0.250000  0.298512  0.918498  1
  Ho  Ho2  1  0.750000  0.201584  0.418046  1
  Er  Er3  1  0.750000  0.701163  0.081316  1
  Co  Co4  1  0.750000  0.696895  0.383531  1
  Co  Co5  1  0.250000  0.302842  0.615873  1
  Co  Co6  1  0.250000  0.802651  0.884858  1
  Co  Co7  1  0.750000  0.197219  0.115697  1
  Co  Co8  1  0.750000  0.991546  0.212011  1
  Co  Co9  1  0.250000  0.008971  0.788043  1
  Co  Co10  1  0.250000  0.508840  0.712278  1
  Co  Co11  1  0.750000  0.491203  0.287690  1
  Co  Co12  1  0.750000  0.677686  0.784238  1
  Co  Co13  1  0.250000  0.322296  0.215782  1
  Co  Co14  1  0.250000  0.822234  0.283873  1
  Co  Co15  1  0.750000  0.177873  0.716179  1
  Co  Co16  1  0.750000  0.931842  0.970006  1
  Co  Co17  1  0.250000  0.067675  0.030654  1
  Co  Co18  1  0.250000  0.567474  0.468918  1
  Co  Co19  1  0.750000  0.431686  0.530483  1
  Co  Co20  1  0.750000  0.988655  0.592885  1
  Co  Co21  1  0.250000  0.012390  0.406879  1
  Co  Co22  1  0.250000  0.512473  0.092906  1
  Co  Co23  1  0.750000  0.488039  0.907241  1
  As  As24  1  0.750000  0.613636  0.584650  1
  As  As25  1  0.250000  0.385518  0.415093  1
  As  As26  1  0.250000  0.885343  0.084957  1
  As  As27  1  0.750000  0.114168  0.915335  1
  As  As28  1  0.750000  0.890768  0.399134  1
  As  As29  1  0.250000  0.109669  0.600455  1
  As  As30  1  0.250000  0.609603  0.899745  1
  As  As31  1  0.750000  0.390574  0.100478  1
  As  As32  1  0.750000  0.870661  0.769583  1
  As  As33  1  0.250000  0.129838  0.230863  1
  As  As34  1  0.250000  0.629935  0.268563  1
  As  As35  1  0.750000  0.370325  0.731131  1
