# generated using pymatgen
data_Ca3Lu(Al3Pt)6
_symmetry_space_group_name_H-M   'P 1'
_cell_length_a   7.64564800
_cell_length_b   7.65012860
_cell_length_c   9.51814100
_cell_angle_alpha   90.00000000
_cell_angle_beta   90.00000000
_cell_angle_gamma   119.67368389
_symmetry_Int_Tables_number   1
_chemical_formula_structural   Ca3Lu(Al3Pt)6
_chemical_formula_sum   'Ca3 Lu1 Al18 Pt6'
_cell_volume   483.70933397
_cell_formula_units_Z   1
loop_
 _symmetry_equiv_pos_site_id
 _symmetry_equiv_pos_as_xyz
  1  'x, y, z'
loop_
 _atom_site_type_symbol
 _atom_site_label
 _atom_site_symmetry_multiplicity
 _atom_site_fract_x
 _atom_site_fract_y
 _atom_site_fract_z
 _atom_site_occupancy
  Ca  Ca0  1  0.004515  0.331244  0.750000  1
  Ca  Ca1  1  0.996084  0.669165  0.250000  1
  Ca  Ca2  1  0.330056  0.003786  0.750000  1
  Lu  Lu3  1  0.670401  0.996905  0.250000  1
  Al  Al4  1  0.665672  0.000523  0.925658  1
  Al  Al5  1  0.128039  0.130468  0.250000  1
  Al  Al6  1  0.999049  0.334074  0.421926  1
  Al  Al7  1  0.332602  0.332625  0.555424  1
  Al  Al8  1  0.344008  0.548611  0.250000  1
  Al  Al9  1  0.455588  0.660458  0.750000  1
  Al  Al10  1  0.868195  0.868757  0.750000  1
  Al  Al11  1  0.667635  0.668350  0.060522  1
  Al  Al12  1  0.667635  0.668350  0.439478  1
  Al  Al13  1  0.000049  0.665792  0.574804  1
  Al  Al14  1  0.000049  0.665792  0.925196  1
  Al  Al15  1  0.334865  0.999157  0.421872  1
  Al  Al16  1  0.659984  0.454374  0.750000  1
  Al  Al17  1  0.544648  0.335867  0.250000  1
  Al  Al18  1  0.332602  0.332625  0.944576  1
  Al  Al19  1  0.334865  0.999157  0.078128  1
  Al  Al20  1  0.665672  0.000523  0.574342  1
  Al  Al21  1  0.999049  0.334074  0.078074  1
  Pt  Pt22  1  0.329373  0.671823  0.499120  1
  Pt  Pt23  1  0.329373  0.671823  0.000880  1
  Pt  Pt24  1  0.671335  0.328368  0.498846  1
  Pt  Pt25  1  0.998659  0.999472  0.001473  1
  Pt  Pt26  1  0.998659  0.999472  0.498527  1
  Pt  Pt27  1  0.671335  0.328368  0.001154  1
