# generated using pymatgen
data_NdHo(AgPb)2
_symmetry_space_group_name_H-M   'P 1'
_cell_length_a   4.86238000
_cell_length_b   4.86237948
_cell_length_c   7.60976200
_cell_angle_alpha   90.00000000
_cell_angle_beta   90.00000000
_cell_angle_gamma   120.00000355
_symmetry_Int_Tables_number   1
_chemical_formula_structural   NdHo(AgPb)2
_chemical_formula_sum   'Nd1 Ho1 Ag2 Pb2'
_cell_volume   155.81147414
_cell_formula_units_Z   1
loop_
 _symmetry_equiv_pos_site_id
 _symmetry_equiv_pos_as_xyz
  1  'x, y, z'
loop_
 _atom_site_type_symbol
 _atom_site_label
 _atom_site_symmetry_multiplicity
 _atom_site_fract_x
 _atom_site_fract_y
 _atom_site_fract_z
 _atom_site_occupancy
  Nd  Nd0  1  0.000000  0.000000  0.016794  1
  Ho  Ho1  1  0.000000  0.000000  0.514899  1
  Ag  Ag2  1  0.666667  0.333333  0.334889  1
  Ag  Ag3  1  0.333333  0.666667  0.818740  1
  Pb  Pb4  1  0.333333  0.666667  0.241607  1
  Pb  Pb5  1  0.666667  0.333333  0.732870  1
