# generated using pymatgen
data_NdTh(PaPt2)2
_symmetry_space_group_name_H-M   'P 1'
_cell_length_a   4.44475000
_cell_length_b   5.74290504
_cell_length_c   7.39743001
_cell_angle_alpha   90.12423025
_cell_angle_beta   90.00000000
_cell_angle_gamma   90.00000000
_symmetry_Int_Tables_number   1
_chemical_formula_structural   NdTh(PaPt2)2
_chemical_formula_sum   'Nd1 Th1 Pa2 Pt4'
_cell_volume   188.82470623
_cell_formula_units_Z   1
loop_
 _symmetry_equiv_pos_site_id
 _symmetry_equiv_pos_as_xyz
  1  'x, y, z'
loop_
 _atom_site_type_symbol
 _atom_site_label
 _atom_site_symmetry_multiplicity
 _atom_site_fract_x
 _atom_site_fract_y
 _atom_site_fract_z
 _atom_site_occupancy
  Nd  Nd0  1  0.750000  0.849624  0.818706  1
  Th  Th1  1  0.250000  0.352715  0.683322  1
  Pa  Pa2  1  0.250000  0.147452  0.178768  1
  Pa  Pa3  1  0.750000  0.652156  0.319607  1
  Pt  Pt4  1  0.250000  0.838152  0.528768  1
  Pt  Pt5  1  0.250000  0.656141  0.070312  1
  Pt  Pt6  1  0.750000  0.171555  0.433097  1
  Pt  Pt7  1  0.750000  0.332206  0.967422  1
