# generated using pymatgen
data_Tb8Lu4InCo4Au
_symmetry_space_group_name_H-M   'P 1'
_cell_length_a   8.30913978
_cell_length_b   8.30913940
_cell_length_c   8.30914058
_cell_angle_alpha   111.30757825
_cell_angle_beta   110.26026267
_cell_angle_gamma   106.87834490
_symmetry_Int_Tables_number   1
_chemical_formula_structural   Tb8Lu4InCo4Au
_chemical_formula_sum   'Tb8 Lu4 In1 Co4 Au1'
_cell_volume   440.90440130
_cell_formula_units_Z   1
loop_
 _symmetry_equiv_pos_site_id
 _symmetry_equiv_pos_as_xyz
  1  'x, y, z'
loop_
 _atom_site_type_symbol
 _atom_site_label
 _atom_site_symmetry_multiplicity
 _atom_site_fract_x
 _atom_site_fract_y
 _atom_site_fract_z
 _atom_site_occupancy
  Tb  Tb0  1  0.427283  0.223251  0.204032  1
  Tb  Tb1  1  0.572717  0.776749  0.795968  1
  Tb  Tb2  1  0.019219  0.223251  0.795968  1
  Tb  Tb3  1  0.980781  0.776749  0.204032  1
  Tb  Tb4  1  0.186028  0.289391  0.475419  1
  Tb  Tb5  1  0.813972  0.710609  0.524581  1
  Tb  Tb6  1  0.186028  0.710609  0.896638  1
  Tb  Tb7  1  0.813972  0.289391  0.103362  1
  Lu  Lu8  1  0.318496  0.626328  0.307831  1
  Lu  Lu9  1  0.681504  0.373672  0.692169  1
  Lu  Lu10  1  0.318496  0.010664  0.692169  1
  Lu  Lu11  1  0.681504  0.989336  0.307831  1
  In  In12  1  0.500000  0.500000  0.000000  1
  Co  Co13  1  0.378107  0.000000  0.378107  1
  Co  Co14  1  0.621893  0.000000  0.621893  1
  Co  Co15  1  0.113247  0.613247  0.500000  1
  Co  Co16  1  0.886753  0.386753  0.500000  1
  Au  Au17  1  0.000000  0.000000  0.000000  1
