# generated using pymatgen
data_Sm2DyHo(B6Os)2
_symmetry_space_group_name_H-M   'P 1'
_cell_length_a   3.68495400
_cell_length_b   9.20421806
_cell_length_c   11.61054808
_cell_angle_alpha   90.01332761
_cell_angle_beta   90.00000000
_cell_angle_gamma   90.00000000
_symmetry_Int_Tables_number   1
_chemical_formula_structural   Sm2DyHo(B6Os)2
_chemical_formula_sum   'Sm4 Dy2 Ho2 B24 Os4'
_cell_volume   393.79634371
_cell_formula_units_Z   2
loop_
 _symmetry_equiv_pos_site_id
 _symmetry_equiv_pos_as_xyz
  1  'x, y, z'
loop_
 _atom_site_type_symbol
 _atom_site_label
 _atom_site_symmetry_multiplicity
 _atom_site_fract_x
 _atom_site_fract_y
 _atom_site_fract_z
 _atom_site_occupancy
  Sm  Sm0  1  0.000000  0.322510  0.414067  1
  Sm  Sm1  1  0.000000  0.677490  0.585933  1
  Sm  Sm2  1  0.000000  0.822327  0.085857  1
  Sm  Sm3  1  0.000000  0.177673  0.914143  1
  Dy  Dy4  1  0.000000  0.944046  0.372429  1
  Dy  Dy5  1  0.000000  0.055954  0.627571  1
  Ho  Ho6  1  0.000000  0.444111  0.127411  1
  Ho  Ho7  1  0.000000  0.555889  0.872589  1
  B  B8  1  0.500000  0.555152  0.431523  1
  B  B9  1  0.500000  0.444848  0.568477  1
  B  B10  1  0.500000  0.055233  0.068423  1
  B  B11  1  0.500000  0.944767  0.931577  1
  B  B12  1  0.500000  0.748603  0.418327  1
  B  B13  1  0.500000  0.251397  0.581673  1
  B  B14  1  0.500000  0.248969  0.081650  1
  B  B15  1  0.500000  0.751031  0.918350  1
  B  B16  1  0.500000  0.790390  0.266708  1
  B  B17  1  0.500000  0.209610  0.733292  1
  B  B18  1  0.500000  0.290795  0.233169  1
  B  B19  1  0.500000  0.709205  0.766831  1
  B  B20  1  0.500000  0.631057  0.185275  1
  B  B21  1  0.500000  0.368943  0.814725  1
  B  B22  1  0.500000  0.131381  0.314532  1
  B  B23  1  0.500000  0.868619  0.685468  1
  B  B24  1  0.500000  0.984909  0.213522  1
  B  B25  1  0.500000  0.015091  0.786478  1
  B  B26  1  0.500000  0.484677  0.286236  1
  B  B27  1  0.500000  0.515323  0.713764  1
  B  B28  1  0.500000  0.604700  0.028804  1
  B  B29  1  0.500000  0.395300  0.971196  1
  B  B30  1  0.500000  0.105254  0.471051  1
  B  B31  1  0.500000  0.894746  0.528949  1
  Os  Os32  1  0.000000  0.638154  0.320218  1
  Os  Os33  1  0.000000  0.361846  0.679782  1
  Os  Os34  1  0.000000  0.138689  0.179509  1
  Os  Os35  1  0.000000  0.861311  0.820491  1
