# generated using pymatgen
data_Ba4Li3AgAs4
_symmetry_space_group_name_H-M   'P 1'
_cell_length_a   8.96770600
_cell_length_b   4.65084500
_cell_length_c   8.03314400
_cell_angle_alpha   90.00000000
_cell_angle_beta   90.00093789
_cell_angle_gamma   90.00000000
_symmetry_Int_Tables_number   1
_chemical_formula_structural   Ba4Li3AgAs4
_chemical_formula_sum   'Ba4 Li3 Ag1 As4'
_cell_volume   335.04163529
_cell_formula_units_Z   1
loop_
 _symmetry_equiv_pos_site_id
 _symmetry_equiv_pos_as_xyz
  1  'x, y, z'
loop_
 _atom_site_type_symbol
 _atom_site_label
 _atom_site_symmetry_multiplicity
 _atom_site_fract_x
 _atom_site_fract_y
 _atom_site_fract_z
 _atom_site_occupancy
  Ba  Ba0  1  0.002263  0.250000  0.247475  1
  Ba  Ba1  1  0.498594  0.250000  0.248944  1
  Ba  Ba2  1  0.499735  0.750000  0.750658  1
  Ba  Ba3  1  0.999343  0.750000  0.752057  1
  Li  Li4  1  0.251212  0.750000  0.083931  1
  Li  Li5  1  0.751244  0.750000  0.417581  1
  Li  Li6  1  0.248742  0.250000  0.584258  1
  Ag  Ag7  1  0.748934  0.250000  0.914924  1
  As  As8  1  0.749834  0.750000  0.089900  1
  As  As9  1  0.249795  0.750000  0.417059  1
  As  As10  1  0.750196  0.250000  0.575407  1
  As  As11  1  0.250109  0.250000  0.917799  1
