# generated using pymatgen
data_TbPrSb4(ClO4)2
_symmetry_space_group_name_H-M   'P 1'
_cell_length_a   5.58545900
_cell_length_b   5.55792320
_cell_length_c   8.88166800
_cell_angle_alpha   88.22588353
_cell_angle_beta   90.00000000
_cell_angle_gamma   90.00000000
_symmetry_Int_Tables_number   1
_chemical_formula_structural   TbPrSb4(ClO4)2
_chemical_formula_sum   'Tb1 Pr1 Sb4 Cl2 O8'
_cell_volume   275.58635767
_cell_formula_units_Z   1
loop_
 _symmetry_equiv_pos_site_id
 _symmetry_equiv_pos_as_xyz
  1  'x, y, z'
loop_
 _atom_site_type_symbol
 _atom_site_label
 _atom_site_symmetry_multiplicity
 _atom_site_fract_x
 _atom_site_fract_y
 _atom_site_fract_z
 _atom_site_occupancy
  Tb  Tb0  1  0.777225  0.750000  0.500000  1
  Pr  Pr1  1  0.231461  0.250000  0.500000  1
  Sb  Sb2  1  0.701969  0.298914  0.792355  1
  Sb  Sb3  1  0.701969  0.201086  0.207645  1
  Sb  Sb4  1  0.298360  0.703409  0.207439  1
  Sb  Sb5  1  0.298360  0.796591  0.792561  1
  Cl  Cl6  1  0.766840  0.750000  0.000000  1
  Cl  Cl7  1  0.232721  0.250000  0.000000  1
  O  O8  1  0.065870  0.912750  0.642540  1
  O  O9  1  0.065870  0.587250  0.357460  1
  O  O10  1  0.924019  0.075447  0.359585  1
  O  O11  1  0.924019  0.424553  0.640415  1
  O  O12  1  0.466916  0.534476  0.670985  1
  O  O13  1  0.538742  0.472647  0.328250  1
  O  O14  1  0.466916  0.965524  0.329015  1
  O  O15  1  0.538742  0.027353  0.671750  1
