# generated using pymatgen
data_Sc2SiB2Ir2Ru3
_symmetry_space_group_name_H-M   'P 1'
_cell_length_a   9.36347500
_cell_length_b   9.36347500
_cell_length_c   2.98581000
_cell_angle_alpha   90.00000000
_cell_angle_beta   90.00000000
_cell_angle_gamma   90.00000000
_symmetry_Int_Tables_number   1
_chemical_formula_structural   Sc2SiB2Ir2Ru3
_chemical_formula_sum   'Sc4 Si2 B4 Ir4 Ru6'
_cell_volume   261.77988874
_cell_formula_units_Z   2
loop_
 _symmetry_equiv_pos_site_id
 _symmetry_equiv_pos_as_xyz
  1  'x, y, z'
loop_
 _atom_site_type_symbol
 _atom_site_label
 _atom_site_symmetry_multiplicity
 _atom_site_fract_x
 _atom_site_fract_y
 _atom_site_fract_z
 _atom_site_occupancy
  Sc  Sc0  1  0.170892  0.676792  0.000000  1
  Sc  Sc1  1  0.676792  0.829108  0.000000  1
  Sc  Sc2  1  0.323208  0.170892  0.000000  1
  Sc  Sc3  1  0.829108  0.323208  0.000000  1
  Si  Si4  1  0.000000  0.000000  0.000000  1
  Si  Si5  1  0.500000  0.500000  0.000000  1
  B  B6  1  0.373616  0.879616  0.000000  1
  B  B7  1  0.879616  0.626384  0.000000  1
  B  B8  1  0.120384  0.373616  0.000000  1
  B  B9  1  0.626384  0.120384  0.000000  1
  Ir  Ir10  1  0.288765  0.430216  0.500000  1
  Ir  Ir11  1  0.711236  0.569784  0.500000  1
  Ir  Ir12  1  0.569784  0.288765  0.500000  1
  Ir  Ir13  1  0.430216  0.711236  0.500000  1
  Ru  Ru14  1  0.000000  0.500000  0.500000  1
  Ru  Ru15  1  0.500000  0.000000  0.500000  1
  Ru  Ru16  1  0.929450  0.790187  0.500000  1
  Ru  Ru17  1  0.790187  0.070550  0.500000  1
  Ru  Ru18  1  0.209812  0.929450  0.500000  1
  Ru  Ru19  1  0.070550  0.209812  0.500000  1
