# generated using pymatgen
data_Zr20Zn3SnSb8
_symmetry_space_group_name_H-M   'P 1'
_cell_length_a   5.56909637
_cell_length_b   8.38911367
_cell_length_c   15.81287100
_cell_angle_alpha   90.00000000
_cell_angle_beta   90.00000000
_cell_angle_gamma   109.42773294
_symmetry_Int_Tables_number   1
_chemical_formula_structural   Zr20Zn3SnSb8
_chemical_formula_sum   'Zr20 Zn3 Sn1 Sb8'
_cell_volume   696.70941733
_cell_formula_units_Z   1
loop_
 _symmetry_equiv_pos_site_id
 _symmetry_equiv_pos_as_xyz
  1  'x, y, z'
loop_
 _atom_site_type_symbol
 _atom_site_label
 _atom_site_symmetry_multiplicity
 _atom_site_fract_x
 _atom_site_fract_y
 _atom_site_fract_z
 _atom_site_occupancy
  Zr  Zr0  1  0.430796  0.859881  0.355243  1
  Zr  Zr1  1  0.923943  0.861016  0.851785  1
  Zr  Zr2  1  0.062954  0.138636  0.148392  1
  Zr  Zr3  1  0.570856  0.140448  0.644744  1
  Zr  Zr4  1  0.653546  0.295778  0.070794  1
  Zr  Zr5  1  0.146496  0.290986  0.568364  1
  Zr  Zr6  1  0.854314  0.708999  0.432032  1
  Zr  Zr7  1  0.356571  0.704558  0.928534  1
  Zr  Zr8  1  0.846454  0.704222  0.070794  1
  Zr  Zr9  1  0.353504  0.709014  0.568364  1
  Zr  Zr10  1  0.645686  0.291001  0.432032  1
  Zr  Zr11  1  0.143429  0.295442  0.928534  1
  Zr  Zr12  1  0.069204  0.140119  0.355243  1
  Zr  Zr13  1  0.576057  0.138984  0.851785  1
  Zr  Zr14  1  0.437046  0.861364  0.148392  1
  Zr  Zr15  1  0.929144  0.859552  0.644744  1
  Zr  Zr16  1  0.499750  0.500157  0.250923  1
  Zr  Zr17  1  0.000134  0.499768  0.749414  1
  Zr  Zr18  1  0.000250  0.499843  0.250923  1
  Zr  Zr19  1  0.499866  0.500232  0.749414  1
  Zn  Zn20  1  0.750000  0.000000  0.499892  1
  Zn  Zn21  1  0.750000  0.000000  0.999924  1
  Zn  Zn22  1  0.250000  0.000000  0.500010  1
  Sn  Sn23  1  0.250000  0.500000  0.086544  1
  Sb  Sb24  1  0.915762  0.827236  0.252069  1
  Sb  Sb25  1  0.411927  0.827399  0.747745  1
  Sb  Sb26  1  0.584238  0.172764  0.252069  1
  Sb  Sb27  1  0.088073  0.172601  0.747745  1
  Sb  Sb28  1  0.750000  0.500000  0.586422  1
  Sb  Sb29  1  0.250000  0.500000  0.413866  1
  Sb  Sb30  1  0.750000  0.500000  0.913275  1
  Sb  Sb31  1  0.250000  0.000000  0.999987  1
