# generated using pymatgen
data_Ca3La2U5O19
_symmetry_space_group_name_H-M   'P 1'
_cell_length_a   6.78193848
_cell_length_b   7.71734333
_cell_length_c   8.60163476
_cell_angle_alpha   99.37392839
_cell_angle_beta   97.62016825
_cell_angle_gamma   107.79377344
_symmetry_Int_Tables_number   1
_chemical_formula_structural   Ca3La2U5O19
_chemical_formula_sum   'Ca3 La2 U5 O19'
_cell_volume   414.89024405
_cell_formula_units_Z   1
loop_
 _symmetry_equiv_pos_site_id
 _symmetry_equiv_pos_as_xyz
  1  'x, y, z'
loop_
 _atom_site_type_symbol
 _atom_site_label
 _atom_site_symmetry_multiplicity
 _atom_site_fract_x
 _atom_site_fract_y
 _atom_site_fract_z
 _atom_site_occupancy
  Ca  Ca0  1  0.803371  0.097508  0.604689  1
  Ca  Ca1  1  0.384522  0.288438  0.800697  1
  Ca  Ca2  1  0.606038  0.701690  0.203081  1
  La  La3  1  0.998235  0.498315  0.990904  1
  La  La4  1  0.206839  0.909587  0.394371  1
  U  U5  1  0.774622  0.594836  0.599075  1
  U  U6  1  0.603141  0.203525  0.196792  1
  U  U7  1  0.998761  0.007524  0.998937  1
  U  U8  1  0.416195  0.807462  0.816598  1
  U  U9  1  0.202692  0.391098  0.393127  1
  O  O10  1  0.331759  0.045855  0.957728  1
  O  O11  1  0.434860  0.982422  0.659230  1
  O  O12  1  0.036585  0.209539  0.861021  1
  O  O13  1  0.717369  0.392302  0.730626  1
  O  O14  1  0.155470  0.190019  0.532089  1
  O  O15  1  0.369643  0.603725  0.948856  1
  O  O16  1  0.950686  0.266899  0.163826  1
  O  O17  1  0.912304  0.410371  0.458899  1
  O  O18  1  0.753307  0.850275  0.774182  1
  O  O19  1  0.540637  0.443324  0.366697  1
  O  O20  1  0.402470  0.572260  0.620092  1
  O  O21  1  0.250331  0.134320  0.232535  1
  O  O22  1  0.068359  0.708297  0.785785  1
  O  O23  1  0.636969  0.398433  0.062822  1
  O  O24  1  0.857115  0.796228  0.466345  1
  O  O25  1  0.249649  0.614598  0.275234  1
  O  O26  1  0.957884  0.790554  0.121079  1
  O  O27  1  0.580319  0.021868  0.346300  1
  O  O28  1  0.663779  0.956369  0.046622  1
