# generated using pymatgen
data_CsAgP2O7
_symmetry_space_group_name_H-M   'P 1'
_cell_length_a   8.20625384
_cell_length_b   8.66659513
_cell_length_c   5.38639331
_cell_angle_alpha   90.38522765
_cell_angle_beta   94.73382250
_cell_angle_gamma   102.94172455
_symmetry_Int_Tables_number   1
_chemical_formula_structural   CsAgP2O7
_chemical_formula_sum   'Cs2 Ag2 P4 O14'
_cell_volume   371.95201743
_cell_formula_units_Z   2
loop_
 _symmetry_equiv_pos_site_id
 _symmetry_equiv_pos_as_xyz
  1  'x, y, z'
loop_
 _atom_site_type_symbol
 _atom_site_label
 _atom_site_symmetry_multiplicity
 _atom_site_fract_x
 _atom_site_fract_y
 _atom_site_fract_z
 _atom_site_occupancy
  Cs  Cs0  1  0.786220  0.921418  0.201085  1
  Cs  Cs1  1  0.213780  0.078582  0.798914  1
  Ag  Ag2  1  0.662061  0.400773  0.189454  1
  Ag  Ag3  1  0.337939  0.599227  0.810545  1
  P  P4  1  0.188158  0.426896  0.284739  1
  P  P5  1  0.258880  0.766214  0.296556  1
  P  P6  1  0.741121  0.233786  0.703445  1
  P  P7  1  0.811842  0.573104  0.715261  1
  O  O8  1  0.367482  0.782382  0.066580  1
  O  O9  1  0.332741  0.446689  0.104836  1
  O  O10  1  0.043269  0.290749  0.220963  1
  O  O11  1  0.127198  0.593825  0.271322  1
  O  O12  1  0.165459  0.895668  0.301407  1
  O  O13  1  0.620171  0.239113  0.464615  1
  O  O14  1  0.733895  0.586263  0.442759  1
  O  O15  1  0.266106  0.413738  0.557240  1
  O  O16  1  0.379830  0.760888  0.535386  1
  O  O17  1  0.834541  0.104332  0.698591  1
  O  O18  1  0.872801  0.406175  0.728677  1
  O  O19  1  0.956731  0.709250  0.779036  1
  O  O20  1  0.667259  0.553311  0.895164  1
  O  O21  1  0.632518  0.217618  0.933420  1
