# generated using pymatgen
data_Ti4GaFe(B2Ru5)2
_symmetry_space_group_name_H-M   'P 1'
_cell_length_a   9.20106500
_cell_length_b   9.20106500
_cell_length_c   2.98987000
_cell_angle_alpha   90.00000000
_cell_angle_beta   90.00000000
_cell_angle_gamma   90.00000000
_symmetry_Int_Tables_number   1
_chemical_formula_structural   Ti4GaFe(B2Ru5)2
_chemical_formula_sum   'Ti4 Ga1 Fe1 B4 Ru10'
_cell_volume   253.12118968
_cell_formula_units_Z   1
loop_
 _symmetry_equiv_pos_site_id
 _symmetry_equiv_pos_as_xyz
  1  'x, y, z'
loop_
 _atom_site_type_symbol
 _atom_site_label
 _atom_site_symmetry_multiplicity
 _atom_site_fract_x
 _atom_site_fract_y
 _atom_site_fract_z
 _atom_site_occupancy
  Ti  Ti0  1  0.675610  0.175059  0.000000  1
  Ti  Ti1  1  0.324390  0.824941  0.000000  1
  Ti  Ti2  1  0.175059  0.324390  0.000000  1
  Ti  Ti3  1  0.824941  0.675610  0.000000  1
  Ga  Ga4  1  0.000000  0.000000  0.000000  1
  Fe  Fe5  1  0.500000  0.500000  0.000000  1
  B  B6  1  0.123833  0.625899  0.000000  1
  B  B7  1  0.876167  0.374101  0.000000  1
  B  B8  1  0.625899  0.876167  0.000000  1
  B  B9  1  0.374101  0.123833  0.000000  1
  Ru  Ru10  1  0.213390  0.075408  0.500000  1
  Ru  Ru11  1  0.786610  0.924592  0.500000  1
  Ru  Ru12  1  0.075408  0.786610  0.500000  1
  Ru  Ru13  1  0.710491  0.427368  0.500000  1
  Ru  Ru14  1  0.924592  0.213390  0.500000  1
  Ru  Ru15  1  0.289509  0.572632  0.500000  1
  Ru  Ru16  1  0.572632  0.710491  0.500000  1
  Ru  Ru17  1  0.427368  0.289509  0.500000  1
  Ru  Ru18  1  0.500000  0.000000  0.500000  1
  Ru  Ru19  1  0.000000  0.500000  0.500000  1
