# generated using pymatgen
data_Tb5Dy5In4(HgPd)4
_symmetry_space_group_name_H-M   'P 1'
_cell_length_a   3.64477600
_cell_length_b   8.05730856
_cell_length_c   18.34894018
_cell_angle_alpha   89.96060097
_cell_angle_beta   90.00000000
_cell_angle_gamma   90.00000000
_symmetry_Int_Tables_number   1
_chemical_formula_structural   Tb5Dy5In4(HgPd)4
_chemical_formula_sum   'Tb5 Dy5 In4 Hg4 Pd4'
_cell_volume   538.85475622
_cell_formula_units_Z   1
loop_
 _symmetry_equiv_pos_site_id
 _symmetry_equiv_pos_as_xyz
  1  'x, y, z'
loop_
 _atom_site_type_symbol
 _atom_site_label
 _atom_site_symmetry_multiplicity
 _atom_site_fract_x
 _atom_site_fract_y
 _atom_site_fract_z
 _atom_site_occupancy
  Tb  Tb0  1  0.000000  0.500797  0.499797  1
  Tb  Tb1  1  0.000000  0.999372  0.000019  1
  Tb  Tb2  1  0.000000  0.744241  0.285357  1
  Tb  Tb3  1  0.000000  0.256742  0.714274  1
  Tb  Tb4  1  0.000000  0.755262  0.785653  1
  Dy  Dy5  1  0.000000  0.243742  0.214411  1
  Dy  Dy6  1  0.000000  0.609540  0.084293  1
  Dy  Dy7  1  0.000000  0.389033  0.916972  1
  Dy  Dy8  1  0.000000  0.890728  0.583611  1
  Dy  Dy9  1  0.000000  0.111113  0.415567  1
  In  In10  1  0.500000  0.582736  0.649956  1
  In  In11  1  0.500000  0.417754  0.349624  1
  In  In12  1  0.500000  0.918677  0.149819  1
  In  In13  1  0.500000  0.082035  0.850200  1
  Hg  Hg14  1  0.500000  0.708950  0.935241  1
  Hg  Hg15  1  0.500000  0.289348  0.065979  1
  Hg  Hg16  1  0.500000  0.791412  0.434633  1
  Hg  Hg17  1  0.500000  0.210126  0.564740  1
  Pd  Pd18  1  0.500000  0.530131  0.197821  1
  Pd  Pd19  1  0.500000  0.466415  0.802796  1
  Pd  Pd20  1  0.500000  0.967417  0.697750  1
  Pd  Pd21  1  0.500000  0.034429  0.301485  1
