# generated using pymatgen
data_Cd2RuRhO7
_symmetry_space_group_name_H-M   'P 1'
_cell_length_a   7.25128767
_cell_length_b   7.25128812
_cell_length_c   7.25532200
_cell_angle_alpha   59.98159608
_cell_angle_beta   59.98159402
_cell_angle_gamma   59.91383129
_symmetry_Int_Tables_number   1
_chemical_formula_structural   Cd2RuRhO7
_chemical_formula_sum   'Cd4 Ru2 Rh2 O14'
_cell_volume   269.50551370
_cell_formula_units_Z   2
loop_
 _symmetry_equiv_pos_site_id
 _symmetry_equiv_pos_as_xyz
  1  'x, y, z'
loop_
 _atom_site_type_symbol
 _atom_site_label
 _atom_site_symmetry_multiplicity
 _atom_site_fract_x
 _atom_site_fract_y
 _atom_site_fract_z
 _atom_site_occupancy
  Cd  Cd0  1  0.125000  0.125000  0.125000  1
  Cd  Cd1  1  0.625000  0.125000  0.125000  1
  Cd  Cd2  1  0.125000  0.625000  0.125000  1
  Cd  Cd3  1  0.125000  0.125000  0.625000  1
  Ru  Ru4  1  0.625000  0.625000  0.125000  1
  Ru  Ru5  1  0.625000  0.625000  0.625000  1
  Rh  Rh6  1  0.625000  0.125000  0.625000  1
  Rh  Rh7  1  0.125000  0.625000  0.625000  1
  O  O8  1  0.688610  0.306469  0.298500  1
  O  O9  1  0.688610  0.306469  0.706421  1
  O  O10  1  0.997863  0.997863  0.002137  1
  O  O11  1  0.306469  0.688610  0.298500  1
  O  O12  1  0.682217  0.682217  0.317783  1
  O  O13  1  0.943531  0.561390  0.543579  1
  O  O14  1  0.306469  0.688610  0.706421  1
  O  O15  1  0.252137  0.252137  0.247863  1
  O  O16  1  0.943531  0.561390  0.951500  1
  O  O17  1  0.561390  0.943531  0.543579  1
  O  O18  1  0.567783  0.567783  0.932217  1
  O  O19  1  0.956400  0.956400  0.543600  1
  O  O20  1  0.561390  0.943531  0.951500  1
  O  O21  1  0.293600  0.293600  0.706400  1
