# generated using pymatgen
data_Pr8Dy(IrO8)3
_symmetry_space_group_name_H-M   'P 1'
_cell_length_a   5.54422360
_cell_length_b   9.51408377
_cell_length_c   10.40288300
_cell_angle_alpha   89.20990991
_cell_angle_beta   89.97021723
_cell_angle_gamma   90.42230179
_symmetry_Int_Tables_number   1
_chemical_formula_structural   Pr8Dy(IrO8)3
_chemical_formula_sum   'Pr8 Dy1 Ir3 O24'
_cell_volume   548.66625338
_cell_formula_units_Z   1
loop_
 _symmetry_equiv_pos_site_id
 _symmetry_equiv_pos_as_xyz
  1  'x, y, z'
loop_
 _atom_site_type_symbol
 _atom_site_label
 _atom_site_symmetry_multiplicity
 _atom_site_fract_x
 _atom_site_fract_y
 _atom_site_fract_z
 _atom_site_occupancy
  Pr  Pr0  1  0.043189  0.217382  0.129502  1
  Pr  Pr1  1  0.467025  0.766831  0.631816  1
  Pr  Pr2  1  0.965628  0.715908  0.374881  1
  Pr  Pr3  1  0.530365  0.287715  0.855053  1
  Pr  Pr4  1  0.036022  0.111930  0.537839  1
  Pr  Pr5  1  0.474356  0.900333  0.035456  1
  Pr  Pr6  1  0.984769  0.604847  0.963070  1
  Pr  Pr7  1  0.516764  0.407344  0.463309  1
  Dy  Dy8  1  0.030660  0.485784  0.651398  1
  Ir  Ir9  1  0.546771  0.000669  0.353137  1
  Ir  Ir10  1  0.958514  0.998616  0.858480  1
  Ir  Ir11  1  0.460482  0.502611  0.144846  1
  O  O12  1  0.434685  0.152317  0.453614  1
  O  O13  1  0.059213  0.856236  0.983585  1
  O  O14  1  0.565236  0.650460  0.029817  1
  O  O15  1  0.902100  0.330604  0.503714  1
  O  O16  1  0.719046  0.387770  0.083785  1
  O  O17  1  0.751059  0.616005  0.547455  1
  O  O18  1  0.282402  0.894346  0.431348  1
  O  O19  1  0.221989  0.109502  0.936964  1
  O  O20  1  0.257806  0.410595  0.009359  1
  O  O21  1  0.252971  0.604161  0.502724  1
  O  O22  1  0.751668  0.919529  0.490615  1
  O  O23  1  0.752862  0.090600  0.990585  1
  O  O24  1  0.194145  0.625904  0.182149  1
  O  O25  1  0.333728  0.327392  0.663480  1
  O  O26  1  0.818340  0.116810  0.309031  1
  O  O27  1  0.691365  0.874252  0.825844  1
  O  O28  1  0.346151  0.056129  0.208996  1
  O  O29  1  0.159263  0.941847  0.724608  1
  O  O30  1  0.658697  0.563236  0.280194  1
  O  O31  1  0.797736  0.462096  0.818995  1
  O  O32  1  0.320925  0.363434  0.256537  1
  O  O33  1  0.213482  0.647934  0.779474  1
  O  O34  1  0.660581  0.855876  0.243285  1
  O  O35  1  0.840005  0.142994  0.745058  1
