# generated using pymatgen
data_Er6Co2Si5Ge
_symmetry_space_group_name_H-M   'P 1'
_cell_length_a   5.59895031
_cell_length_b   5.59894986
_cell_length_c   13.40048597
_cell_angle_alpha   70.61829340
_cell_angle_beta   70.61829575
_cell_angle_gamma   43.38385917
_symmetry_Int_Tables_number   1
_chemical_formula_structural   Er6Co2Si5Ge
_chemical_formula_sum   'Er6 Co2 Si5 Ge1'
_cell_volume   269.51616314
_cell_formula_units_Z   1
loop_
 _symmetry_equiv_pos_site_id
 _symmetry_equiv_pos_as_xyz
  1  'x, y, z'
loop_
 _atom_site_type_symbol
 _atom_site_label
 _atom_site_symmetry_multiplicity
 _atom_site_fract_x
 _atom_site_fract_y
 _atom_site_fract_z
 _atom_site_occupancy
  Er  Er0  1  0.744509  0.744509  0.772154  1
  Er  Er1  1  0.398064  0.398064  0.922189  1
  Er  Er2  1  0.600411  0.600411  0.081742  1
  Er  Er3  1  0.475558  0.475558  0.379065  1
  Er  Er4  1  0.253148  0.253148  0.228034  1
  Er  Er5  1  0.525729  0.525729  0.617598  1
  Co  Co6  1  0.753557  0.753557  0.417962  1
  Co  Co7  1  0.251586  0.251586  0.577745  1
  Si  Si8  1  0.140520  0.140520  0.454393  1
  Si  Si9  1  0.862066  0.862066  0.543962  1
  Si  Si10  1  0.946162  0.946162  0.242282  1
  Si  Si11  1  0.884782  0.884782  0.077302  1
  Si  Si12  1  0.117302  0.117302  0.927242  1
  Ge  Ge13  1  0.046607  0.046607  0.758331  1
