# generated using pymatgen
data_Yb4TaIr7
_symmetry_space_group_name_H-M   'P 1'
_cell_length_a   5.51509600
_cell_length_b   5.51509493
_cell_length_c   8.26559000
_cell_angle_alpha   90.00000000
_cell_angle_beta   90.00000000
_cell_angle_gamma   120.00000644
_symmetry_Int_Tables_number   1
_chemical_formula_structural   Yb4TaIr7
_chemical_formula_sum   'Yb4 Ta1 Ir7'
_cell_volume   217.72611886
_cell_formula_units_Z   1
loop_
 _symmetry_equiv_pos_site_id
 _symmetry_equiv_pos_as_xyz
  1  'x, y, z'
loop_
 _atom_site_type_symbol
 _atom_site_label
 _atom_site_symmetry_multiplicity
 _atom_site_fract_x
 _atom_site_fract_y
 _atom_site_fract_z
 _atom_site_occupancy
  Yb  Yb0  1  0.333334  0.666667  0.076371  1
  Yb  Yb1  1  0.333334  0.666667  0.433952  1
  Yb  Yb2  1  0.666666  0.333334  0.566047  1
  Yb  Yb3  1  0.666666  0.333334  0.923629  1
  Ta  Ta4  1  0.000000  0.000000  0.000000  1
  Ir  Ir5  1  0.348084  0.174042  0.247508  1
  Ir  Ir6  1  0.825959  0.174042  0.247508  1
  Ir  Ir7  1  0.825957  0.651915  0.247508  1
  Ir  Ir8  1  0.000000  0.000000  0.500000  1
  Ir  Ir9  1  0.174042  0.348084  0.752491  1
  Ir  Ir10  1  0.174042  0.825957  0.752491  1
  Ir  Ir11  1  0.651915  0.825957  0.752491  1
