# generated using pymatgen
data_Yb3Lu3Al19Si5Os8
_symmetry_space_group_name_H-M   'P 1'
_cell_length_a   8.67823500
_cell_length_b   8.65668015
_cell_length_c   9.61472200
_cell_angle_alpha   89.99995832
_cell_angle_beta   90.00084564
_cell_angle_gamma   120.08260292
_symmetry_Int_Tables_number   1
_chemical_formula_structural   Yb3Lu3Al19Si5Os8
_chemical_formula_sum   'Yb3 Lu3 Al19 Si5 Os8'
_cell_volume   625.01155841
_cell_formula_units_Z   1
loop_
 _symmetry_equiv_pos_site_id
 _symmetry_equiv_pos_as_xyz
  1  'x, y, z'
loop_
 _atom_site_type_symbol
 _atom_site_label
 _atom_site_symmetry_multiplicity
 _atom_site_fract_x
 _atom_site_fract_y
 _atom_site_fract_z
 _atom_site_occupancy
  Yb  Yb0  1  0.194877  0.389756  0.250001  1
  Yb  Yb1  1  0.606526  0.806405  0.250004  1
  Yb  Yb2  1  0.199887  0.806398  0.250018  1
  Lu  Lu3  1  0.803709  0.607407  0.750002  1
  Lu  Lu4  1  0.393724  0.197562  0.749988  1
  Lu  Lu5  1  0.803843  0.197552  0.749980  1
  Al  Al6  1  0.164098  0.328198  0.577684  1
  Al  Al7  1  0.833839  0.667679  0.422715  1
  Al  Al8  1  0.670842  0.836145  0.576138  1
  Al  Al9  1  0.833825  0.667689  0.077273  1
  Al  Al10  1  0.330534  0.165983  0.422762  1
  Al  Al11  1  0.164090  0.328216  0.922315  1
  Al  Al12  1  0.165316  0.836131  0.576139  1
  Al  Al13  1  0.330509  0.165955  0.077232  1
  Al  Al14  1  0.835462  0.165968  0.422759  1
  Al  Al15  1  0.670812  0.836115  0.923867  1
  Al  Al16  1  0.835459  0.166009  0.077227  1
  Al  Al17  1  0.165312  0.836172  0.923865  1
  Al  Al18  1  0.437985  0.875960  0.750023  1
  Al  Al19  1  0.873228  0.433456  0.249998  1
  Al  Al20  1  0.127348  0.564804  0.749997  1
  Al  Al21  1  0.560224  0.433449  0.250008  1
  Al  Al22  1  0.437453  0.564806  0.750015  1
  Al  Al23  1  0.998886  0.997764  0.249961  1
  Al  Al24  1  0.000389  0.000769  0.749966  1
  Si  Si25  1  0.332382  0.664757  0.024871  1
  Si  Si26  1  0.667231  0.334446  0.959830  1
  Si  Si27  1  0.667232  0.334468  0.540158  1
  Si  Si28  1  0.332393  0.664774  0.475154  1
  Si  Si29  1  0.564246  0.128481  0.250016  1
  Os  Os30  1  0.501511  0.002875  0.002753  1
  Os  Os31  1  0.997591  0.498273  0.996374  1
  Os  Os32  1  0.501453  0.002875  0.497355  1
  Os  Os33  1  0.500577  0.498118  0.996333  1
  Os  Os34  1  0.997529  0.498154  0.503601  1
  Os  Os35  1  0.500639  0.498252  0.503682  1
  Os  Os36  1  0.999477  0.999103  0.000163  1
  Os  Os37  1  0.999564  0.999074  0.499766  1
