# generated using pymatgen
data_Nd6HoTmIn8
_symmetry_space_group_name_H-M   'P 1'
_cell_length_a   6.69651480
_cell_length_b   6.69651428
_cell_length_c   10.19159800
_cell_angle_alpha   90.00000000
_cell_angle_beta   90.00000000
_cell_angle_gamma   98.38471542
_symmetry_Int_Tables_number   1
_chemical_formula_structural   Nd6HoTmIn8
_chemical_formula_sum   'Nd6 Ho1 Tm1 In8'
_cell_volume   452.13994015
_cell_formula_units_Z   1
loop_
 _symmetry_equiv_pos_site_id
 _symmetry_equiv_pos_as_xyz
  1  'x, y, z'
loop_
 _atom_site_type_symbol
 _atom_site_label
 _atom_site_symmetry_multiplicity
 _atom_site_fract_x
 _atom_site_fract_y
 _atom_site_fract_z
 _atom_site_occupancy
  Nd  Nd0  1  0.533613  0.533613  0.250000  1
  Nd  Nd1  1  0.466711  0.466711  0.750000  1
  Nd  Nd2  1  0.246115  0.753780  0.499866  1
  Nd  Nd3  1  0.246115  0.753780  0.000134  1
  Nd  Nd4  1  0.753780  0.246115  0.499866  1
  Nd  Nd5  1  0.753780  0.246115  0.000134  1
  Ho  Ho6  1  0.022982  0.022981  0.750000  1
  Tm  Tm7  1  0.977126  0.977125  0.250000  1
  In  In8  1  0.250086  0.250086  0.022784  1
  In  In9  1  0.749843  0.749843  0.977362  1
  In  In10  1  0.250086  0.250086  0.477216  1
  In  In11  1  0.749843  0.749843  0.522638  1
  In  In12  1  0.478514  0.024703  0.250000  1
  In  In13  1  0.975266  0.521437  0.750000  1
  In  In14  1  0.521437  0.975266  0.750000  1
  In  In15  1  0.024703  0.478514  0.250000  1
