# generated using pymatgen
data_CsMn4Al5Se12
_symmetry_space_group_name_H-M   'P 1'
_cell_length_a   8.96180929
_cell_length_b   8.92948232
_cell_length_c   8.99927811
_cell_angle_alpha   107.15600301
_cell_angle_beta   107.90816810
_cell_angle_gamma   107.44133271
_symmetry_Int_Tables_number   1
_chemical_formula_structural   CsMn4Al5Se12
_chemical_formula_sum   'Cs1 Mn4 Al5 Se12'
_cell_volume   591.33461484
_cell_formula_units_Z   1
loop_
 _symmetry_equiv_pos_site_id
 _symmetry_equiv_pos_as_xyz
  1  'x, y, z'
loop_
 _atom_site_type_symbol
 _atom_site_label
 _atom_site_symmetry_multiplicity
 _atom_site_fract_x
 _atom_site_fract_y
 _atom_site_fract_z
 _atom_site_occupancy
  Cs  Cs0  1  0.996625  0.995697  0.993897  1
  Mn  Mn1  1  0.632197  0.709133  0.396283  1
  Mn  Mn2  1  0.401236  0.637011  0.717531  1
  Mn  Mn3  1  0.711320  0.393630  0.633035  1
  Mn  Mn4  1  0.185613  0.562156  0.022515  1
  Al  Al5  1  0.485290  0.337836  0.941812  1
  Al  Al6  1  0.939672  0.490848  0.342595  1
  Al  Al7  1  0.332691  0.933798  0.481812  1
  Al  Al8  1  0.019397  0.186382  0.557095  1
  Al  Al9  1  0.558837  0.024219  0.184949  1
  Se  Se10  1  0.782125  0.934435  0.300176  1
  Se  Se11  1  0.309935  0.795808  0.933284  1
  Se  Se12  1  0.929331  0.291578  0.773018  1
  Se  Se13  1  0.071968  0.694384  0.238110  1
  Se  Se14  1  0.232905  0.080615  0.688198  1
  Se  Se15  1  0.696641  0.234833  0.082193  1
  Se  Se16  1  0.380555  0.434969  0.147859  1
  Se  Se17  1  0.147191  0.378649  0.444737  1
  Se  Se18  1  0.439138  0.142965  0.373340  1
  Se  Se19  1  0.861332  0.629748  0.555792  1
  Se  Se20  1  0.549656  0.858465  0.626162  1
  Se  Se21  1  0.630984  0.547481  0.860247  1
