# generated using pymatgen
data_Tm8Ti7Si16W5
_symmetry_space_group_name_H-M   'P 1'
_cell_length_a   6.92677443
_cell_length_b   6.92031296
_cell_length_c   12.75995298
_cell_angle_alpha   89.88842873
_cell_angle_beta   89.99777061
_cell_angle_gamma   89.95458569
_symmetry_Int_Tables_number   1
_chemical_formula_structural   Tm8Ti7Si16W5
_chemical_formula_sum   'Tm8 Ti7 Si16 W5'
_cell_volume   611.65269653
_cell_formula_units_Z   1
loop_
 _symmetry_equiv_pos_site_id
 _symmetry_equiv_pos_as_xyz
  1  'x, y, z'
loop_
 _atom_site_type_symbol
 _atom_site_label
 _atom_site_symmetry_multiplicity
 _atom_site_fract_x
 _atom_site_fract_y
 _atom_site_fract_z
 _atom_site_occupancy
  Tm  Tm0  1  0.342018  0.000072  0.467975  1
  Tm  Tm1  1  0.499124  0.841136  0.719456  1
  Tm  Tm2  1  0.500123  0.159070  0.217824  1
  Tm  Tm3  1  0.841272  0.499353  0.281831  1
  Tm  Tm4  1  0.158971  0.499729  0.781564  1
  Tm  Tm5  1  0.658344  0.999576  0.968443  1
  Tm  Tm6  1  0.000213  0.340903  0.532366  1
  Tm  Tm7  1  0.999321  0.659427  0.030475  1
  Ti  Ti8  1  0.491658  0.654177  0.124685  1
  Ti  Ti9  1  0.506617  0.347125  0.626767  1
  Ti  Ti10  1  0.652754  0.490806  0.873925  1
  Ti  Ti11  1  0.347284  0.507936  0.374587  1
  Ti  Ti12  1  0.846817  0.992753  0.374780  1
  Ti  Ti13  1  0.005919  0.152576  0.125385  1
  Ti  Ti14  1  0.992781  0.846867  0.625387  1
  Si  Si15  1  0.202429  0.131159  0.682879  1
  Si  Si16  1  0.369311  0.703314  0.931414  1
  Si  Si17  1  0.631709  0.299010  0.433555  1
  Si  Si18  1  0.700852  0.368389  0.067379  1
  Si  Si19  1  0.299860  0.632103  0.567335  1
  Si  Si20  1  0.798084  0.867807  0.182729  1
  Si  Si21  1  0.132048  0.202288  0.317421  1
  Si  Si22  1  0.868673  0.798145  0.818773  1
  Si  Si23  1  0.293822  0.954987  0.064887  1
  Si  Si24  1  0.546064  0.793193  0.315093  1
  Si  Si25  1  0.452546  0.207393  0.815351  1
  Si  Si26  1  0.793041  0.546946  0.683998  1
  Si  Si27  1  0.206652  0.454032  0.184591  1
  Si  Si28  1  0.707992  0.045793  0.565272  1
  Si  Si29  1  0.954748  0.292252  0.934836  1
  Si  Si30  1  0.045976  0.707082  0.434757  1
  W  W31  1  0.325926  0.327033  0.999574  1
  W  W32  1  0.171831  0.827790  0.249322  1
  W  W33  1  0.828555  0.171200  0.750417  1
  W  W34  1  0.673840  0.672834  0.499825  1
  W  W35  1  0.152822  0.005743  0.875141  1
