# generated using pymatgen
data_Ta3Ga2CoN
_symmetry_space_group_name_H-M   'P 1'
_cell_length_a   8.20316100
_cell_length_b   8.20363119
_cell_length_c   8.20316100
_cell_angle_alpha   119.99810807
_cell_angle_beta   90.00000000
_cell_angle_gamma   119.99810807
_symmetry_Int_Tables_number   1
_chemical_formula_structural   Ta3Ga2CoN
_chemical_formula_sum   'Ta12 Ga8 Co4 N4'
_cell_volume   390.37180020
_cell_formula_units_Z   4
loop_
 _symmetry_equiv_pos_site_id
 _symmetry_equiv_pos_as_xyz
  1  'x, y, z'
loop_
 _atom_site_type_symbol
 _atom_site_label
 _atom_site_symmetry_multiplicity
 _atom_site_fract_x
 _atom_site_fract_y
 _atom_site_fract_z
 _atom_site_occupancy
  Ta  Ta0  1  0.935447  0.370895  0.185447  1
  Ta  Ta1  1  0.314590  0.750000  0.185410  1
  Ta  Ta2  1  0.935410  0.750000  0.185410  1
  Ta  Ta3  1  0.685410  0.250000  0.435410  1
  Ta  Ta4  1  0.685447  0.870895  0.435447  1
  Ta  Ta5  1  0.064590  0.250000  0.435410  1
  Ta  Ta6  1  0.314553  0.129105  0.564553  1
  Ta  Ta7  1  0.314590  0.750000  0.564590  1
  Ta  Ta8  1  0.935410  0.750000  0.564590  1
  Ta  Ta9  1  0.064590  0.250000  0.814590  1
  Ta  Ta10  1  0.685410  0.250000  0.814590  1
  Ta  Ta11  1  0.064553  0.629105  0.814553  1
  Ga  Ga12  1  0.708659  0.917320  0.125867  1
  Ga  Ga13  1  0.291341  0.082680  0.208548  1
  Ga  Ga14  1  0.291452  0.417320  0.208659  1
  Ga  Ga15  1  0.625867  0.417320  0.208659  1
  Ga  Ga16  1  0.374133  0.582680  0.791341  1
  Ga  Ga17  1  0.708548  0.582680  0.791341  1
  Ga  Ga18  1  0.708659  0.917320  0.791452  1
  Ga  Ga19  1  0.291341  0.082680  0.874133  1
  Co  Co20  1  0.000000  0.000000  0.000000  1
  Co  Co21  1  0.500000  0.000000  0.000000  1
  Co  Co22  1  0.500000  0.500000  0.000000  1
  Co  Co23  1  0.500000  0.500000  0.500000  1
  N  N24  1  0.000000  0.500000  0.000000  1
  N  N25  1  0.000000  0.000000  0.500000  1
  N  N26  1  0.500000  0.000000  0.500000  1
  N  N27  1  0.000000  0.500000  0.500000  1
