# generated using pymatgen
data_Tb4Al17SiIr6
_symmetry_space_group_name_H-M   'P 1'
_cell_length_a   7.56150204
_cell_length_b   7.56149323
_cell_length_c   9.43544300
_cell_angle_alpha   90.00000000
_cell_angle_beta   90.00000000
_cell_angle_gamma   119.66510268
_symmetry_Int_Tables_number   1
_chemical_formula_structural   Tb4Al17SiIr6
_chemical_formula_sum   'Tb4 Al17 Si1 Ir6'
_cell_volume   468.77483496
_cell_formula_units_Z   1
loop_
 _symmetry_equiv_pos_site_id
 _symmetry_equiv_pos_as_xyz
  1  'x, y, z'
loop_
 _atom_site_type_symbol
 _atom_site_label
 _atom_site_symmetry_multiplicity
 _atom_site_fract_x
 _atom_site_fract_y
 _atom_site_fract_z
 _atom_site_occupancy
  Tb  Tb0  1  0.994385  0.675805  0.250000  1
  Tb  Tb1  1  0.003760  0.330552  0.750000  1
  Tb  Tb2  1  0.675805  0.994385  0.250000  1
  Tb  Tb3  1  0.330552  0.003759  0.750000  1
  Al  Al4  1  0.874521  0.874521  0.750000  1
  Al  Al5  1  0.001083  0.337045  0.076772  1
  Al  Al6  1  0.998477  0.665713  0.925455  1
  Al  Al7  1  0.998477  0.665713  0.574545  1
  Al  Al8  1  0.337044  0.001083  0.423228  1
  Al  Al9  1  0.001083  0.337045  0.423228  1
  Al  Al10  1  0.665714  0.998478  0.574545  1
  Al  Al11  1  0.665714  0.998478  0.925455  1
  Al  Al12  1  0.337044  0.001083  0.076772  1
  Al  Al13  1  0.332523  0.332523  0.556422  1
  Al  Al14  1  0.663179  0.663179  0.448461  1
  Al  Al15  1  0.663179  0.663179  0.051539  1
  Al  Al16  1  0.332523  0.332523  0.943578  1
  Al  Al17  1  0.336312  0.549091  0.250000  1
  Al  Al18  1  0.661084  0.452303  0.750000  1
  Al  Al19  1  0.549092  0.336313  0.250000  1
  Al  Al20  1  0.452304  0.661084  0.750000  1
  Si  Si21  1  0.131219  0.131219  0.250000  1
  Ir  Ir22  1  0.670168  0.326892  0.000195  1
  Ir  Ir23  1  0.326892  0.670167  0.000194  1
  Ir  Ir24  1  0.326892  0.670167  0.499806  1
  Ir  Ir25  1  0.670168  0.326892  0.499805  1
  Ir  Ir26  1  0.000403  0.000403  0.007103  1
  Ir  Ir27  1  0.000403  0.000403  0.492897  1
