# generated using pymatgen
data_ScAsI6
_symmetry_space_group_name_H-M   'P 1'
_cell_length_a   8.55853406
_cell_length_b   8.55853404
_cell_length_c   8.55853396
_cell_angle_alpha   50.91287135
_cell_angle_beta   50.91287198
_cell_angle_gamma   50.91286396
_symmetry_Int_Tables_number   1
_chemical_formula_structural   ScAsI6
_chemical_formula_sum   'Sc1 As1 I6'
_cell_volume   348.30636223
_cell_formula_units_Z   1
loop_
 _symmetry_equiv_pos_site_id
 _symmetry_equiv_pos_as_xyz
  1  'x, y, z'
loop_
 _atom_site_type_symbol
 _atom_site_label
 _atom_site_symmetry_multiplicity
 _atom_site_fract_x
 _atom_site_fract_y
 _atom_site_fract_z
 _atom_site_occupancy
  Sc  Sc0  1  0.168190  0.168190  0.168190  1
  As  As1  1  0.832381  0.832381  0.832381  1
  I  I2  1  0.061307  0.426058  0.787426  1
  I  I3  1  0.426058  0.787426  0.061307  1
  I  I4  1  0.787426  0.061307  0.426058  1
  I  I5  1  0.931308  0.575025  0.218304  1
  I  I6  1  0.575025  0.218304  0.931308  1
  I  I7  1  0.218304  0.931308  0.575025  1
