# generated using pymatgen
data_Hf3Sc(SiW)4
_symmetry_space_group_name_H-M   'P 1'
_cell_length_a   3.51383600
_cell_length_b   6.96804751
_cell_length_c   8.22415534
_cell_angle_alpha   89.86953098
_cell_angle_beta   90.00000000
_cell_angle_gamma   90.00000000
_symmetry_Int_Tables_number   1
_chemical_formula_structural   Hf3Sc(SiW)4
_chemical_formula_sum   'Hf3 Sc1 Si4 W4'
_cell_volume   201.36443591
_cell_formula_units_Z   1
loop_
 _symmetry_equiv_pos_site_id
 _symmetry_equiv_pos_as_xyz
  1  'x, y, z'
loop_
 _atom_site_type_symbol
 _atom_site_label
 _atom_site_symmetry_multiplicity
 _atom_site_fract_x
 _atom_site_fract_y
 _atom_site_fract_z
 _atom_site_occupancy
  Hf  Hf0  1  0.250000  0.042452  0.334460  1
  Hf  Hf1  1  0.750000  0.457634  0.832610  1
  Hf  Hf2  1  0.750000  0.957215  0.666538  1
  Sc  Sc3  1  0.250000  0.541750  0.165854  1
  Si  Si4  1  0.250000  0.757236  0.861813  1
  Si  Si5  1  0.250000  0.256665  0.638774  1
  Si  Si6  1  0.750000  0.243299  0.139851  1
  Si  Si7  1  0.750000  0.740890  0.359192  1
  W  W8  1  0.250000  0.634145  0.562451  1
  W  W9  1  0.250000  0.133172  0.938629  1
  W  W10  1  0.750000  0.366481  0.439222  1
  W  W11  1  0.750000  0.869061  0.060606  1
