# generated using pymatgen
data_TmCo2B2Ir
_symmetry_space_group_name_H-M   'P 1'
_cell_length_a   5.17361828
_cell_length_b   5.17361785
_cell_length_c   3.05106700
_cell_angle_alpha   90.00000000
_cell_angle_beta   90.00000000
_cell_angle_gamma   121.52855979
_symmetry_Int_Tables_number   1
_chemical_formula_structural   TmCo2B2Ir
_chemical_formula_sum   'Tm1 Co2 B2 Ir1'
_cell_volume   69.61030347
_cell_formula_units_Z   1
loop_
 _symmetry_equiv_pos_site_id
 _symmetry_equiv_pos_as_xyz
  1  'x, y, z'
loop_
 _atom_site_type_symbol
 _atom_site_label
 _atom_site_symmetry_multiplicity
 _atom_site_fract_x
 _atom_site_fract_y
 _atom_site_fract_z
 _atom_site_occupancy
  Tm  Tm0  1  0.000000  0.000000  0.000000  1
  Co  Co1  1  0.500000  0.000000  0.500000  1
  Co  Co2  1  0.000000  0.500000  0.500000  1
  B  B3  1  0.318077  0.681923  0.000000  1
  B  B4  1  0.681923  0.318077  0.000000  1
  Ir  Ir5  1  0.500000  0.500000  0.500000  1
