# generated using pymatgen
data_Nb12Ga8CoCu3C4
_symmetry_space_group_name_H-M   'P 1'
_cell_length_a   8.29991711
_cell_length_b   8.27525755
_cell_length_c   8.27525600
_cell_angle_alpha   60.00000619
_cell_angle_beta   60.09823952
_cell_angle_gamma   60.09824067
_symmetry_Int_Tables_number   1
_chemical_formula_structural   Nb12Ga8CoCu3C4
_chemical_formula_sum   'Nb12 Ga8 Co1 Cu3 C4'
_cell_volume   402.49920292
_cell_formula_units_Z   1
loop_
 _symmetry_equiv_pos_site_id
 _symmetry_equiv_pos_as_xyz
  1  'x, y, z'
loop_
 _atom_site_type_symbol
 _atom_site_label
 _atom_site_symmetry_multiplicity
 _atom_site_fract_x
 _atom_site_fract_y
 _atom_site_fract_z
 _atom_site_occupancy
  Nb  Nb0  1  0.685129  0.313193  0.688485  1
  Nb  Nb1  1  0.935484  0.564508  0.564508  1
  Nb  Nb2  1  0.564871  0.936807  0.936807  1
  Nb  Nb3  1  0.935484  0.564508  0.935500  1
  Nb  Nb4  1  0.564871  0.561515  0.936807  1
  Nb  Nb5  1  0.935484  0.935500  0.564508  1
  Nb  Nb6  1  0.685129  0.688485  0.313193  1
  Nb  Nb7  1  0.314516  0.685492  0.685492  1
  Nb  Nb8  1  0.685129  0.313193  0.313193  1
  Nb  Nb9  1  0.314516  0.314500  0.685492  1
  Nb  Nb10  1  0.564871  0.936807  0.561515  1
  Nb  Nb11  1  0.314516  0.685492  0.314500  1
  Ga  Ga12  1  0.338988  0.331808  0.331808  1
  Ga  Ga13  1  0.257374  0.914208  0.914208  1
  Ga  Ga14  1  0.911012  0.252604  0.918192  1
  Ga  Ga15  1  0.911012  0.918192  0.252604  1
  Ga  Ga16  1  0.338988  0.997396  0.331808  1
  Ga  Ga17  1  0.338988  0.331808  0.997396  1
  Ga  Ga18  1  0.992626  0.335792  0.335792  1
  Ga  Ga19  1  0.911012  0.918192  0.918192  1
  Co  Co20  1  0.625000  0.125000  0.125000  1
  Cu  Cu21  1  0.125000  0.125000  0.125000  1
  Cu  Cu22  1  0.125000  0.625000  0.125000  1
  Cu  Cu23  1  0.125000  0.125000  0.625000  1
  C  C24  1  0.625000  0.625000  0.625000  1
  C  C25  1  0.125000  0.625000  0.625000  1
  C  C26  1  0.625000  0.125000  0.625000  1
  C  C27  1  0.625000  0.625000  0.125000  1
