# generated using pymatgen
data_BaYb12Eu7Pt16
_symmetry_space_group_name_H-M   'P 1'
_cell_length_a   7.60954809
_cell_length_b   7.76385340
_cell_length_c   14.73213800
_cell_angle_alpha   89.85376886
_cell_angle_beta   90.03059972
_cell_angle_gamma   90.13683351
_symmetry_Int_Tables_number   1
_chemical_formula_structural   BaYb12Eu7Pt16
_chemical_formula_sum   'Ba1 Yb12 Eu7 Pt16'
_cell_volume   870.36066824
_cell_formula_units_Z   1
loop_
 _symmetry_equiv_pos_site_id
 _symmetry_equiv_pos_as_xyz
  1  'x, y, z'
loop_
 _atom_site_type_symbol
 _atom_site_label
 _atom_site_symmetry_multiplicity
 _atom_site_fract_x
 _atom_site_fract_y
 _atom_site_fract_z
 _atom_site_occupancy
  Ba  Ba0  1  0.001459  0.172459  0.907428  1
  Yb  Yb1  1  0.341420  0.832347  0.875444  1
  Yb  Yb2  1  0.840169  0.667593  0.620995  1
  Yb  Yb3  1  0.659233  0.168226  0.377773  1
  Yb  Yb4  1  0.161160  0.334577  0.124708  1
  Yb  Yb5  1  0.657844  0.169840  0.124106  1
  Yb  Yb6  1  0.159888  0.331623  0.377714  1
  Yb  Yb7  1  0.342870  0.830363  0.620598  1
  Yb  Yb8  1  0.841100  0.668207  0.877234  1
  Yb  Yb9  1  0.177651  0.498092  0.747260  1
  Yb  Yb10  1  0.678088  0.000798  0.747317  1
  Yb  Yb11  1  0.821772  0.502214  0.252154  1
  Yb  Yb12  1  0.321400  0.998380  0.251651  1
  Eu  Eu13  1  0.500756  0.325329  0.901605  1
  Eu  Eu14  1  0.002359  0.175640  0.594026  1
  Eu  Eu15  1  0.497978  0.675968  0.403434  1
  Eu  Eu16  1  0.998821  0.821494  0.101241  1
  Eu  Eu17  1  0.498906  0.677460  0.098401  1
  Eu  Eu18  1  0.997847  0.823297  0.403438  1
  Eu  Eu19  1  0.502407  0.323715  0.594966  1
  Pt  Pt20  1  0.329855  0.030236  0.045635  1
  Pt  Pt21  1  0.829567  0.465539  0.458334  1
  Pt  Pt22  1  0.671030  0.965167  0.540396  1
  Pt  Pt23  1  0.177849  0.546244  0.961940  1
  Pt  Pt24  1  0.658766  0.957551  0.961019  1
  Pt  Pt25  1  0.173006  0.533377  0.540551  1
  Pt  Pt26  1  0.327423  0.033559  0.458265  1
  Pt  Pt27  1  0.828937  0.475082  0.045753  1
  Pt  Pt28  1  0.543999  0.620741  0.749665  1
  Pt  Pt29  1  0.049342  0.874949  0.745039  1
  Pt  Pt30  1  0.453488  0.381795  0.251151  1
  Pt  Pt31  1  0.953661  0.118707  0.250064  1
  Pt  Pt32  1  0.310052  0.133166  0.744418  1
  Pt  Pt33  1  0.797774  0.367360  0.743196  1
  Pt  Pt34  1  0.696697  0.863814  0.251947  1
  Pt  Pt35  1  0.195427  0.635089  0.251138  1
