# generated using pymatgen
data_CaNpB6Ru
_symmetry_space_group_name_H-M   'P 1'
_cell_length_a   3.59256000
_cell_length_b   9.25543200
_cell_length_c   11.36211900
_cell_angle_alpha   90.00000000
_cell_angle_beta   90.00000000
_cell_angle_gamma   90.00000000
_symmetry_Int_Tables_number   1
_chemical_formula_structural   CaNpB6Ru
_chemical_formula_sum   'Ca4 Np4 B24 Ru4'
_cell_volume   377.79835099
_cell_formula_units_Z   4
loop_
 _symmetry_equiv_pos_site_id
 _symmetry_equiv_pos_as_xyz
  1  'x, y, z'
loop_
 _atom_site_type_symbol
 _atom_site_label
 _atom_site_symmetry_multiplicity
 _atom_site_fract_x
 _atom_site_fract_y
 _atom_site_fract_z
 _atom_site_occupancy
  Ca  Ca0  1  0.000000  0.339311  0.407785  1
  Ca  Ca1  1  0.000000  0.660689  0.592215  1
  Ca  Ca2  1  0.000000  0.839311  0.092215  1
  Ca  Ca3  1  0.000000  0.160689  0.907785  1
  Np  Np4  1  0.000000  0.959770  0.401803  1
  Np  Np5  1  0.000000  0.040230  0.598197  1
  Np  Np6  1  0.000000  0.459770  0.098197  1
  Np  Np7  1  0.000000  0.540230  0.901803  1
  B  B8  1  0.500000  0.553656  0.430493  1
  B  B9  1  0.500000  0.446344  0.569507  1
  B  B10  1  0.500000  0.053656  0.069507  1
  B  B11  1  0.500000  0.946344  0.930493  1
  B  B12  1  0.500000  0.744280  0.421524  1
  B  B13  1  0.500000  0.255720  0.578476  1
  B  B14  1  0.500000  0.244280  0.078476  1
  B  B15  1  0.500000  0.755720  0.921524  1
  B  B16  1  0.500000  0.804334  0.274257  1
  B  B17  1  0.500000  0.195666  0.725743  1
  B  B18  1  0.500000  0.304334  0.225743  1
  B  B19  1  0.500000  0.695666  0.774257  1
  B  B20  1  0.500000  0.644464  0.188660  1
  B  B21  1  0.500000  0.355536  0.811340  1
  B  B22  1  0.500000  0.144464  0.311340  1
  B  B23  1  0.500000  0.855536  0.688660  1
  B  B24  1  0.500000  0.990920  0.219800  1
  B  B25  1  0.500000  0.009080  0.780200  1
  B  B26  1  0.500000  0.490920  0.280200  1
  B  B27  1  0.500000  0.509080  0.719800  1
  B  B28  1  0.500000  0.639987  0.038622  1
  B  B29  1  0.500000  0.360013  0.961378  1
  B  B30  1  0.500000  0.139987  0.461378  1
  B  B31  1  0.500000  0.860013  0.538622  1
  Ru  Ru32  1  0.000000  0.647444  0.318105  1
  Ru  Ru33  1  0.000000  0.352556  0.681895  1
  Ru  Ru34  1  0.000000  0.147444  0.181895  1
  Ru  Ru35  1  0.000000  0.852556  0.818105  1
