# generated using pymatgen
data_Er10AgSn6As
_symmetry_space_group_name_H-M   'P 1'
_cell_length_a   9.06195800
_cell_length_b   9.06195778
_cell_length_c   6.63110300
_cell_angle_alpha   90.00000000
_cell_angle_beta   90.00000000
_cell_angle_gamma   120.00000812
_symmetry_Int_Tables_number   1
_chemical_formula_structural   Er10AgSn6As
_chemical_formula_sum   'Er10 Ag1 Sn6 As1'
_cell_volume   471.58550651
_cell_formula_units_Z   1
loop_
 _symmetry_equiv_pos_site_id
 _symmetry_equiv_pos_as_xyz
  1  'x, y, z'
loop_
 _atom_site_type_symbol
 _atom_site_label
 _atom_site_symmetry_multiplicity
 _atom_site_fract_x
 _atom_site_fract_y
 _atom_site_fract_z
 _atom_site_occupancy
  Er  Er0  1  0.257976  0.000000  0.734827  1
  Er  Er1  1  0.742024  0.000000  0.265173  1
  Er  Er2  1  0.000000  0.257976  0.734827  1
  Er  Er3  1  0.000000  0.742024  0.265173  1
  Er  Er4  1  0.742024  0.742024  0.734827  1
  Er  Er5  1  0.257976  0.257976  0.265173  1
  Er  Er6  1  0.333333  0.666667  0.500000  1
  Er  Er7  1  0.666667  0.333333  0.500000  1
  Er  Er8  1  0.666667  0.333333  0.000000  1
  Er  Er9  1  0.333333  0.666667  0.000000  1
  Ag  Ag10  1  0.000000  0.000000  0.000000  1
  Sn  Sn11  1  0.608178  0.000000  0.751109  1
  Sn  Sn12  1  0.391822  0.000000  0.248891  1
  Sn  Sn13  1  0.000000  0.608178  0.751109  1
  Sn  Sn14  1  0.000000  0.391822  0.248891  1
  Sn  Sn15  1  0.391822  0.391822  0.751109  1
  Sn  Sn16  1  0.608178  0.608178  0.248891  1
  As  As17  1  0.000000  0.000000  0.500000  1
