# generated using pymatgen
data_Nd2TiTcF14
_symmetry_space_group_name_H-M   'P 1'
_cell_length_a   5.66784200
_cell_length_b   9.10907289
_cell_length_c   12.14777200
_cell_angle_alpha   62.57611737
_cell_angle_beta   90.00000000
_cell_angle_gamma   90.00000000
_symmetry_Int_Tables_number   1
_chemical_formula_structural   Nd2TiTcF14
_chemical_formula_sum   'Nd4 Ti2 Tc2 F28'
_cell_volume   556.69500889
_cell_formula_units_Z   2
loop_
 _symmetry_equiv_pos_site_id
 _symmetry_equiv_pos_as_xyz
  1  'x, y, z'
loop_
 _atom_site_type_symbol
 _atom_site_label
 _atom_site_symmetry_multiplicity
 _atom_site_fract_x
 _atom_site_fract_y
 _atom_site_fract_z
 _atom_site_occupancy
  Nd  Nd0  1  0.758277  0.809308  0.263743  1
  Nd  Nd1  1  0.258277  0.190692  0.236257  1
  Nd  Nd2  1  0.240017  0.187822  0.733820  1
  Nd  Nd3  1  0.740017  0.812178  0.766180  1
  Ti  Ti4  1  0.754594  0.275916  0.456787  1
  Ti  Ti5  1  0.254594  0.724084  0.043213  1
  Tc  Tc6  1  0.245314  0.725928  0.542848  1
  Tc  Tc7  1  0.745314  0.274072  0.957152  1
  F  F8  1  0.955590  0.713980  0.458073  1
  F  F9  1  0.455590  0.286020  0.041927  1
  F  F10  1  0.031050  0.286354  0.542253  1
  F  F11  1  0.531050  0.713646  0.957747  1
  F  F12  1  0.055428  0.709154  0.924964  1
  F  F13  1  0.555428  0.290846  0.575036  1
  F  F14  1  0.941258  0.293840  0.082316  1
  F  F15  1  0.441258  0.706160  0.417684  1
  F  F16  1  0.737296  0.515691  0.859405  1
  F  F17  1  0.237296  0.484309  0.640595  1
  F  F18  1  0.267127  0.491668  0.137063  1
  F  F19  1  0.767127  0.508332  0.362937  1
  F  F20  1  0.739889  0.032628  0.050262  1
  F  F21  1  0.239889  0.967372  0.449738  1
  F  F22  1  0.262188  0.955861  0.949304  1
  F  F23  1  0.762188  0.044139  0.550696  1
  F  F24  1  0.053788  0.743839  0.671206  1
  F  F25  1  0.553788  0.256161  0.828794  1
  F  F26  1  0.947260  0.256709  0.335695  1
  F  F27  1  0.447260  0.743291  0.164305  1
  F  F28  1  0.030438  0.268383  0.867708  1
  F  F29  1  0.530438  0.731617  0.632292  1
  F  F30  1  0.987616  0.730127  0.134108  1
  F  F31  1  0.487616  0.269873  0.365892  1
  F  F32  1  0.091273  0.967757  0.230026  1
  F  F33  1  0.591273  0.032243  0.269974  1
  F  F34  1  0.901596  0.034785  0.773377  1
  F  F35  1  0.401596  0.965215  0.726623  1
