# generated using pymatgen
data_LiPr4Nd12Cd3Ir4
_symmetry_space_group_name_H-M   'P 1'
_cell_length_a   9.98651961
_cell_length_b   9.98598490
_cell_length_c   9.98598466
_cell_angle_alpha   59.97271499
_cell_angle_beta   59.97178483
_cell_angle_gamma   59.97178463
_symmetry_Int_Tables_number   1
_chemical_formula_structural   LiPr4Nd12Cd3Ir4
_chemical_formula_sum   'Li1 Pr4 Nd12 Cd3 Ir4'
_cell_volume   703.72998498
_cell_formula_units_Z   1
loop_
 _symmetry_equiv_pos_site_id
 _symmetry_equiv_pos_as_xyz
  1  'x, y, z'
loop_
 _atom_site_type_symbol
 _atom_site_label
 _atom_site_symmetry_multiplicity
 _atom_site_fract_x
 _atom_site_fract_y
 _atom_site_fract_z
 _atom_site_occupancy
  Li  Li0  1  0.571284  0.571175  0.571175  1
  Pr  Pr1  1  0.561633  0.938908  0.561579  1
  Pr  Pr2  1  0.938828  0.560883  0.938750  1
  Pr  Pr3  1  0.561633  0.561579  0.938908  1
  Pr  Pr4  1  0.938828  0.938750  0.560883  1
  Nd  Nd5  1  0.347875  0.348238  0.348238  1
  Nd  Nd6  1  0.347556  0.347340  0.957692  1
  Nd  Nd7  1  0.347556  0.957692  0.347340  1
  Nd  Nd8  1  0.957703  0.347581  0.347581  1
  Nd  Nd9  1  0.809858  0.191059  0.191059  1
  Nd  Nd10  1  0.187445  0.811551  0.811551  1
  Nd  Nd11  1  0.191130  0.809825  0.191106  1
  Nd  Nd12  1  0.811480  0.187460  0.811495  1
  Nd  Nd13  1  0.191130  0.191106  0.809825  1
  Nd  Nd14  1  0.811480  0.811495  0.187460  1
  Nd  Nd15  1  0.939577  0.561189  0.561189  1
  Nd  Nd16  1  0.560485  0.939130  0.939130  1
  Cd  Cd17  1  0.580802  0.581172  0.259681  1
  Cd  Cd18  1  0.580802  0.259681  0.581172  1
  Cd  Cd19  1  0.259746  0.580807  0.580807  1
  Ir  Ir20  1  0.142144  0.141721  0.141721  1
  Ir  Ir21  1  0.142376  0.142829  0.576352  1
  Ir  Ir22  1  0.142376  0.576352  0.142829  1
  Ir  Ir23  1  0.576270  0.142476  0.142476  1
