# generated using pymatgen
data_Li2Hf6(Al2Pd)7
_symmetry_space_group_name_H-M   'P 1'
_cell_length_a   8.78093408
_cell_length_b   8.76393461
_cell_length_c   8.76393581
_cell_angle_alpha   59.92827188
_cell_angle_beta   59.93581455
_cell_angle_gamma   59.93581250
_symmetry_Int_Tables_number   1
_chemical_formula_structural   Li2Hf6(Al2Pd)7
_chemical_formula_sum   'Li2 Hf6 Al14 Pd7'
_cell_volume   476.17488972
_cell_formula_units_Z   1
loop_
 _symmetry_equiv_pos_site_id
 _symmetry_equiv_pos_as_xyz
  1  'x, y, z'
loop_
 _atom_site_type_symbol
 _atom_site_label
 _atom_site_symmetry_multiplicity
 _atom_site_fract_x
 _atom_site_fract_y
 _atom_site_fract_z
 _atom_site_occupancy
  Li  Li0  1  0.880270  0.882338  0.357123  1
  Li  Li1  1  0.880270  0.357123  0.882338  1
  Hf  Hf2  1  0.680981  0.681361  0.317862  1
  Hf  Hf3  1  0.319796  0.681361  0.317862  1
  Hf  Hf4  1  0.678981  0.321019  0.321019  1
  Hf  Hf5  1  0.319796  0.317862  0.681361  1
  Hf  Hf6  1  0.680981  0.317862  0.681361  1
  Hf  Hf7  1  0.318645  0.681355  0.681355  1
  Al  Al8  1  0.358733  0.881160  0.881160  1
  Al  Al9  1  0.878949  0.881160  0.881160  1
  Al  Al10  1  0.115969  0.124956  0.643105  1
  Al  Al11  1  0.115969  0.643105  0.124956  1
  Al  Al12  1  0.644807  0.121091  0.121091  1
  Al  Al13  1  0.113011  0.121091  0.121091  1
  Al  Al14  1  0.667917  0.658500  0.005667  1
  Al  Al15  1  0.667917  0.005667  0.658500  1
  Al  Al16  1  0.001619  0.663171  0.663171  1
  Al  Al17  1  0.672040  0.663171  0.663171  1
  Al  Al18  1  0.336075  0.333064  0.994785  1
  Al  Al19  1  0.336075  0.994785  0.333064  1
  Al  Al20  1  0.991095  0.335303  0.335303  1
  Al  Al21  1  0.338298  0.335303  0.335303  1
  Pd  Pd22  1  0.004142  0.995858  0.995858  1
  Pd  Pd23  1  0.003282  0.998448  0.505658  1
  Pd  Pd24  1  0.492611  0.998448  0.505658  1
  Pd  Pd25  1  0.003801  0.496199  0.496199  1
  Pd  Pd26  1  0.492611  0.505658  0.998448  1
  Pd  Pd27  1  0.003282  0.505658  0.998448  1
  Pd  Pd28  1  0.502078  0.997922  0.997922  1
