# generated using pymatgen
data_Ho3Er2Bi2Ru
_symmetry_space_group_name_H-M   'P 1'
_cell_length_a   7.91586100
_cell_length_b   8.96854800
_cell_length_c   12.43316400
_cell_angle_alpha   90.00000000
_cell_angle_beta   90.00000000
_cell_angle_gamma   90.00000000
_symmetry_Int_Tables_number   1
_chemical_formula_structural   Ho3Er2Bi2Ru
_chemical_formula_sum   'Ho12 Er8 Bi8 Ru4'
_cell_volume   882.67730151
_cell_formula_units_Z   4
loop_
 _symmetry_equiv_pos_site_id
 _symmetry_equiv_pos_as_xyz
  1  'x, y, z'
loop_
 _atom_site_type_symbol
 _atom_site_label
 _atom_site_symmetry_multiplicity
 _atom_site_fract_x
 _atom_site_fract_y
 _atom_site_fract_z
 _atom_site_occupancy
  Ho  Ho0  1  0.661044  0.750000  0.707830  1
  Ho  Ho1  1  0.338956  0.250000  0.292170  1
  Ho  Ho2  1  0.161044  0.250000  0.792170  1
  Ho  Ho3  1  0.838956  0.750000  0.207830  1
  Ho  Ho4  1  0.127947  0.750000  0.812304  1
  Ho  Ho5  1  0.872053  0.250000  0.187696  1
  Ho  Ho6  1  0.627947  0.250000  0.687696  1
  Ho  Ho7  1  0.372053  0.750000  0.312304  1
  Ho  Ho8  1  0.554814  0.750000  0.995201  1
  Ho  Ho9  1  0.445186  0.250000  0.004799  1
  Ho  Ho10  1  0.054814  0.250000  0.504799  1
  Ho  Ho11  1  0.945186  0.750000  0.495201  1
  Er  Er12  1  0.827552  0.458404  0.933663  1
  Er  Er13  1  0.172448  0.541596  0.066337  1
  Er  Er14  1  0.327552  0.541596  0.566337  1
  Er  Er15  1  0.172448  0.958404  0.066337  1
  Er  Er16  1  0.672448  0.458404  0.433663  1
  Er  Er17  1  0.827552  0.041596  0.933663  1
  Er  Er18  1  0.672448  0.041596  0.433663  1
  Er  Er19  1  0.327552  0.958404  0.566337  1
  Bi  Bi20  1  0.936263  0.005198  0.672800  1
  Bi  Bi21  1  0.063737  0.994802  0.327200  1
  Bi  Bi22  1  0.436263  0.994802  0.827200  1
  Bi  Bi23  1  0.063737  0.505198  0.327200  1
  Bi  Bi24  1  0.563737  0.005198  0.172800  1
  Bi  Bi25  1  0.936263  0.494802  0.672800  1
  Bi  Bi26  1  0.563737  0.494802  0.172800  1
  Bi  Bi27  1  0.436263  0.505198  0.827200  1
  Ru  Ru28  1  0.927333  0.750000  0.991279  1
  Ru  Ru29  1  0.072667  0.250000  0.008721  1
  Ru  Ru30  1  0.427333  0.250000  0.508721  1
  Ru  Ru31  1  0.572667  0.750000  0.491279  1
