# generated using pymatgen
data_Ce4ReB16Mo3
_symmetry_space_group_name_H-M   'P 1'
_cell_length_a   3.70309300
_cell_length_b   6.04612436
_cell_length_c   11.70641570
_cell_angle_alpha   89.96050159
_cell_angle_beta   90.00000000
_cell_angle_gamma   90.00000000
_symmetry_Int_Tables_number   1
_chemical_formula_structural   Ce4ReB16Mo3
_chemical_formula_sum   'Ce4 Re1 B16 Mo3'
_cell_volume   262.09910230
_cell_formula_units_Z   1
loop_
 _symmetry_equiv_pos_site_id
 _symmetry_equiv_pos_as_xyz
  1  'x, y, z'
loop_
 _atom_site_type_symbol
 _atom_site_label
 _atom_site_symmetry_multiplicity
 _atom_site_fract_x
 _atom_site_fract_y
 _atom_site_fract_z
 _atom_site_occupancy
  Ce  Ce0  1  0.000000  0.125779  0.149878  1
  Ce  Ce1  1  0.000000  0.874455  0.850449  1
  Ce  Ce2  1  0.000000  0.625340  0.348182  1
  Ce  Ce3  1  0.000000  0.374337  0.651829  1
  Re  Re4  1  0.000000  0.366468  0.911215  1
  B  B5  1  0.500000  0.524091  0.809193  1
  B  B6  1  0.500000  0.474921  0.191194  1
  B  B7  1  0.500000  0.024891  0.692157  1
  B  B8  1  0.500000  0.975697  0.308038  1
  B  B9  1  0.500000  0.386425  0.045653  1
  B  B10  1  0.500000  0.611880  0.952963  1
  B  B11  1  0.500000  0.886422  0.453424  1
  B  B12  1  0.500000  0.113439  0.546725  1
  B  B13  1  0.500000  0.214931  0.815739  1
  B  B14  1  0.500000  0.786494  0.185307  1
  B  B15  1  0.500000  0.713297  0.685574  1
  B  B16  1  0.500000  0.286176  0.314695  1
  B  B17  1  0.500000  0.137707  0.967694  1
  B  B18  1  0.500000  0.863656  0.031342  1
  B  B19  1  0.500000  0.635526  0.532113  1
  B  B20  1  0.500000  0.364311  0.467924  1
  Mo  Mo21  1  0.000000  0.129884  0.414555  1
  Mo  Mo22  1  0.000000  0.870027  0.586348  1
  Mo  Mo23  1  0.000000  0.633845  0.087808  1
