# generated using pymatgen
data_Y2Ga9Ru5
_symmetry_space_group_name_H-M   'P 1'
_cell_length_a   8.06427823
_cell_length_b   8.06427754
_cell_length_c   8.06427877
_cell_angle_alpha   134.83706748
_cell_angle_beta   134.83705994
_cell_angle_gamma   65.78347096
_symmetry_Int_Tables_number   1
_chemical_formula_structural   Y2Ga9Ru5
_chemical_formula_sum   'Y2 Ga9 Ru5'
_cell_volume   259.73752450
_cell_formula_units_Z   1
loop_
 _symmetry_equiv_pos_site_id
 _symmetry_equiv_pos_as_xyz
  1  'x, y, z'
loop_
 _atom_site_type_symbol
 _atom_site_label
 _atom_site_symmetry_multiplicity
 _atom_site_fract_x
 _atom_site_fract_y
 _atom_site_fract_z
 _atom_site_occupancy
  Y  Y0  1  0.000000  0.500000  0.500000  1
  Y  Y1  1  0.500000  0.000000  0.500000  1
  Ga  Ga2  1  0.439320  0.858681  0.000000  1
  Ga  Ga3  1  0.141319  0.141319  0.580638  1
  Ga  Ga4  1  0.858681  0.439320  0.000000  1
  Ga  Ga5  1  0.858681  0.858681  0.419362  1
  Ga  Ga6  1  0.560680  0.141319  0.000000  1
  Ga  Ga7  1  0.141319  0.560680  0.000000  1
  Ga  Ga8  1  0.560680  0.560680  0.419362  1
  Ga  Ga9  1  0.000000  0.000000  0.000000  1
  Ga  Ga10  1  0.439320  0.439320  0.580638  1
  Ru  Ru11  1  0.180292  0.180292  0.000000  1
  Ru  Ru12  1  0.819708  0.819708  0.000000  1
  Ru  Ru13  1  0.250000  0.750000  0.500000  1
  Ru  Ru14  1  0.750000  0.250000  0.500000  1
  Ru  Ru15  1  0.500000  0.500000  0.000000  1
