# generated using pymatgen
data_SmPa(Be11Cu2)2
_symmetry_space_group_name_H-M   'P 1'
_cell_length_a   7.40076611
_cell_length_b   7.38605800
_cell_length_c   7.35587912
_cell_angle_alpha   60.26720802
_cell_angle_beta   60.06846043
_cell_angle_gamma   59.66432834
_symmetry_Int_Tables_number   1
_chemical_formula_structural   SmPa(Be11Cu2)2
_chemical_formula_sum   'Sm1 Pa1 Be22 Cu4'
_cell_volume   284.30470322
_cell_formula_units_Z   1
loop_
 _symmetry_equiv_pos_site_id
 _symmetry_equiv_pos_as_xyz
  1  'x, y, z'
loop_
 _atom_site_type_symbol
 _atom_site_label
 _atom_site_symmetry_multiplicity
 _atom_site_fract_x
 _atom_site_fract_y
 _atom_site_fract_z
 _atom_site_occupancy
  Sm  Sm0  1  0.750000  0.750000  0.750000  1
  Pa  Pa1  1  0.250000  0.250000  0.250000  1
  Be  Be2  1  0.000000  0.000000  0.000000  1
  Be  Be3  1  0.500000  0.500000  0.500000  1
  Be  Be4  1  0.934840  0.291799  0.068444  1
  Be  Be5  1  0.213661  0.438707  0.790268  1
  Be  Be6  1  0.068444  0.704917  0.934840  1
  Be  Be7  1  0.790268  0.557364  0.213661  1
  Be  Be8  1  0.704917  0.068444  0.291799  1
  Be  Be9  1  0.438707  0.213661  0.557364  1
  Be  Be10  1  0.291799  0.934840  0.704917  1
  Be  Be11  1  0.557364  0.790268  0.438707  1
  Be  Be12  1  0.059516  0.942647  0.298156  1
  Be  Be13  1  0.566101  0.222203  0.780599  1
  Be  Be14  1  0.942647  0.059516  0.699681  1
  Be  Be15  1  0.431096  0.780599  0.222203  1
  Be  Be16  1  0.699681  0.298156  0.942647  1
  Be  Be17  1  0.222203  0.566101  0.431096  1
  Be  Be18  1  0.298156  0.699681  0.059516  1
  Be  Be19  1  0.780599  0.431096  0.566101  1
  Be  Be20  1  0.788717  0.215757  0.433376  1
  Be  Be21  1  0.215757  0.788717  0.562150  1
  Be  Be22  1  0.562150  0.433376  0.215757  1
  Be  Be23  1  0.433376  0.562150  0.788717  1
  Cu  Cu24  1  0.303665  0.057693  0.943825  1
  Cu  Cu25  1  0.694816  0.943825  0.057693  1
  Cu  Cu26  1  0.057693  0.303665  0.694816  1
  Cu  Cu27  1  0.943825  0.694816  0.303665  1
