# generated using pymatgen
data_Y5ErCo2(P3Ir4)4
_symmetry_space_group_name_H-M   'P 1'
_cell_length_a   3.92866300
_cell_length_b   11.09494915
_cell_length_c   12.76837717
_cell_angle_alpha   90.01876418
_cell_angle_beta   90.00002805
_cell_angle_gamma   89.99997509
_symmetry_Int_Tables_number   1
_chemical_formula_structural   Y5ErCo2(P3Ir4)4
_chemical_formula_sum   'Y5 Er1 Co2 P12 Ir16'
_cell_volume   556.55203175
_cell_formula_units_Z   1
loop_
 _symmetry_equiv_pos_site_id
 _symmetry_equiv_pos_as_xyz
  1  'x, y, z'
loop_
 _atom_site_type_symbol
 _atom_site_label
 _atom_site_symmetry_multiplicity
 _atom_site_fract_x
 _atom_site_fract_y
 _atom_site_fract_z
 _atom_site_occupancy
  Y  Y0  1  0.000000  0.499822  0.522297  1
  Y  Y1  1  0.500000  0.999681  0.477547  1
  Y  Y2  1  0.500000  0.184366  0.200536  1
  Y  Y3  1  0.000000  0.684376  0.799426  1
  Y  Y4  1  0.000000  0.315980  0.799736  1
  Er  Er5  1  0.500001  0.815944  0.200490  1
  Co  Co6  1  0.000000  0.500332  0.977619  1
  Co  Co7  1  0.500000  0.999691  0.023554  1
  P  P8  1  0.500000  0.500185  0.880427  1
  P  P9  1  0.000000  0.999643  0.120021  1
  P  P10  1  0.500000  0.499441  0.357725  1
  P  P11  1  0.000000  0.999704  0.642199  1
  P  P12  1  0.500000  0.315326  0.619455  1
  P  P13  1  0.500000  0.684237  0.618837  1
  P  P14  1  0.000000  0.184144  0.380872  1
  P  P15  1  0.000000  0.815354  0.380045  1
  P  P16  1  0.500000  0.852997  0.896569  1
  P  P17  1  0.500000  0.147756  0.897042  1
  P  P18  1  0.000000  0.649286  0.102999  1
  P  P19  1  0.000000  0.352616  0.103574  1
  Ir  Ir20  1  0.500000  0.500209  0.177632  1
  Ir  Ir21  1  0.000000  0.999166  0.822425  1
  Ir  Ir22  1  0.500001  0.500002  0.702473  1
  Ir  Ir23  1  0.000000  0.999457  0.297343  1
  Ir  Ir24  1  0.500000  0.339127  0.997759  1
  Ir  Ir25  1  0.500000  0.661346  0.997899  1
  Ir  Ir26  1  0.000000  0.160662  0.002360  1
  Ir  Ir27  1  0.000000  0.839062  0.003006  1
  Ir  Ir28  1  0.500000  0.292447  0.429504  1
  Ir  Ir29  1  0.500000  0.706638  0.428554  1
  Ir  Ir30  1  0.000000  0.206512  0.570860  1
  Ir  Ir31  1  0.000000  0.792716  0.570160  1
  Ir  Ir32  1  0.500000  0.870416  0.714154  1
  Ir  Ir33  1  0.500000  0.129310  0.715093  1
  Ir  Ir34  1  0.000000  0.630973  0.283979  1
  Ir  Ir35  1  0.000000  0.371077  0.285831  1
