# generated using pymatgen
data_Ca20PtAu15
_symmetry_space_group_name_H-M   'P 1'
_cell_length_a   7.93135400
_cell_length_b   8.01071436
_cell_length_c   15.43325300
_cell_angle_alpha   90.00000000
_cell_angle_beta   90.00000000
_cell_angle_gamma   89.71606313
_symmetry_Int_Tables_number   1
_chemical_formula_structural   Ca20PtAu15
_chemical_formula_sum   'Ca20 Pt1 Au15'
_cell_volume   980.55221171
_cell_formula_units_Z   1
loop_
 _symmetry_equiv_pos_site_id
 _symmetry_equiv_pos_as_xyz
  1  'x, y, z'
loop_
 _atom_site_type_symbol
 _atom_site_label
 _atom_site_symmetry_multiplicity
 _atom_site_fract_x
 _atom_site_fract_y
 _atom_site_fract_z
 _atom_site_occupancy
  Ca  Ca0  1  0.336091  0.830471  0.879916  1
  Ca  Ca1  1  0.835452  0.671054  0.619535  1
  Ca  Ca2  1  0.663712  0.167499  0.378435  1
  Ca  Ca3  1  0.166378  0.337485  0.123469  1
  Ca  Ca4  1  0.663712  0.167499  0.121565  1
  Ca  Ca5  1  0.166378  0.337485  0.376531  1
  Ca  Ca6  1  0.336091  0.830471  0.620084  1
  Ca  Ca7  1  0.835452  0.671054  0.880465  1
  Ca  Ca8  1  0.491452  0.322184  0.901570  1
  Ca  Ca9  1  0.991696  0.179505  0.596719  1
  Ca  Ca10  1  0.503042  0.677256  0.396804  1
  Ca  Ca11  1  0.015034  0.812624  0.104327  1
  Ca  Ca12  1  0.503042  0.677256  0.103196  1
  Ca  Ca13  1  0.015034  0.812624  0.395673  1
  Ca  Ca14  1  0.491452  0.322184  0.598430  1
  Ca  Ca15  1  0.991696  0.179505  0.903281  1
  Ca  Ca16  1  0.169968  0.490026  0.750000  1
  Ca  Ca17  1  0.670904  0.012241  0.750000  1
  Ca  Ca18  1  0.836508  0.508636  0.250000  1
  Ca  Ca19  1  0.326658  0.982089  0.250000  1
  Pt  Pt20  1  0.205007  0.631229  0.250000  1
  Au  Au21  1  0.329599  0.024235  0.046942  1
  Au  Au22  1  0.828638  0.475823  0.453446  1
  Au  Au23  1  0.666056  0.981410  0.547670  1
  Au  Au24  1  0.167491  0.521369  0.953207  1
  Au  Au25  1  0.666056  0.981410  0.952330  1
  Au  Au26  1  0.167491  0.521369  0.546793  1
  Au  Au27  1  0.329599  0.024235  0.453058  1
  Au  Au28  1  0.828638  0.475823  0.046554  1
  Au  Au29  1  0.536152  0.617092  0.750000  1
  Au  Au30  1  0.036354  0.883908  0.750000  1
  Au  Au31  1  0.466677  0.388143  0.250000  1
  Au  Au32  1  0.964578  0.116693  0.250000  1
  Au  Au33  1  0.295166  0.132252  0.750000  1
  Au  Au34  1  0.796889  0.369126  0.750000  1
  Au  Au35  1  0.705856  0.866738  0.250000  1
