# generated using pymatgen
data_KSbSe2O7
_symmetry_space_group_name_H-M   'P 1'
_cell_length_a   7.19245200
_cell_length_b   7.19245259
_cell_length_c   7.47021100
_cell_angle_alpha   90.00000000
_cell_angle_beta   90.00000000
_cell_angle_gamma   110.67871142
_symmetry_Int_Tables_number   1
_chemical_formula_structural   KSbSe2O7
_chemical_formula_sum   'K2 Sb2 Se4 O14'
_cell_volume   361.54769506
_cell_formula_units_Z   2
loop_
 _symmetry_equiv_pos_site_id
 _symmetry_equiv_pos_as_xyz
  1  'x, y, z'
loop_
 _atom_site_type_symbol
 _atom_site_label
 _atom_site_symmetry_multiplicity
 _atom_site_fract_x
 _atom_site_fract_y
 _atom_site_fract_z
 _atom_site_occupancy
  K  K0  1  0.980160  0.980160  0.361592  1
  K  K1  1  0.019840  0.019840  0.861592  1
  Sb  Sb2  1  0.503795  0.503795  0.881838  1
  Sb  Sb3  1  0.496205  0.496205  0.381838  1
  Se  Se4  1  0.538083  0.933815  0.629432  1
  Se  Se5  1  0.933815  0.538083  0.629432  1
  Se  Se6  1  0.461917  0.066185  0.129432  1
  Se  Se7  1  0.066185  0.461917  0.129432  1
  O  O8  1  0.558241  0.794407  0.825205  1
  O  O9  1  0.794407  0.558241  0.825205  1
  O  O10  1  0.441759  0.205593  0.325205  1
  O  O11  1  0.205593  0.441759  0.325205  1
  O  O12  1  0.548993  0.787919  0.435527  1
  O  O13  1  0.787919  0.548993  0.435527  1
  O  O14  1  0.451007  0.212081  0.935527  1
  O  O15  1  0.212081  0.451007  0.935527  1
  O  O16  1  0.769036  0.096412  0.623116  1
  O  O17  1  0.096412  0.769036  0.623116  1
  O  O18  1  0.230964  0.903588  0.123116  1
  O  O19  1  0.903588  0.230964  0.123116  1
  O  O20  1  0.411189  0.411189  0.632948  1
  O  O21  1  0.588811  0.588811  0.132948  1
