# generated using pymatgen
data_Tb4P7(IrRh3)2
_symmetry_space_group_name_H-M   'P 1'
_cell_length_a   3.94665100
_cell_length_b   12.66174579
_cell_length_c   13.10194468
_cell_angle_alpha   99.16585151
_cell_angle_beta   90.00000000
_cell_angle_gamma   90.00000000
_symmetry_Int_Tables_number   1
_chemical_formula_structural   Tb4P7(IrRh3)2
_chemical_formula_sum   'Tb8 P14 Ir4 Rh12'
_cell_volume   646.36380118
_cell_formula_units_Z   2
loop_
 _symmetry_equiv_pos_site_id
 _symmetry_equiv_pos_as_xyz
  1  'x, y, z'
loop_
 _atom_site_type_symbol
 _atom_site_label
 _atom_site_symmetry_multiplicity
 _atom_site_fract_x
 _atom_site_fract_y
 _atom_site_fract_z
 _atom_site_occupancy
  Tb  Tb0  1  0.750000  0.210729  0.562831  1
  Tb  Tb1  1  0.250000  0.789271  0.437169  1
  Tb  Tb2  1  0.750000  0.520133  0.707645  1
  Tb  Tb3  1  0.250000  0.479867  0.292355  1
  Tb  Tb4  1  0.750000  0.276900  0.897523  1
  Tb  Tb5  1  0.250000  0.723100  0.102477  1
  Tb  Tb6  1  0.750000  0.102604  0.211436  1
  Tb  Tb7  1  0.250000  0.897396  0.788564  1
  P  P8  1  0.750000  0.740691  0.923748  1
  P  P9  1  0.250000  0.259309  0.076252  1
  P  P10  1  0.750000  0.906716  0.587055  1
  P  P11  1  0.250000  0.093284  0.412945  1
  P  P12  1  0.750000  0.527182  0.129125  1
  P  P13  1  0.250000  0.472818  0.870875  1
  P  P14  1  0.750000  0.843596  0.283156  1
  P  P15  1  0.250000  0.156404  0.716844  1
  P  P16  1  0.750000  0.607080  0.434351  1
  P  P17  1  0.250000  0.392920  0.565649  1
  P  P18  1  0.750000  0.313529  0.310211  1
  P  P19  1  0.250000  0.686471  0.689789  1
  P  P20  1  0.750000  0.047976  0.898438  1
  P  P21  1  0.250000  0.952024  0.101562  1
  Ir  Ir22  1  0.750000  0.662978  0.269807  1
  Ir  Ir23  1  0.250000  0.337022  0.730193  1
  Ir  Ir24  1  0.750000  0.991073  0.423855  1
  Ir  Ir25  1  0.250000  0.008927  0.576145  1
  Rh  Rh26  1  0.750000  0.341412  0.139807  1
  Rh  Rh27  1  0.250000  0.658588  0.860193  1
  Rh  Rh28  1  0.750000  0.727647  0.604269  1
  Rh  Rh29  1  0.250000  0.272353  0.395731  1
  Rh  Rh30  1  0.750000  0.915337  0.003427  1
  Rh  Rh31  1  0.250000  0.084663  0.996573  1
  Rh  Rh32  1  0.750000  0.423771  0.473896  1
  Rh  Rh33  1  0.250000  0.576229  0.526104  1
  Rh  Rh34  1  0.750000  0.060215  0.726086  1
  Rh  Rh35  1  0.250000  0.939785  0.273914  1
  Rh  Rh36  1  0.750000  0.554355  0.955400  1
  Rh  Rh37  1  0.250000  0.445645  0.044600  1
