# generated using pymatgen
data_Ca11Yb(YSi2)8
_symmetry_space_group_name_H-M   'P 1'
_cell_length_a   7.45361502
_cell_length_b   7.83761002
_cell_length_c   15.19194900
_cell_angle_alpha   90.00000000
_cell_angle_beta   90.00000000
_cell_angle_gamma   90.00831825
_symmetry_Int_Tables_number   1
_chemical_formula_structural   Ca11Yb(YSi2)8
_chemical_formula_sum   'Ca11 Yb1 Y8 Si16'
_cell_volume   887.49128515
_cell_formula_units_Z   1
loop_
 _symmetry_equiv_pos_site_id
 _symmetry_equiv_pos_as_xyz
  1  'x, y, z'
loop_
 _atom_site_type_symbol
 _atom_site_label
 _atom_site_symmetry_multiplicity
 _atom_site_fract_x
 _atom_site_fract_y
 _atom_site_fract_z
 _atom_site_occupancy
  Ca  Ca0  1  0.970135  0.815490  0.403886  1
  Ca  Ca1  1  0.470673  0.684931  0.096183  1
  Ca  Ca2  1  0.529506  0.315315  0.596040  1
  Ca  Ca3  1  0.029483  0.184599  0.903994  1
  Ca  Ca4  1  0.029483  0.184599  0.596006  1
  Ca  Ca5  1  0.529506  0.315315  0.903960  1
  Ca  Ca6  1  0.470673  0.684931  0.403817  1
  Ca  Ca7  1  0.970135  0.815490  0.096114  1
  Ca  Ca8  1  0.354687  0.018932  0.750000  1
  Ca  Ca9  1  0.854631  0.481115  0.750000  1
  Ca  Ca10  1  0.145392  0.518903  0.250000  1
  Yb  Yb11  1  0.645513  0.980817  0.250000  1
  Y  Y12  1  0.313904  0.177129  0.121379  1
  Y  Y13  1  0.813277  0.322515  0.378604  1
  Y  Y14  1  0.186580  0.677097  0.878850  1
  Y  Y15  1  0.686580  0.823029  0.621159  1
  Y  Y16  1  0.313904  0.177129  0.378621  1
  Y  Y17  1  0.813277  0.322515  0.121396  1
  Y  Y18  1  0.186580  0.677097  0.621150  1
  Y  Y19  1  0.686580  0.823029  0.878841  1
  Si  Si20  1  0.859646  0.533569  0.538321  1
  Si  Si21  1  0.359654  0.966428  0.961634  1
  Si  Si22  1  0.640206  0.033318  0.461426  1
  Si  Si23  1  0.140332  0.466283  0.038444  1
  Si  Si24  1  0.140332  0.466283  0.461556  1
  Si  Si25  1  0.640206  0.033318  0.038574  1
  Si  Si26  1  0.359654  0.966428  0.538366  1
  Si  Si27  1  0.859646  0.533569  0.961679  1
  Si  Si28  1  0.978268  0.884496  0.750000  1
  Si  Si29  1  0.478267  0.615620  0.750000  1
  Si  Si30  1  0.521805  0.384440  0.250000  1
  Si  Si31  1  0.021796  0.115819  0.250000  1
  Si  Si32  1  0.249912  0.394866  0.750000  1
  Si  Si33  1  0.749875  0.105136  0.750000  1
  Si  Si34  1  0.249853  0.895209  0.250000  1
  Si  Si35  1  0.750050  0.605240  0.250000  1
