# generated using pymatgen
data_Sm5CoAuO12
_symmetry_space_group_name_H-M   'P 1'
_cell_length_a   6.96090576
_cell_length_b   6.96090479
_cell_length_c   7.45379000
_cell_angle_alpha   74.46546193
_cell_angle_beta   74.46545560
_cell_angle_gamma   50.29343078
_symmetry_Int_Tables_number   1
_chemical_formula_structural   Sm5CoAuO12
_chemical_formula_sum   'Sm5 Co1 Au1 O12'
_cell_volume   265.41638076
_cell_formula_units_Z   1
loop_
 _symmetry_equiv_pos_site_id
 _symmetry_equiv_pos_as_xyz
  1  'x, y, z'
loop_
 _atom_site_type_symbol
 _atom_site_label
 _atom_site_symmetry_multiplicity
 _atom_site_fract_x
 _atom_site_fract_y
 _atom_site_fract_z
 _atom_site_occupancy
  Sm  Sm0  1  0.310209  0.295958  0.357758  1
  Sm  Sm1  1  0.704042  0.689791  0.642242  1
  Sm  Sm2  1  0.693929  0.695278  0.164418  1
  Sm  Sm3  1  0.304722  0.306071  0.835582  1
  Sm  Sm4  1  0.998215  0.001785  0.500000  1
  Co  Co5  1  0.749974  0.250026  0.000000  1
  Au  Au6  1  0.242150  0.757850  0.000000  1
  O  O7  1  0.100496  0.595760  0.575592  1
  O  O8  1  0.980625  0.018021  0.175757  1
  O  O9  1  0.404240  0.899504  0.424408  1
  O  O10  1  0.509279  0.490348  0.176181  1
  O  O11  1  0.094668  0.571879  0.082495  1
  O  O12  1  0.906446  0.400321  0.424017  1
  O  O13  1  0.981979  0.019375  0.824243  1
  O  O14  1  0.599679  0.093553  0.575983  1
  O  O15  1  0.509652  0.490721  0.823819  1
  O  O16  1  0.584453  0.102880  0.078050  1
  O  O17  1  0.428121  0.905332  0.917505  1
  O  O18  1  0.897120  0.415547  0.921950  1
