# generated using pymatgen
data_Tb2Co4P6Ir5Rh
_symmetry_space_group_name_H-M   'P 1'
_cell_length_a   3.86322900
_cell_length_b   10.57731000
_cell_length_c   12.23399300
_cell_angle_alpha   90.00000000
_cell_angle_beta   90.00000000
_cell_angle_gamma   90.00000000
_symmetry_Int_Tables_number   1
_chemical_formula_structural   Tb2Co4P6Ir5Rh
_chemical_formula_sum   'Tb4 Co8 P12 Ir10 Rh2'
_cell_volume   499.91240432
_cell_formula_units_Z   2
loop_
 _symmetry_equiv_pos_site_id
 _symmetry_equiv_pos_as_xyz
  1  'x, y, z'
loop_
 _atom_site_type_symbol
 _atom_site_label
 _atom_site_symmetry_multiplicity
 _atom_site_fract_x
 _atom_site_fract_y
 _atom_site_fract_z
 _atom_site_occupancy
  Tb  Tb0  1  0.250000  0.583909  0.711480  1
  Tb  Tb1  1  0.250000  0.916091  0.211480  1
  Tb  Tb2  1  0.750000  0.416643  0.289623  1
  Tb  Tb3  1  0.750000  0.083357  0.789623  1
  Co  Co4  1  0.250000  0.882698  0.696657  1
  Co  Co5  1  0.250000  0.617302  0.196657  1
  Co  Co6  1  0.750000  0.117480  0.303423  1
  Co  Co7  1  0.750000  0.382520  0.803423  1
  Co  Co8  1  0.250000  0.461799  0.934145  1
  Co  Co9  1  0.250000  0.038201  0.434145  1
  Co  Co10  1  0.750000  0.535492  0.066810  1
  Co  Co11  1  0.750000  0.964508  0.566810  1
  P  P12  1  0.250000  0.433399  0.110898  1
  P  P13  1  0.250000  0.066601  0.610898  1
  P  P14  1  0.750000  0.568360  0.889940  1
  P  P15  1  0.750000  0.931640  0.389940  1
  P  P16  1  0.250000  0.273934  0.869440  1
  P  P17  1  0.250000  0.226066  0.369440  1
  P  P18  1  0.750000  0.726010  0.129576  1
  P  P19  1  0.750000  0.773990  0.629576  1
  P  P20  1  0.250000  0.599920  0.378044  1
  P  P21  1  0.250000  0.900080  0.878044  1
  P  P22  1  0.750000  0.401153  0.622848  1
  P  P23  1  0.750000  0.098847  0.122848  1
  Ir  Ir24  1  0.750000  0.278128  0.009261  1
  Ir  Ir25  1  0.750000  0.221872  0.509261  1
  Ir  Ir26  1  0.250000  0.409653  0.475918  1
  Ir  Ir27  1  0.250000  0.090347  0.975918  1
  Ir  Ir28  1  0.750000  0.589394  0.523521  1
  Ir  Ir29  1  0.750000  0.910606  0.023521  1
  Ir  Ir30  1  0.250000  0.226985  0.177919  1
  Ir  Ir31  1  0.250000  0.273015  0.677919  1
  Ir  Ir32  1  0.750000  0.774046  0.820920  1
  Ir  Ir33  1  0.750000  0.725954  0.320920  1
  Rh  Rh34  1  0.250000  0.721099  0.989577  1
  Rh  Rh35  1  0.250000  0.778901  0.489577  1
