# generated using pymatgen
data_Er4Tm8Tc3Rh
_symmetry_space_group_name_H-M   'P 1'
_cell_length_a   6.22558206
_cell_length_b   7.33472432
_cell_length_c   9.02571300
_cell_angle_alpha   90.00000000
_cell_angle_beta   90.00000000
_cell_angle_gamma   89.90302613
_symmetry_Int_Tables_number   1
_chemical_formula_structural   Er4Tm8Tc3Rh
_chemical_formula_sum   'Er4 Tm8 Tc3 Rh1'
_cell_volume   412.13989409
_cell_formula_units_Z   1
loop_
 _symmetry_equiv_pos_site_id
 _symmetry_equiv_pos_as_xyz
  1  'x, y, z'
loop_
 _atom_site_type_symbol
 _atom_site_label
 _atom_site_symmetry_multiplicity
 _atom_site_fract_x
 _atom_site_fract_y
 _atom_site_fract_z
 _atom_site_occupancy
  Er  Er0  1  0.876560  0.961864  0.750000  1
  Er  Er1  1  0.370041  0.541850  0.250000  1
  Er  Er2  1  0.625620  0.459736  0.750000  1
  Er  Er3  1  0.126688  0.040703  0.250000  1
  Tm  Tm4  1  0.662128  0.173962  0.060829  1
  Tm  Tm5  1  0.167523  0.322985  0.934898  1
  Tm  Tm6  1  0.837400  0.678833  0.438989  1
  Tm  Tm7  1  0.337449  0.823971  0.562750  1
  Tm  Tm8  1  0.337449  0.823971  0.937250  1
  Tm  Tm9  1  0.837400  0.678833  0.061011  1
  Tm  Tm10  1  0.167523  0.322985  0.565102  1
  Tm  Tm11  1  0.662128  0.173962  0.439171  1
  Tc  Tc12  1  0.038242  0.613159  0.750000  1
  Tc  Tc13  1  0.539741  0.883616  0.250000  1
  Tc  Tc14  1  0.459532  0.115463  0.750000  1
  Rh  Rh15  1  0.954577  0.384105  0.250000  1
