# generated using pymatgen
data_TmLu2(ZnAu)3
_symmetry_space_group_name_H-M   'P 1'
_cell_length_a   7.49840600
_cell_length_b   7.52282929
_cell_length_c   3.70576200
_cell_angle_alpha   90.00000000
_cell_angle_beta   90.00000000
_cell_angle_gamma   119.89265398
_symmetry_Int_Tables_number   1
_chemical_formula_structural   TmLu2(ZnAu)3
_chemical_formula_sum   'Tm1 Lu2 Zn3 Au3'
_cell_volume   181.22873951
_cell_formula_units_Z   1
loop_
 _symmetry_equiv_pos_site_id
 _symmetry_equiv_pos_as_xyz
  1  'x, y, z'
loop_
 _atom_site_type_symbol
 _atom_site_label
 _atom_site_symmetry_multiplicity
 _atom_site_fract_x
 _atom_site_fract_y
 _atom_site_fract_z
 _atom_site_occupancy
  Tm  Tm0  1  0.598306  0.000000  0.000000  1
  Lu  Lu1  1  0.401397  0.401506  0.000000  1
  Lu  Lu2  1  0.999891  0.598493  0.000000  1
  Zn  Zn3  1  0.264593  0.000000  0.499999  1
  Zn  Zn4  1  0.000597  0.265373  0.499999  1
  Zn  Zn5  1  0.735224  0.734627  0.499999  1
  Au  Au6  1  0.000606  0.000000  0.000000  1
  Au  Au7  1  0.667059  0.334736  0.499999  1
  Au  Au8  1  0.332324  0.665264  0.499999  1
