# generated using pymatgen
data_TbPrYIrO7
_symmetry_space_group_name_H-M   'P 1'
_cell_length_a   6.50788326
_cell_length_b   6.49244883
_cell_length_c   7.54076200
_cell_angle_alpha   90.00000000
_cell_angle_beta   90.00000000
_cell_angle_gamma   109.83213981
_symmetry_Int_Tables_number   1
_chemical_formula_structural   TbPrYIrO7
_chemical_formula_sum   'Tb2 Pr2 Y2 Ir2 O14'
_cell_volume   299.71627816
_cell_formula_units_Z   2
loop_
 _symmetry_equiv_pos_site_id
 _symmetry_equiv_pos_as_xyz
  1  'x, y, z'
loop_
 _atom_site_type_symbol
 _atom_site_label
 _atom_site_symmetry_multiplicity
 _atom_site_fract_x
 _atom_site_fract_y
 _atom_site_fract_z
 _atom_site_occupancy
  Tb  Tb0  1  0.484254  0.935916  0.750000  1
  Tb  Tb1  1  0.515746  0.064084  0.250000  1
  Pr  Pr2  1  0.000000  0.000000  0.000000  1
  Pr  Pr3  1  0.000000  0.000000  0.500000  1
  Y  Y4  1  0.937655  0.484729  0.750000  1
  Y  Y5  1  0.062345  0.515271  0.250000  1
  Ir  Ir6  1  0.500000  0.500000  0.000000  1
  Ir  Ir7  1  0.500000  0.500000  0.500000  1
  O  O8  1  0.589384  0.589393  0.750000  1
  O  O9  1  0.410616  0.410607  0.250000  1
  O  O10  1  0.840277  0.121533  0.750000  1
  O  O11  1  0.159723  0.878467  0.250000  1
  O  O12  1  0.120332  0.840167  0.750000  1
  O  O13  1  0.879668  0.159833  0.250000  1
  O  O14  1  0.439219  0.181257  0.966001  1
  O  O15  1  0.560781  0.818743  0.466001  1
  O  O16  1  0.181200  0.439390  0.966541  1
  O  O17  1  0.818800  0.560610  0.466541  1
  O  O18  1  0.439219  0.181257  0.533999  1
  O  O19  1  0.560781  0.818743  0.033999  1
  O  O20  1  0.818800  0.560610  0.033459  1
  O  O21  1  0.181200  0.439390  0.533459  1
