# generated using pymatgen
data_Ho5Cd2(InNi)2
_symmetry_space_group_name_H-M   'P 1'
_cell_length_a   7.87449100
_cell_length_b   18.07398700
_cell_length_c   3.58526000
_cell_angle_alpha   90.00000000
_cell_angle_beta   90.00000000
_cell_angle_gamma   90.00000000
_symmetry_Int_Tables_number   1
_chemical_formula_structural   Ho5Cd2(InNi)2
_chemical_formula_sum   'Ho10 Cd4 In4 Ni4'
_cell_volume   510.26656505
_cell_formula_units_Z   2
loop_
 _symmetry_equiv_pos_site_id
 _symmetry_equiv_pos_as_xyz
  1  'x, y, z'
loop_
 _atom_site_type_symbol
 _atom_site_label
 _atom_site_symmetry_multiplicity
 _atom_site_fract_x
 _atom_site_fract_y
 _atom_site_fract_z
 _atom_site_occupancy
  Ho  Ho0  1  0.500000  0.500000  0.000000  1
  Ho  Ho1  1  0.000000  0.000000  0.000000  1
  Ho  Ho2  1  0.758857  0.278728  0.000000  1
  Ho  Ho3  1  0.241143  0.721272  0.000000  1
  Ho  Ho4  1  0.741143  0.778728  0.000000  1
  Ho  Ho5  1  0.258857  0.221272  0.000000  1
  Ho  Ho6  1  0.618468  0.089478  0.000000  1
  Ho  Ho7  1  0.381532  0.910522  0.000000  1
  Ho  Ho8  1  0.881532  0.589478  0.000000  1
  Ho  Ho9  1  0.118468  0.410522  0.000000  1
  Cd  Cd10  1  0.705517  0.930668  0.500000  1
  Cd  Cd11  1  0.294483  0.069332  0.500000  1
  Cd  Cd12  1  0.794483  0.430668  0.500000  1
  Cd  Cd13  1  0.205517  0.569332  0.500000  1
  In  In14  1  0.562178  0.650449  0.500000  1
  In  In15  1  0.437822  0.349551  0.500000  1
  In  In16  1  0.937822  0.150449  0.500000  1
  In  In17  1  0.062178  0.849551  0.500000  1
  Ni  Ni18  1  0.536206  0.197177  0.500000  1
  Ni  Ni19  1  0.463794  0.802823  0.500000  1
  Ni  Ni20  1  0.963794  0.697177  0.500000  1
  Ni  Ni21  1  0.036206  0.302823  0.500000  1
