# generated using pymatgen
data_Mn3In2Rh6Pb
_symmetry_space_group_name_H-M   'P 1'
_cell_length_a   4.49477400
_cell_length_b   6.30154800
_cell_length_c   13.50808601
_cell_angle_alpha   90.00010970
_cell_angle_beta   89.99945990
_cell_angle_gamma   90.00002184
_symmetry_Int_Tables_number   1
_chemical_formula_structural   Mn3In2Rh6Pb
_chemical_formula_sum   'Mn6 In4 Rh12 Pb2'
_cell_volume   382.60348903
_cell_formula_units_Z   2
loop_
 _symmetry_equiv_pos_site_id
 _symmetry_equiv_pos_as_xyz
  1  'x, y, z'
loop_
 _atom_site_type_symbol
 _atom_site_label
 _atom_site_symmetry_multiplicity
 _atom_site_fract_x
 _atom_site_fract_y
 _atom_site_fract_z
 _atom_site_occupancy
  Mn  Mn0  1  0.000000  0.000003  0.997176  1
  Mn  Mn1  1  0.500022  0.499998  0.169490  1
  Mn  Mn2  1  0.000017  0.000003  0.336947  1
  Mn  Mn3  1  0.500000  0.499998  0.500707  1
  Mn  Mn4  1  0.999988  0.000003  0.665961  1
  Mn  Mn5  1  0.499974  0.499997  0.829756  1
  In  In6  1  0.000011  0.500009  0.335062  1
  In  In7  1  0.500002  0.999990  0.500709  1
  In  In8  1  0.999984  0.500009  0.665893  1
  In  In9  1  0.499993  0.999991  0.831559  1
  Rh  Rh10  1  0.500000  0.247568  0.999272  1
  Rh  Rh11  1  0.500000  0.752432  0.999271  1
  Rh  Rh12  1  0.000018  0.252404  0.167407  1
  Rh  Rh13  1  0.000019  0.747595  0.167408  1
  Rh  Rh14  1  0.500016  0.252002  0.334102  1
  Rh  Rh15  1  0.500014  0.747998  0.334104  1
  Rh  Rh16  1  0.000002  0.249230  0.499930  1
  Rh  Rh17  1  0.000002  0.750770  0.499932  1
  Rh  Rh18  1  0.499980  0.250761  0.666743  1
  Rh  Rh19  1  0.499980  0.749240  0.666742  1
  Rh  Rh20  1  0.999986  0.248013  0.832580  1
  Rh  Rh21  1  0.999985  0.751986  0.832578  1
  Pb  Pb22  1  0.000002  0.500004  0.998653  1
  Pb  Pb23  1  0.500011  0.999996  0.168017  1
