# generated using pymatgen
data_Tb6Zn4IrPd12
_symmetry_space_group_name_H-M   'P 1'
_cell_length_a   8.25965544
_cell_length_b   8.25965626
_cell_length_c   8.25965700
_cell_angle_alpha   109.47121509
_cell_angle_beta   109.47121710
_cell_angle_gamma   109.47122910
_symmetry_Int_Tables_number   1
_chemical_formula_structural   Tb6Zn4IrPd12
_chemical_formula_sum   'Tb6 Zn4 Ir1 Pd12'
_cell_volume   433.77451184
_cell_formula_units_Z   1
loop_
 _symmetry_equiv_pos_site_id
 _symmetry_equiv_pos_as_xyz
  1  'x, y, z'
loop_
 _atom_site_type_symbol
 _atom_site_label
 _atom_site_symmetry_multiplicity
 _atom_site_fract_x
 _atom_site_fract_y
 _atom_site_fract_z
 _atom_site_occupancy
  Tb  Tb0  1  0.705206  0.705206  0.000000  1
  Tb  Tb1  1  0.294794  0.000000  0.294794  1
  Tb  Tb2  1  0.000000  0.294794  0.294794  1
  Tb  Tb3  1  0.294794  0.294794  0.000000  1
  Tb  Tb4  1  0.705206  0.000000  0.705206  1
  Tb  Tb5  1  0.000000  0.705206  0.705206  1
  Zn  Zn6  1  0.000000  0.000000  0.500000  1
  Zn  Zn7  1  0.000000  0.500000  0.000000  1
  Zn  Zn8  1  0.500000  0.000000  0.000000  1
  Zn  Zn9  1  0.500000  0.500000  0.500000  1
  Ir  Ir10  1  0.000000  0.000000  0.000000  1
  Pd  Pd11  1  0.334352  0.334352  0.668705  1
  Pd  Pd12  1  0.665648  0.000000  0.334352  1
  Pd  Pd13  1  0.000000  0.665648  0.334352  1
  Pd  Pd14  1  0.665648  0.334352  0.000000  1
  Pd  Pd15  1  0.334352  0.668705  0.334352  1
  Pd  Pd16  1  0.000000  0.334352  0.665648  1
  Pd  Pd17  1  0.334352  0.665648  0.000000  1
  Pd  Pd18  1  0.334352  0.000000  0.665648  1
  Pd  Pd19  1  0.668705  0.334352  0.334352  1
  Pd  Pd20  1  0.665648  0.665648  0.331295  1
  Pd  Pd21  1  0.665648  0.331295  0.665648  1
  Pd  Pd22  1  0.331295  0.665648  0.665648  1
