# generated using pymatgen
data_Li8Hf3ReBr24
_symmetry_space_group_name_H-M   'P 1'
_cell_length_a   6.73195200
_cell_length_b   6.73195298
_cell_length_c   28.19443500
_cell_angle_alpha   90.00000000
_cell_angle_beta   90.00000000
_cell_angle_gamma   120.00000503
_symmetry_Int_Tables_number   1
_chemical_formula_structural   Li8Hf3ReBr24
_chemical_formula_sum   'Li8 Hf3 Re1 Br24'
_cell_volume   1106.56286115
_cell_formula_units_Z   1
loop_
 _symmetry_equiv_pos_site_id
 _symmetry_equiv_pos_as_xyz
  1  'x, y, z'
loop_
 _atom_site_type_symbol
 _atom_site_label
 _atom_site_symmetry_multiplicity
 _atom_site_fract_x
 _atom_site_fract_y
 _atom_site_fract_z
 _atom_site_occupancy
  Li  Li0  1  0.000000  0.000000  0.249399  1
  Li  Li1  1  0.000000  0.000000  0.750601  1
  Li  Li2  1  0.333333  0.666667  0.999517  1
  Li  Li3  1  0.333333  0.666667  0.500452  1
  Li  Li4  1  0.333333  0.666667  0.249680  1
  Li  Li5  1  0.666667  0.333333  0.750320  1
  Li  Li6  1  0.666667  0.333333  0.000483  1
  Li  Li7  1  0.666667  0.333333  0.499548  1
  Hf  Hf8  1  0.000000  0.000000  0.500000  1
  Hf  Hf9  1  0.333333  0.666667  0.750734  1
  Hf  Hf10  1  0.666667  0.333333  0.249266  1
  Re  Re11  1  0.000000  0.000000  0.000000  1
  Br  Br12  1  0.347875  0.014872  0.303226  1
  Br  Br13  1  0.334614  0.985944  0.804708  1
  Br  Br14  1  0.000868  0.308627  0.051985  1
  Br  Br15  1  0.998769  0.317966  0.553969  1
  Br  Br16  1  0.985128  0.333004  0.303226  1
  Br  Br17  1  0.014056  0.348669  0.804708  1
  Br  Br18  1  0.348669  0.334614  0.195292  1
  Br  Br19  1  0.333004  0.347875  0.696774  1
  Br  Br20  1  0.317966  0.319196  0.446031  1
  Br  Br21  1  0.308627  0.307760  0.948015  1
  Br  Br22  1  0.680804  0.998769  0.446031  1
  Br  Br23  1  0.307760  0.999132  0.051985  1
  Br  Br24  1  0.319196  0.001231  0.553969  1
  Br  Br25  1  0.691373  0.692240  0.051985  1
  Br  Br26  1  0.682034  0.680804  0.553969  1
  Br  Br27  1  0.666996  0.652125  0.303226  1
  Br  Br28  1  0.651331  0.665386  0.804708  1
  Br  Br29  1  0.985944  0.651331  0.195292  1
  Br  Br30  1  0.014872  0.666996  0.696774  1
  Br  Br31  1  0.001231  0.682034  0.446031  1
  Br  Br32  1  0.999132  0.691373  0.948015  1
  Br  Br33  1  0.692240  0.000868  0.948015  1
  Br  Br34  1  0.665386  0.014056  0.195292  1
  Br  Br35  1  0.652125  0.985128  0.696774  1
