# generated using pymatgen
data_TbTh3Al4(Ga7Ir3)2
_symmetry_space_group_name_H-M   'P 1'
_cell_length_a   7.67646901
_cell_length_b   7.68715016
_cell_length_c   9.50651700
_cell_angle_alpha   90.00000000
_cell_angle_beta   90.00000000
_cell_angle_gamma   119.72006508
_symmetry_Int_Tables_number   1
_chemical_formula_structural   TbTh3Al4(Ga7Ir3)2
_chemical_formula_sum   'Tb1 Th3 Al4 Ga14 Ir6'
_cell_volume   487.18856959
_cell_formula_units_Z   1
loop_
 _symmetry_equiv_pos_site_id
 _symmetry_equiv_pos_as_xyz
  1  'x, y, z'
loop_
 _atom_site_type_symbol
 _atom_site_label
 _atom_site_symmetry_multiplicity
 _atom_site_fract_x
 _atom_site_fract_y
 _atom_site_fract_z
 _atom_site_occupancy
  Tb  Tb0  1  0.329104  0.001903  0.750000  1
  Th  Th1  1  0.998184  0.670167  0.250000  1
  Th  Th2  1  0.000299  0.330100  0.750000  1
  Th  Th3  1  0.669730  0.997664  0.250000  1
  Al  Al4  1  0.335050  0.331622  0.555131  1
  Al  Al5  1  0.664373  0.664257  0.450474  1
  Al  Al6  1  0.664373  0.664257  0.049526  1
  Al  Al7  1  0.335050  0.331622  0.944869  1
  Ga  Ga8  1  0.135299  0.132457  0.250000  1
  Ga  Ga9  1  0.871914  0.869894  0.750000  1
  Ga  Ga10  1  0.004946  0.335163  0.078815  1
  Ga  Ga11  1  0.001112  0.670230  0.918708  1
  Ga  Ga12  1  0.001112  0.670230  0.581292  1
  Ga  Ga13  1  0.335060  0.003587  0.426936  1
  Ga  Ga14  1  0.004946  0.335163  0.421185  1
  Ga  Ga15  1  0.659432  0.996011  0.581359  1
  Ga  Ga16  1  0.659432  0.996011  0.918641  1
  Ga  Ga17  1  0.335060  0.003587  0.073064  1
  Ga  Ga18  1  0.348802  0.546206  0.250000  1
  Ga  Ga19  1  0.649013  0.447700  0.750000  1
  Ga  Ga20  1  0.546030  0.345738  0.250000  1
  Ga  Ga21  1  0.452365  0.655848  0.750000  1
  Ir  Ir22  1  0.672808  0.331951  0.000477  1
  Ir  Ir23  1  0.329340  0.668202  0.000613  1
  Ir  Ir24  1  0.329340  0.668202  0.499387  1
  Ir  Ir25  1  0.672808  0.331951  0.499523  1
  Ir  Ir26  1  0.997508  0.000141  0.000991  1
  Ir  Ir27  1  0.997508  0.000141  0.499009  1
