# generated using pymatgen
data_Lu12Ni4BiIr
_symmetry_space_group_name_H-M   'P 1'
_cell_length_a   8.15375062
_cell_length_b   8.15375196
_cell_length_c   8.15374900
_cell_angle_alpha   111.47902768
_cell_angle_beta   110.77177234
_cell_angle_gamma   106.21203122
_symmetry_Int_Tables_number   1
_chemical_formula_structural   Lu12Ni4BiIr
_chemical_formula_sum   'Lu12 Ni4 Bi1 Ir1'
_cell_volume   416.27977860
_cell_formula_units_Z   1
loop_
 _symmetry_equiv_pos_site_id
 _symmetry_equiv_pos_as_xyz
  1  'x, y, z'
loop_
 _atom_site_type_symbol
 _atom_site_label
 _atom_site_symmetry_multiplicity
 _atom_site_fract_x
 _atom_site_fract_y
 _atom_site_fract_z
 _atom_site_occupancy
  Lu  Lu0  1  0.412885  0.217859  0.195026  1
  Lu  Lu1  1  0.587115  0.782141  0.804974  1
  Lu  Lu2  1  0.022833  0.217859  0.804974  1
  Lu  Lu3  1  0.977167  0.782141  0.195026  1
  Lu  Lu4  1  0.178722  0.282544  0.461266  1
  Lu  Lu5  1  0.821278  0.717456  0.538734  1
  Lu  Lu6  1  0.178722  0.717456  0.896177  1
  Lu  Lu7  1  0.821278  0.282544  0.103823  1
  Lu  Lu8  1  0.318719  0.627246  0.308527  1
  Lu  Lu9  1  0.681281  0.372754  0.691473  1
  Lu  Lu10  1  0.318719  0.010191  0.691473  1
  Lu  Lu11  1  0.681281  0.989809  0.308527  1
  Ni  Ni12  1  0.359169  0.000000  0.359169  1
  Ni  Ni13  1  0.640831  0.000000  0.640831  1
  Ni  Ni14  1  0.121300  0.621300  0.500000  1
  Ni  Ni15  1  0.878700  0.378700  0.500000  1
  Bi  Bi16  1  0.500000  0.500000  0.000000  1
  Ir  Ir17  1  0.000000  0.000000  0.000000  1
