# generated using pymatgen
data_AcSeI
_symmetry_space_group_name_H-M   'P 1'
_cell_length_a   7.60575400
_cell_length_b   7.84705600
_cell_length_c   15.35259300
_cell_angle_alpha   90.00000000
_cell_angle_beta   90.00000000
_cell_angle_gamma   90.00000000
_symmetry_Int_Tables_number   1
_chemical_formula_structural   AcSeI
_chemical_formula_sum   'Ac8 Se8 I8'
_cell_volume   916.28539299
_cell_formula_units_Z   8
loop_
 _symmetry_equiv_pos_site_id
 _symmetry_equiv_pos_as_xyz
  1  'x, y, z'
loop_
 _atom_site_type_symbol
 _atom_site_label
 _atom_site_symmetry_multiplicity
 _atom_site_fract_x
 _atom_site_fract_y
 _atom_site_fract_z
 _atom_site_occupancy
  Ac  Ac0  1  0.259205  0.968229  0.910230  1
  Ac  Ac1  1  0.740795  0.031771  0.089770  1
  Ac  Ac2  1  0.240795  0.468229  0.089770  1
  Ac  Ac3  1  0.740795  0.531771  0.410230  1
  Ac  Ac4  1  0.759205  0.531771  0.910230  1
  Ac  Ac5  1  0.259205  0.468229  0.589770  1
  Ac  Ac6  1  0.759205  0.031771  0.589770  1
  Ac  Ac7  1  0.240795  0.968229  0.410230  1
  Se  Se8  1  0.998968  0.741639  0.524042  1
  Se  Se9  1  0.001032  0.258361  0.475958  1
  Se  Se10  1  0.501032  0.241639  0.475958  1
  Se  Se11  1  0.001032  0.758361  0.024042  1
  Se  Se12  1  0.498968  0.758361  0.524042  1
  Se  Se13  1  0.998968  0.241639  0.975958  1
  Se  Se14  1  0.498968  0.258361  0.975958  1
  Se  Se15  1  0.501032  0.741639  0.024042  1
  I  I16  1  0.178976  0.595680  0.799539  1
  I  I17  1  0.821024  0.404320  0.200461  1
  I  I18  1  0.321024  0.095680  0.200461  1
  I  I19  1  0.821024  0.904320  0.299539  1
  I  I20  1  0.678976  0.904320  0.799539  1
  I  I21  1  0.178976  0.095680  0.700461  1
  I  I22  1  0.678976  0.404320  0.700461  1
  I  I23  1  0.321024  0.595680  0.299539  1
