# generated using pymatgen
data_Tb2ErGa6Co8Cu
_symmetry_space_group_name_H-M   'P 1'
_cell_length_a   4.06687000
_cell_length_b   8.79079405
_cell_length_c   8.79079424
_cell_angle_alpha   59.25141440
_cell_angle_beta   90.00000000
_cell_angle_gamma   90.00000000
_symmetry_Int_Tables_number   1
_chemical_formula_structural   Tb2ErGa6Co8Cu
_chemical_formula_sum   'Tb2 Er1 Ga6 Co8 Cu1'
_cell_volume   270.09806809
_cell_formula_units_Z   1
loop_
 _symmetry_equiv_pos_site_id
 _symmetry_equiv_pos_as_xyz
  1  'x, y, z'
loop_
 _atom_site_type_symbol
 _atom_site_label
 _atom_site_symmetry_multiplicity
 _atom_site_fract_x
 _atom_site_fract_y
 _atom_site_fract_z
 _atom_site_occupancy
  Tb  Tb0  1  0.500000  0.332256  0.330209  1
  Tb  Tb1  1  0.500000  0.669791  0.667744  1
  Er  Er2  1  0.000000  0.001568  0.998432  1
  Ga  Ga3  1  0.000000  0.494681  0.505319  1
  Ga  Ga4  1  0.000000  0.504257  0.001860  1
  Ga  Ga5  1  0.000000  0.998140  0.495743  1
  Ga  Ga6  1  0.500000  0.729505  0.270495  1
  Ga  Ga7  1  0.500000  0.272558  0.002428  1
  Ga  Ga8  1  0.500000  0.997572  0.727442  1
  Co  Co9  1  0.000000  0.178437  0.179851  1
  Co  Co10  1  0.000000  0.178105  0.633853  1
  Co  Co11  1  0.000000  0.640591  0.181177  1
  Co  Co12  1  0.000000  0.820149  0.821563  1
  Co  Co13  1  0.000000  0.366147  0.821895  1
  Co  Co14  1  0.000000  0.818823  0.359409  1
  Co  Co15  1  0.500000  0.702143  0.002101  1
  Co  Co16  1  0.500000  0.997899  0.297857  1
  Cu  Cu17  1  0.500000  0.297279  0.702721  1
