# generated using pymatgen
data_Dy2U(SnRu)3
_symmetry_space_group_name_H-M   'P 1'
_cell_length_a   7.81605300
_cell_length_b   7.41103505
_cell_length_c   3.85186100
_cell_angle_alpha   90.00000000
_cell_angle_beta   90.00000000
_cell_angle_gamma   121.82491106
_symmetry_Int_Tables_number   1
_chemical_formula_structural   Dy2U(SnRu)3
_chemical_formula_sum   'Dy2 U1 Sn3 Ru3'
_cell_volume   189.57625209
_cell_formula_units_Z   1
loop_
 _symmetry_equiv_pos_site_id
 _symmetry_equiv_pos_as_xyz
  1  'x, y, z'
loop_
 _atom_site_type_symbol
 _atom_site_label
 _atom_site_symmetry_multiplicity
 _atom_site_fract_x
 _atom_site_fract_y
 _atom_site_fract_z
 _atom_site_occupancy
  Dy  Dy0  1  0.003116  0.406089  0.500000  1
  Dy  Dy1  1  0.597026  0.593911  0.500000  1
  U  U2  1  0.414727  0.000000  0.500000  1
  Sn  Sn3  1  0.985319  0.724919  0.000000  1
  Sn  Sn4  1  0.260400  0.275081  0.000000  1
  Sn  Sn5  1  0.760334  0.000000  0.000000  1
  Ru  Ru6  1  0.342513  0.720980  0.000000  1
  Ru  Ru7  1  0.621534  0.279020  0.000000  1
  Ru  Ru8  1  0.015031  0.000000  0.500000  1
