# generated using pymatgen
data_Sr7Eu5(AlSb3)4
_symmetry_space_group_name_H-M   'P 1'
_cell_length_a   4.73343100
_cell_length_b   13.68787456
_cell_length_c   15.10808500
_cell_angle_alpha   90.01640446
_cell_angle_beta   90.00000000
_cell_angle_gamma   90.00000000
_symmetry_Int_Tables_number   1
_chemical_formula_structural   Sr7Eu5(AlSb3)4
_chemical_formula_sum   'Sr7 Eu5 Al4 Sb12'
_cell_volume   978.86199951
_cell_formula_units_Z   1
loop_
 _symmetry_equiv_pos_site_id
 _symmetry_equiv_pos_as_xyz
  1  'x, y, z'
loop_
 _atom_site_type_symbol
 _atom_site_label
 _atom_site_symmetry_multiplicity
 _atom_site_fract_x
 _atom_site_fract_y
 _atom_site_fract_z
 _atom_site_occupancy
  Sr  Sr0  1  0.250000  0.063066  0.890560  1
  Sr  Sr1  1  0.750000  0.936914  0.108963  1
  Sr  Sr2  1  0.250000  0.563945  0.610043  1
  Sr  Sr3  1  0.750000  0.437661  0.390688  1
  Sr  Sr4  1  0.250000  0.854462  0.495948  1
  Sr  Sr5  1  0.750000  0.144046  0.504028  1
  Sr  Sr6  1  0.250000  0.356464  0.004695  1
  Eu  Eu7  1  0.750000  0.641870  0.996914  1
  Eu  Eu8  1  0.750000  0.225103  0.220855  1
  Eu  Eu9  1  0.250000  0.774660  0.780563  1
  Eu  Eu10  1  0.750000  0.723666  0.276292  1
  Eu  Eu11  1  0.250000  0.276292  0.722292  1
  Al  Al12  1  0.250000  0.067110  0.295335  1
  Al  Al13  1  0.750000  0.932328  0.705122  1
  Al  Al14  1  0.250000  0.566960  0.201113  1
  Al  Al15  1  0.750000  0.434106  0.798642  1
  Sb  Sb16  1  0.250000  0.247865  0.377243  1
  Sb  Sb17  1  0.750000  0.751973  0.623335  1
  Sb  Sb18  1  0.250000  0.746698  0.117267  1
  Sb  Sb19  1  0.750000  0.252255  0.878490  1
  Sb  Sb20  1  0.250000  0.111681  0.114810  1
  Sb  Sb21  1  0.750000  0.887359  0.886176  1
  Sb  Sb22  1  0.250000  0.611785  0.383051  1
  Sb  Sb23  1  0.750000  0.389746  0.616751  1
  Sb  Sb24  1  0.250000  0.036036  0.658419  1
  Sb  Sb25  1  0.750000  0.963301  0.341659  1
  Sb  Sb26  1  0.250000  0.537748  0.844578  1
  Sb  Sb27  1  0.750000  0.464899  0.156168  1
