# generated using pymatgen
data_Ho4Sc8Co5Bi
_symmetry_space_group_name_H-M   'P 1'
_cell_length_a   7.92046386
_cell_length_b   7.92046405
_cell_length_c   7.92046394
_cell_angle_alpha   111.23601902
_cell_angle_beta   110.32857084
_cell_angle_gamma   106.88107535
_symmetry_Int_Tables_number   1
_chemical_formula_structural   Ho4Sc8Co5Bi
_chemical_formula_sum   'Ho4 Sc8 Co5 Bi1'
_cell_volume   381.89062055
_cell_formula_units_Z   1
loop_
 _symmetry_equiv_pos_site_id
 _symmetry_equiv_pos_as_xyz
  1  'x, y, z'
loop_
 _atom_site_type_symbol
 _atom_site_label
 _atom_site_symmetry_multiplicity
 _atom_site_fract_x
 _atom_site_fract_y
 _atom_site_fract_z
 _atom_site_occupancy
  Ho  Ho0  1  0.281861  0.188370  0.470230  1
  Ho  Ho1  1  0.718139  0.811630  0.529770  1
  Ho  Ho2  1  0.281861  0.811630  0.093491  1
  Ho  Ho3  1  0.718139  0.188370  0.906509  1
  Sc  Sc4  1  0.622978  0.311499  0.311479  1
  Sc  Sc5  1  0.377022  0.688501  0.688521  1
  Sc  Sc6  1  0.000020  0.311499  0.688521  1
  Sc  Sc7  1  0.999980  0.688501  0.311479  1
  Sc  Sc8  1  0.211607  0.406992  0.195387  1
  Sc  Sc9  1  0.788393  0.593008  0.804613  1
  Sc  Sc10  1  0.211607  0.016220  0.804613  1
  Sc  Sc11  1  0.788393  0.983780  0.195387  1
  Co  Co12  1  0.000000  0.367474  0.367474  1
  Co  Co13  1  0.000000  0.632526  0.632526  1
  Co  Co14  1  0.381399  0.881399  0.500000  1
  Co  Co15  1  0.618601  0.118601  0.500000  1
  Co  Co16  1  0.000000  0.000000  0.000000  1
  Bi  Bi17  1  0.500000  0.500000  0.000000  1
