# generated using pymatgen
data_SmYGePd14
_symmetry_space_group_name_H-M   'P 1'
_cell_length_a   8.96421000
_cell_length_b   8.96421000
_cell_length_c   7.16552200
_cell_angle_alpha   90.00000000
_cell_angle_beta   90.00000000
_cell_angle_gamma   90.00000000
_symmetry_Int_Tables_number   1
_chemical_formula_structural   SmYGePd14
_chemical_formula_sum   'Sm2 Y2 Ge2 Pd28'
_cell_volume   575.80028791
_cell_formula_units_Z   2
loop_
 _symmetry_equiv_pos_site_id
 _symmetry_equiv_pos_as_xyz
  1  'x, y, z'
loop_
 _atom_site_type_symbol
 _atom_site_label
 _atom_site_symmetry_multiplicity
 _atom_site_fract_x
 _atom_site_fract_y
 _atom_site_fract_z
 _atom_site_occupancy
  Sm  Sm0  1  0.500000  0.000000  0.935892  1
  Sm  Sm1  1  0.000000  0.500000  0.064108  1
  Y  Y2  1  0.000000  0.000000  0.500000  1
  Y  Y3  1  0.500000  0.500000  0.500000  1
  Ge  Ge4  1  0.500000  0.000000  0.448920  1
  Ge  Ge5  1  0.000000  0.500000  0.551080  1
  Pd  Pd6  1  0.330524  0.830524  0.621316  1
  Pd  Pd7  1  0.330524  0.169476  0.621316  1
  Pd  Pd8  1  0.669476  0.830524  0.621316  1
  Pd  Pd9  1  0.669476  0.169476  0.621316  1
  Pd  Pd10  1  0.169476  0.669476  0.378684  1
  Pd  Pd11  1  0.169476  0.330524  0.378684  1
  Pd  Pd12  1  0.830524  0.669476  0.378684  1
  Pd  Pd13  1  0.830524  0.330524  0.378684  1
  Pd  Pd14  1  0.500000  0.765626  0.253379  1
  Pd  Pd15  1  0.500000  0.234374  0.253379  1
  Pd  Pd16  1  0.265626  0.000000  0.253379  1
  Pd  Pd17  1  0.734374  0.000000  0.253379  1
  Pd  Pd18  1  0.000000  0.734374  0.746621  1
  Pd  Pd19  1  0.000000  0.265626  0.746621  1
  Pd  Pd20  1  0.234374  0.500000  0.746621  1
  Pd  Pd21  1  0.765626  0.500000  0.746621  1
  Pd  Pd22  1  0.500000  0.349072  0.855188  1
  Pd  Pd23  1  0.500000  0.650928  0.855188  1
  Pd  Pd24  1  0.849072  0.000000  0.855188  1
  Pd  Pd25  1  0.150928  0.000000  0.855188  1
  Pd  Pd26  1  0.000000  0.150928  0.144812  1
  Pd  Pd27  1  0.000000  0.849072  0.144812  1
  Pd  Pd28  1  0.650928  0.500000  0.144812  1
  Pd  Pd29  1  0.349072  0.500000  0.144812  1
  Pd  Pd30  1  0.250000  0.750000  0.000000  1
  Pd  Pd31  1  0.250000  0.250000  0.000000  1
  Pd  Pd32  1  0.750000  0.750000  0.000000  1
  Pd  Pd33  1  0.750000  0.250000  0.000000  1
