# generated using pymatgen
data_Yb5ReN5
_symmetry_space_group_name_H-M   'P 1'
_cell_length_a   6.82746548
_cell_length_b   6.82746419
_cell_length_c   8.79959421
_cell_angle_alpha   80.03054772
_cell_angle_beta   80.03055120
_cell_angle_gamma   58.87929647
_symmetry_Int_Tables_number   1
_chemical_formula_structural   Yb5ReN5
_chemical_formula_sum   'Yb10 Re2 N10'
_cell_volume   344.14436267
_cell_formula_units_Z   2
loop_
 _symmetry_equiv_pos_site_id
 _symmetry_equiv_pos_as_xyz
  1  'x, y, z'
loop_
 _atom_site_type_symbol
 _atom_site_label
 _atom_site_symmetry_multiplicity
 _atom_site_fract_x
 _atom_site_fract_y
 _atom_site_fract_z
 _atom_site_occupancy
  Yb  Yb0  1  0.876812  0.347968  0.834229  1
  Yb  Yb1  1  0.874211  0.874211  0.825397  1
  Yb  Yb2  1  0.735240  0.735240  0.520228  1
  Yb  Yb3  1  0.760231  0.245502  0.507575  1
  Yb  Yb4  1  0.633090  0.130380  0.156283  1
  Yb  Yb5  1  0.347968  0.876812  0.834229  1
  Yb  Yb6  1  0.245502  0.760231  0.507575  1
  Yb  Yb7  1  0.246728  0.246728  0.495579  1
  Yb  Yb8  1  0.137803  0.137803  0.166931  1
  Yb  Yb9  1  0.130380  0.633090  0.156283  1
  Re  Re10  1  0.628243  0.628243  0.219141  1
  Re  Re11  1  0.366922  0.366922  0.776859  1
  N  N12  1  0.912564  0.473216  0.321794  1
  N  N13  1  0.996113  0.996113  0.014503  1
  N  N14  1  0.679936  0.679936  0.008498  1
  N  N15  1  0.528687  0.528687  0.688335  1
  N  N16  1  0.473216  0.912564  0.321794  1
  N  N17  1  0.542941  0.087579  0.678456  1
  N  N18  1  0.471095  0.471095  0.292472  1
  N  N19  1  0.318584  0.318584  0.989799  1
  N  N20  1  0.068441  0.068441  0.651394  1
  N  N21  1  0.087579  0.542941  0.678456  1
