# generated using pymatgen
data_La8TbYRu4
_symmetry_space_group_name_H-M   'P 1'
_cell_length_a   6.68393521
_cell_length_b   7.27541106
_cell_length_c   9.07901667
_cell_angle_alpha   94.23549369
_cell_angle_beta   111.59836480
_cell_angle_gamma   90.00000473
_symmetry_Int_Tables_number   1
_chemical_formula_structural   La8TbYRu4
_chemical_formula_sum   'La8 Tb1 Y1 Ru4'
_cell_volume   409.20184579
_cell_formula_units_Z   1
loop_
 _symmetry_equiv_pos_site_id
 _symmetry_equiv_pos_as_xyz
  1  'x, y, z'
loop_
 _atom_site_type_symbol
 _atom_site_label
 _atom_site_symmetry_multiplicity
 _atom_site_fract_x
 _atom_site_fract_y
 _atom_site_fract_z
 _atom_site_occupancy
  La  La0  1  0.980160  0.906099  0.182484  1
  La  La1  1  0.797675  0.593901  0.817516  1
  La  La2  1  0.019816  0.093943  0.817549  1
  La  La3  1  0.202268  0.406057  0.182451  1
  La  La4  1  0.634598  0.817457  0.424208  1
  La  La5  1  0.210390  0.682543  0.575792  1
  La  La6  1  0.365435  0.182626  0.575786  1
  La  La7  1  0.789649  0.317374  0.424214  1
  Tb  Tb8  1  0.431599  0.750000  0.000000  1
  Y  Y9  1  0.568658  0.250000  0.000000  1
  Ru  Ru10  1  0.824795  0.579660  0.220878  1
  Ru  Ru11  1  0.603917  0.920340  0.779122  1
  Ru  Ru12  1  0.175049  0.420589  0.779061  1
  Ru  Ru13  1  0.395989  0.079411  0.220939  1
