# generated using pymatgen
data_Nd2Y(Si3Pd10)2
_symmetry_space_group_name_H-M   'P 1'
_cell_length_a   8.76528297
_cell_length_b   8.76528329
_cell_length_c   8.76528300
_cell_angle_alpha   60.00000488
_cell_angle_beta   60.00000365
_cell_angle_gamma   59.99999930
_symmetry_Int_Tables_number   1
_chemical_formula_structural   Nd2Y(Si3Pd10)2
_chemical_formula_sum   'Nd2 Y1 Si6 Pd20'
_cell_volume   476.19284782
_cell_formula_units_Z   1
loop_
 _symmetry_equiv_pos_site_id
 _symmetry_equiv_pos_as_xyz
  1  'x, y, z'
loop_
 _atom_site_type_symbol
 _atom_site_label
 _atom_site_symmetry_multiplicity
 _atom_site_fract_x
 _atom_site_fract_y
 _atom_site_fract_z
 _atom_site_occupancy
  Nd  Nd0  1  0.250000  0.250000  0.250000  1
  Nd  Nd1  1  0.750000  0.750000  0.750000  1
  Y  Y2  1  0.000000  0.000000  0.000000  1
  Si  Si3  1  0.733457  0.266543  0.266543  1
  Si  Si4  1  0.266543  0.733457  0.733457  1
  Si  Si5  1  0.266543  0.733457  0.266543  1
  Si  Si6  1  0.733457  0.266543  0.733457  1
  Si  Si7  1  0.266543  0.266543  0.733457  1
  Si  Si8  1  0.733457  0.733457  0.266543  1
  Pd  Pd9  1  0.345802  0.000000  0.000000  1
  Pd  Pd10  1  0.654198  0.000000  0.000000  1
  Pd  Pd11  1  0.000000  0.345802  0.654198  1
  Pd  Pd12  1  0.000000  0.654198  0.345802  1
  Pd  Pd13  1  0.000000  0.345802  0.000000  1
  Pd  Pd14  1  0.654198  0.000000  0.345802  1
  Pd  Pd15  1  0.000000  0.654198  0.000000  1
  Pd  Pd16  1  0.345802  0.000000  0.654198  1
  Pd  Pd17  1  0.000000  0.000000  0.345802  1
  Pd  Pd18  1  0.000000  0.000000  0.654198  1
  Pd  Pd19  1  0.654198  0.345802  0.000000  1
  Pd  Pd20  1  0.345802  0.654198  0.000000  1
  Pd  Pd21  1  0.385291  0.385291  0.385291  1
  Pd  Pd22  1  0.614709  0.614709  0.614709  1
  Pd  Pd23  1  0.385291  0.385291  0.844127  1
  Pd  Pd24  1  0.385291  0.844127  0.385291  1
  Pd  Pd25  1  0.614709  0.614709  0.155873  1
  Pd  Pd26  1  0.614709  0.155873  0.614709  1
  Pd  Pd27  1  0.844127  0.385291  0.385291  1
  Pd  Pd28  1  0.155873  0.614709  0.614709  1
