# generated using pymatgen
data_Dy8MgSi4B16Mo
_symmetry_space_group_name_H-M   'P 1'
_cell_length_a   7.15179900
_cell_length_b   7.15179900
_cell_length_c   7.74182700
_cell_angle_alpha   90.00000000
_cell_angle_beta   90.00000000
_cell_angle_gamma   90.00000000
_symmetry_Int_Tables_number   1
_chemical_formula_structural   Dy8MgSi4B16Mo
_chemical_formula_sum   'Dy8 Mg1 Si4 B16 Mo1'
_cell_volume   395.98073978
_cell_formula_units_Z   1
loop_
 _symmetry_equiv_pos_site_id
 _symmetry_equiv_pos_as_xyz
  1  'x, y, z'
loop_
 _atom_site_type_symbol
 _atom_site_label
 _atom_site_symmetry_multiplicity
 _atom_site_fract_x
 _atom_site_fract_y
 _atom_site_fract_z
 _atom_site_occupancy
  Dy  Dy0  1  0.681844  0.181720  0.235471  1
  Dy  Dy1  1  0.318156  0.818280  0.764529  1
  Dy  Dy2  1  0.318156  0.818280  0.235471  1
  Dy  Dy3  1  0.818280  0.681844  0.235471  1
  Dy  Dy4  1  0.818280  0.681844  0.764529  1
  Dy  Dy5  1  0.681844  0.181720  0.764529  1
  Dy  Dy6  1  0.181720  0.318156  0.764529  1
  Dy  Dy7  1  0.181720  0.318156  0.235471  1
  Mg  Mg8  1  0.500000  0.500000  0.500000  1
  Si  Si9  1  0.106663  0.630877  0.500000  1
  Si  Si10  1  0.893337  0.369123  0.500000  1
  Si  Si11  1  0.369123  0.106663  0.500000  1
  Si  Si12  1  0.630877  0.893337  0.500000  1
  B  B13  1  0.171913  0.040073  0.000000  1
  B  B14  1  0.828087  0.959927  0.000000  1
  B  B15  1  0.959927  0.171913  0.000000  1
  B  B16  1  0.326862  0.539290  0.000000  1
  B  B17  1  0.040073  0.828087  0.000000  1
  B  B18  1  0.673138  0.460710  0.000000  1
  B  B19  1  0.539290  0.673138  0.000000  1
  B  B20  1  0.460710  0.326862  0.000000  1
  B  B21  1  0.089779  0.589770  0.000000  1
  B  B22  1  0.910221  0.410230  0.000000  1
  B  B23  1  0.410230  0.089779  0.000000  1
  B  B24  1  0.589770  0.910221  0.000000  1
  B  B25  1  0.000000  0.000000  0.172961  1
  B  B26  1  0.000000  0.000000  0.827039  1
  B  B27  1  0.500000  0.500000  0.835547  1
  B  B28  1  0.500000  0.500000  0.164453  1
  Mo  Mo29  1  0.000000  0.000000  0.500000  1
