# generated using pymatgen
data_Nd5Bi2PbBr
_symmetry_space_group_name_H-M   'P 1'
_cell_length_a   9.66893800
_cell_length_b   9.57984788
_cell_length_c   6.75214600
_cell_angle_alpha   90.00000000
_cell_angle_beta   90.00000000
_cell_angle_gamma   120.30811972
_symmetry_Int_Tables_number   1
_chemical_formula_structural   Nd5Bi2PbBr
_chemical_formula_sum   'Nd10 Bi4 Pb2 Br2'
_cell_volume   539.94938197
_cell_formula_units_Z   2
loop_
 _symmetry_equiv_pos_site_id
 _symmetry_equiv_pos_as_xyz
  1  'x, y, z'
loop_
 _atom_site_type_symbol
 _atom_site_label
 _atom_site_symmetry_multiplicity
 _atom_site_fract_x
 _atom_site_fract_y
 _atom_site_fract_z
 _atom_site_occupancy
  Nd  Nd0  1  0.727463  0.000000  0.750000  1
  Nd  Nd1  1  0.997226  0.268058  0.250000  1
  Nd  Nd2  1  0.729169  0.731942  0.250000  1
  Nd  Nd3  1  0.334422  0.668846  0.500000  1
  Nd  Nd4  1  0.334422  0.668846  0.000000  1
  Nd  Nd5  1  0.665578  0.331154  0.500000  1
  Nd  Nd6  1  0.665578  0.331154  0.000000  1
  Nd  Nd7  1  0.272537  0.000000  0.250000  1
  Nd  Nd8  1  0.270831  0.268058  0.750000  1
  Nd  Nd9  1  0.002774  0.731942  0.750000  1
  Bi  Bi10  1  0.999044  0.615147  0.250000  1
  Bi  Bi11  1  0.616102  0.615147  0.750000  1
  Bi  Bi12  1  0.000956  0.384853  0.750000  1
  Bi  Bi13  1  0.383898  0.384853  0.250000  1
  Pb  Pb14  1  0.385878  0.000000  0.750000  1
  Pb  Pb15  1  0.614122  0.000000  0.250000  1
  Br  Br16  1  0.000000  0.000000  0.500000  1
  Br  Br17  1  0.000000  0.000000  0.000000  1
