# generated using pymatgen
data_Sm2PaRu2
_symmetry_space_group_name_H-M   'P 1'
_cell_length_a   6.04317056
_cell_length_b   6.04317071
_cell_length_c   6.04317113
_cell_angle_alpha   139.44054672
_cell_angle_beta   121.50015593
_cell_angle_gamma   73.60649947
_symmetry_Int_Tables_number   1
_chemical_formula_structural   Sm2PaRu2
_chemical_formula_sum   'Sm2 Pa1 Ru2'
_cell_volume   119.70921514
_cell_formula_units_Z   1
loop_
 _symmetry_equiv_pos_site_id
 _symmetry_equiv_pos_as_xyz
  1  'x, y, z'
loop_
 _atom_site_type_symbol
 _atom_site_label
 _atom_site_symmetry_multiplicity
 _atom_site_fract_x
 _atom_site_fract_y
 _atom_site_fract_z
 _atom_site_occupancy
  Sm  Sm0  1  0.693545  0.193545  0.500000  1
  Sm  Sm1  1  0.306455  0.806456  0.500001  1
  Pa  Pa2  1  0.000000  0.000000  0.000000  1
  Ru  Ru3  1  0.750138  0.499999  0.250138  1
  Ru  Ru4  1  0.249861  0.500001  0.749862  1
