# generated using pymatgen
data_Dy4NbCrOs6
_symmetry_space_group_name_H-M   'P 1'
_cell_length_a   5.22976100
_cell_length_b   5.22976042
_cell_length_c   8.92698100
_cell_angle_alpha   90.00000000
_cell_angle_beta   90.00000000
_cell_angle_gamma   116.20042940
_symmetry_Int_Tables_number   1
_chemical_formula_structural   Dy4NbCrOs6
_chemical_formula_sum   'Dy4 Nb1 Cr1 Os6'
_cell_volume   219.07063275
_cell_formula_units_Z   1
loop_
 _symmetry_equiv_pos_site_id
 _symmetry_equiv_pos_as_xyz
  1  'x, y, z'
loop_
 _atom_site_type_symbol
 _atom_site_label
 _atom_site_symmetry_multiplicity
 _atom_site_fract_x
 _atom_site_fract_y
 _atom_site_fract_z
 _atom_site_occupancy
  Dy  Dy0  1  0.328601  0.671399  0.439912  1
  Dy  Dy1  1  0.667593  0.332407  0.568647  1
  Dy  Dy2  1  0.667593  0.332407  0.931353  1
  Dy  Dy3  1  0.328601  0.671399  0.060088  1
  Nb  Nb4  1  0.841024  0.158976  0.250000  1
  Cr  Cr5  1  0.166226  0.833774  0.750000  1
  Os  Os6  1  0.004099  0.995901  0.510643  1
  Os  Os7  1  0.004099  0.995901  0.989357  1
  Os  Os8  1  0.823257  0.651878  0.250000  1
  Os  Os9  1  0.348122  0.176743  0.250000  1
  Os  Os10  1  0.173351  0.352563  0.750000  1
  Os  Os11  1  0.647437  0.826649  0.750000  1
