# generated using pymatgen
data_Er2Re7Si4W
_symmetry_space_group_name_H-M   'P 1'
_cell_length_a   7.14010956
_cell_length_b   7.66544918
_cell_length_c   4.16872100
_cell_angle_alpha   90.00000000
_cell_angle_beta   90.00000000
_cell_angle_gamma   90.00370913
_symmetry_Int_Tables_number   1
_chemical_formula_structural   Er2Re7Si4W
_chemical_formula_sum   'Er2 Re7 Si4 W1'
_cell_volume   228.16305004
_cell_formula_units_Z   1
loop_
 _symmetry_equiv_pos_site_id
 _symmetry_equiv_pos_as_xyz
  1  'x, y, z'
loop_
 _atom_site_type_symbol
 _atom_site_label
 _atom_site_symmetry_multiplicity
 _atom_site_fract_x
 _atom_site_fract_y
 _atom_site_fract_z
 _atom_site_occupancy
  Er  Er0  1  0.500711  0.498350  0.000000  1
  Er  Er1  1  0.999130  0.000024  0.500000  1
  Re  Re2  1  0.156036  0.604967  0.500000  1
  Re  Re3  1  0.083484  0.340478  0.000000  1
  Re  Re4  1  0.917916  0.658512  0.000000  1
  Re  Re5  1  0.417134  0.839601  0.500000  1
  Re  Re6  1  0.583073  0.163884  0.500000  1
  Re  Re7  1  0.342282  0.107259  0.000000  1
  Re  Re8  1  0.845968  0.393611  0.500000  1
  Si  Si9  1  0.222817  0.806216  0.000000  1
  Si  Si10  1  0.779285  0.196103  0.000000  1
  Si  Si11  1  0.723310  0.692023  0.500000  1
  Si  Si12  1  0.277612  0.305433  0.500000  1
  W  W13  1  0.651241  0.893542  0.000000  1
