# generated using pymatgen
data_Cs2Rb4Zn2O5
_symmetry_space_group_name_H-M   'P 1'
_cell_length_a   7.11191274
_cell_length_b   7.16640207
_cell_length_c   7.11191169
_cell_angle_alpha   90.75171645
_cell_angle_beta   118.89900269
_cell_angle_gamma   90.75169180
_symmetry_Int_Tables_number   1
_chemical_formula_structural   Cs2Rb4Zn2O5
_chemical_formula_sum   'Cs2 Rb4 Zn2 O5'
_cell_volume   317.22833099
_cell_formula_units_Z   1
loop_
 _symmetry_equiv_pos_site_id
 _symmetry_equiv_pos_as_xyz
  1  'x, y, z'
loop_
 _atom_site_type_symbol
 _atom_site_label
 _atom_site_symmetry_multiplicity
 _atom_site_fract_x
 _atom_site_fract_y
 _atom_site_fract_z
 _atom_site_occupancy
  Cs  Cs0  1  0.659340  0.801602  0.659340  1
  Cs  Cs1  1  0.340661  0.198395  0.340661  1
  Rb  Rb2  1  0.231251  0.500002  0.768747  1
  Rb  Rb3  1  0.768748  0.500001  0.231251  1
  Rb  Rb4  1  0.777847  0.000000  0.222156  1
  Rb  Rb5  1  0.222156  0.000000  0.777847  1
  Zn  Zn6  1  0.199916  0.690575  0.199918  1
  Zn  Zn7  1  0.800083  0.309425  0.800083  1
  O  O8  1  0.999999  0.500000  0.999999  1
  O  O9  1  0.159598  0.772703  0.433765  1
  O  O10  1  0.566236  0.227296  0.840401  1
  O  O11  1  0.840401  0.227296  0.566236  1
  O  O12  1  0.433765  0.772704  0.159598  1
