# generated using pymatgen
data_Dy8Si16Tc11Os
_symmetry_space_group_name_H-M   'P 1'
_cell_length_a   6.77609343
_cell_length_b   6.78357964
_cell_length_c   12.70859613
_cell_angle_alpha   89.75043177
_cell_angle_beta   90.03182483
_cell_angle_gamma   89.75277600
_symmetry_Int_Tables_number   1
_chemical_formula_structural   Dy8Si16Tc11Os
_chemical_formula_sum   'Dy8 Si16 Tc11 Os1'
_cell_volume   584.15440718
_cell_formula_units_Z   1
loop_
 _symmetry_equiv_pos_site_id
 _symmetry_equiv_pos_as_xyz
  1  'x, y, z'
loop_
 _atom_site_type_symbol
 _atom_site_label
 _atom_site_symmetry_multiplicity
 _atom_site_fract_x
 _atom_site_fract_y
 _atom_site_fract_z
 _atom_site_occupancy
  Dy  Dy0  1  0.007973  0.663080  0.030698  1
  Dy  Dy1  1  0.992597  0.336725  0.531548  1
  Dy  Dy2  1  0.664031  0.005382  0.969517  1
  Dy  Dy3  1  0.161914  0.496741  0.779290  1
  Dy  Dy4  1  0.837155  0.504170  0.279966  1
  Dy  Dy5  1  0.496446  0.162454  0.219548  1
  Dy  Dy6  1  0.502562  0.838385  0.719735  1
  Dy  Dy7  1  0.334982  0.993515  0.468832  1
  Si  Si8  1  0.020552  0.720324  0.436779  1
  Si  Si9  1  0.983233  0.274118  0.936583  1
  Si  Si10  1  0.719770  0.020901  0.562848  1
  Si  Si11  1  0.228566  0.480554  0.188218  1
  Si  Si12  1  0.764346  0.516532  0.688343  1
  Si  Si13  1  0.482492  0.233181  0.812118  1
  Si  Si14  1  0.519561  0.771717  0.313094  1
  Si  Si15  1  0.277112  0.979194  0.063170  1
  Si  Si16  1  0.809674  0.887667  0.187459  1
  Si  Si17  1  0.303917  0.614644  0.564122  1
  Si  Si18  1  0.694502  0.386990  0.063431  1
  Si  Si19  1  0.614845  0.304424  0.435795  1
  Si  Si20  1  0.389128  0.692831  0.936000  1
  Si  Si21  1  0.113315  0.191731  0.312151  1
  Si  Si22  1  0.189893  0.111896  0.687964  1
  Si  Si23  1  0.889282  0.810600  0.812026  1
  Tc  Tc24  1  0.314125  0.475234  0.380164  1
  Tc  Tc25  1  0.818803  0.014021  0.373835  1
  Tc  Tc26  1  0.984261  0.184844  0.126500  1
  Tc  Tc27  1  0.011328  0.818336  0.626710  1
  Tc  Tc28  1  0.472727  0.311204  0.619087  1
  Tc  Tc29  1  0.186197  0.979000  0.873076  1
  Tc  Tc30  1  0.661627  0.663523  0.500021  1
  Tc  Tc31  1  0.833000  0.167209  0.752231  1
  Tc  Tc32  1  0.165777  0.834301  0.250163  1
  Tc  Tc33  1  0.337591  0.336129  0.997612  1
  Tc  Tc34  1  0.522956  0.686085  0.121401  1
  Os  Os35  1  0.693761  0.532362  0.879964  1
