# generated using pymatgen
data_ZrRuI18
_symmetry_space_group_name_H-M   'P 1'
_cell_length_a   10.10084772
_cell_length_b   10.10084804
_cell_length_c   10.10084584
_cell_angle_alpha   93.40897162
_cell_angle_beta   93.40896789
_cell_angle_gamma   93.40896354
_symmetry_Int_Tables_number   1
_chemical_formula_structural   ZrRuI18
_chemical_formula_sum   'Zr1 Ru1 I18'
_cell_volume   1024.86207775
_cell_formula_units_Z   1
loop_
 _symmetry_equiv_pos_site_id
 _symmetry_equiv_pos_as_xyz
  1  'x, y, z'
loop_
 _atom_site_type_symbol
 _atom_site_label
 _atom_site_symmetry_multiplicity
 _atom_site_fract_x
 _atom_site_fract_y
 _atom_site_fract_z
 _atom_site_occupancy
  Zr  Zr0  1  0.500000  0.500000  0.500000  1
  Ru  Ru1  1  0.000000  0.000000  0.000000  1
  I  I2  1  0.998118  0.733441  0.973515  1
  I  I3  1  0.973515  0.998118  0.733441  1
  I  I4  1  0.733441  0.973515  0.998118  1
  I  I5  1  0.001882  0.266559  0.026485  1
  I  I6  1  0.026485  0.001882  0.266559  1
  I  I7  1  0.266559  0.026485  0.001882  1
  I  I8  1  0.489528  0.784946  0.519676  1
  I  I9  1  0.519676  0.489528  0.784946  1
  I  I10  1  0.784946  0.519676  0.489528  1
  I  I11  1  0.510472  0.215054  0.480324  1
  I  I12  1  0.480324  0.510472  0.215054  1
  I  I13  1  0.215054  0.480324  0.510472  1
  I  I14  1  0.634971  0.102281  0.229511  1
  I  I15  1  0.229511  0.634971  0.102281  1
  I  I16  1  0.102281  0.229511  0.634971  1
  I  I17  1  0.365029  0.897719  0.770489  1
  I  I18  1  0.770489  0.365029  0.897719  1
  I  I19  1  0.897719  0.770489  0.365029  1
