# generated using pymatgen
data_CaYCd30O32
_symmetry_space_group_name_H-M   'P 1'
_cell_length_a   9.51352200
_cell_length_b   9.51352200
_cell_length_c   9.56446800
_cell_angle_alpha   90.00000000
_cell_angle_beta   90.00000000
_cell_angle_gamma   90.00000000
_symmetry_Int_Tables_number   1
_chemical_formula_structural   CaYCd30O32
_chemical_formula_sum   'Ca1 Y1 Cd30 O32'
_cell_volume   865.65226980
_cell_formula_units_Z   1
loop_
 _symmetry_equiv_pos_site_id
 _symmetry_equiv_pos_as_xyz
  1  'x, y, z'
loop_
 _atom_site_type_symbol
 _atom_site_label
 _atom_site_symmetry_multiplicity
 _atom_site_fract_x
 _atom_site_fract_y
 _atom_site_fract_z
 _atom_site_occupancy
  Ca  Ca0  1  0.000000  0.000000  0.500000  1
  Y  Y1  1  0.000000  0.000000  0.000000  1
  Cd  Cd2  1  0.000000  0.500000  0.000000  1
  Cd  Cd3  1  0.000000  0.500000  0.500000  1
  Cd  Cd4  1  0.500000  0.000000  0.000000  1
  Cd  Cd5  1  0.500000  0.000000  0.500000  1
  Cd  Cd6  1  0.500000  0.500000  0.000000  1
  Cd  Cd7  1  0.500000  0.500000  0.500000  1
  Cd  Cd8  1  0.000000  0.253139  0.251993  1
  Cd  Cd9  1  0.000000  0.253139  0.748007  1
  Cd  Cd10  1  0.000000  0.746861  0.251993  1
  Cd  Cd11  1  0.000000  0.746861  0.748007  1
  Cd  Cd12  1  0.500000  0.250868  0.250487  1
  Cd  Cd13  1  0.500000  0.250868  0.749513  1
  Cd  Cd14  1  0.500000  0.749132  0.250487  1
  Cd  Cd15  1  0.500000  0.749132  0.749513  1
  Cd  Cd16  1  0.253139  0.000000  0.251993  1
  Cd  Cd17  1  0.253139  0.000000  0.748007  1
  Cd  Cd18  1  0.250868  0.500000  0.250487  1
  Cd  Cd19  1  0.250868  0.500000  0.749513  1
  Cd  Cd20  1  0.746861  0.000000  0.251993  1
  Cd  Cd21  1  0.746861  0.000000  0.748007  1
  Cd  Cd22  1  0.749132  0.500000  0.250487  1
  Cd  Cd23  1  0.749132  0.500000  0.749513  1
  Cd  Cd24  1  0.252624  0.252624  0.000000  1
  Cd  Cd25  1  0.251304  0.251304  0.500000  1
  Cd  Cd26  1  0.252624  0.747376  0.000000  1
  Cd  Cd27  1  0.251304  0.748696  0.500000  1
  Cd  Cd28  1  0.747376  0.252624  0.000000  1
  Cd  Cd29  1  0.748696  0.251304  0.500000  1
  Cd  Cd30  1  0.747376  0.747376  0.000000  1
  Cd  Cd31  1  0.748696  0.748696  0.500000  1
  O  O32  1  0.242224  0.000000  0.000000  1
  O  O33  1  0.249828  0.000000  0.500000  1
  O  O34  1  0.248912  0.500000  0.000000  1
  O  O35  1  0.250463  0.500000  0.500000  1
  O  O36  1  0.757776  0.000000  0.000000  1
  O  O37  1  0.750172  0.000000  0.500000  1
  O  O38  1  0.751088  0.500000  0.000000  1
  O  O39  1  0.749537  0.500000  0.500000  1
  O  O40  1  0.248972  0.248972  0.249471  1
  O  O41  1  0.248972  0.248972  0.750529  1
  O  O42  1  0.248972  0.751028  0.249471  1
  O  O43  1  0.248972  0.751028  0.750529  1
  O  O44  1  0.751028  0.248972  0.249471  1
  O  O45  1  0.751028  0.248972  0.750529  1
  O  O46  1  0.751028  0.751028  0.249471  1
  O  O47  1  0.751028  0.751028  0.750529  1
  O  O48  1  0.000000  0.000000  0.243661  1
  O  O49  1  0.000000  0.000000  0.756339  1
  O  O50  1  0.000000  0.500000  0.247203  1
  O  O51  1  0.000000  0.500000  0.752797  1
  O  O52  1  0.500000  0.000000  0.247203  1
  O  O53  1  0.500000  0.000000  0.752797  1
  O  O54  1  0.500000  0.500000  0.248925  1
  O  O55  1  0.500000  0.500000  0.751075  1
  O  O56  1  0.000000  0.242224  0.000000  1
  O  O57  1  0.000000  0.249828  0.500000  1
  O  O58  1  0.000000  0.757776  0.000000  1
  O  O59  1  0.000000  0.750172  0.500000  1
  O  O60  1  0.500000  0.248912  0.000000  1
  O  O61  1  0.500000  0.250463  0.500000  1
  O  O62  1  0.500000  0.751088  0.000000  1
  O  O63  1  0.500000  0.749537  0.500000  1
