# generated using pymatgen
data_La10Ge3Se7
_symmetry_space_group_name_H-M   'P 1'
_cell_length_a   11.54204487
_cell_length_b   11.54204291
_cell_length_c   7.57189100
_cell_angle_alpha   83.66603360
_cell_angle_beta   83.66602969
_cell_angle_gamma   142.06551065
_symmetry_Int_Tables_number   1
_chemical_formula_structural   La10Ge3Se7
_chemical_formula_sum   'La10 Ge3 Se7'
_cell_volume   583.30427902
_cell_formula_units_Z   1
loop_
 _symmetry_equiv_pos_site_id
 _symmetry_equiv_pos_as_xyz
  1  'x, y, z'
loop_
 _atom_site_type_symbol
 _atom_site_label
 _atom_site_symmetry_multiplicity
 _atom_site_fract_x
 _atom_site_fract_y
 _atom_site_fract_z
 _atom_site_occupancy
  La  La0  1  0.253399  0.253399  0.757200  1
  La  La1  1  0.850657  0.650620  0.750502  1
  La  La2  1  0.746601  0.746601  0.242800  1
  La  La3  1  0.452227  0.048665  0.741349  1
  La  La4  1  0.349380  0.149343  0.249498  1
  La  La5  1  0.048665  0.452227  0.741349  1
  La  La6  1  0.951335  0.547773  0.258651  1
  La  La7  1  0.650620  0.850657  0.750502  1
  La  La8  1  0.547773  0.951335  0.258651  1
  La  La9  1  0.149343  0.349380  0.249498  1
  Ge  Ge10  1  0.500000  0.500000  0.000000  1
  Ge  Ge11  1  0.198012  0.801988  0.500000  1
  Ge  Ge12  1  0.801988  0.198012  0.500000  1
  Se  Se13  1  0.899320  0.100680  0.000000  1
  Se  Se14  1  0.400643  0.599357  0.500000  1
  Se  Se15  1  0.000000  0.000000  0.500000  1
  Se  Se16  1  0.599357  0.400643  0.500000  1
  Se  Se17  1  0.100680  0.899320  0.000000  1
  Se  Se18  1  0.699896  0.300104  0.000000  1
  Se  Se19  1  0.300104  0.699896  0.000000  1
