# generated using pymatgen
data_Ta6Ti3Nb(Ga3B)2
_symmetry_space_group_name_H-M   'P 1'
_cell_length_a   7.77843600
_cell_length_b   7.77843498
_cell_length_c   5.27167100
_cell_angle_alpha   90.00000000
_cell_angle_beta   90.00000000
_cell_angle_gamma   120.00000434
_symmetry_Int_Tables_number   1
_chemical_formula_structural   Ta6Ti3Nb(Ga3B)2
_chemical_formula_sum   'Ta6 Ti3 Nb1 Ga6 B2'
_cell_volume   276.22527828
_cell_formula_units_Z   1
loop_
 _symmetry_equiv_pos_site_id
 _symmetry_equiv_pos_as_xyz
  1  'x, y, z'
loop_
 _atom_site_type_symbol
 _atom_site_label
 _atom_site_symmetry_multiplicity
 _atom_site_fract_x
 _atom_site_fract_y
 _atom_site_fract_z
 _atom_site_occupancy
  Ta  Ta0  1  0.239808  0.998618  0.248456  1
  Ta  Ta1  1  0.758810  0.998618  0.751544  1
  Ta  Ta2  1  0.001382  0.241190  0.248456  1
  Ta  Ta3  1  0.001382  0.760192  0.751544  1
  Ta  Ta4  1  0.758810  0.760192  0.248456  1
  Ta  Ta5  1  0.239808  0.241190  0.751544  1
  Ti  Ti6  1  0.666667  0.333333  0.000000  1
  Ti  Ti7  1  0.666667  0.333333  0.500000  1
  Ti  Ti8  1  0.333333  0.666667  0.500000  1
  Nb  Nb9  1  0.333333  0.666667  0.000000  1
  Ga  Ga10  1  0.599837  0.003088  0.252709  1
  Ga  Ga11  1  0.403251  0.003088  0.747291  1
  Ga  Ga12  1  0.996912  0.596749  0.252709  1
  Ga  Ga13  1  0.996912  0.400163  0.747291  1
  Ga  Ga14  1  0.403251  0.400163  0.252709  1
  Ga  Ga15  1  0.599837  0.596749  0.747291  1
  B  B16  1  0.000000  0.000000  0.000000  1
  B  B17  1  0.000000  0.000000  0.500000  1
