# generated using pymatgen
data_Tb2SmLu(MoN3)4
_symmetry_space_group_name_H-M   'P 1'
_cell_length_a   7.32021170
_cell_length_b   7.32021138
_cell_length_c   6.26039633
_cell_angle_alpha   74.18202714
_cell_angle_beta   74.18200735
_cell_angle_gamma   82.07202114
_symmetry_Int_Tables_number   1
_chemical_formula_structural   Tb2SmLu(MoN3)4
_chemical_formula_sum   'Tb2 Sm1 Lu1 Mo4 N12'
_cell_volume   309.80650507
_cell_formula_units_Z   1
loop_
 _symmetry_equiv_pos_site_id
 _symmetry_equiv_pos_as_xyz
  1  'x, y, z'
loop_
 _atom_site_type_symbol
 _atom_site_label
 _atom_site_symmetry_multiplicity
 _atom_site_fract_x
 _atom_site_fract_y
 _atom_site_fract_z
 _atom_site_occupancy
  Tb  Tb0  1  0.087583  0.912417  0.250000  1
  Tb  Tb1  1  0.295360  0.704640  0.750000  1
  Sm  Sm2  1  0.702928  0.297072  0.250000  1
  Lu  Lu3  1  0.913514  0.086486  0.750000  1
  Mo  Mo4  1  0.801542  0.619083  0.764104  1
  Mo  Mo5  1  0.198376  0.380031  0.237004  1
  Mo  Mo6  1  0.619969  0.801624  0.262996  1
  Mo  Mo7  1  0.380917  0.198458  0.735896  1
  N  N8  1  0.216475  0.000983  0.844848  1
  N  N9  1  0.360853  0.353350  0.446424  1
  N  N10  1  0.640423  0.649666  0.553172  1
  N  N11  1  0.624544  0.110845  0.669661  1
  N  N12  1  0.999017  0.783525  0.655152  1
  N  N13  1  0.784324  0.998720  0.142661  1
  N  N14  1  0.108607  0.621849  0.160766  1
  N  N15  1  0.889155  0.375456  0.830339  1
  N  N16  1  0.001280  0.215676  0.357339  1
  N  N17  1  0.350334  0.359577  0.946828  1
  N  N18  1  0.646650  0.639147  0.053576  1
  N  N19  1  0.378151  0.891393  0.339234  1
