# generated using pymatgen
data_Dy5Y2Ho(Si3Rh)4
_symmetry_space_group_name_H-M   'P 1'
_cell_length_a   8.18037101
_cell_length_b   8.18089980
_cell_length_c   7.89889900
_cell_angle_alpha   90.00000000
_cell_angle_beta   90.00000000
_cell_angle_gamma   120.00214403
_symmetry_Int_Tables_number   1
_chemical_formula_structural   Dy5Y2Ho(Si3Rh)4
_chemical_formula_sum   'Dy5 Y2 Ho1 Si12 Rh4'
_cell_volume   457.78534295
_cell_formula_units_Z   1
loop_
 _symmetry_equiv_pos_site_id
 _symmetry_equiv_pos_as_xyz
  1  'x, y, z'
loop_
 _atom_site_type_symbol
 _atom_site_label
 _atom_site_symmetry_multiplicity
 _atom_site_fract_x
 _atom_site_fract_y
 _atom_site_fract_z
 _atom_site_occupancy
  Dy  Dy0  1  0.508957  0.491057  0.250000  1
  Dy  Dy1  1  0.508957  0.017900  0.250000  1
  Dy  Dy2  1  0.982109  0.491054  0.250000  1
  Dy  Dy3  1  0.491015  0.508940  0.750000  1
  Dy  Dy4  1  0.491015  0.982076  0.750000  1
  Y  Y5  1  0.999975  0.999987  0.250000  1
  Y  Y6  1  0.000018  0.000009  0.750000  1
  Ho  Ho7  1  0.017837  0.508919  0.750000  1
  Si  Si8  1  0.166944  0.832943  0.499608  1
  Si  Si9  1  0.166944  0.333999  0.499608  1
  Si  Si10  1  0.666051  0.833024  0.499540  1
  Si  Si11  1  0.833046  0.167034  0.500500  1
  Si  Si12  1  0.833046  0.666013  0.500500  1
  Si  Si13  1  0.333956  0.166979  0.500478  1
  Si  Si14  1  0.833046  0.167034  0.999500  1
  Si  Si15  1  0.833046  0.666013  0.999500  1
  Si  Si16  1  0.333956  0.166979  0.999522  1
  Si  Si17  1  0.166944  0.832943  0.000392  1
  Si  Si18  1  0.166944  0.333999  0.000392  1
  Si  Si19  1  0.666051  0.833024  0.000460  1
  Rh  Rh20  1  0.333251  0.666626  0.466411  1
  Rh  Rh21  1  0.666820  0.333409  0.533771  1
  Rh  Rh22  1  0.666820  0.333409  0.966229  1
  Rh  Rh23  1  0.333251  0.666626  0.033589  1
