# generated using pymatgen
data_Dy8ReOs(RuC4)2
_symmetry_space_group_name_H-M   'P 1'
_cell_length_a   5.12315900
_cell_length_b   6.50066902
_cell_length_c   9.80706280
_cell_angle_alpha   89.96042694
_cell_angle_beta   90.00000000
_cell_angle_gamma   90.00000000
_symmetry_Int_Tables_number   1
_chemical_formula_structural   Dy8ReOs(RuC4)2
_chemical_formula_sum   'Dy8 Re1 Os1 Ru2 C8'
_cell_volume   326.61395873
_cell_formula_units_Z   1
loop_
 _symmetry_equiv_pos_site_id
 _symmetry_equiv_pos_as_xyz
  1  'x, y, z'
loop_
 _atom_site_type_symbol
 _atom_site_label
 _atom_site_symmetry_multiplicity
 _atom_site_fract_x
 _atom_site_fract_y
 _atom_site_fract_z
 _atom_site_occupancy
  Dy  Dy0  1  0.250000  0.680473  0.554944  1
  Dy  Dy1  1  0.750000  0.316323  0.444727  1
  Dy  Dy2  1  0.750000  0.822343  0.053970  1
  Dy  Dy3  1  0.250000  0.176273  0.945877  1
  Dy  Dy4  1  0.250000  0.528579  0.216549  1
  Dy  Dy5  1  0.750000  0.470604  0.785207  1
  Dy  Dy6  1  0.750000  0.972393  0.714880  1
  Dy  Dy7  1  0.250000  0.028584  0.282171  1
  Re  Re8  1  0.750000  0.777242  0.365734  1
  Os  Os9  1  0.250000  0.222202  0.635802  1
  Ru  Ru10  1  0.250000  0.721898  0.864185  1
  Ru  Ru11  1  0.750000  0.277288  0.133745  1
  C  C12  1  0.250000  0.456697  0.756311  1
  C  C13  1  0.750000  0.543121  0.243331  1
  C  C14  1  0.750000  0.043141  0.260380  1
  C  C15  1  0.250000  0.958418  0.740938  1
  C  C16  1  0.250000  0.826263  0.051903  1
  C  C17  1  0.750000  0.176028  0.947580  1
  C  C18  1  0.750000  0.677526  0.552956  1
  C  C19  1  0.250000  0.324603  0.448808  1
