# generated using pymatgen
data_Li3Nd8Si12Ir
_symmetry_space_group_name_H-M   'P 1'
_cell_length_a   11.03586625
_cell_length_b   9.32975713
_cell_length_c   8.33151200
_cell_angle_alpha   77.12479232
_cell_angle_beta   55.47086791
_cell_angle_gamma   47.36900645
_symmetry_Int_Tables_number   1
_chemical_formula_structural   Li3Nd8Si12Ir
_chemical_formula_sum   'Li3 Nd8 Si12 Ir1'
_cell_volume   501.25568553
_cell_formula_units_Z   1
loop_
 _symmetry_equiv_pos_site_id
 _symmetry_equiv_pos_as_xyz
  1  'x, y, z'
loop_
 _atom_site_type_symbol
 _atom_site_label
 _atom_site_symmetry_multiplicity
 _atom_site_fract_x
 _atom_site_fract_y
 _atom_site_fract_z
 _atom_site_occupancy
  Li  Li0  1  0.832996  0.166485  0.833262  1
  Li  Li1  1  0.167484  0.832560  0.167213  1
  Li  Li2  1  0.416693  0.083422  0.416859  1
  Nd  Nd3  1  0.373467  0.379078  0.629436  1
  Nd  Nd4  1  0.629002  0.618549  0.373473  1
  Nd  Nd5  1  0.874000  0.870435  0.625150  1
  Nd  Nd6  1  0.626039  0.629770  0.874053  1
  Nd  Nd7  1  0.882971  0.866002  0.122562  1
  Nd  Nd8  1  0.121966  0.128580  0.882707  1
  Nd  Nd9  1  0.370275  0.377717  0.123336  1
  Nd  Nd10  1  0.122029  0.129846  0.371192  1
  Si  Si11  1  0.666243  0.334786  0.665621  1
  Si  Si12  1  0.332892  0.666456  0.334214  1
  Si  Si13  1  0.584851  0.913897  0.586217  1
  Si  Si14  1  0.918540  0.581957  0.917441  1
  Si  Si15  1  0.332562  0.666519  0.833628  1
  Si  Si16  1  0.173118  0.835431  0.661289  1
  Si  Si17  1  0.832860  0.167017  0.333645  1
  Si  Si18  1  0.662195  0.331301  0.172240  1
  Si  Si19  1  0.923049  0.587228  0.409000  1
  Si  Si20  1  0.073647  0.417259  0.589692  1
  Si  Si21  1  0.411005  0.082392  0.920845  1
  Si  Si22  1  0.589715  0.917550  0.073782  1
  Ir  Ir23  1  0.082406  0.415762  0.083142  1
