# generated using pymatgen
data_Ho2Er(AgGe)3
_symmetry_space_group_name_H-M   'P 1'
_cell_length_a   7.16295018
_cell_length_b   7.16570922
_cell_length_c   4.19331000
_cell_angle_alpha   90.00000000
_cell_angle_beta   90.00000000
_cell_angle_gamma   120.01274584
_symmetry_Int_Tables_number   1
_chemical_formula_structural   Ho2Er(AgGe)3
_chemical_formula_sum   'Ho2 Er1 Ag3 Ge3'
_cell_volume   186.37296726
_cell_formula_units_Z   1
loop_
 _symmetry_equiv_pos_site_id
 _symmetry_equiv_pos_as_xyz
  1  'x, y, z'
loop_
 _atom_site_type_symbol
 _atom_site_label
 _atom_site_symmetry_multiplicity
 _atom_site_fract_x
 _atom_site_fract_y
 _atom_site_fract_z
 _atom_site_occupancy
  Ho  Ho0  1  0.583784  0.000109  0.000000  1
  Ho  Ho1  1  0.416216  0.416325  0.000000  1
  Er  Er2  1  0.000000  0.583822  0.000000  1
  Ag  Ag3  1  0.748091  0.747910  0.500000  1
  Ag  Ag4  1  0.251909  0.999819  0.500000  1
  Ag  Ag5  1  0.000000  0.252333  0.500000  1
  Ge  Ge6  1  0.000000  0.999495  0.000000  1
  Ge  Ge7  1  0.667460  0.333823  0.500000  1
  Ge  Ge8  1  0.332540  0.666364  0.500000  1
