# generated using pymatgen
data_Y3ErGa18(NiRh2)2
_symmetry_space_group_name_H-M   'P 1'
_cell_length_a   7.55707333
_cell_length_b   7.55705391
_cell_length_c   9.47301000
_cell_angle_alpha   90.00000000
_cell_angle_beta   90.00000000
_cell_angle_gamma   120.14731836
_symmetry_Int_Tables_number   1
_chemical_formula_structural   Y3ErGa18(NiRh2)2
_chemical_formula_sum   'Y3 Er1 Ga18 Ni2 Rh4'
_cell_volume   467.81933527
_cell_formula_units_Z   1
loop_
 _symmetry_equiv_pos_site_id
 _symmetry_equiv_pos_as_xyz
  1  'x, y, z'
loop_
 _atom_site_type_symbol
 _atom_site_label
 _atom_site_symmetry_multiplicity
 _atom_site_fract_x
 _atom_site_fract_y
 _atom_site_fract_z
 _atom_site_occupancy
  Y  Y0  1  0.995939  0.662597  0.250000  1
  Y  Y1  1  0.004017  0.337479  0.750000  1
  Y  Y2  1  0.662525  0.995931  0.250000  1
  Er  Er3  1  0.337566  0.004022  0.750000  1
  Ga  Ga4  1  0.113514  0.113469  0.250000  1
  Ga  Ga5  1  0.887058  0.886679  0.750000  1
  Ga  Ga6  1  0.999218  0.328308  0.077848  1
  Ga  Ga7  1  0.001173  0.672174  0.922049  1
  Ga  Ga8  1  0.001173  0.672174  0.577951  1
  Ga  Ga9  1  0.328306  0.999239  0.422471  1
  Ga  Ga10  1  0.999218  0.328308  0.422152  1
  Ga  Ga11  1  0.671246  0.000718  0.577948  1
  Ga  Ga12  1  0.671246  0.000718  0.922052  1
  Ga  Ga13  1  0.328306  0.999239  0.077529  1
  Ga  Ga14  1  0.328047  0.327638  0.564940  1
  Ga  Ga15  1  0.671922  0.671930  0.435210  1
  Ga  Ga16  1  0.671922  0.671930  0.064790  1
  Ga  Ga17  1  0.328047  0.327638  0.935060  1
  Ga  Ga18  1  0.336317  0.541760  0.250000  1
  Ga  Ga19  1  0.663371  0.457801  0.750000  1
  Ga  Ga20  1  0.541754  0.336295  0.250000  1
  Ga  Ga21  1  0.458252  0.664079  0.750000  1
  Ni  Ni22  1  0.000083  0.000019  0.999791  1
  Ni  Ni23  1  0.000083  0.000019  0.500209  1
  Rh  Rh24  1  0.671225  0.328502  0.999753  1
  Rh  Rh25  1  0.328622  0.671417  0.999763  1
  Rh  Rh26  1  0.328622  0.671417  0.500237  1
  Rh  Rh27  1  0.671225  0.328502  0.500247  1
