# generated using pymatgen
data_Tb6Zn10Ag13S
_symmetry_space_group_name_H-M   'P 1'
_cell_length_a   9.25423346
_cell_length_b   9.28764576
_cell_length_c   9.28764600
_cell_angle_alpha   60.00117449
_cell_angle_beta   59.88195328
_cell_angle_gamma   59.88194811
_symmetry_Int_Tables_number   1
_chemical_formula_structural   Tb6Zn10Ag13S
_chemical_formula_sum   'Tb6 Zn10 Ag13 S1'
_cell_volume   563.46035434
_cell_formula_units_Z   1
loop_
 _symmetry_equiv_pos_site_id
 _symmetry_equiv_pos_as_xyz
  1  'x, y, z'
loop_
 _atom_site_type_symbol
 _atom_site_label
 _atom_site_symmetry_multiplicity
 _atom_site_fract_x
 _atom_site_fract_y
 _atom_site_fract_z
 _atom_site_occupancy
  Tb  Tb0  1  0.709313  0.290454  0.290454  1
  Tb  Tb1  1  0.709318  0.290454  0.709779  1
  Tb  Tb2  1  0.709318  0.709779  0.290454  1
  Tb  Tb3  1  0.290673  0.709946  0.709946  1
  Tb  Tb4  1  0.290671  0.709949  0.289432  1
  Tb  Tb5  1  0.290671  0.289432  0.709949  1
  Zn  Zn6  1  0.502719  0.997074  0.997074  1
  Zn  Zn7  1  0.502722  0.997076  0.503128  1
  Zn  Zn8  1  0.502722  0.503128  0.997076  1
  Zn  Zn9  1  0.995729  0.501329  0.501329  1
  Zn  Zn10  1  0.995731  0.501329  0.001612  1
  Zn  Zn11  1  0.995731  0.001612  0.501329  1
  Zn  Zn12  1  0.003058  0.998980  0.998980  1
  Zn  Zn13  1  0.670207  0.989043  0.670376  1
  Zn  Zn14  1  0.670207  0.670376  0.989043  1
  Zn  Zn15  1  0.670210  0.670376  0.670376  1
  Ag  Ag16  1  0.647460  0.117512  0.117512  1
  Ag  Ag17  1  0.118523  0.647015  0.117232  1
  Ag  Ag18  1  0.118523  0.117232  0.647015  1
  Ag  Ag19  1  0.118521  0.117231  0.117231  1
  Ag  Ag20  1  0.365145  0.878285  0.878285  1
  Ag  Ag21  1  0.877655  0.359425  0.881464  1
  Ag  Ag22  1  0.877655  0.881464  0.359425  1
  Ag  Ag23  1  0.877651  0.881460  0.881460  1
  Ag  Ag24  1  0.002917  0.332360  0.332360  1
  Ag  Ag25  1  0.332589  0.003011  0.332198  1
  Ag  Ag26  1  0.332589  0.332198  0.003011  1
  Ag  Ag27  1  0.332584  0.332199  0.332199  1
  Ag  Ag28  1  0.989686  0.670104  0.670104  1
  S  S29  1  0.499506  0.500165  0.500165  1
