# generated using pymatgen
data_DyHo2Si2Ag3Sn
_symmetry_space_group_name_H-M   'P 1'
_cell_length_a   7.18283112
_cell_length_b   7.18283272
_cell_length_c   4.29229100
_cell_angle_alpha   90.00000000
_cell_angle_beta   90.00000000
_cell_angle_gamma   120.03038387
_symmetry_Int_Tables_number   1
_chemical_formula_structural   DyHo2Si2Ag3Sn
_chemical_formula_sum   'Dy1 Ho2 Si2 Ag3 Sn1'
_cell_volume   191.72473614
_cell_formula_units_Z   1
loop_
 _symmetry_equiv_pos_site_id
 _symmetry_equiv_pos_as_xyz
  1  'x, y, z'
loop_
 _atom_site_type_symbol
 _atom_site_label
 _atom_site_symmetry_multiplicity
 _atom_site_fract_x
 _atom_site_fract_y
 _atom_site_fract_z
 _atom_site_occupancy
  Dy  Dy0  1  0.432192  0.432192  0.000000  1
  Ho  Ho1  1  0.567719  0.000097  0.000000  1
  Ho  Ho2  1  0.000097  0.567719  0.000000  1
  Si  Si3  1  0.333033  0.667163  0.500000  1
  Si  Si4  1  0.667163  0.333033  0.500000  1
  Ag  Ag5  1  0.264369  0.000030  0.500000  1
  Ag  Ag6  1  0.000030  0.264369  0.500000  1
  Ag  Ag7  1  0.735797  0.735797  0.500000  1
  Sn  Sn8  1  0.999601  0.999601  0.000000  1
