# generated using pymatgen
data_Li4Ca2DyYSi8
_symmetry_space_group_name_H-M   'P 1'
_cell_length_a   3.79402500
_cell_length_b   7.79382997
_cell_length_c   10.42494214
_cell_angle_alpha   89.40849800
_cell_angle_beta   90.00000000
_cell_angle_gamma   90.00000000
_symmetry_Int_Tables_number   1
_chemical_formula_structural   Li4Ca2DyYSi8
_chemical_formula_sum   'Li4 Ca2 Dy1 Y1 Si8'
_cell_volume   308.24896353
_cell_formula_units_Z   1
loop_
 _symmetry_equiv_pos_site_id
 _symmetry_equiv_pos_as_xyz
  1  'x, y, z'
loop_
 _atom_site_type_symbol
 _atom_site_label
 _atom_site_symmetry_multiplicity
 _atom_site_fract_x
 _atom_site_fract_y
 _atom_site_fract_z
 _atom_site_occupancy
  Li  Li0  1  0.250000  0.998091  0.389581  1
  Li  Li1  1  0.750000  0.000792  0.609745  1
  Li  Li2  1  0.250000  0.492356  0.109932  1
  Li  Li3  1  0.750000  0.509652  0.889893  1
  Ca  Ca4  1  0.250000  0.636012  0.634742  1
  Ca  Ca5  1  0.750000  0.362217  0.365534  1
  Dy  Dy6  1  0.750000  0.870057  0.135189  1
  Y  Y7  1  0.250000  0.130843  0.865118  1
  Si  Si8  1  0.750000  0.263280  0.062954  1
  Si  Si9  1  0.250000  0.738522  0.937983  1
  Si  Si10  1  0.750000  0.772423  0.426553  1
  Si  Si11  1  0.250000  0.226561  0.573226  1
  Si  Si12  1  0.750000  0.842956  0.826556  1
  Si  Si13  1  0.250000  0.156896  0.173371  1
  Si  Si14  1  0.750000  0.331560  0.683345  1
  Si  Si15  1  0.250000  0.667780  0.316279  1
