# generated using pymatgen
data_La4SmPaSe10
_symmetry_space_group_name_H-M   'P 1'
_cell_length_a   7.96960300
_cell_length_b   8.57561500
_cell_length_c   12.54806600
_cell_angle_alpha   90.00000000
_cell_angle_beta   90.00000000
_cell_angle_gamma   90.00000000
_symmetry_Int_Tables_number   1
_chemical_formula_structural   La4SmPaSe10
_chemical_formula_sum   'La8 Sm2 Pa2 Se20'
_cell_volume   857.58812246
_cell_formula_units_Z   2
loop_
 _symmetry_equiv_pos_site_id
 _symmetry_equiv_pos_as_xyz
  1  'x, y, z'
loop_
 _atom_site_type_symbol
 _atom_site_label
 _atom_site_symmetry_multiplicity
 _atom_site_fract_x
 _atom_site_fract_y
 _atom_site_fract_z
 _atom_site_occupancy
  La  La0  1  0.529948  0.502822  0.323183  1
  La  La1  1  0.970052  0.997178  0.823183  1
  La  La2  1  0.473203  0.997623  0.677491  1
  La  La3  1  0.026797  0.502377  0.177491  1
  La  La4  1  0.473203  0.502377  0.677491  1
  La  La5  1  0.026797  0.997623  0.177491  1
  La  La6  1  0.529948  0.997178  0.323183  1
  La  La7  1  0.970052  0.502822  0.823183  1
  Sm  Sm8  1  0.076266  0.750000  0.491493  1
  Sm  Sm9  1  0.423734  0.750000  0.991493  1
  Pa  Pa10  1  0.936058  0.250000  0.505656  1
  Pa  Pa11  1  0.563942  0.250000  0.005656  1
  Se  Se12  1  0.833469  0.967080  0.592967  1
  Se  Se13  1  0.666531  0.532920  0.092967  1
  Se  Se14  1  0.167162  0.450883  0.406764  1
  Se  Se15  1  0.332838  0.049117  0.906764  1
  Se  Se16  1  0.167162  0.049117  0.406764  1
  Se  Se17  1  0.332838  0.450883  0.906764  1
  Se  Se18  1  0.833469  0.532920  0.592967  1
  Se  Se19  1  0.666531  0.967080  0.092967  1
  Se  Se20  1  0.831491  0.750000  0.309861  1
  Se  Se21  1  0.668509  0.750000  0.809861  1
  Se  Se22  1  0.161297  0.250000  0.684750  1
  Se  Se23  1  0.338703  0.250000  0.184750  1
  Se  Se24  1  0.459160  0.750000  0.498524  1
  Se  Se25  1  0.040840  0.750000  0.998524  1
  Se  Se26  1  0.551043  0.250000  0.502388  1
  Se  Se27  1  0.948957  0.250000  0.002388  1
  Se  Se28  1  0.192524  0.750000  0.717012  1
  Se  Se29  1  0.307476  0.750000  0.217012  1
  Se  Se30  1  0.811130  0.250000  0.289508  1
  Se  Se31  1  0.688870  0.250000  0.789508  1
