# generated using pymatgen
data_Dy4Er3Tm9(In3Co)2
_symmetry_space_group_name_H-M   'P 1'
_cell_length_a   10.26813300
_cell_length_b   10.26945345
_cell_length_c   6.95422900
_cell_angle_alpha   90.00186133
_cell_angle_beta   90.00000000
_cell_angle_gamma   119.99574346
_symmetry_Int_Tables_number   1
_chemical_formula_structural   Dy4Er3Tm9(In3Co)2
_chemical_formula_sum   'Dy4 Er3 Tm9 In6 Co2'
_cell_volume   635.09261299
_cell_formula_units_Z   1
loop_
 _symmetry_equiv_pos_site_id
 _symmetry_equiv_pos_as_xyz
  1  'x, y, z'
loop_
 _atom_site_type_symbol
 _atom_site_label
 _atom_site_symmetry_multiplicity
 _atom_site_fract_x
 _atom_site_fract_y
 _atom_site_fract_z
 _atom_site_occupancy
  Dy  Dy0  1  0.534395  0.068788  0.791080  1
  Dy  Dy1  1  0.931583  0.465824  0.791363  1
  Dy  Dy2  1  0.534242  0.465824  0.791363  1
  Dy  Dy3  1  0.465412  0.930824  0.290871  1
  Er  Er4  1  0.333066  0.666133  0.682335  1
  Er  Er5  1  0.000000  0.999998  0.779218  1
  Er  Er6  1  0.000033  0.000065  0.279574  1
  Tm  Tm7  1  0.069518  0.534698  0.291442  1
  Tm  Tm8  1  0.465180  0.534698  0.291442  1
  Tm  Tm9  1  0.821534  0.643068  0.498117  1
  Tm  Tm10  1  0.356635  0.178727  0.498410  1
  Tm  Tm11  1  0.822092  0.178727  0.498410  1
  Tm  Tm12  1  0.178484  0.356967  0.000065  1
  Tm  Tm13  1  0.643406  0.821384  0.999558  1
  Tm  Tm14  1  0.177978  0.821384  0.999558  1
  Tm  Tm15  1  0.666920  0.333838  0.183485  1
  In  In16  1  0.837309  0.674619  0.039808  1
  In  In17  1  0.325492  0.162757  0.039345  1
  In  In18  1  0.837265  0.162757  0.039345  1
  In  In19  1  0.162943  0.325885  0.538351  1
  In  In20  1  0.674536  0.836965  0.538864  1
  In  In21  1  0.162429  0.836965  0.538864  1
  Co  Co22  1  0.666666  0.333331  0.567157  1
  Co  Co23  1  0.332886  0.665771  0.067879  1
