# generated using pymatgen
data_Li4TbP12Ir16Ru3
_symmetry_space_group_name_H-M   'P 1'
_cell_length_a   12.51632200
_cell_length_b   12.52771751
_cell_length_c   3.95032200
_cell_angle_alpha   90.00000000
_cell_angle_beta   90.00000000
_cell_angle_gamma   120.03012750
_symmetry_Int_Tables_number   1
_chemical_formula_structural   Li4TbP12Ir16Ru3
_chemical_formula_sum   'Li4 Tb1 P12 Ir16 Ru3'
_cell_volume   536.26553119
_cell_formula_units_Z   1
loop_
 _symmetry_equiv_pos_site_id
 _symmetry_equiv_pos_as_xyz
  1  'x, y, z'
loop_
 _atom_site_type_symbol
 _atom_site_label
 _atom_site_symmetry_multiplicity
 _atom_site_fract_x
 _atom_site_fract_y
 _atom_site_fract_z
 _atom_site_occupancy
  Li  Li0  1  0.668269  0.334768  0.000000  1
  Li  Li1  1  0.331731  0.666501  0.000000  1
  Li  Li2  1  0.824197  0.822495  0.500000  1
  Li  Li3  1  0.175803  0.998298  0.500000  1
  Tb  Tb4  1  0.000000  0.173401  0.500000  1
  P  P5  1  0.687340  0.173728  0.500000  1
  P  P6  1  0.826291  0.515518  0.500000  1
  P  P7  1  0.487069  0.312798  0.500000  1
  P  P8  1  0.173709  0.689227  0.500000  1
  P  P9  1  0.512931  0.825729  0.500000  1
  P  P10  1  0.312660  0.486388  0.500000  1
  P  P11  1  0.640631  0.640955  0.000000  1
  P  P12  1  0.359369  0.000323  0.000000  1
  P  P13  1  0.000000  0.360953  0.000000  1
  P  P14  1  0.184140  0.178432  0.000000  1
  P  P15  1  0.815860  0.994291  0.000000  1
  P  P16  1  0.000000  0.818057  0.000000  1
  Ir  Ir17  1  0.807172  0.180427  0.000000  1
  Ir  Ir18  1  0.817120  0.622166  0.000000  1
  Ir  Ir19  1  0.379146  0.196212  0.000000  1
  Ir  Ir20  1  0.182880  0.805046  0.000000  1
  Ir  Ir21  1  0.620854  0.817065  0.000000  1
  Ir  Ir22  1  0.192828  0.373255  0.000000  1
  Ir  Ir23  1  0.454530  0.458637  0.000000  1
  Ir  Ir24  1  0.545470  0.004107  0.000000  1
  Ir  Ir25  1  0.000000  0.543253  0.000000  1
  Ir  Ir26  1  0.868968  0.359684  0.500000  1
  Ir  Ir27  1  0.639369  0.511125  0.500000  1
  Ir  Ir28  1  0.490199  0.131238  0.500000  1
  Ir  Ir29  1  0.360631  0.871755  0.500000  1
  Ir  Ir30  1  0.509801  0.641038  0.500000  1
  Ir  Ir31  1  0.131032  0.490715  0.500000  1
  Ir  Ir32  1  0.000000  0.999169  0.000000  1
  Ru  Ru33  1  0.292533  0.293053  0.500000  1
  Ru  Ru34  1  0.707467  0.000520  0.500000  1
  Ru  Ru35  1  0.000000  0.709678  0.500000  1
