# generated using pymatgen
data_Th4GaSiH8
_symmetry_space_group_name_H-M   'P 1'
_cell_length_a   6.22430560
_cell_length_b   6.22430554
_cell_length_c   6.22430595
_cell_angle_alpha   106.16486430
_cell_angle_beta   106.16485914
_cell_angle_gamma   116.30797217
_symmetry_Int_Tables_number   1
_chemical_formula_structural   Th4GaSiH8
_chemical_formula_sum   'Th4 Ga1 Si1 H8'
_cell_volume   183.62600612
_cell_formula_units_Z   1
loop_
 _symmetry_equiv_pos_site_id
 _symmetry_equiv_pos_as_xyz
  1  'x, y, z'
loop_
 _atom_site_type_symbol
 _atom_site_label
 _atom_site_symmetry_multiplicity
 _atom_site_fract_x
 _atom_site_fract_y
 _atom_site_fract_z
 _atom_site_occupancy
  Th  Th0  1  0.832267  0.667733  0.500000  1
  Th  Th1  1  0.667733  0.167733  0.835468  1
  Th  Th2  1  0.167733  0.332267  0.500000  1
  Th  Th3  1  0.332267  0.832267  0.164532  1
  Ga  Ga4  1  0.750000  0.750000  0.000000  1
  Si  Si5  1  0.250000  0.250000  0.000000  1
  H  H6  1  0.223331  0.971755  0.499398  1
  H  H7  1  0.472357  0.723933  0.500602  1
  H  H8  1  0.723933  0.223331  0.251577  1
  H  H9  1  0.971755  0.472357  0.748423  1
  H  H10  1  0.276669  0.776067  0.748423  1
  H  H11  1  0.528245  0.276669  0.500602  1
  H  H12  1  0.027643  0.528245  0.251577  1
  H  H13  1  0.776067  0.027643  0.499398  1
