# generated using pymatgen
data_Ca3Pr(Ga5Pd3)2
_symmetry_space_group_name_H-M   'P 1'
_cell_length_a   8.78079823
_cell_length_b   8.78683635
_cell_length_c   8.78683700
_cell_angle_alpha   140.51778998
_cell_angle_beta   107.83267357
_cell_angle_gamma   85.53193615
_symmetry_Int_Tables_number   1
_chemical_formula_structural   Ca3Pr(Ga5Pd3)2
_chemical_formula_sum   'Ca3 Pr1 Ga10 Pd6'
_cell_volume   396.04637202
_cell_formula_units_Z   1
loop_
 _symmetry_equiv_pos_site_id
 _symmetry_equiv_pos_as_xyz
  1  'x, y, z'
loop_
 _atom_site_type_symbol
 _atom_site_label
 _atom_site_symmetry_multiplicity
 _atom_site_fract_x
 _atom_site_fract_y
 _atom_site_fract_z
 _atom_site_occupancy
  Ca  Ca0  1  0.633659  0.861058  0.772601  1
  Ca  Ca1  1  0.364885  0.137901  0.226983  1
  Ca  Ca2  1  0.089501  0.362470  0.727030  1
  Pr  Pr3  1  0.910478  0.638116  0.272361  1
  Ga  Ga4  1  0.288906  0.037888  0.748810  1
  Ga  Ga5  1  0.712737  0.961780  0.250228  1
  Ga  Ga6  1  0.712737  0.462508  0.750955  1
  Ga  Ga7  1  0.288906  0.540096  0.251017  1
  Ga  Ga8  1  0.431048  0.595914  0.835133  1
  Ga  Ga9  1  0.569426  0.404094  0.165333  1
  Ga  Ga10  1  0.761568  0.095705  0.665863  1
  Ga  Ga11  1  0.235833  0.902251  0.333581  1
  Ga  Ga12  1  0.999097  0.749100  0.749148  1
  Ga  Ga13  1  0.999097  0.249948  0.249997  1
  Pd  Pd14  1  0.240587  0.642892  0.597696  1
  Pd  Pd15  1  0.759309  0.355978  0.403330  1
  Pd  Pd16  1  0.048771  0.144321  0.904450  1
  Pd  Pd17  1  0.952768  0.857421  0.095346  1
  Pd  Pd18  1  0.500347  0.750915  0.250706  1
  Pd  Pd19  1  0.500347  0.249641  0.749433  1
