# generated using pymatgen
data_Rb8MgTl10
_symmetry_space_group_name_H-M   'P 1'
_cell_length_a   10.73394500
_cell_length_b   10.73394500
_cell_length_c   14.34092200
_cell_angle_alpha   90.00000000
_cell_angle_beta   90.00000000
_cell_angle_gamma   90.00000000
_symmetry_Int_Tables_number   1
_chemical_formula_structural   Rb8MgTl10
_chemical_formula_sum   'Rb16 Mg2 Tl20'
_cell_volume   1652.32625988
_cell_formula_units_Z   2
loop_
 _symmetry_equiv_pos_site_id
 _symmetry_equiv_pos_as_xyz
  1  'x, y, z'
loop_
 _atom_site_type_symbol
 _atom_site_label
 _atom_site_symmetry_multiplicity
 _atom_site_fract_x
 _atom_site_fract_y
 _atom_site_fract_z
 _atom_site_occupancy
  Rb  Rb0  1  0.954105  0.176225  0.104998  1
  Rb  Rb1  1  0.545894  0.323775  0.104998  1
  Rb  Rb2  1  0.176225  0.545894  0.104998  1
  Rb  Rb3  1  0.323775  0.954105  0.104998  1
  Rb  Rb4  1  0.545894  0.176225  0.395003  1
  Rb  Rb5  1  0.954105  0.323775  0.395003  1
  Rb  Rb6  1  0.323775  0.545894  0.395003  1
  Rb  Rb7  1  0.176225  0.954105  0.395003  1
  Rb  Rb8  1  0.823775  0.045894  0.604997  1
  Rb  Rb9  1  0.676225  0.454105  0.604997  1
  Rb  Rb10  1  0.045894  0.676225  0.604997  1
  Rb  Rb11  1  0.454105  0.823775  0.604997  1
  Rb  Rb12  1  0.676225  0.045894  0.895003  1
  Rb  Rb13  1  0.823775  0.454105  0.895003  1
  Rb  Rb14  1  0.454105  0.676225  0.895003  1
  Rb  Rb15  1  0.045894  0.823775  0.895003  1
  Mg  Mg16  1  0.750000  0.750000  0.250000  1
  Mg  Mg17  1  0.250000  0.250000  0.750000  1
  Tl  Tl18  1  0.750000  0.750000  0.040828  1
  Tl  Tl19  1  0.844540  0.511108  0.160626  1
  Tl  Tl20  1  0.511108  0.655461  0.160626  1
  Tl  Tl21  1  0.988892  0.844540  0.160626  1
  Tl  Tl22  1  0.655461  0.988892  0.160626  1
  Tl  Tl23  1  0.655461  0.511108  0.339373  1
  Tl  Tl24  1  0.988892  0.655461  0.339373  1
  Tl  Tl25  1  0.511108  0.844540  0.339373  1
  Tl  Tl26  1  0.844540  0.988892  0.339373  1
  Tl  Tl27  1  0.750000  0.750000  0.459172  1
  Tl  Tl28  1  0.250000  0.250000  0.540828  1
  Tl  Tl29  1  0.155461  0.011108  0.660626  1
  Tl  Tl30  1  0.488892  0.155461  0.660626  1
  Tl  Tl31  1  0.011108  0.344539  0.660626  1
  Tl  Tl32  1  0.344539  0.488892  0.660626  1
  Tl  Tl33  1  0.344539  0.011108  0.839373  1
  Tl  Tl34  1  0.011108  0.155461  0.839373  1
  Tl  Tl35  1  0.488892  0.344539  0.839373  1
  Tl  Tl36  1  0.155461  0.488892  0.839373  1
  Tl  Tl37  1  0.250000  0.250000  0.959172  1
