# generated using pymatgen
data_CaMn2Zn(AsO2)8
_symmetry_space_group_name_H-M   'P 1'
_cell_length_a   5.48270972
_cell_length_b   4.72470283
_cell_length_c   18.61647330
_cell_angle_alpha   90.03420073
_cell_angle_beta   89.62703655
_cell_angle_gamma   90.21906039
_symmetry_Int_Tables_number   1
_chemical_formula_structural   CaMn2Zn(AsO2)8
_chemical_formula_sum   'Ca1 Mn2 Zn1 As8 O16'
_cell_volume   482.23054515
_cell_formula_units_Z   1
loop_
 _symmetry_equiv_pos_site_id
 _symmetry_equiv_pos_as_xyz
  1  'x, y, z'
loop_
 _atom_site_type_symbol
 _atom_site_label
 _atom_site_symmetry_multiplicity
 _atom_site_fract_x
 _atom_site_fract_y
 _atom_site_fract_z
 _atom_site_occupancy
  Ca  Ca0  1  0.004104  0.263328  0.753218  1
  Mn  Mn1  1  0.990591  0.743986  0.252871  1
  Mn  Mn2  1  0.489819  0.252793  0.248699  1
  Zn  Zn3  1  0.510138  0.748431  0.752969  1
  As  As4  1  0.288369  0.519187  0.403996  1
  As  As5  1  0.789912  0.480750  0.096791  1
  As  As6  1  0.705983  0.489765  0.594485  1
  As  As7  1  0.215718  0.524446  0.906071  1
  As  As8  1  0.696872  0.016892  0.401731  1
  As  As9  1  0.199456  0.986368  0.098394  1
  As  As10  1  0.306050  0.982222  0.598930  1
  As  As11  1  0.795725  0.011342  0.904493  1
  O  O12  1  0.239955  0.496469  0.308800  1
  O  O13  1  0.741557  0.502626  0.191766  1
  O  O14  1  0.737394  0.527653  0.689608  1
  O  O15  1  0.292660  0.511850  0.813301  1
  O  O16  1  0.731796  0.991553  0.306250  1
  O  O17  1  0.230909  0.008346  0.193739  1
  O  O18  1  0.280434  0.980483  0.694720  1
  O  O19  1  0.751142  0.957412  0.811120  1
  O  O20  1  0.377544  0.893858  0.410153  1
  O  O21  1  0.880433  0.107928  0.089336  1
  O  O22  1  0.624001  0.111416  0.589493  1
  O  O23  1  0.115923  0.893777  0.912449  1
  O  O24  1  0.899093  0.384047  0.892649  1
  O  O25  1  0.388273  0.609912  0.585732  1
  O  O26  1  0.108707  0.610775  0.095178  1
  O  O27  1  0.607446  0.392388  0.403057  1
