# generated using pymatgen
data_La17Nd3Si15Se
_symmetry_space_group_name_H-M   'P 1'
_cell_length_a   7.96424088
_cell_length_b   8.05087404
_cell_length_c   15.41362900
_cell_angle_alpha   90.33861529
_cell_angle_beta   95.18292519
_cell_angle_gamma   89.67598908
_symmetry_Int_Tables_number   1
_chemical_formula_structural   La17Nd3Si15Se
_chemical_formula_sum   'La17 Nd3 Si15 Se1'
_cell_volume   984.23698789
_cell_formula_units_Z   1
loop_
 _symmetry_equiv_pos_site_id
 _symmetry_equiv_pos_as_xyz
  1  'x, y, z'
loop_
 _atom_site_type_symbol
 _atom_site_label
 _atom_site_symmetry_multiplicity
 _atom_site_fract_x
 _atom_site_fract_y
 _atom_site_fract_z
 _atom_site_occupancy
  La  La0  1  0.633650  0.161528  0.614298  1
  La  La1  1  0.180609  0.321398  0.880242  1
  La  La2  1  0.317912  0.823183  0.121209  1
  La  La3  1  0.865002  0.662315  0.383617  1
  La  La4  1  0.361313  0.836960  0.386296  1
  La  La5  1  0.818174  0.679652  0.121673  1
  La  La6  1  0.679442  0.179789  0.879871  1
  La  La7  1  0.135367  0.336029  0.614621  1
  La  La8  1  0.489192  0.673164  0.604800  1
  La  La9  1  0.033701  0.808793  0.895419  1
  La  La10  1  0.467230  0.314261  0.103728  1
  La  La11  1  0.013146  0.186664  0.398807  1
  La  La12  1  0.507654  0.322262  0.396704  1
  La  La13  1  0.968121  0.188593  0.103631  1
  La  La14  1  0.534864  0.689759  0.896942  1
  La  La15  1  0.998628  0.811033  0.604102  1
  La  La16  1  0.833244  0.506217  0.744774  1
  Nd  Nd17  1  0.329651  0.990074  0.747587  1
  Nd  Nd18  1  0.171174  0.493276  0.252963  1
  Nd  Nd19  1  0.669368  0.009868  0.245521  1
  Si  Si20  1  0.131354  0.524221  0.044843  1
  Si  Si21  1  0.366196  0.024388  0.957162  1
  Si  Si22  1  0.783823  0.469125  0.542036  1
  Si  Si23  1  0.284864  0.023248  0.548756  1
  Si  Si24  1  0.867640  0.475425  0.958568  1
  Si  Si25  1  0.630905  0.978783  0.044458  1
  Si  Si26  1  0.210540  0.528424  0.452341  1
  Si  Si27  1  0.452163  0.396939  0.750935  1
  Si  Si28  1  0.950006  0.098040  0.750510  1
  Si  Si29  1  0.547286  0.600750  0.250915  1
  Si  Si30  1  0.047734  0.901577  0.252222  1
  Si  Si31  1  0.723984  0.879781  0.751582  1
  Si  Si32  1  0.228954  0.621938  0.751879  1
  Si  Si33  1  0.275647  0.124894  0.249919  1
  Si  Si34  1  0.776482  0.376984  0.249601  1
  Se  Se35  1  0.714974  0.980668  0.447468  1
