# generated using pymatgen
data_Nd16SmY3Pb16
_symmetry_space_group_name_H-M   'P 1'
_cell_length_a   8.41591603
_cell_length_b   16.13746100
_cell_length_c   8.49648900
_cell_angle_alpha   90.00000000
_cell_angle_beta   90.00442522
_cell_angle_gamma   90.00000000
_symmetry_Int_Tables_number   1
_chemical_formula_structural   Nd16SmY3Pb16
_chemical_formula_sum   'Nd16 Sm1 Y3 Pb16'
_cell_volume   1153.92105372
_cell_formula_units_Z   1
loop_
 _symmetry_equiv_pos_site_id
 _symmetry_equiv_pos_as_xyz
  1  'x, y, z'
loop_
 _atom_site_type_symbol
 _atom_site_label
 _atom_site_symmetry_multiplicity
 _atom_site_fract_x
 _atom_site_fract_y
 _atom_site_fract_z
 _atom_site_occupancy
  Nd  Nd0  1  0.622329  0.619474  0.158484  1
  Nd  Nd1  1  0.122333  0.880447  0.341257  1
  Nd  Nd2  1  0.377450  0.119514  0.841386  1
  Nd  Nd3  1  0.877823  0.380448  0.658558  1
  Nd  Nd4  1  0.377450  0.380486  0.841386  1
  Nd  Nd5  1  0.877823  0.119552  0.658558  1
  Nd  Nd6  1  0.622329  0.880526  0.158484  1
  Nd  Nd7  1  0.122333  0.619553  0.341257  1
  Nd  Nd8  1  0.466409  0.600368  0.676873  1
  Nd  Nd9  1  0.966324  0.899611  0.823086  1
  Nd  Nd10  1  0.533629  0.100480  0.323246  1
  Nd  Nd11  1  0.033695  0.399601  0.177027  1
  Nd  Nd12  1  0.533629  0.399520  0.323246  1
  Nd  Nd13  1  0.033695  0.100399  0.177027  1
  Nd  Nd14  1  0.466409  0.899632  0.676873  1
  Nd  Nd15  1  0.966324  0.600389  0.823086  1
  Sm  Sm16  1  0.708812  0.250000  0.996968  1
  Y  Y17  1  0.790703  0.750000  0.496788  1
  Y  Y18  1  0.290595  0.750000  0.003094  1
  Y  Y19  1  0.209398  0.250000  0.503330  1
  Pb  Pb20  1  0.718566  0.455557  0.968217  1
  Pb  Pb21  1  0.218705  0.044645  0.531862  1
  Pb  Pb22  1  0.281348  0.955270  0.031682  1
  Pb  Pb23  1  0.781453  0.544723  0.468233  1
  Pb  Pb24  1  0.281348  0.544730  0.031682  1
  Pb  Pb25  1  0.781453  0.955277  0.468233  1
  Pb  Pb26  1  0.718566  0.044443  0.968217  1
  Pb  Pb27  1  0.218705  0.455355  0.531862  1
  Pb  Pb28  1  0.427668  0.750000  0.374971  1
  Pb  Pb29  1  0.927647  0.750000  0.124939  1
  Pb  Pb30  1  0.572501  0.250000  0.624327  1
  Pb  Pb31  1  0.073296  0.250000  0.874938  1
  Pb  Pb32  1  0.655511  0.750000  0.847612  1
  Pb  Pb33  1  0.155300  0.750000  0.652332  1
  Pb  Pb34  1  0.344152  0.250000  0.152297  1
  Pb  Pb35  1  0.844284  0.250000  0.348585  1
