# generated using pymatgen
data_SmY5CuRh17
_symmetry_space_group_name_H-M   'P 1'
_cell_length_a   5.29511500
_cell_length_b   5.29684195
_cell_length_c   17.40020800
_cell_angle_alpha   90.00000000
_cell_angle_beta   90.00000000
_cell_angle_gamma   119.96531641
_symmetry_Int_Tables_number   1
_chemical_formula_structural   SmY5CuRh17
_chemical_formula_sum   'Sm1 Y5 Cu1 Rh17'
_cell_volume   422.79433548
_cell_formula_units_Z   1
loop_
 _symmetry_equiv_pos_site_id
 _symmetry_equiv_pos_as_xyz
  1  'x, y, z'
loop_
 _atom_site_type_symbol
 _atom_site_label
 _atom_site_symmetry_multiplicity
 _atom_site_fract_x
 _atom_site_fract_y
 _atom_site_fract_z
 _atom_site_occupancy
  Sm  Sm0  1  0.666676  0.333325  0.250000  1
  Y  Y1  1  0.333333  0.666694  0.957754  1
  Y  Y2  1  0.666663  0.333323  0.041950  1
  Y  Y3  1  0.666663  0.333323  0.458050  1
  Y  Y4  1  0.333333  0.666694  0.542246  1
  Y  Y5  1  0.333328  0.666648  0.750000  1
  Cu  Cu6  1  0.333366  0.666702  0.250000  1
  Rh  Rh7  1  0.168633  0.831367  0.373420  1
  Rh  Rh8  1  0.168633  0.337241  0.373416  1
  Rh  Rh9  1  0.662727  0.831349  0.373428  1
  Rh  Rh10  1  0.832925  0.167063  0.625088  1
  Rh  Rh11  1  0.832920  0.665880  0.625089  1
  Rh  Rh12  1  0.334119  0.167072  0.625085  1
  Rh  Rh13  1  0.832925  0.167063  0.874912  1
  Rh  Rh14  1  0.832920  0.665880  0.874911  1
  Rh  Rh15  1  0.334119  0.167072  0.874915  1
  Rh  Rh16  1  0.168633  0.831367  0.126580  1
  Rh  Rh17  1  0.168633  0.337241  0.126584  1
  Rh  Rh18  1  0.662727  0.831349  0.126572  1
  Rh  Rh19  1  0.666689  0.333307  0.750000  1
  Rh  Rh20  1  0.999994  0.999963  0.250000  1
  Rh  Rh21  1  0.000012  0.000037  0.750000  1
  Rh  Rh22  1  0.000012  0.000019  0.497943  1
  Rh  Rh23  1  0.000012  0.000019  0.002057  1
