# generated using pymatgen
data_LaYb5Dy2(Cu2Sn5)2
_symmetry_space_group_name_H-M   'P 1'
_cell_length_a   4.46339600
_cell_length_b   8.84802100
_cell_length_c   14.09228200
_cell_angle_alpha   90.00000000
_cell_angle_beta   90.00000000
_cell_angle_gamma   90.00000000
_symmetry_Int_Tables_number   1
_chemical_formula_structural   LaYb5Dy2(Cu2Sn5)2
_chemical_formula_sum   'La1 Yb5 Dy2 Cu4 Sn10'
_cell_volume   556.53552274
_cell_formula_units_Z   1
loop_
 _symmetry_equiv_pos_site_id
 _symmetry_equiv_pos_as_xyz
  1  'x, y, z'
loop_
 _atom_site_type_symbol
 _atom_site_label
 _atom_site_symmetry_multiplicity
 _atom_site_fract_x
 _atom_site_fract_y
 _atom_site_fract_z
 _atom_site_occupancy
  La  La0  1  0.500000  0.140291  0.000000  1
  Yb  Yb1  1  0.500000  0.791749  0.741482  1
  Yb  Yb2  1  0.000000  0.205469  0.753882  1
  Yb  Yb3  1  0.000000  0.205469  0.246118  1
  Yb  Yb4  1  0.000000  0.865882  0.500000  1
  Yb  Yb5  1  0.500000  0.791749  0.258518  1
  Dy  Dy6  1  0.500000  0.694332  0.000000  1
  Dy  Dy7  1  0.000000  0.297878  0.500000  1
  Cu  Cu8  1  0.500000  0.378325  0.644010  1
  Cu  Cu9  1  0.000000  0.623246  0.854034  1
  Cu  Cu10  1  0.000000  0.623246  0.145966  1
  Cu  Cu11  1  0.500000  0.378325  0.355990  1
  Sn  Sn12  1  0.500000  0.084871  0.395799  1
  Sn  Sn13  1  0.000000  0.553173  0.662802  1
  Sn  Sn14  1  0.000000  0.416450  0.000000  1
  Sn  Sn15  1  0.500000  0.445793  0.165125  1
  Sn  Sn16  1  0.500000  0.593300  0.500000  1
  Sn  Sn17  1  0.500000  0.445793  0.834875  1
  Sn  Sn18  1  0.000000  0.913307  0.895753  1
  Sn  Sn19  1  0.000000  0.553173  0.337198  1
  Sn  Sn20  1  0.500000  0.084871  0.604201  1
  Sn  Sn21  1  0.000000  0.913307  0.104247  1
