# generated using pymatgen
data_Li2NiSn3O8
_symmetry_space_group_name_H-M   'P 1'
_cell_length_a   6.17055111
_cell_length_b   6.17055099
_cell_length_c   6.17055174
_cell_angle_alpha   61.55628840
_cell_angle_beta   61.55628657
_cell_angle_gamma   61.55628481
_symmetry_Int_Tables_number   1
_chemical_formula_structural   Li2NiSn3O8
_chemical_formula_sum   'Li2 Ni1 Sn3 O8'
_cell_volume   171.93489666
_cell_formula_units_Z   1
loop_
 _symmetry_equiv_pos_site_id
 _symmetry_equiv_pos_as_xyz
  1  'x, y, z'
loop_
 _atom_site_type_symbol
 _atom_site_label
 _atom_site_symmetry_multiplicity
 _atom_site_fract_x
 _atom_site_fract_y
 _atom_site_fract_z
 _atom_site_occupancy
  Li  Li0  1  0.119914  0.119914  0.119914  1
  Li  Li1  1  0.880086  0.880086  0.880086  1
  Ni  Ni2  1  0.500000  0.500000  0.500000  1
  Sn  Sn3  1  0.500000  0.000000  0.500000  1
  Sn  Sn4  1  0.000000  0.500000  0.500000  1
  Sn  Sn5  1  0.500000  0.500000  0.000000  1
  O  O6  1  0.256546  0.256546  0.256546  1
  O  O7  1  0.259419  0.259419  0.714022  1
  O  O8  1  0.714022  0.259419  0.259419  1
  O  O9  1  0.259419  0.714022  0.259419  1
  O  O10  1  0.740581  0.285978  0.740581  1
  O  O11  1  0.285978  0.740581  0.740581  1
  O  O12  1  0.740581  0.740581  0.285978  1
  O  O13  1  0.743454  0.743454  0.743454  1
