# generated using pymatgen
data_Nd2Ga3GeIr4
_symmetry_space_group_name_H-M   'P 1'
_cell_length_a   4.26691200
_cell_length_b   4.26691200
_cell_length_c   10.32974000
_cell_angle_alpha   90.00000000
_cell_angle_beta   90.00000000
_cell_angle_gamma   90.00000000
_symmetry_Int_Tables_number   1
_chemical_formula_structural   Nd2Ga3GeIr4
_chemical_formula_sum   'Nd2 Ga3 Ge1 Ir4'
_cell_volume   188.06880400
_cell_formula_units_Z   1
loop_
 _symmetry_equiv_pos_site_id
 _symmetry_equiv_pos_as_xyz
  1  'x, y, z'
loop_
 _atom_site_type_symbol
 _atom_site_label
 _atom_site_symmetry_multiplicity
 _atom_site_fract_x
 _atom_site_fract_y
 _atom_site_fract_z
 _atom_site_occupancy
  Nd  Nd0  1  0.000000  0.500000  0.245291  1
  Nd  Nd1  1  0.500000  0.000000  0.752475  1
  Ga  Ga2  1  0.000000  0.000000  0.499603  1
  Ga  Ga3  1  0.500000  0.500000  0.499603  1
  Ga  Ga4  1  0.000000  0.500000  0.871775  1
  Ge  Ge5  1  0.500000  0.000000  0.127254  1
  Ir  Ir6  1  0.000000  0.000000  0.003467  1
  Ir  Ir7  1  0.500000  0.500000  0.003467  1
  Ir  Ir8  1  0.000000  0.500000  0.630757  1
  Ir  Ir9  1  0.500000  0.000000  0.366308  1
