# generated using pymatgen
data_Mo2IrRu4Pt
_symmetry_space_group_name_H-M   'P 1'
_cell_length_a   5.51291729
_cell_length_b   5.51291812
_cell_length_c   4.40738100
_cell_angle_alpha   90.00000000
_cell_angle_beta   90.00000000
_cell_angle_gamma   119.53434811
_symmetry_Int_Tables_number   1
_chemical_formula_structural   Mo2IrRu4Pt
_chemical_formula_sum   'Mo2 Ir1 Ru4 Pt1'
_cell_volume   116.54482274
_cell_formula_units_Z   1
loop_
 _symmetry_equiv_pos_site_id
 _symmetry_equiv_pos_as_xyz
  1  'x, y, z'
loop_
 _atom_site_type_symbol
 _atom_site_label
 _atom_site_symmetry_multiplicity
 _atom_site_fract_x
 _atom_site_fract_y
 _atom_site_fract_z
 _atom_site_occupancy
  Mo  Mo0  1  0.664437  0.335563  0.250000  1
  Mo  Mo1  1  0.338792  0.661208  0.750000  1
  Ir  Ir2  1  0.834013  0.165987  0.750000  1
  Ru  Ru3  1  0.331589  0.171168  0.750000  1
  Ru  Ru4  1  0.828832  0.668411  0.750000  1
  Ru  Ru5  1  0.666463  0.829881  0.250000  1
  Ru  Ru6  1  0.170119  0.333537  0.250000  1
  Pt  Pt7  1  0.165755  0.834245  0.250000  1
