# generated using pymatgen
data_HoSc5CoTe2
_symmetry_space_group_name_H-M   'P 1'
_cell_length_a   7.87729931
_cell_length_b   7.87729909
_cell_length_c   3.80816900
_cell_angle_alpha   90.00000000
_cell_angle_beta   90.00000000
_cell_angle_gamma   120.49438542
_symmetry_Int_Tables_number   1
_chemical_formula_structural   HoSc5CoTe2
_chemical_formula_sum   'Ho1 Sc5 Co1 Te2'
_cell_volume   203.61808588
_cell_formula_units_Z   1
loop_
 _symmetry_equiv_pos_site_id
 _symmetry_equiv_pos_as_xyz
  1  'x, y, z'
loop_
 _atom_site_type_symbol
 _atom_site_label
 _atom_site_symmetry_multiplicity
 _atom_site_fract_x
 _atom_site_fract_y
 _atom_site_fract_z
 _atom_site_occupancy
  Ho  Ho0  1  0.392629  0.392629  0.500000  1
  Sc  Sc1  1  0.229312  0.996005  0.000000  1
  Sc  Sc2  1  0.996005  0.229312  0.000000  1
  Sc  Sc3  1  0.768552  0.768552  0.000000  1
  Sc  Sc4  1  0.611474  0.000181  0.500000  1
  Sc  Sc5  1  0.000181  0.611474  0.500000  1
  Co  Co6  1  0.996915  0.996915  0.500000  1
  Te  Te7  1  0.331181  0.673750  0.000000  1
  Te  Te8  1  0.673750  0.331181  0.000000  1
