# generated using pymatgen
data_CeEr5Al18
_symmetry_space_group_name_H-M   'P 1'
_cell_length_a   14.50776693
_cell_length_b   14.50776733
_cell_length_c   14.50776862
_cell_angle_alpha   24.41985467
_cell_angle_beta   24.41985104
_cell_angle_gamma   24.41985295
_symmetry_Int_Tables_number   1
_chemical_formula_structural   CeEr5Al18
_chemical_formula_sum   'Ce1 Er5 Al18'
_cell_volume   458.81348712
_cell_formula_units_Z   1
loop_
 _symmetry_equiv_pos_site_id
 _symmetry_equiv_pos_as_xyz
  1  'x, y, z'
loop_
 _atom_site_type_symbol
 _atom_site_label
 _atom_site_symmetry_multiplicity
 _atom_site_fract_x
 _atom_site_fract_y
 _atom_site_fract_z
 _atom_site_occupancy
  Ce  Ce0  1  0.109006  0.109006  0.109006  1
  Er  Er1  1  0.891205  0.891205  0.891205  1
  Er  Er2  1  0.390645  0.390645  0.390645  1
  Er  Er3  1  0.999596  0.999596  0.999596  1
  Er  Er4  1  0.500049  0.500049  0.500049  1
  Er  Er5  1  0.609240  0.609240  0.609240  1
  Al  Al6  1  0.922623  0.371944  0.371944  1
  Al  Al7  1  0.421485  0.870758  0.870758  1
  Al  Al8  1  0.371944  0.371944  0.922623  1
  Al  Al9  1  0.870758  0.870758  0.421485  1
  Al  Al10  1  0.371944  0.922623  0.371944  1
  Al  Al11  1  0.870758  0.421485  0.870758  1
  Al  Al12  1  0.577898  0.128486  0.128486  1
  Al  Al13  1  0.079241  0.627915  0.627915  1
  Al  Al14  1  0.128486  0.128486  0.577898  1
  Al  Al15  1  0.627915  0.627915  0.079241  1
  Al  Al16  1  0.128486  0.577898  0.128486  1
  Al  Al17  1  0.627915  0.079241  0.627915  1
  Al  Al18  1  0.499081  0.499081  0.000765  1
  Al  Al19  1  0.001203  0.001203  0.499471  1
  Al  Al20  1  0.499081  0.000765  0.499081  1
  Al  Al21  1  0.001203  0.499471  0.001203  1
  Al  Al22  1  0.000765  0.499081  0.499081  1
  Al  Al23  1  0.499471  0.001203  0.001203  1
