# generated using pymatgen
data_Dy3Th(Si4Tc3)2
_symmetry_space_group_name_H-M   'P 1'
_cell_length_a   6.81176345
_cell_length_b   6.88758973
_cell_length_c   6.81469364
_cell_angle_alpha   69.58505073
_cell_angle_beta   89.89300023
_cell_angle_gamma   88.46324476
_symmetry_Int_Tables_number   1
_chemical_formula_structural   Dy3Th(Si4Tc3)2
_chemical_formula_sum   'Dy3 Th1 Si8 Tc6'
_cell_volume   299.52369005
_cell_formula_units_Z   1
loop_
 _symmetry_equiv_pos_site_id
 _symmetry_equiv_pos_as_xyz
  1  'x, y, z'
loop_
 _atom_site_type_symbol
 _atom_site_label
 _atom_site_symmetry_multiplicity
 _atom_site_fract_x
 _atom_site_fract_y
 _atom_site_fract_z
 _atom_site_occupancy
  Dy  Dy0  1  0.167897  0.057968  0.808334  1
  Dy  Dy1  1  0.331583  0.555128  0.807830  1
  Dy  Dy2  1  0.832382  0.938290  0.191145  1
  Th  Th3  1  0.664943  0.449013  0.187670  1
  Si  Si4  1  0.448572  0.127168  0.095466  1
  Si  Si5  1  0.945232  0.378799  0.889357  1
  Si  Si6  1  0.549840  0.883653  0.894209  1
  Si  Si7  1  0.070676  0.613544  0.112345  1
  Si  Si8  1  0.859599  0.123380  0.512331  1
  Si  Si9  1  0.344433  0.371732  0.476452  1
  Si  Si10  1  0.139843  0.867239  0.494184  1
  Si  Si11  1  0.645790  0.634312  0.526723  1
  Tc  Tc12  1  0.501340  0.002688  0.498444  1
  Tc  Tc13  1  0.998727  0.501709  0.499094  1
  Tc  Tc14  1  0.143042  0.224897  0.236714  1
  Tc  Tc15  1  0.650921  0.250539  0.754102  1
  Tc  Tc16  1  0.854279  0.762927  0.768707  1
  Tc  Tc17  1  0.350901  0.757014  0.246893  1
