# generated using pymatgen
data_Li4LaTh3Pt4
_symmetry_space_group_name_H-M   'P 1'
_cell_length_a   4.12345300
_cell_length_b   7.27537404
_cell_length_c   8.62963300
_cell_angle_alpha   90.03058768
_cell_angle_beta   90.00000000
_cell_angle_gamma   90.00000000
_symmetry_Int_Tables_number   1
_chemical_formula_structural   Li4LaTh3Pt4
_chemical_formula_sum   'Li4 La1 Th3 Pt4'
_cell_volume   258.88604404
_cell_formula_units_Z   1
loop_
 _symmetry_equiv_pos_site_id
 _symmetry_equiv_pos_as_xyz
  1  'x, y, z'
loop_
 _atom_site_type_symbol
 _atom_site_label
 _atom_site_symmetry_multiplicity
 _atom_site_fract_x
 _atom_site_fract_y
 _atom_site_fract_z
 _atom_site_occupancy
  Li  Li0  1  0.250000  0.125584  0.057329  1
  Li  Li1  1  0.250000  0.624799  0.442993  1
  Li  Li2  1  0.750000  0.873652  0.943434  1
  Li  Li3  1  0.750000  0.374755  0.555539  1
  La  La4  1  0.250000  0.046020  0.690733  1
  Th  Th5  1  0.250000  0.549257  0.810222  1
  Th  Th6  1  0.750000  0.952192  0.311093  1
  Th  Th7  1  0.750000  0.453708  0.188872  1
  Pt  Pt8  1  0.250000  0.239670  0.371570  1
  Pt  Pt9  1  0.250000  0.737461  0.122292  1
  Pt  Pt10  1  0.750000  0.750336  0.618585  1
  Pt  Pt11  1  0.750000  0.272566  0.887338  1
