# generated using pymatgen
data_Zr12Al4Ru3Rh5N4
_symmetry_space_group_name_H-M   'P 1'
_cell_length_a   8.56923472
_cell_length_b   8.56923447
_cell_length_c   8.56923526
_cell_angle_alpha   60.08163506
_cell_angle_beta   60.08163529
_cell_angle_gamma   60.08163118
_symmetry_Int_Tables_number   1
_chemical_formula_structural   Zr12Al4Ru3Rh5N4
_chemical_formula_sum   'Zr12 Al4 Ru3 Rh5 N4'
_cell_volume   445.77302774
_cell_formula_units_Z   1
loop_
 _symmetry_equiv_pos_site_id
 _symmetry_equiv_pos_as_xyz
  1  'x, y, z'
loop_
 _atom_site_type_symbol
 _atom_site_label
 _atom_site_symmetry_multiplicity
 _atom_site_fract_x
 _atom_site_fract_y
 _atom_site_fract_z
 _atom_site_occupancy
  Zr  Zr0  1  0.807825  0.807825  0.192030  1
  Zr  Zr1  1  0.192604  0.192604  0.808161  1
  Zr  Zr2  1  0.807825  0.192030  0.807825  1
  Zr  Zr3  1  0.192604  0.808161  0.192604  1
  Zr  Zr4  1  0.192030  0.807825  0.807825  1
  Zr  Zr5  1  0.808161  0.192604  0.192604  1
  Zr  Zr6  1  0.440582  0.440582  0.055732  1
  Zr  Zr7  1  0.059499  0.059499  0.440207  1
  Zr  Zr8  1  0.440582  0.055732  0.440582  1
  Zr  Zr9  1  0.059499  0.440207  0.059499  1
  Zr  Zr10  1  0.055732  0.440582  0.440582  1
  Zr  Zr11  1  0.440207  0.059499  0.059499  1
  Al  Al12  1  0.123585  0.625843  0.625843  1
  Al  Al13  1  0.625843  0.123585  0.625843  1
  Al  Al14  1  0.625843  0.625843  0.123585  1
  Al  Al15  1  0.625972  0.625972  0.625972  1
  Ru  Ru16  1  0.749116  0.417447  0.417447  1
  Ru  Ru17  1  0.417447  0.749116  0.417447  1
  Ru  Ru18  1  0.417447  0.417447  0.749116  1
  Rh  Rh19  1  0.416194  0.416194  0.416194  1
  Rh  Rh20  1  0.497358  0.834264  0.834264  1
  Rh  Rh21  1  0.834264  0.497358  0.834264  1
  Rh  Rh22  1  0.834264  0.834264  0.497358  1
  Rh  Rh23  1  0.834325  0.834325  0.834325  1
  N  N24  1  0.625093  0.125548  0.125548  1
  N  N25  1  0.125548  0.625093  0.125548  1
  N  N26  1  0.125548  0.125548  0.625093  1
  N  N27  1  0.125001  0.125001  0.125001  1
