# generated using pymatgen
data_Dy9HoGa3NiBi2
_symmetry_space_group_name_H-M   'P 1'
_cell_length_a   8.58239354
_cell_length_b   8.58239459
_cell_length_c   8.76298523
_cell_angle_alpha   124.33519895
_cell_angle_beta   124.33322927
_cell_angle_gamma   81.27021305
_symmetry_Int_Tables_number   1
_chemical_formula_structural   Dy9HoGa3NiBi2
_chemical_formula_sum   'Dy9 Ho1 Ga3 Ni1 Bi2'
_cell_volume   426.83052283
_cell_formula_units_Z   1
loop_
 _symmetry_equiv_pos_site_id
 _symmetry_equiv_pos_as_xyz
  1  'x, y, z'
loop_
 _atom_site_type_symbol
 _atom_site_label
 _atom_site_symmetry_multiplicity
 _atom_site_fract_x
 _atom_site_fract_y
 _atom_site_fract_z
 _atom_site_occupancy
  Dy  Dy0  1  0.502652  0.504684  0.007336  1
  Dy  Dy1  1  0.780156  0.296240  0.795819  1
  Dy  Dy2  1  0.203694  0.719886  0.204167  1
  Dy  Dy3  1  0.484280  0.000472  0.204167  1
  Dy  Dy4  1  0.303181  0.459966  0.499949  1
  Dy  Dy5  1  0.039982  0.196768  0.499949  1
  Dy  Dy6  1  0.499579  0.015664  0.795819  1
  Dy  Dy7  1  0.704459  0.515910  0.500046  1
  Dy  Dy8  1  0.984136  0.795586  0.500046  1
  Ho  Ho9  1  0.995337  0.997364  0.992701  1
  Ga  Ga10  1  0.146054  0.644579  0.790634  1
  Ga  Ga11  1  0.855524  0.353848  0.209372  1
  Ga  Ga12  1  0.634473  0.865626  0.500100  1
  Ni  Ni13  1  0.377359  0.122544  0.499903  1
  Bi  Bi14  1  0.244510  0.255372  0.999997  1
  Bi  Bi15  1  0.744625  0.755487  0.999997  1
