# generated using pymatgen
data_Nd5Th3Zn7CuRh8
_symmetry_space_group_name_H-M   'P 1'
_cell_length_a   3.93234900
_cell_length_b   7.51196758
_cell_length_c   16.59478333
_cell_angle_alpha   90.22469347
_cell_angle_beta   90.00000000
_cell_angle_gamma   90.00000000
_symmetry_Int_Tables_number   1
_chemical_formula_structural   Nd5Th3Zn7CuRh8
_chemical_formula_sum   'Nd5 Th3 Zn7 Cu1 Rh8'
_cell_volume   490.20078964
_cell_formula_units_Z   1
loop_
 _symmetry_equiv_pos_site_id
 _symmetry_equiv_pos_as_xyz
  1  'x, y, z'
loop_
 _atom_site_type_symbol
 _atom_site_label
 _atom_site_symmetry_multiplicity
 _atom_site_fract_x
 _atom_site_fract_y
 _atom_site_fract_z
 _atom_site_occupancy
  Nd  Nd0  1  0.750000  0.944357  0.285852  1
  Nd  Nd1  1  0.750000  0.829285  0.062290  1
  Nd  Nd2  1  0.750000  0.447198  0.214050  1
  Nd  Nd3  1  0.250000  0.054541  0.711196  1
  Nd  Nd4  1  0.250000  0.552425  0.786235  1
  Th  Th5  1  0.250000  0.172315  0.939760  1
  Th  Th6  1  0.250000  0.678234  0.561840  1
  Th  Th7  1  0.750000  0.324704  0.439950  1
  Zn  Zn8  1  0.250000  0.617363  0.346296  1
  Zn  Zn9  1  0.750000  0.379764  0.653088  1
  Zn  Zn10  1  0.250000  0.503003  0.059531  1
  Zn  Zn11  1  0.750000  0.510724  0.940671  1
  Zn  Zn12  1  0.250000  0.993981  0.442597  1
  Zn  Zn13  1  0.250000  0.115979  0.152981  1
  Zn  Zn14  1  0.750000  0.882373  0.844277  1
  Cu  Cu15  1  0.750000  0.004518  0.556322  1
  Rh  Rh16  1  0.750000  0.738341  0.441398  1
  Rh  Rh17  1  0.250000  0.247053  0.320322  1
  Rh  Rh18  1  0.750000  0.247545  0.820922  1
  Rh  Rh19  1  0.750000  0.746424  0.681013  1
  Rh  Rh20  1  0.250000  0.264130  0.558352  1
  Rh  Rh21  1  0.250000  0.742653  0.188093  1
  Rh  Rh22  1  0.750000  0.247628  0.058966  1
  Rh  Rh23  1  0.250000  0.755463  0.933999  1
