# generated using pymatgen
data_YPa2P4Pd7
_symmetry_space_group_name_H-M   'P 1'
_cell_length_a   7.91599017
_cell_length_b   7.91599106
_cell_length_c   9.47409782
_cell_angle_alpha   55.93472114
_cell_angle_beta   55.93471573
_cell_angle_gamma   29.51853361
_symmetry_Int_Tables_number   1
_chemical_formula_structural   YPa2P4Pd7
_chemical_formula_sum   'Y1 Pa2 P4 Pd7'
_cell_volume   238.43669221
_cell_formula_units_Z   1
loop_
 _symmetry_equiv_pos_site_id
 _symmetry_equiv_pos_as_xyz
  1  'x, y, z'
loop_
 _atom_site_type_symbol
 _atom_site_label
 _atom_site_symmetry_multiplicity
 _atom_site_fract_x
 _atom_site_fract_y
 _atom_site_fract_z
 _atom_site_occupancy
  Y  Y0  1  0.184433  0.184433  0.816134  1
  Pa  Pa1  1  0.498199  0.498199  0.503132  1
  Pa  Pa2  1  0.817946  0.817946  0.178628  1
  P  P3  1  0.394390  0.394390  0.322646  1
  P  P4  1  0.605334  0.605334  0.675745  1
  P  P5  1  0.846222  0.846222  0.742714  1
  P  P6  1  0.153282  0.153282  0.259624  1
  Pd  Pd7  1  0.670228  0.670228  0.069428  1
  Pd  Pd8  1  0.010273  0.010273  0.205743  1
  Pd  Pd9  1  0.988156  0.988156  0.797605  1
  Pd  Pd10  1  0.499817  0.499817  0.997509  1
  Pd  Pd11  1  0.190211  0.190211  0.478318  1
  Pd  Pd12  1  0.808972  0.808972  0.521165  1
  Pd  Pd13  1  0.332537  0.332537  0.931611  1
