# generated using pymatgen
data_Zn12Co8Si3Ge
_symmetry_space_group_name_H-M   'P 1'
_cell_length_a   7.58095800
_cell_length_b   7.58095743
_cell_length_c   7.59517765
_cell_angle_alpha   119.93808462
_cell_angle_beta   90.00000000
_cell_angle_gamma   120.00000250
_symmetry_Int_Tables_number   1
_chemical_formula_structural   Zn12Co8Si3Ge
_chemical_formula_sum   'Zn12 Co8 Si3 Ge1'
_cell_volume   308.94194190
_cell_formula_units_Z   1
loop_
 _symmetry_equiv_pos_site_id
 _symmetry_equiv_pos_as_xyz
  1  'x, y, z'
loop_
 _atom_site_type_symbol
 _atom_site_label
 _atom_site_symmetry_multiplicity
 _atom_site_fract_x
 _atom_site_fract_y
 _atom_site_fract_z
 _atom_site_occupancy
  Zn  Zn0  1  0.564654  0.498987  0.063640  1
  Zn  Zn1  1  0.564654  0.129307  0.063640  1
  Zn  Zn2  1  0.934334  0.498987  0.063641  1
  Zn  Zn3  1  0.185347  0.001014  0.186360  1
  Zn  Zn4  1  0.815667  0.001014  0.186360  1
  Zn  Zn5  1  0.185347  0.370694  0.186360  1
  Zn  Zn6  1  0.936971  0.500097  0.437066  1
  Zn  Zn7  1  0.936971  0.873940  0.437066  1
  Zn  Zn8  1  0.563126  0.500097  0.437067  1
  Zn  Zn9  1  0.186875  0.999904  0.812934  1
  Zn  Zn10  1  0.813030  0.626058  0.812934  1
  Zn  Zn11  1  0.813030  0.999904  0.812934  1
  Co  Co12  1  0.587744  0.175489  0.420871  1
  Co  Co13  1  0.245383  0.833127  0.420871  1
  Co  Co14  1  0.587744  0.833127  0.420871  1
  Co  Co15  1  0.165063  0.330125  0.495189  1
  Co  Co16  1  0.584937  0.169874  0.754809  1
  Co  Co17  1  0.162256  0.324510  0.829129  1
  Co  Co18  1  0.162256  0.666873  0.829129  1
  Co  Co19  1  0.504619  0.666873  0.829129  1
  Si  Si20  1  0.375000  0.250000  0.625000  1
  Si  Si21  1  0.875001  0.250000  0.625000  1
  Si  Si22  1  0.375000  0.749999  0.625000  1
  Ge  Ge23  1  0.375000  0.749999  0.124999  1
