# generated using pymatgen
data_SmYEr2(WO6)2
_symmetry_space_group_name_H-M   'P 1'
_cell_length_a   5.42464200
_cell_length_b   7.72529425
_cell_length_c   11.46653241
_cell_angle_alpha   75.67959020
_cell_angle_beta   90.00000000
_cell_angle_gamma   90.00000000
_symmetry_Int_Tables_number   1
_chemical_formula_structural   SmYEr2(WO6)2
_chemical_formula_sum   'Sm2 Y2 Er4 W4 O24'
_cell_volume   465.59636420
_cell_formula_units_Z   2
loop_
 _symmetry_equiv_pos_site_id
 _symmetry_equiv_pos_as_xyz
  1  'x, y, z'
loop_
 _atom_site_type_symbol
 _atom_site_label
 _atom_site_symmetry_multiplicity
 _atom_site_fract_x
 _atom_site_fract_y
 _atom_site_fract_z
 _atom_site_occupancy
  Sm  Sm0  1  0.684200  0.500000  0.750000  1
  Sm  Sm1  1  0.315800  0.500000  0.250000  1
  Y  Y2  1  0.740902  0.000000  0.750000  1
  Y  Y3  1  0.259098  0.000000  0.250000  1
  Er  Er4  1  0.186040  0.796086  0.577705  1
  Er  Er5  1  0.813960  0.796086  0.077705  1
  Er  Er6  1  0.186040  0.203914  0.922295  1
  Er  Er7  1  0.813960  0.203914  0.422295  1
  W  W8  1  0.253822  0.725239  0.885525  1
  W  W9  1  0.746178  0.725239  0.385525  1
  W  W10  1  0.253822  0.274761  0.614475  1
  W  W11  1  0.746178  0.274761  0.114475  1
  O  O12  1  0.043459  0.940922  0.896763  1
  O  O13  1  0.532362  0.846125  0.932074  1
  O  O14  1  0.956541  0.940922  0.396763  1
  O  O15  1  0.455473  0.791561  0.727190  1
  O  O16  1  0.467638  0.846125  0.432074  1
  O  O17  1  0.984985  0.715190  0.770192  1
  O  O18  1  0.544527  0.791561  0.227190  1
  O  O19  1  0.855424  0.638835  0.547461  1
  O  O20  1  0.353789  0.490818  0.887887  1
  O  O21  1  0.015015  0.715190  0.270192  1
  O  O22  1  0.353789  0.509182  0.612113  1
  O  O23  1  0.855424  0.361165  0.952539  1
  O  O24  1  0.144576  0.638835  0.047461  1
  O  O25  1  0.646211  0.490818  0.387887  1
  O  O26  1  0.984985  0.284810  0.729808  1
  O  O27  1  0.646211  0.509182  0.112113  1
  O  O28  1  0.144576  0.361165  0.452539  1
  O  O29  1  0.455473  0.208439  0.772810  1
  O  O30  1  0.015015  0.284810  0.229808  1
  O  O31  1  0.532362  0.153875  0.567926  1
  O  O32  1  0.544527  0.208439  0.272810  1
  O  O33  1  0.043459  0.059078  0.603237  1
  O  O34  1  0.467638  0.153875  0.067926  1
  O  O35  1  0.956541  0.059078  0.103237  1
