# generated using pymatgen
data_Tb3YPaPd15
_symmetry_space_group_name_H-M   'P 1'
_cell_length_a   4.14525800
_cell_length_b   4.14525800
_cell_length_c   20.64304600
_cell_angle_alpha   90.00000000
_cell_angle_beta   90.00000000
_cell_angle_gamma   90.00000000
_symmetry_Int_Tables_number   1
_chemical_formula_structural   Tb3YPaPd15
_chemical_formula_sum   'Tb3 Y1 Pa1 Pd15'
_cell_volume   354.71284254
_cell_formula_units_Z   1
loop_
 _symmetry_equiv_pos_site_id
 _symmetry_equiv_pos_as_xyz
  1  'x, y, z'
loop_
 _atom_site_type_symbol
 _atom_site_label
 _atom_site_symmetry_multiplicity
 _atom_site_fract_x
 _atom_site_fract_y
 _atom_site_fract_z
 _atom_site_occupancy
  Tb  Tb0  1  0.000000  0.000000  0.204087  1
  Tb  Tb1  1  0.000000  0.000000  0.400260  1
  Tb  Tb2  1  0.000000  0.000000  0.599746  1
  Y  Y3  1  0.000000  0.000000  0.795991  1
  Pa  Pa4  1  0.000000  0.000000  0.999980  1
  Pd  Pd5  1  0.500000  0.500000  0.000027  1
  Pd  Pd6  1  0.500000  0.500000  0.198380  1
  Pd  Pd7  1  0.500000  0.500000  0.399530  1
  Pd  Pd8  1  0.500000  0.500000  0.600491  1
  Pd  Pd9  1  0.500000  0.500000  0.801598  1
  Pd  Pd10  1  0.500000  0.000000  0.096463  1
  Pd  Pd11  1  0.500000  0.000000  0.299573  1
  Pd  Pd12  1  0.500000  0.000000  0.499997  1
  Pd  Pd13  1  0.500000  0.000000  0.700308  1
  Pd  Pd14  1  0.500000  0.000000  0.903615  1
  Pd  Pd15  1  0.000000  0.500000  0.096463  1
  Pd  Pd16  1  0.000000  0.500000  0.299573  1
  Pd  Pd17  1  0.000000  0.500000  0.499997  1
  Pd  Pd18  1  0.000000  0.500000  0.700308  1
  Pd  Pd19  1  0.000000  0.500000  0.903615  1
