# generated using pymatgen
data_Nd2Tm4ReBi2
_symmetry_space_group_name_H-M   'P 1'
_cell_length_a   8.26573961
_cell_length_b   8.26574026
_cell_length_c   4.36791100
_cell_angle_alpha   90.00000000
_cell_angle_beta   90.00000000
_cell_angle_gamma   119.67323751
_symmetry_Int_Tables_number   1
_chemical_formula_structural   Nd2Tm4ReBi2
_chemical_formula_sum   'Nd2 Tm4 Re1 Bi2'
_cell_volume   259.29161942
_cell_formula_units_Z   1
loop_
 _symmetry_equiv_pos_site_id
 _symmetry_equiv_pos_as_xyz
  1  'x, y, z'
loop_
 _atom_site_type_symbol
 _atom_site_label
 _atom_site_symmetry_multiplicity
 _atom_site_fract_x
 _atom_site_fract_y
 _atom_site_fract_z
 _atom_site_occupancy
  Nd  Nd0  1  0.606394  0.998204  0.000000  1
  Nd  Nd1  1  0.998204  0.606394  0.000000  1
  Tm  Tm2  1  0.231609  0.001274  0.500000  1
  Tm  Tm3  1  0.001274  0.231609  0.500000  1
  Tm  Tm4  1  0.775737  0.775737  0.500000  1
  Tm  Tm5  1  0.382633  0.382633  0.000000  1
  Re  Re6  1  0.008622  0.008622  0.000000  1
  Bi  Bi7  1  0.335336  0.660191  0.500000  1
  Bi  Bi8  1  0.660191  0.335336  0.500000  1
