# generated using pymatgen
data_DyTm3(VB4)4
_symmetry_space_group_name_H-M   'P 1'
_cell_length_a   3.41892000
_cell_length_b   5.97993124
_cell_length_c   11.58425146
_cell_angle_alpha   90.03231738
_cell_angle_beta   90.00000000
_cell_angle_gamma   90.00000000
_symmetry_Int_Tables_number   1
_chemical_formula_structural   DyTm3(VB4)4
_chemical_formula_sum   'Dy1 Tm3 V4 B16'
_cell_volume   236.83890040
_cell_formula_units_Z   1
loop_
 _symmetry_equiv_pos_site_id
 _symmetry_equiv_pos_as_xyz
  1  'x, y, z'
loop_
 _atom_site_type_symbol
 _atom_site_label
 _atom_site_symmetry_multiplicity
 _atom_site_fract_x
 _atom_site_fract_y
 _atom_site_fract_z
 _atom_site_occupancy
  Dy  Dy0  1  0.000000  0.875506  0.848291  1
  Tm  Tm1  1  0.000000  0.624263  0.348426  1
  Tm  Tm2  1  0.000000  0.375637  0.651477  1
  Tm  Tm3  1  0.000000  0.124398  0.151711  1
  V  V4  1  0.000000  0.627479  0.083474  1
  V  V5  1  0.000000  0.372249  0.917098  1
  V  V6  1  0.000000  0.127700  0.416821  1
  V  V7  1  0.000000  0.872315  0.582692  1
  B  B8  1  0.500000  0.787569  0.186238  1
  B  B9  1  0.500000  0.214148  0.813727  1
  B  B10  1  0.500000  0.287489  0.313982  1
  B  B11  1  0.500000  0.712154  0.685232  1
  B  B12  1  0.500000  0.865034  0.033239  1
  B  B13  1  0.500000  0.135353  0.968056  1
  B  B14  1  0.500000  0.365347  0.467331  1
  B  B15  1  0.500000  0.634630  0.532250  1
  B  B16  1  0.500000  0.884406  0.451875  1
  B  B17  1  0.500000  0.115759  0.547704  1
  B  B18  1  0.500000  0.384232  0.048352  1
  B  B19  1  0.500000  0.614348  0.952690  1
  B  B20  1  0.500000  0.977060  0.307021  1
  B  B21  1  0.500000  0.023877  0.692074  1
  B  B22  1  0.500000  0.476987  0.193189  1
  B  B23  1  0.500000  0.522058  0.807050  1
