# generated using pymatgen
data_DyScB6Rh
_symmetry_space_group_name_H-M   'P 1'
_cell_length_a   3.55596000
_cell_length_b   9.01069900
_cell_length_c   11.36909600
_cell_angle_alpha   90.00000000
_cell_angle_beta   90.00000000
_cell_angle_gamma   90.00000000
_symmetry_Int_Tables_number   1
_chemical_formula_structural   DyScB6Rh
_chemical_formula_sum   'Dy4 Sc4 B24 Rh4'
_cell_volume   364.28499522
_cell_formula_units_Z   4
loop_
 _symmetry_equiv_pos_site_id
 _symmetry_equiv_pos_as_xyz
  1  'x, y, z'
loop_
 _atom_site_type_symbol
 _atom_site_label
 _atom_site_symmetry_multiplicity
 _atom_site_fract_x
 _atom_site_fract_y
 _atom_site_fract_z
 _atom_site_occupancy
  Dy  Dy0  1  0.500000  0.320427  0.413890  1
  Dy  Dy1  1  0.500000  0.679573  0.586110  1
  Dy  Dy2  1  0.500000  0.179573  0.913890  1
  Dy  Dy3  1  0.500000  0.820427  0.086110  1
  Sc  Sc4  1  0.500000  0.444686  0.124934  1
  Sc  Sc5  1  0.500000  0.555314  0.875066  1
  Sc  Sc6  1  0.500000  0.055314  0.624934  1
  Sc  Sc7  1  0.500000  0.944686  0.375066  1
  B  B8  1  0.000000  0.100003  0.473025  1
  B  B9  1  0.000000  0.899997  0.526975  1
  B  B10  1  0.000000  0.399997  0.973025  1
  B  B11  1  0.000000  0.600003  0.026975  1
  B  B12  1  0.000000  0.130040  0.318308  1
  B  B13  1  0.000000  0.869960  0.681692  1
  B  B14  1  0.000000  0.369960  0.818308  1
  B  B15  1  0.000000  0.630040  0.181692  1
  B  B16  1  0.000000  0.054806  0.065893  1
  B  B17  1  0.000000  0.945194  0.934107  1
  B  B18  1  0.000000  0.445194  0.565893  1
  B  B19  1  0.000000  0.554806  0.434107  1
  B  B20  1  0.000000  0.481886  0.285153  1
  B  B21  1  0.000000  0.518114  0.714847  1
  B  B22  1  0.000000  0.018114  0.785153  1
  B  B23  1  0.000000  0.981886  0.214847  1
  B  B24  1  0.000000  0.253963  0.080510  1
  B  B25  1  0.000000  0.746037  0.919490  1
  B  B26  1  0.000000  0.246037  0.580510  1
  B  B27  1  0.000000  0.753963  0.419490  1
  B  B28  1  0.000000  0.295888  0.235424  1
  B  B29  1  0.000000  0.704112  0.764576  1
  B  B30  1  0.000000  0.204112  0.735424  1
  B  B31  1  0.000000  0.795888  0.264576  1
  Rh  Rh32  1  0.500000  0.141659  0.181661  1
  Rh  Rh33  1  0.500000  0.858341  0.818339  1
  Rh  Rh34  1  0.500000  0.358341  0.681661  1
  Rh  Rh35  1  0.500000  0.641659  0.318339  1
