# generated using pymatgen
data_Pr3Sn3Ir2Pt
_symmetry_space_group_name_H-M   'P 1'
_cell_length_a   7.60574900
_cell_length_b   7.60574975
_cell_length_c   4.16619500
_cell_angle_alpha   90.00000000
_cell_angle_beta   90.00000000
_cell_angle_gamma   119.99999240
_symmetry_Int_Tables_number   1
_chemical_formula_structural   Pr3Sn3Ir2Pt
_chemical_formula_sum   'Pr3 Sn3 Ir2 Pt1'
_cell_volume   208.71529641
_cell_formula_units_Z   1
loop_
 _symmetry_equiv_pos_site_id
 _symmetry_equiv_pos_as_xyz
  1  'x, y, z'
loop_
 _atom_site_type_symbol
 _atom_site_label
 _atom_site_symmetry_multiplicity
 _atom_site_fract_x
 _atom_site_fract_y
 _atom_site_fract_z
 _atom_site_occupancy
  Pr  Pr0  1  0.592807  0.005310  0.000000  1
  Pr  Pr1  1  0.994690  0.587498  0.000000  1
  Pr  Pr2  1  0.412502  0.407193  0.000000  1
  Sn  Sn3  1  0.251884  0.003211  0.500000  1
  Sn  Sn4  1  0.996789  0.248673  0.500000  1
  Sn  Sn5  1  0.751327  0.748116  0.500000  1
  Ir  Ir6  1  0.666667  0.333333  0.500000  1
  Ir  Ir7  1  0.000000  0.000000  0.000000  1
  Pt  Pt8  1  0.333333  0.666667  0.500000  1
