# generated using pymatgen
data_HfPa3(ZnIr)4
_symmetry_space_group_name_H-M   'P 1'
_cell_length_a   4.10016600
_cell_length_b   6.72248141
_cell_length_c   8.13851267
_cell_angle_alpha   88.72919367
_cell_angle_beta   90.00000000
_cell_angle_gamma   90.00000000
_symmetry_Int_Tables_number   1
_chemical_formula_structural   HfPa3(ZnIr)4
_chemical_formula_sum   'Hf1 Pa3 Zn4 Ir4'
_cell_volume   224.26900770
_cell_formula_units_Z   1
loop_
 _symmetry_equiv_pos_site_id
 _symmetry_equiv_pos_as_xyz
  1  'x, y, z'
loop_
 _atom_site_type_symbol
 _atom_site_label
 _atom_site_symmetry_multiplicity
 _atom_site_fract_x
 _atom_site_fract_y
 _atom_site_fract_z
 _atom_site_occupancy
  Hf  Hf0  1  0.750000  0.547511  0.817567  1
  Pa  Pa1  1  0.250000  0.952565  0.313712  1
  Pa  Pa2  1  0.250000  0.457854  0.179349  1
  Pa  Pa3  1  0.750000  0.046488  0.688658  1
  Zn  Zn4  1  0.250000  0.378287  0.559807  1
  Zn  Zn5  1  0.250000  0.860885  0.937652  1
  Zn  Zn6  1  0.750000  0.625521  0.449981  1
  Zn  Zn7  1  0.750000  0.132900  0.054333  1
  Ir  Ir8  1  0.250000  0.269141  0.874102  1
  Ir  Ir9  1  0.250000  0.763808  0.627154  1
  Ir  Ir10  1  0.750000  0.732715  0.126439  1
  Ir  Ir11  1  0.750000  0.232324  0.371247  1
