# generated using pymatgen
data_LaYb4InNi2
_symmetry_space_group_name_H-M   'P 1'
_cell_length_a   9.04726187
_cell_length_b   9.04726211
_cell_length_c   8.95917449
_cell_angle_alpha   129.28849410
_cell_angle_beta   129.28849469
_cell_angle_gamma   75.22617045
_symmetry_Int_Tables_number   1
_chemical_formula_structural   LaYb4InNi2
_chemical_formula_sum   'La2 Yb8 In2 Ni4'
_cell_volume   426.04433743
_cell_formula_units_Z   2
loop_
 _symmetry_equiv_pos_site_id
 _symmetry_equiv_pos_as_xyz
  1  'x, y, z'
loop_
 _atom_site_type_symbol
 _atom_site_label
 _atom_site_symmetry_multiplicity
 _atom_site_fract_x
 _atom_site_fract_y
 _atom_site_fract_z
 _atom_site_occupancy
  La  La0  1  0.800057  0.300057  0.842138  1
  La  La1  1  0.199943  0.699943  0.157862  1
  Yb  Yb2  1  0.000000  0.000000  0.000000  1
  Yb  Yb3  1  0.500000  0.500000  0.000000  1
  Yb  Yb4  1  0.458684  0.958684  0.153873  1
  Yb  Yb5  1  0.298841  0.464016  0.499692  1
  Yb  Yb6  1  0.035984  0.201159  0.500308  1
  Yb  Yb7  1  0.541316  0.041316  0.846127  1
  Yb  Yb8  1  0.701159  0.535984  0.500308  1
  Yb  Yb9  1  0.964016  0.798841  0.499692  1
  In  In10  1  0.251319  0.248681  0.000000  1
  In  In11  1  0.748681  0.751319  0.000000  1
  Ni  Ni12  1  0.112456  0.612456  0.727833  1
  Ni  Ni13  1  0.887544  0.387544  0.272167  1
  Ni  Ni14  1  0.615333  0.884667  0.500000  1
  Ni  Ni15  1  0.384667  0.115333  0.500000  1
