# generated using pymatgen
data_LiDy2Y3(P2Ru3)6
_symmetry_space_group_name_H-M   'P 1'
_cell_length_a   12.62913009
_cell_length_b   12.43213547
_cell_length_c   3.97631700
_cell_angle_alpha   90.00000000
_cell_angle_beta   90.00000000
_cell_angle_gamma   119.48532894
_symmetry_Int_Tables_number   1
_chemical_formula_structural   LiDy2Y3(P2Ru3)6
_chemical_formula_sum   'Li1 Dy2 Y3 P12 Ru18'
_cell_volume   543.45031467
_cell_formula_units_Z   1
loop_
 _symmetry_equiv_pos_site_id
 _symmetry_equiv_pos_as_xyz
  1  'x, y, z'
loop_
 _atom_site_type_symbol
 _atom_site_label
 _atom_site_symmetry_multiplicity
 _atom_site_fract_x
 _atom_site_fract_y
 _atom_site_fract_z
 _atom_site_occupancy
  Li  Li0  1  0.000000  0.561754  0.000000  1
  Dy  Dy1  1  0.658646  0.328776  0.000000  1
  Dy  Dy2  1  0.341354  0.670131  0.000000  1
  Y  Y3  1  0.000000  0.181855  0.500000  1
  Y  Y4  1  0.817118  0.815841  0.500000  1
  Y  Y5  1  0.182882  0.998722  0.500000  1
  P  P6  1  0.000000  0.807279  0.000000  1
  P  P7  1  0.181650  0.183486  0.000000  1
  P  P8  1  0.818350  0.001835  0.000000  1
  P  P9  1  0.692046  0.173369  0.500000  1
  P  P10  1  0.819073  0.518412  0.500000  1
  P  P11  1  0.473142  0.306391  0.500000  1
  P  P12  1  0.180927  0.699339  0.500000  1
  P  P13  1  0.526858  0.833250  0.500000  1
  P  P14  1  0.307954  0.481323  0.500000  1
  P  P15  1  0.000000  0.368016  0.000000  1
  P  P16  1  0.625870  0.625022  0.000000  1
  P  P17  1  0.374130  0.999151  0.000000  1
  Ru  Ru18  1  0.443899  0.444766  0.000000  1
  Ru  Ru19  1  0.556101  0.000867  0.000000  1
  Ru  Ru20  1  0.000000  0.710784  0.500000  1
  Ru  Ru21  1  0.280289  0.283332  0.500000  1
  Ru  Ru22  1  0.719711  0.003042  0.500000  1
  Ru  Ru23  1  0.806058  0.187044  0.000000  1
  Ru  Ru24  1  0.812839  0.618267  0.000000  1
  Ru  Ru25  1  0.372175  0.188760  0.000000  1
  Ru  Ru26  1  0.187161  0.805427  0.000000  1
  Ru  Ru27  1  0.627825  0.816584  0.000000  1
  Ru  Ru28  1  0.193942  0.380985  0.000000  1
  Ru  Ru29  1  0.876365  0.367750  0.500000  1
  Ru  Ru30  1  0.630404  0.508523  0.500000  1
  Ru  Ru31  1  0.491963  0.128341  0.500000  1
  Ru  Ru32  1  0.369596  0.878120  0.500000  1
  Ru  Ru33  1  0.508037  0.636378  0.500000  1
  Ru  Ru34  1  0.123635  0.491385  0.500000  1
  Ru  Ru35  1  0.000000  0.995692  0.000000  1
