# generated using pymatgen
data_YEr2Al3Ga2Pd
_symmetry_space_group_name_H-M   'P 1'
_cell_length_a   6.92518800
_cell_length_b   6.93820296
_cell_length_c   4.32251200
_cell_angle_alpha   90.00000000
_cell_angle_beta   90.00000000
_cell_angle_gamma   119.93795753
_symmetry_Int_Tables_number   1
_chemical_formula_structural   YEr2Al3Ga2Pd
_chemical_formula_sum   'Y1 Er2 Al3 Ga2 Pd1'
_cell_volume   179.97682272
_cell_formula_units_Z   1
loop_
 _symmetry_equiv_pos_site_id
 _symmetry_equiv_pos_as_xyz
  1  'x, y, z'
loop_
 _atom_site_type_symbol
 _atom_site_label
 _atom_site_symmetry_multiplicity
 _atom_site_fract_x
 _atom_site_fract_y
 _atom_site_fract_z
 _atom_site_occupancy
  Y  Y0  1  0.419521  0.000000  0.500000  1
  Er  Er1  1  0.000249  0.417996  0.500000  1
  Er  Er2  1  0.582254  0.582004  0.500000  1
  Al  Al3  1  0.763802  0.000000  0.000000  1
  Al  Al4  1  0.999342  0.762560  0.000000  1
  Al  Al5  1  0.236782  0.237440  0.000000  1
  Ga  Ga6  1  0.332710  0.664703  0.000000  1
  Ga  Ga7  1  0.668008  0.335297  0.000000  1
  Pd  Pd8  1  0.997333  0.000000  0.500000  1
