# generated using pymatgen
data_Zr6MnFe11Co4Si7
_symmetry_space_group_name_H-M   'P 1'
_cell_length_a   8.11294504
_cell_length_b   8.11294551
_cell_length_c   8.10106548
_cell_angle_alpha   59.96196068
_cell_angle_beta   59.96196722
_cell_angle_gamma   59.97650895
_symmetry_Int_Tables_number   1
_chemical_formula_structural   Zr6MnFe11Co4Si7
_chemical_formula_sum   'Zr6 Mn1 Fe11 Co4 Si7'
_cell_volume   376.75345460
_cell_formula_units_Z   1
loop_
 _symmetry_equiv_pos_site_id
 _symmetry_equiv_pos_as_xyz
  1  'x, y, z'
loop_
 _atom_site_type_symbol
 _atom_site_label
 _atom_site_symmetry_multiplicity
 _atom_site_fract_x
 _atom_site_fract_y
 _atom_site_fract_z
 _atom_site_occupancy
  Zr  Zr0  1  0.704783  0.704783  0.293645  1
  Zr  Zr1  1  0.296790  0.704779  0.293640  1
  Zr  Zr2  1  0.704779  0.296790  0.293640  1
  Zr  Zr3  1  0.292972  0.292972  0.708029  1
  Zr  Zr4  1  0.706018  0.292975  0.708020  1
  Zr  Zr5  1  0.292975  0.706018  0.708020  1
  Mn  Mn6  1  0.879632  0.879632  0.361124  1
  Fe  Fe7  1  0.119101  0.636466  0.125333  1
  Fe  Fe8  1  0.636466  0.119101  0.125333  1
  Fe  Fe9  1  0.119085  0.119085  0.125318  1
  Fe  Fe10  1  0.675984  0.675984  0.972058  1
  Fe  Fe11  1  0.676472  0.971886  0.675178  1
  Fe  Fe12  1  0.971886  0.676472  0.675178  1
  Fe  Fe13  1  0.676494  0.676494  0.675176  1
  Fe  Fe14  1  0.324220  0.324220  0.027353  1
  Fe  Fe15  1  0.323637  0.029831  0.322929  1
  Fe  Fe16  1  0.029831  0.323637  0.322929  1
  Fe  Fe17  1  0.323598  0.323598  0.322920  1
  Co  Co18  1  0.879995  0.361769  0.878268  1
  Co  Co19  1  0.361769  0.879995  0.878268  1
  Co  Co20  1  0.879981  0.879981  0.878284  1
  Co  Co21  1  0.121061  0.121061  0.636822  1
  Si  Si22  1  0.002322  0.002322  0.993029  1
  Si  Si23  1  0.000491  0.000491  0.500283  1
  Si  Si24  1  0.498733  0.000493  0.500280  1
  Si  Si25  1  0.000493  0.498733  0.500280  1
  Si  Si26  1  0.500600  0.500600  0.999547  1
  Si  Si27  1  0.999238  0.500595  0.999557  1
  Si  Si28  1  0.500595  0.999238  0.999557  1
