# generated using pymatgen
data_Nd2Ga3GeIrPt3
_symmetry_space_group_name_H-M   'P 1'
_cell_length_a   4.25960100
_cell_length_b   4.20753600
_cell_length_c   10.65754900
_cell_angle_alpha   90.00000000
_cell_angle_beta   90.00000000
_cell_angle_gamma   90.00000000
_symmetry_Int_Tables_number   1
_chemical_formula_structural   Nd2Ga3GeIrPt3
_chemical_formula_sum   'Nd2 Ga3 Ge1 Ir1 Pt3'
_cell_volume   191.00911787
_cell_formula_units_Z   1
loop_
 _symmetry_equiv_pos_site_id
 _symmetry_equiv_pos_as_xyz
  1  'x, y, z'
loop_
 _atom_site_type_symbol
 _atom_site_label
 _atom_site_symmetry_multiplicity
 _atom_site_fract_x
 _atom_site_fract_y
 _atom_site_fract_z
 _atom_site_occupancy
  Nd  Nd0  1  0.000000  0.500000  0.251841  1
  Nd  Nd1  1  0.500000  0.000000  0.746637  1
  Ga  Ga2  1  0.000000  0.000000  0.497891  1
  Ga  Ga3  1  0.500000  0.500000  0.499050  1
  Ga  Ga4  1  0.000000  0.500000  0.870436  1
  Ge  Ge5  1  0.500000  0.000000  0.130062  1
  Ir  Ir6  1  0.500000  0.500000  0.004093  1
  Pt  Pt7  1  0.000000  0.000000  0.002005  1
  Pt  Pt8  1  0.000000  0.500000  0.636189  1
  Pt  Pt9  1  0.500000  0.000000  0.361796  1
