# generated using pymatgen
data_Dy4GeI6
_symmetry_space_group_name_H-M   'P 1'
_cell_length_a   4.21164400
_cell_length_b   14.01913700
_cell_length_c   14.79882200
_cell_angle_alpha   90.00000000
_cell_angle_beta   90.00000000
_cell_angle_gamma   90.00000000
_symmetry_Int_Tables_number   1
_chemical_formula_structural   Dy4GeI6
_chemical_formula_sum   'Dy8 Ge2 I12'
_cell_volume   873.77593724
_cell_formula_units_Z   2
loop_
 _symmetry_equiv_pos_site_id
 _symmetry_equiv_pos_as_xyz
  1  'x, y, z'
loop_
 _atom_site_type_symbol
 _atom_site_label
 _atom_site_symmetry_multiplicity
 _atom_site_fract_x
 _atom_site_fract_y
 _atom_site_fract_z
 _atom_site_occupancy
  Dy  Dy0  1  0.500000  0.114949  0.346597  1
  Dy  Dy1  1  0.500000  0.885051  0.653403  1
  Dy  Dy2  1  0.500000  0.614949  0.153403  1
  Dy  Dy3  1  0.500000  0.385051  0.846597  1
  Dy  Dy4  1  0.000000  0.112105  0.575147  1
  Dy  Dy5  1  0.000000  0.887895  0.424853  1
  Dy  Dy6  1  0.000000  0.612105  0.924853  1
  Dy  Dy7  1  0.000000  0.387895  0.075147  1
  Ge  Ge8  1  0.500000  0.000000  0.500000  1
  Ge  Ge9  1  0.500000  0.500000  0.000000  1
  I  I10  1  0.500000  0.244636  0.161501  1
  I  I11  1  0.500000  0.755364  0.838499  1
  I  I12  1  0.500000  0.744636  0.338499  1
  I  I13  1  0.500000  0.255364  0.661501  1
  I  I14  1  0.000000  0.258888  0.414191  1
  I  I15  1  0.000000  0.741112  0.585809  1
  I  I16  1  0.000000  0.758888  0.085809  1
  I  I17  1  0.000000  0.241112  0.914191  1
  I  I18  1  0.000000  0.999184  0.240235  1
  I  I19  1  0.000000  0.000816  0.759765  1
  I  I20  1  0.000000  0.499184  0.259765  1
  I  I21  1  0.000000  0.500816  0.740235  1
