# generated using pymatgen
data_Dy2Ho8IrRu3
_symmetry_space_group_name_H-M   'P 1'
_cell_length_a   6.33375560
_cell_length_b   7.29608995
_cell_length_c   8.45203740
_cell_angle_alpha   96.79595460
_cell_angle_beta   112.06111635
_cell_angle_gamma   90.00753867
_symmetry_Int_Tables_number   1
_chemical_formula_structural   Dy2Ho8IrRu3
_chemical_formula_sum   'Dy2 Ho8 Ir1 Ru3'
_cell_volume   359.02030577
_cell_formula_units_Z   1
loop_
 _symmetry_equiv_pos_site_id
 _symmetry_equiv_pos_as_xyz
  1  'x, y, z'
loop_
 _atom_site_type_symbol
 _atom_site_label
 _atom_site_symmetry_multiplicity
 _atom_site_fract_x
 _atom_site_fract_y
 _atom_site_fract_z
 _atom_site_occupancy
  Dy  Dy0  1  0.978561  0.917494  0.185804  1
  Dy  Dy1  1  0.791496  0.584903  0.812754  1
  Ho  Ho2  1  0.021808  0.084762  0.813787  1
  Ho  Ho3  1  0.209258  0.414529  0.185598  1
  Ho  Ho4  1  0.641156  0.815764  0.435532  1
  Ho  Ho5  1  0.207349  0.684873  0.565888  1
  Ho  Ho6  1  0.358346  0.185253  0.565301  1
  Ho  Ho7  1  0.793360  0.313908  0.435978  1
  Ho  Ho8  1  0.420036  0.750155  0.000007  1
  Ho  Ho9  1  0.578708  0.248721  0.998873  1
  Ir  Ir10  1  0.822584  0.575876  0.221354  1
  Ru  Ru11  1  0.603940  0.923308  0.779536  1
  Ru  Ru12  1  0.175760  0.424497  0.779061  1
  Ru  Ru13  1  0.397639  0.075957  0.220528  1
