# generated using pymatgen
data_Th4GaNi4Sn
_symmetry_space_group_name_H-M   'P 1'
_cell_length_a   7.51408100
_cell_length_b   7.51408100
_cell_length_c   3.76730500
_cell_angle_alpha   90.00000000
_cell_angle_beta   90.00000000
_cell_angle_gamma   90.00000000
_symmetry_Int_Tables_number   1
_chemical_formula_structural   Th4GaNi4Sn
_chemical_formula_sum   'Th4 Ga1 Ni4 Sn1'
_cell_volume   212.70736454
_cell_formula_units_Z   1
loop_
 _symmetry_equiv_pos_site_id
 _symmetry_equiv_pos_as_xyz
  1  'x, y, z'
loop_
 _atom_site_type_symbol
 _atom_site_label
 _atom_site_symmetry_multiplicity
 _atom_site_fract_x
 _atom_site_fract_y
 _atom_site_fract_z
 _atom_site_occupancy
  Th  Th0  1  0.669689  0.185146  0.500000  1
  Th  Th1  1  0.330311  0.814854  0.500000  1
  Th  Th2  1  0.185146  0.330311  0.500000  1
  Th  Th3  1  0.814854  0.669689  0.500000  1
  Ga  Ga4  1  0.500000  0.500000  0.000000  1
  Ni  Ni5  1  0.873562  0.378645  0.000000  1
  Ni  Ni6  1  0.126438  0.621355  0.000000  1
  Ni  Ni7  1  0.378645  0.126438  0.000000  1
  Ni  Ni8  1  0.621355  0.873562  0.000000  1
  Sn  Sn9  1  0.000000  0.000000  0.000000  1
