# generated using pymatgen
data_Tb5Y(Er2Sn3)2
_symmetry_space_group_name_H-M   'P 1'
_cell_length_a   8.96996631
_cell_length_b   8.97403724
_cell_length_c   6.52886700
_cell_angle_alpha   90.00000000
_cell_angle_beta   90.00000000
_cell_angle_gamma   120.01501347
_symmetry_Int_Tables_number   1
_chemical_formula_structural   Tb5Y(Er2Sn3)2
_chemical_formula_sum   'Tb5 Y1 Er4 Sn6'
_cell_volume   455.07335713
_cell_formula_units_Z   1
loop_
 _symmetry_equiv_pos_site_id
 _symmetry_equiv_pos_as_xyz
  1  'x, y, z'
loop_
 _atom_site_type_symbol
 _atom_site_label
 _atom_site_symmetry_multiplicity
 _atom_site_fract_x
 _atom_site_fract_y
 _atom_site_fract_z
 _atom_site_occupancy
  Tb  Tb0  1  0.000000  0.239278  0.250000  1
  Tb  Tb1  1  0.760867  0.760863  0.250000  1
  Tb  Tb2  1  0.760818  0.999969  0.750000  1
  Tb  Tb3  1  0.239182  0.239151  0.750000  1
  Tb  Tb4  1  0.239133  0.999996  0.250000  1
  Y  Y5  1  0.000000  0.760720  0.750000  1
  Er  Er6  1  0.333277  0.666657  0.500044  1
  Er  Er7  1  0.666723  0.333379  0.999956  1
  Er  Er8  1  0.666723  0.333379  0.500044  1
  Er  Er9  1  0.333277  0.666657  0.999956  1
  Sn  Sn10  1  0.396002  0.999847  0.750000  1
  Sn  Sn11  1  0.396226  0.396234  0.250000  1
  Sn  Sn12  1  0.000000  0.603652  0.250000  1
  Sn  Sn13  1  0.000000  0.396364  0.750000  1
  Sn  Sn14  1  0.603998  0.603846  0.750000  1
  Sn  Sn15  1  0.603774  0.000008  0.250000  1
