# generated using pymatgen
data_Dy10Cd3Ru
_symmetry_space_group_name_H-M   'P 1'
_cell_length_a   9.60655600
_cell_length_b   9.60655640
_cell_length_c   9.84778200
_cell_angle_alpha   90.00000000
_cell_angle_beta   90.00000000
_cell_angle_gamma   119.99999862
_symmetry_Int_Tables_number   1
_chemical_formula_structural   Dy10Cd3Ru
_chemical_formula_sum   'Dy20 Cd6 Ru2'
_cell_volume   787.05397987
_cell_formula_units_Z   2
loop_
 _symmetry_equiv_pos_site_id
 _symmetry_equiv_pos_as_xyz
  1  'x, y, z'
loop_
 _atom_site_type_symbol
 _atom_site_label
 _atom_site_symmetry_multiplicity
 _atom_site_fract_x
 _atom_site_fract_y
 _atom_site_fract_z
 _atom_site_occupancy
  Dy  Dy0  1  0.000000  0.000000  0.500000  1
  Dy  Dy1  1  0.000000  0.000000  0.000000  1
  Dy  Dy2  1  0.209880  0.790120  0.439786  1
  Dy  Dy3  1  0.209880  0.419761  0.439786  1
  Dy  Dy4  1  0.580239  0.790120  0.439786  1
  Dy  Dy5  1  0.790120  0.209880  0.560214  1
  Dy  Dy6  1  0.790120  0.580239  0.560214  1
  Dy  Dy7  1  0.419761  0.209880  0.560214  1
  Dy  Dy8  1  0.790120  0.209880  0.939786  1
  Dy  Dy9  1  0.790120  0.580239  0.939786  1
  Dy  Dy10  1  0.419761  0.209880  0.939786  1
  Dy  Dy11  1  0.209880  0.790120  0.060214  1
  Dy  Dy12  1  0.209880  0.419761  0.060214  1
  Dy  Dy13  1  0.580239  0.790120  0.060214  1
  Dy  Dy14  1  0.541276  0.458724  0.250000  1
  Dy  Dy15  1  0.541276  0.082551  0.250000  1
  Dy  Dy16  1  0.917449  0.458724  0.250000  1
  Dy  Dy17  1  0.458724  0.541276  0.750000  1
  Dy  Dy18  1  0.458724  0.917449  0.750000  1
  Dy  Dy19  1  0.082551  0.541276  0.750000  1
  Cd  Cd20  1  0.885410  0.114590  0.250000  1
  Cd  Cd21  1  0.885410  0.770821  0.250000  1
  Cd  Cd22  1  0.229179  0.114590  0.250000  1
  Cd  Cd23  1  0.114590  0.885410  0.750000  1
  Cd  Cd24  1  0.114590  0.229179  0.750000  1
  Cd  Cd25  1  0.770821  0.885410  0.750000  1
  Ru  Ru26  1  0.333333  0.666667  0.250000  1
  Ru  Ru27  1  0.666667  0.333333  0.750000  1
