# generated using pymatgen
data_CsPaTe6
_symmetry_space_group_name_H-M   'P 1'
_cell_length_a   8.07567400
_cell_length_b   9.26884700
_cell_length_c   30.81175300
_cell_angle_alpha   90.00000000
_cell_angle_beta   90.00000000
_cell_angle_gamma   90.00000000
_symmetry_Int_Tables_number   1
_chemical_formula_structural   CsPaTe6
_chemical_formula_sum   'Cs8 Pa8 Te48'
_cell_volume   2306.32708897
_cell_formula_units_Z   8
loop_
 _symmetry_equiv_pos_site_id
 _symmetry_equiv_pos_as_xyz
  1  'x, y, z'
loop_
 _atom_site_type_symbol
 _atom_site_label
 _atom_site_symmetry_multiplicity
 _atom_site_fract_x
 _atom_site_fract_y
 _atom_site_fract_z
 _atom_site_occupancy
  Cs  Cs0  1  0.250000  0.082308  0.538566  1
  Cs  Cs1  1  0.250000  0.417692  0.038566  1
  Cs  Cs2  1  0.750000  0.917692  0.461434  1
  Cs  Cs3  1  0.750000  0.582308  0.961434  1
  Cs  Cs4  1  0.250000  0.605638  0.794706  1
  Cs  Cs5  1  0.250000  0.894362  0.294706  1
  Cs  Cs6  1  0.750000  0.394362  0.205294  1
  Cs  Cs7  1  0.750000  0.105638  0.705294  1
  Pa  Pa8  1  0.250000  0.097619  0.874708  1
  Pa  Pa9  1  0.250000  0.402381  0.374708  1
  Pa  Pa10  1  0.750000  0.902381  0.125292  1
  Pa  Pa11  1  0.750000  0.597619  0.625292  1
  Pa  Pa12  1  0.250000  0.898296  0.129030  1
  Pa  Pa13  1  0.250000  0.601704  0.629030  1
  Pa  Pa14  1  0.750000  0.101704  0.870970  1
  Pa  Pa15  1  0.750000  0.398296  0.370970  1
  Te  Te16  1  0.000189  0.336531  0.628722  1
  Te  Te17  1  0.499811  0.163469  0.128722  1
  Te  Te18  1  0.500189  0.663469  0.371278  1
  Te  Te19  1  0.999811  0.836531  0.871278  1
  Te  Te20  1  0.999811  0.663469  0.371278  1
  Te  Te21  1  0.500189  0.836531  0.871278  1
  Te  Te22  1  0.499811  0.336531  0.628722  1
  Te  Te23  1  0.000189  0.163469  0.128722  1
  Te  Te24  1  0.004547  0.239294  0.806645  1
  Te  Te25  1  0.495453  0.260706  0.306645  1
  Te  Te26  1  0.504547  0.760706  0.193355  1
  Te  Te27  1  0.995453  0.739294  0.693355  1
  Te  Te28  1  0.995453  0.760706  0.193355  1
  Te  Te29  1  0.504547  0.739294  0.693355  1
  Te  Te30  1  0.495453  0.239294  0.806645  1
  Te  Te31  1  0.004547  0.260706  0.306645  1
  Te  Te32  1  0.997288  0.215759  0.943169  1
  Te  Te33  1  0.502712  0.284241  0.443169  1
  Te  Te34  1  0.497288  0.784241  0.056831  1
  Te  Te35  1  0.002712  0.715759  0.556831  1
  Te  Te36  1  0.002712  0.784241  0.056831  1
  Te  Te37  1  0.497288  0.715759  0.556831  1
  Te  Te38  1  0.502712  0.215759  0.943169  1
  Te  Te39  1  0.997288  0.284241  0.443169  1
  Te  Te40  1  0.250000  0.482346  0.538050  1
  Te  Te41  1  0.250000  0.017654  0.038050  1
  Te  Te42  1  0.750000  0.517654  0.461950  1
  Te  Te43  1  0.750000  0.982346  0.961950  1
  Te  Te44  1  0.250000  0.927136  0.649577  1
  Te  Te45  1  0.250000  0.572864  0.149577  1
  Te  Te46  1  0.750000  0.072864  0.350423  1
  Te  Te47  1  0.750000  0.427136  0.850423  1
  Te  Te48  1  0.250000  0.368418  0.699638  1
  Te  Te49  1  0.250000  0.131582  0.199638  1
  Te  Te50  1  0.750000  0.631582  0.300362  1
  Te  Te51  1  0.750000  0.868418  0.800362  1
  Te  Te52  1  0.250000  0.019811  0.777822  1
  Te  Te53  1  0.250000  0.480189  0.277822  1
  Te  Te54  1  0.750000  0.980189  0.222178  1
  Te  Te55  1  0.750000  0.519811  0.722178  1
  Te  Te56  1  0.250000  0.421653  0.906795  1
  Te  Te57  1  0.250000  0.078347  0.406795  1
  Te  Te58  1  0.750000  0.578347  0.093205  1
  Te  Te59  1  0.750000  0.921653  0.593205  1
  Te  Te60  1  0.250000  0.858092  0.942505  1
  Te  Te61  1  0.250000  0.641908  0.442505  1
  Te  Te62  1  0.750000  0.141908  0.057495  1
  Te  Te63  1  0.750000  0.358092  0.557495  1
