# generated using pymatgen
data_Er3Tm7Tl8AgPt3
_symmetry_space_group_name_H-M   'P 1'
_cell_length_a   3.63050800
_cell_length_b   8.09881060
_cell_length_c   18.15308700
_cell_angle_alpha   89.93262865
_cell_angle_beta   90.00000000
_cell_angle_gamma   90.00000000
_symmetry_Int_Tables_number   1
_chemical_formula_structural   Er3Tm7Tl8AgPt3
_chemical_formula_sum   'Er3 Tm7 Tl8 Ag1 Pt3'
_cell_volume   533.75115699
_cell_formula_units_Z   1
loop_
 _symmetry_equiv_pos_site_id
 _symmetry_equiv_pos_as_xyz
  1  'x, y, z'
loop_
 _atom_site_type_symbol
 _atom_site_label
 _atom_site_symmetry_multiplicity
 _atom_site_fract_x
 _atom_site_fract_y
 _atom_site_fract_z
 _atom_site_occupancy
  Er  Er0  1  0.000000  0.722613  0.281442  1
  Er  Er1  1  0.000000  0.999618  0.998856  1
  Er  Er2  1  0.000000  0.501508  0.500535  1
  Tm  Tm3  1  0.000000  0.120117  0.421120  1
  Tm  Tm4  1  0.000000  0.886510  0.588480  1
  Tm  Tm5  1  0.000000  0.386708  0.912854  1
  Tm  Tm6  1  0.000000  0.616204  0.084105  1
  Tm  Tm7  1  0.000000  0.256914  0.213750  1
  Tm  Tm8  1  0.000000  0.754466  0.779929  1
  Tm  Tm9  1  0.000000  0.256511  0.720871  1
  Tl  Tl10  1  0.500000  0.409421  0.354046  1
  Tl  Tl11  1  0.500000  0.580346  0.646872  1
  Tl  Tl12  1  0.500000  0.080102  0.853771  1
  Tl  Tl13  1  0.500000  0.920719  0.147211  1
  Tl  Tl14  1  0.500000  0.294333  0.060905  1
  Tl  Tl15  1  0.500000  0.707479  0.934833  1
  Tl  Tl16  1  0.500000  0.209364  0.566440  1
  Tl  Tl17  1  0.500000  0.795595  0.435953  1
  Ag  Ag18  1  0.500000  0.027809  0.301576  1
  Pt  Pt19  1  0.500000  0.973106  0.697933  1
  Pt  Pt20  1  0.500000  0.472544  0.803036  1
  Pt  Pt21  1  0.500000  0.528016  0.195484  1
