# generated using pymatgen
data_YbGa2GeO6
_symmetry_space_group_name_H-M   'P 1'
_cell_length_a   6.69860479
_cell_length_b   6.69860489
_cell_length_c   5.47560818
_cell_angle_alpha   78.98921101
_cell_angle_beta   78.98921878
_cell_angle_gamma   81.86404874
_symmetry_Int_Tables_number   1
_chemical_formula_structural   YbGa2GeO6
_chemical_formula_sum   'Yb2 Ga4 Ge2 O12'
_cell_volume   235.32391790
_cell_formula_units_Z   2
loop_
 _symmetry_equiv_pos_site_id
 _symmetry_equiv_pos_as_xyz
  1  'x, y, z'
loop_
 _atom_site_type_symbol
 _atom_site_label
 _atom_site_symmetry_multiplicity
 _atom_site_fract_x
 _atom_site_fract_y
 _atom_site_fract_z
 _atom_site_occupancy
  Yb  Yb0  1  0.682285  0.317715  0.000000  1
  Yb  Yb1  1  0.316963  0.683037  0.500000  1
  Ga  Ga2  1  0.613288  0.819716  0.969622  1
  Ga  Ga3  1  0.180284  0.386712  0.030378  1
  Ga  Ga4  1  0.092181  0.907819  0.000000  1
  Ga  Ga5  1  0.908199  0.091801  0.500000  1
  Ge  Ge6  1  0.387439  0.190530  0.526652  1
  Ge  Ge7  1  0.809470  0.612561  0.473348  1
  O  O8  1  0.813670  0.996706  0.865067  1
  O  O9  1  0.351759  0.901410  0.104589  1
  O  O10  1  0.605739  0.664270  0.723179  1
  O  O11  1  0.003294  0.186330  0.134933  1
  O  O12  1  0.098590  0.648241  0.895411  1
  O  O13  1  0.335730  0.394261  0.276821  1
  O  O14  1  0.198161  0.016168  0.618242  1
  O  O15  1  0.636188  0.091611  0.404271  1
  O  O16  1  0.399990  0.325451  0.770520  1
  O  O17  1  0.983832  0.801839  0.381758  1
  O  O18  1  0.908389  0.363812  0.595729  1
  O  O19  1  0.674549  0.600010  0.229480  1
