# generated using pymatgen
data_Ho4InAs5Ir7
_symmetry_space_group_name_H-M   'P 1'
_cell_length_a   7.33567837
_cell_length_b   7.33567896
_cell_length_c   7.33567823
_cell_angle_alpha   108.60183848
_cell_angle_beta   109.90766119
_cell_angle_gamma   109.90765575
_symmetry_Int_Tables_number   1
_chemical_formula_structural   Ho4InAs5Ir7
_chemical_formula_sum   'Ho4 In1 As5 Ir7'
_cell_volume   303.82538592
_cell_formula_units_Z   1
loop_
 _symmetry_equiv_pos_site_id
 _symmetry_equiv_pos_as_xyz
  1  'x, y, z'
loop_
 _atom_site_type_symbol
 _atom_site_label
 _atom_site_symmetry_multiplicity
 _atom_site_fract_x
 _atom_site_fract_y
 _atom_site_fract_z
 _atom_site_occupancy
  Ho  Ho0  1  0.000000  0.002222  0.478989  1
  Ho  Ho1  1  0.000000  0.478989  0.002222  1
  Ho  Ho2  1  0.523234  0.002222  0.002222  1
  Ho  Ho3  1  0.476766  0.478989  0.478989  1
  In  In4  1  0.000000  0.706316  0.706316  1
  As  As5  1  0.682172  0.675326  0.993154  1
  As  As6  1  0.317828  0.993154  0.310981  1
  As  As7  1  0.000000  0.339481  0.339481  1
  As  As8  1  0.317828  0.310981  0.993154  1
  As  As9  1  0.682172  0.993154  0.675326  1
  Ir  Ir10  1  0.744621  0.243809  0.499188  1
  Ir  Ir11  1  0.744621  0.499188  0.243809  1
  Ir  Ir12  1  0.500000  0.246631  0.746631  1
  Ir  Ir13  1  0.255379  0.499188  0.754568  1
  Ir  Ir14  1  0.255379  0.754568  0.499188  1
  Ir  Ir15  1  0.500000  0.746631  0.246631  1
  Ir  Ir16  1  0.000000  0.029148  0.029148  1
