# generated using pymatgen
data_Nd4Cd2Cu3Rh
_symmetry_space_group_name_H-M   'P 1'
_cell_length_a   7.77757668
_cell_length_b   7.77757668
_cell_length_c   3.85247600
_cell_angle_alpha   90.00000000
_cell_angle_beta   90.00000000
_cell_angle_gamma   89.90480632
_symmetry_Int_Tables_number   1
_chemical_formula_structural   Nd4Cd2Cu3Rh
_chemical_formula_sum   'Nd4 Cd2 Cu3 Rh1'
_cell_volume   233.03864475
_cell_formula_units_Z   1
loop_
 _symmetry_equiv_pos_site_id
 _symmetry_equiv_pos_as_xyz
  1  'x, y, z'
loop_
 _atom_site_type_symbol
 _atom_site_label
 _atom_site_symmetry_multiplicity
 _atom_site_fract_x
 _atom_site_fract_y
 _atom_site_fract_z
 _atom_site_occupancy
  Nd  Nd0  1  0.663958  0.179021  0.500000  1
  Nd  Nd1  1  0.320979  0.836042  0.500000  1
  Nd  Nd2  1  0.184000  0.316000  0.500000  1
  Nd  Nd3  1  0.826752  0.673248  0.500000  1
  Cd  Cd4  1  0.994798  0.999514  0.000000  1
  Cd  Cd5  1  0.500486  0.505202  0.000000  1
  Cu  Cu6  1  0.119828  0.615122  0.000000  1
  Cu  Cu7  1  0.884878  0.380172  0.000000  1
  Cu  Cu8  1  0.622858  0.877142  0.000000  1
  Rh  Rh9  1  0.381464  0.118536  0.000000  1
