# generated using pymatgen
data_Ba6Tm2In2TeWO18
_symmetry_space_group_name_H-M   'P 1'
_cell_length_a   10.43042343
_cell_length_b   10.43042418
_cell_length_c   10.43042400
_cell_angle_alpha   146.39591205
_cell_angle_beta   132.16524630
_cell_angle_gamma   59.72485886
_symmetry_Int_Tables_number   1
_chemical_formula_structural   Ba6Tm2In2TeWO18
_chemical_formula_sum   'Ba6 Tm2 In2 Te1 W1 O18'
_cell_volume   461.31517202
_cell_formula_units_Z   1
loop_
 _symmetry_equiv_pos_site_id
 _symmetry_equiv_pos_as_xyz
  1  'x, y, z'
loop_
 _atom_site_type_symbol
 _atom_site_label
 _atom_site_symmetry_multiplicity
 _atom_site_fract_x
 _atom_site_fract_y
 _atom_site_fract_z
 _atom_site_occupancy
  Ba  Ba0  1  0.583693  0.840287  0.743405  1
  Ba  Ba1  1  0.262752  0.500397  0.762355  1
  Ba  Ba2  1  0.903148  0.159447  0.743702  1
  Ba  Ba3  1  0.096883  0.840287  0.256595  1
  Ba  Ba4  1  0.738043  0.500399  0.237645  1
  Ba  Ba5  1  0.415747  0.159446  0.256302  1
  Tm  Tm6  1  0.331269  0.331269  0.000001  1
  Tm  Tm7  1  0.668528  0.668528  0.000000  1
  In  In8  1  0.998676  0.998675  0.000000  1
  In  In9  1  0.500012  0.000012  0.500000  1
  Te  Te10  1  0.167484  0.667484  0.500000  1
  W  W11  1  0.832786  0.332787  0.500000  1
  O  O12  1  0.597401  0.330150  0.267250  1
  O  O13  1  0.239818  0.000031  0.239787  1
  O  O14  1  0.936448  0.669824  0.266625  1
  O  O15  1  0.909452  0.639149  0.729697  1
  O  O16  1  0.585982  0.335583  0.749601  1
  O  O17  1  0.243458  0.974737  0.731278  1
  O  O18  1  0.757067  0.489336  0.732267  1
  O  O19  1  0.413624  0.163464  0.749840  1
  O  O20  1  0.090902  0.820170  0.729267  1
  O  O21  1  0.062900  0.330150  0.732749  1
  O  O22  1  0.760243  0.000031  0.760212  1
  O  O23  1  0.403197  0.669824  0.733375  1
  O  O24  1  0.757067  0.024800  0.267733  1
  O  O25  1  0.413624  0.663785  0.250160  1
  O  O26  1  0.090902  0.361634  0.270730  1
  O  O27  1  0.909452  0.179756  0.270303  1
  O  O28  1  0.585982  0.836381  0.250398  1
  O  O29  1  0.243458  0.512178  0.268722  1
