# generated using pymatgen
data_Y5ErAl24(CoRu3)2
_symmetry_space_group_name_H-M   'P 1'
_cell_length_a   8.75834407
_cell_length_b   8.75834583
_cell_length_c   9.52827300
_cell_angle_alpha   90.00000000
_cell_angle_beta   90.00000000
_cell_angle_gamma   120.01491432
_symmetry_Int_Tables_number   1
_chemical_formula_structural   Y5ErAl24(CoRu3)2
_chemical_formula_sum   'Y5 Er1 Al24 Co2 Ru6'
_cell_volume   632.88328734
_cell_formula_units_Z   1
loop_
 _symmetry_equiv_pos_site_id
 _symmetry_equiv_pos_as_xyz
  1  'x, y, z'
loop_
 _atom_site_type_symbol
 _atom_site_label
 _atom_site_symmetry_multiplicity
 _atom_site_fract_x
 _atom_site_fract_y
 _atom_site_fract_z
 _atom_site_occupancy
  Y  Y0  1  0.193299  0.386522  0.250000  1
  Y  Y1  1  0.806677  0.613122  0.750000  1
  Y  Y2  1  0.613478  0.806701  0.250000  1
  Y  Y3  1  0.386878  0.193323  0.750000  1
  Y  Y4  1  0.193286  0.806714  0.250000  1
  Er  Er5  1  0.806041  0.193959  0.750000  1
  Al  Al6  1  0.333357  0.666643  0.015461  1
  Al  Al7  1  0.666853  0.333147  0.984174  1
  Al  Al8  1  0.666853  0.333147  0.515826  1
  Al  Al9  1  0.333357  0.666643  0.484539  1
  Al  Al10  1  0.159381  0.319388  0.576821  1
  Al  Al11  1  0.840164  0.680382  0.423470  1
  Al  Al12  1  0.680612  0.840619  0.576821  1
  Al  Al13  1  0.840164  0.680382  0.076530  1
  Al  Al14  1  0.319618  0.159836  0.423470  1
  Al  Al15  1  0.159381  0.319388  0.923179  1
  Al  Al16  1  0.159801  0.840199  0.576613  1
  Al  Al17  1  0.319618  0.159836  0.076530  1
  Al  Al18  1  0.840208  0.159792  0.423841  1
  Al  Al19  1  0.680612  0.840619  0.923179  1
  Al  Al20  1  0.840208  0.159792  0.076159  1
  Al  Al21  1  0.159801  0.840199  0.923387  1
  Al  Al22  1  0.561537  0.123018  0.250000  1
  Al  Al23  1  0.439110  0.877433  0.750000  1
  Al  Al24  1  0.876982  0.438463  0.250000  1
  Al  Al25  1  0.122567  0.560890  0.750000  1
  Al  Al26  1  0.561513  0.438487  0.250000  1
  Al  Al27  1  0.438472  0.561528  0.750000  1
  Al  Al28  1  0.000002  0.999998  0.250000  1
  Al  Al29  1  0.999496  0.000504  0.750000  1
  Co  Co30  1  0.000058  0.999942  0.000085  1
  Co  Co31  1  0.000058  0.999942  0.499915  1
  Ru  Ru32  1  0.500420  0.000212  0.999737  1
  Ru  Ru33  1  0.999788  0.499580  0.999737  1
  Ru  Ru34  1  0.500420  0.000212  0.500263  1
  Ru  Ru35  1  0.500071  0.499929  0.000003  1
  Ru  Ru36  1  0.999788  0.499580  0.500263  1
  Ru  Ru37  1  0.500071  0.499929  0.499997  1
