# generated using pymatgen
data_Pr8Nb11Si16Tc
_symmetry_space_group_name_H-M   'P 1'
_cell_length_a   6.98930508
_cell_length_b   7.30149229
_cell_length_c   13.59175100
_cell_angle_alpha   90.00000000
_cell_angle_beta   90.00000000
_cell_angle_gamma   90.09667704
_symmetry_Int_Tables_number   1
_chemical_formula_structural   Pr8Nb11Si16Tc
_chemical_formula_sum   'Pr8 Nb11 Si16 Tc1'
_cell_volume   693.61810327
_cell_formula_units_Z   1
loop_
 _symmetry_equiv_pos_site_id
 _symmetry_equiv_pos_as_xyz
  1  'x, y, z'
loop_
 _atom_site_type_symbol
 _atom_site_label
 _atom_site_symmetry_multiplicity
 _atom_site_fract_x
 _atom_site_fract_y
 _atom_site_fract_z
 _atom_site_occupancy
  Pr  Pr0  1  0.007179  0.169580  0.404072  1
  Pr  Pr1  1  0.506776  0.330211  0.403938  1
  Pr  Pr2  1  0.495652  0.669163  0.902961  1
  Pr  Pr3  1  0.495652  0.669163  0.597039  1
  Pr  Pr4  1  0.992800  0.829857  0.597689  1
  Pr  Pr5  1  0.992800  0.829857  0.902311  1
  Pr  Pr6  1  0.506776  0.330211  0.096062  1
  Pr  Pr7  1  0.007179  0.169580  0.095928  1
  Nb  Nb8  1  0.330958  0.174677  0.627333  1
  Nb  Nb9  1  0.665481  0.824432  0.374711  1
  Nb  Nb10  1  0.165492  0.676091  0.373729  1
  Nb  Nb11  1  0.834794  0.325256  0.873506  1
  Nb  Nb12  1  0.834794  0.325256  0.626494  1
  Nb  Nb13  1  0.840413  0.514149  0.250000  1
  Nb  Nb14  1  0.340848  0.985154  0.250000  1
  Nb  Nb15  1  0.330958  0.174677  0.872667  1
  Nb  Nb16  1  0.165492  0.676091  0.126271  1
  Nb  Nb17  1  0.665481  0.824432  0.125289  1
  Nb  Nb18  1  0.160733  0.483734  0.750000  1
  Si  Si19  1  0.304455  0.892016  0.750000  1
  Si  Si20  1  0.463254  0.628910  0.250000  1
  Si  Si21  1  0.030364  0.128676  0.750000  1
  Si  Si22  1  0.540867  0.363851  0.750000  1
  Si  Si23  1  0.156505  0.460891  0.543354  1
  Si  Si24  1  0.962166  0.870811  0.250000  1
  Si  Si25  1  0.704687  0.110745  0.250000  1
  Si  Si26  1  0.843802  0.540905  0.043381  1
  Si  Si27  1  0.343110  0.958737  0.042524  1
  Si  Si28  1  0.156505  0.460891  0.956646  1
  Si  Si29  1  0.653807  0.042504  0.546625  1
  Si  Si30  1  0.343110  0.958737  0.457476  1
  Si  Si31  1  0.843802  0.540905  0.456619  1
  Si  Si32  1  0.800261  0.606671  0.750000  1
  Si  Si33  1  0.204567  0.388620  0.250000  1
  Si  Si34  1  0.653807  0.042504  0.953375  1
  Tc  Tc35  1  0.654676  0.022057  0.750000  1
