# generated using pymatgen
data_TbEr2MoO7
_symmetry_space_group_name_H-M   'P 1'
_cell_length_a   6.41293606
_cell_length_b   6.41293798
_cell_length_c   7.47979700
_cell_angle_alpha   90.00000000
_cell_angle_beta   90.00000000
_cell_angle_gamma   109.31926695
_symmetry_Int_Tables_number   1
_chemical_formula_structural   TbEr2MoO7
_chemical_formula_sum   'Tb2 Er4 Mo2 O14'
_cell_volume   290.29061909
_cell_formula_units_Z   2
loop_
 _symmetry_equiv_pos_site_id
 _symmetry_equiv_pos_as_xyz
  1  'x, y, z'
loop_
 _atom_site_type_symbol
 _atom_site_label
 _atom_site_symmetry_multiplicity
 _atom_site_fract_x
 _atom_site_fract_y
 _atom_site_fract_z
 _atom_site_occupancy
  Tb  Tb0  1  0.500000  0.500000  0.500000  1
  Tb  Tb1  1  0.500000  0.500000  0.000000  1
  Er  Er2  1  0.534473  0.001388  0.750000  1
  Er  Er3  1  0.001388  0.534473  0.250000  1
  Er  Er4  1  0.465527  0.998612  0.250000  1
  Er  Er5  1  0.998612  0.465527  0.750000  1
  Mo  Mo6  1  0.000000  0.000000  0.500000  1
  Mo  Mo7  1  0.000000  0.000000  0.000000  1
  O  O8  1  0.676517  0.925383  0.469103  1
  O  O9  1  0.925383  0.676517  0.530897  1
  O  O10  1  0.676517  0.925383  0.030897  1
  O  O11  1  0.925383  0.676517  0.969103  1
  O  O12  1  0.323483  0.074617  0.530897  1
  O  O13  1  0.074617  0.323483  0.469103  1
  O  O14  1  0.323483  0.074617  0.969103  1
  O  O15  1  0.074617  0.323483  0.030897  1
  O  O16  1  0.925113  0.074887  0.750000  1
  O  O17  1  0.074887  0.925113  0.250000  1
  O  O18  1  0.366444  0.633556  0.750000  1
  O  O19  1  0.633556  0.366444  0.250000  1
  O  O20  1  0.638061  0.361939  0.750000  1
  O  O21  1  0.361939  0.638061  0.250000  1
