# generated using pymatgen
data_YbDyGa2(Co3B)2
_symmetry_space_group_name_H-M   'P 1'
_cell_length_a   5.14399400
_cell_length_b   5.14537409
_cell_length_c   6.68732200
_cell_angle_alpha   90.00000000
_cell_angle_beta   90.00000000
_cell_angle_gamma   119.99112777
_symmetry_Int_Tables_number   1
_chemical_formula_structural   YbDyGa2(Co3B)2
_chemical_formula_sum   'Yb1 Dy1 Ga2 Co6 B2'
_cell_volume   153.29892016
_cell_formula_units_Z   1
loop_
 _symmetry_equiv_pos_site_id
 _symmetry_equiv_pos_as_xyz
  1  'x, y, z'
loop_
 _atom_site_type_symbol
 _atom_site_label
 _atom_site_symmetry_multiplicity
 _atom_site_fract_x
 _atom_site_fract_y
 _atom_site_fract_z
 _atom_site_occupancy
  Yb  Yb0  1  0.000077  0.000000  0.000000  1
  Dy  Dy1  1  0.000226  0.000000  0.500000  1
  Ga  Ga2  1  0.333221  0.666533  0.000000  1
  Ga  Ga3  1  0.666688  0.333467  0.000000  1
  Co  Co4  1  0.500105  0.000000  0.295342  1
  Co  Co5  1  0.500004  0.500140  0.295214  1
  Co  Co6  1  0.999863  0.499860  0.295214  1
  Co  Co7  1  0.500105  0.000000  0.704658  1
  Co  Co8  1  0.500004  0.500140  0.704786  1
  Co  Co9  1  0.999863  0.499860  0.704786  1
  B  B10  1  0.333049  0.666454  0.500000  1
  B  B11  1  0.666596  0.333546  0.500000  1
