# generated using pymatgen
data_Tb6PdPt
_symmetry_space_group_name_H-M   'P 1'
_cell_length_a   6.56203500
_cell_length_b   7.05587700
_cell_length_c   9.70321000
_cell_angle_alpha   90.00000000
_cell_angle_beta   90.00000000
_cell_angle_gamma   90.00000000
_symmetry_Int_Tables_number   1
_chemical_formula_structural   Tb6PdPt
_chemical_formula_sum   'Tb12 Pd2 Pt2'
_cell_volume   449.26747068
_cell_formula_units_Z   2
loop_
 _symmetry_equiv_pos_site_id
 _symmetry_equiv_pos_as_xyz
  1  'x, y, z'
loop_
 _atom_site_type_symbol
 _atom_site_label
 _atom_site_symmetry_multiplicity
 _atom_site_fract_x
 _atom_site_fract_y
 _atom_site_fract_z
 _atom_site_occupancy
  Tb  Tb0  1  0.134306  0.022186  0.250000  1
  Tb  Tb1  1  0.634306  0.477814  0.750000  1
  Tb  Tb2  1  0.368736  0.527804  0.250000  1
  Tb  Tb3  1  0.868736  0.972196  0.750000  1
  Tb  Tb4  1  0.677837  0.177643  0.060921  1
  Tb  Tb5  1  0.177837  0.322357  0.939079  1
  Tb  Tb6  1  0.819736  0.681549  0.439330  1
  Tb  Tb7  1  0.319736  0.818451  0.560670  1
  Tb  Tb8  1  0.319736  0.818451  0.939330  1
  Tb  Tb9  1  0.819736  0.681549  0.060670  1
  Tb  Tb10  1  0.177837  0.322357  0.560921  1
  Tb  Tb11  1  0.677837  0.177643  0.439079  1
  Pd  Pd12  1  0.948114  0.391115  0.250000  1
  Pd  Pd13  1  0.448114  0.108885  0.750000  1
  Pt  Pt14  1  0.553700  0.888522  0.250000  1
  Pt  Pt15  1  0.053700  0.611478  0.750000  1
