# generated using pymatgen
data_Lu2Mg(SeO3)4
_symmetry_space_group_name_H-M   'P 1'
_cell_length_a   8.61119200
_cell_length_b   8.74161483
_cell_length_c   8.70127815
_cell_angle_alpha   86.54434734
_cell_angle_beta   90.00000000
_cell_angle_gamma   90.00000000
_symmetry_Int_Tables_number   1
_chemical_formula_structural   Lu2Mg(SeO3)4
_chemical_formula_sum   'Lu4 Mg2 Se8 O24'
_cell_volume   653.80406625
_cell_formula_units_Z   2
loop_
 _symmetry_equiv_pos_site_id
 _symmetry_equiv_pos_as_xyz
  1  'x, y, z'
loop_
 _atom_site_type_symbol
 _atom_site_label
 _atom_site_symmetry_multiplicity
 _atom_site_fract_x
 _atom_site_fract_y
 _atom_site_fract_z
 _atom_site_occupancy
  Lu  Lu0  1  0.765224  0.746923  0.004336  1
  Lu  Lu1  1  0.732257  0.247816  0.507641  1
  Lu  Lu2  1  0.234776  0.246923  0.004336  1
  Lu  Lu3  1  0.267743  0.747816  0.507641  1
  Mg  Mg4  1  0.599320  0.341239  0.155024  1
  Mg  Mg5  1  0.400680  0.841239  0.155024  1
  Se  Se6  1  0.108469  0.554826  0.204253  1
  Se  Se7  1  0.891531  0.054826  0.204253  1
  Se  Se8  1  0.564599  0.453621  0.829628  1
  Se  Se9  1  0.332123  0.147434  0.399624  1
  Se  Se10  1  0.053948  0.425727  0.676403  1
  Se  Se11  1  0.435401  0.953621  0.829628  1
  Se  Se12  1  0.667877  0.647434  0.399624  1
  Se  Se13  1  0.946052  0.925727  0.676403  1
  O  O14  1  0.963629  0.673563  0.133606  1
  O  O15  1  0.317359  0.004475  0.984491  1
  O  O16  1  0.154740  0.278180  0.773660  1
  O  O17  1  0.649736  0.456016  0.349846  1
  O  O18  1  0.753041  0.191065  0.256279  1
  O  O19  1  0.190762  0.489632  0.041896  1
  O  O20  1  0.203262  0.518386  0.577175  1
  O  O21  1  0.613270  0.743455  0.225607  1
  O  O22  1  0.691774  0.362783  0.718863  1
  O  O23  1  0.350264  0.956016  0.349846  1
  O  O24  1  0.966963  0.331118  0.531146  1
  O  O25  1  0.482842  0.303371  0.943916  1
  O  O26  1  0.845260  0.778180  0.773660  1
  O  O27  1  0.511295  0.671069  0.512509  1
  O  O28  1  0.308226  0.862783  0.718863  1
  O  O29  1  0.246959  0.691065  0.256279  1
  O  O30  1  0.386730  0.243455  0.225607  1
  O  O31  1  0.036371  0.173563  0.133606  1
  O  O32  1  0.033037  0.831118  0.531146  1
  O  O33  1  0.517158  0.803371  0.943916  1
  O  O34  1  0.682641  0.504474  0.984491  1
  O  O35  1  0.796738  0.018386  0.577175  1
  O  O36  1  0.488705  0.171069  0.512509  1
  O  O37  1  0.809238  0.989632  0.041896  1
