# generated using pymatgen
data_TbEr3(TiAl3)2
_symmetry_space_group_name_H-M   'P 1'
_cell_length_a   9.49095303
_cell_length_b   9.49095301
_cell_length_c   9.49095398
_cell_angle_alpha   34.82486747
_cell_angle_beta   34.82486959
_cell_angle_gamma   34.82487006
_symmetry_Int_Tables_number   1
_chemical_formula_structural   TbEr3(TiAl3)2
_chemical_formula_sum   'Tb1 Er3 Ti2 Al6'
_cell_volume   248.86961109
_cell_formula_units_Z   1
loop_
 _symmetry_equiv_pos_site_id
 _symmetry_equiv_pos_as_xyz
  1  'x, y, z'
loop_
 _atom_site_type_symbol
 _atom_site_label
 _atom_site_symmetry_multiplicity
 _atom_site_fract_x
 _atom_site_fract_y
 _atom_site_fract_z
 _atom_site_occupancy
  Tb  Tb0  1  0.813179  0.813179  0.813179  1
  Er  Er1  1  0.313360  0.313360  0.313360  1
  Er  Er2  1  0.686562  0.686562  0.686562  1
  Er  Er3  1  0.186718  0.186718  0.186718  1
  Ti  Ti4  1  0.500073  0.500073  0.500073  1
  Ti  Ti5  1  0.000057  0.000057  0.000057  1
  Al  Al6  1  0.249976  0.249976  0.749726  1
  Al  Al7  1  0.750006  0.750006  0.250360  1
  Al  Al8  1  0.249976  0.749726  0.249976  1
  Al  Al9  1  0.750006  0.250360  0.750006  1
  Al  Al10  1  0.749726  0.249976  0.249976  1
  Al  Al11  1  0.250360  0.750006  0.750006  1
