# generated using pymatgen
data_Nd2Eu2Sb4Pd3Pt
_symmetry_space_group_name_H-M   'P 1'
_cell_length_a   4.71527200
_cell_length_b   7.63479586
_cell_length_c   8.00906057
_cell_angle_alpha   90.17035620
_cell_angle_beta   90.00000000
_cell_angle_gamma   90.00000000
_symmetry_Int_Tables_number   1
_chemical_formula_structural   Nd2Eu2Sb4Pd3Pt
_chemical_formula_sum   'Nd2 Eu2 Sb4 Pd3 Pt1'
_cell_volume   288.32602060
_cell_formula_units_Z   1
loop_
 _symmetry_equiv_pos_site_id
 _symmetry_equiv_pos_as_xyz
  1  'x, y, z'
loop_
 _atom_site_type_symbol
 _atom_site_label
 _atom_site_symmetry_multiplicity
 _atom_site_fract_x
 _atom_site_fract_y
 _atom_site_fract_z
 _atom_site_occupancy
  Nd  Nd0  1  0.250000  0.005969  0.296605  1
  Nd  Nd1  1  0.750000  0.996807  0.704420  1
  Eu  Eu2  1  0.250000  0.507454  0.205106  1
  Eu  Eu3  1  0.750000  0.493003  0.794649  1
  Sb  Sb4  1  0.250000  0.699483  0.593335  1
  Sb  Sb5  1  0.250000  0.200193  0.907667  1
  Sb  Sb6  1  0.750000  0.304601  0.406291  1
  Sb  Sb7  1  0.750000  0.799820  0.092802  1
  Pd  Pd8  1  0.250000  0.819327  0.919467  1
  Pd  Pd9  1  0.750000  0.701452  0.422585  1
  Pd  Pd10  1  0.750000  0.181038  0.081505  1
  Pt  Pt11  1  0.250000  0.290854  0.575568  1
