# generated using pymatgen
data_Tb2YLu7Bi6
_symmetry_space_group_name_H-M   'P 1'
_cell_length_a   8.18423800
_cell_length_b   9.39788600
_cell_length_c   11.92279900
_cell_angle_alpha   90.00000000
_cell_angle_beta   90.00000000
_cell_angle_gamma   90.00000000
_symmetry_Int_Tables_number   1
_chemical_formula_structural   Tb2YLu7Bi6
_chemical_formula_sum   'Tb4 Y2 Lu14 Bi12'
_cell_volume   917.03654958
_cell_formula_units_Z   2
loop_
 _symmetry_equiv_pos_site_id
 _symmetry_equiv_pos_as_xyz
  1  'x, y, z'
loop_
 _atom_site_type_symbol
 _atom_site_label
 _atom_site_symmetry_multiplicity
 _atom_site_fract_x
 _atom_site_fract_y
 _atom_site_fract_z
 _atom_site_occupancy
  Tb  Tb0  1  0.313590  0.250000  0.217819  1
  Tb  Tb1  1  0.813590  0.250000  0.282181  1
  Tb  Tb2  1  0.686693  0.750000  0.781888  1
  Tb  Tb3  1  0.186693  0.750000  0.718112  1
  Y  Y4  1  0.352053  0.750000  0.217343  1
  Y  Y5  1  0.852053  0.750000  0.282657  1
  Lu  Lu6  1  0.647218  0.250000  0.781526  1
  Lu  Lu7  1  0.147218  0.250000  0.718474  1
  Lu  Lu8  1  0.692376  0.566619  0.059003  1
  Lu  Lu9  1  0.192376  0.933381  0.440997  1
  Lu  Lu10  1  0.307509  0.067126  0.939907  1
  Lu  Lu11  1  0.807509  0.432874  0.560093  1
  Lu  Lu12  1  0.307509  0.432874  0.939907  1
  Lu  Lu13  1  0.807509  0.067126  0.560093  1
  Lu  Lu14  1  0.692376  0.933381  0.059003  1
  Lu  Lu15  1  0.192376  0.566619  0.440997  1
  Lu  Lu16  1  0.477432  0.250000  0.489631  1
  Lu  Lu17  1  0.977432  0.250000  0.010369  1
  Lu  Lu18  1  0.523184  0.750000  0.511630  1
  Lu  Lu19  1  0.023184  0.750000  0.988370  1
  Bi  Bi20  1  0.403892  0.750000  0.958238  1
  Bi  Bi21  1  0.903892  0.750000  0.541762  1
  Bi  Bi22  1  0.596727  0.250000  0.039979  1
  Bi  Bi23  1  0.096727  0.250000  0.460021  1
  Bi  Bi24  1  0.565402  0.995677  0.327159  1
  Bi  Bi25  1  0.065402  0.504323  0.172841  1
  Bi  Bi26  1  0.434318  0.493889  0.673485  1
  Bi  Bi27  1  0.934318  0.006111  0.826515  1
  Bi  Bi28  1  0.434318  0.006111  0.673485  1
  Bi  Bi29  1  0.934318  0.493889  0.826515  1
  Bi  Bi30  1  0.565402  0.504323  0.327159  1
  Bi  Bi31  1  0.065402  0.995677  0.172841  1
