# generated using pymatgen
data_Li2Sm3Dy3(Co4P3)4
_symmetry_space_group_name_H-M   'P 1'
_cell_length_a   3.73212900
_cell_length_b   10.60604157
_cell_length_c   12.23828965
_cell_angle_alpha   90.03740532
_cell_angle_beta   90.00000000
_cell_angle_gamma   90.00000000
_symmetry_Int_Tables_number   1
_chemical_formula_structural   Li2Sm3Dy3(Co4P3)4
_chemical_formula_sum   'Li2 Sm3 Dy3 Co16 P12'
_cell_volume   484.42952714
_cell_formula_units_Z   1
loop_
 _symmetry_equiv_pos_site_id
 _symmetry_equiv_pos_as_xyz
  1  'x, y, z'
loop_
 _atom_site_type_symbol
 _atom_site_label
 _atom_site_symmetry_multiplicity
 _atom_site_fract_x
 _atom_site_fract_y
 _atom_site_fract_z
 _atom_site_occupancy
  Li  Li0  1  0.500000  0.499619  0.151579  1
  Li  Li1  1  0.000000  0.000171  0.848166  1
  Sm  Sm2  1  0.000000  0.499903  0.523352  1
  Sm  Sm3  1  0.500000  0.000204  0.477488  1
  Sm  Sm4  1  0.500000  0.819653  0.206054  1
  Dy  Dy5  1  0.500000  0.181248  0.205626  1
  Dy  Dy6  1  0.000000  0.680182  0.794479  1
  Dy  Dy7  1  0.000000  0.319474  0.793846  1
  Co  Co8  1  0.500000  0.499687  0.706348  1
  Co  Co9  1  0.000000  0.002011  0.293925  1
  Co  Co10  1  0.000000  0.499127  0.986503  1
  Co  Co11  1  0.500000  0.000870  0.011475  1
  Co  Co12  1  0.500000  0.332917  0.996853  1
  Co  Co13  1  0.500000  0.666285  0.995861  1
  Co  Co14  1  0.000000  0.167977  0.002270  1
  Co  Co15  1  0.000000  0.833002  0.001886  1
  Co  Co16  1  0.500000  0.296510  0.430505  1
  Co  Co17  1  0.500000  0.703028  0.432000  1
  Co  Co18  1  0.000000  0.203926  0.569794  1
  Co  Co19  1  0.000000  0.796263  0.570963  1
  Co  Co20  1  0.500000  0.878777  0.708438  1
  Co  Co21  1  0.500000  0.121227  0.708099  1
  Co  Co22  1  0.000000  0.619813  0.293153  1
  Co  Co23  1  0.000000  0.378516  0.291761  1
  P  P24  1  0.500000  0.499370  0.885325  1
  P  P25  1  0.000000  0.001734  0.112983  1
  P  P26  1  0.500000  0.499808  0.343860  1
  P  P27  1  0.000000  0.000093  0.656579  1
  P  P28  1  0.500000  0.307687  0.616555  1
  P  P29  1  0.500000  0.691918  0.617392  1
  P  P30  1  0.000000  0.192640  0.383583  1
  P  P31  1  0.000000  0.807135  0.385948  1
  P  P32  1  0.500000  0.842993  0.893916  1
  P  P33  1  0.500000  0.157567  0.893499  1
  P  P34  1  0.000000  0.655456  0.104115  1
  P  P35  1  0.000000  0.343207  0.105823  1
