# generated using pymatgen
data_Lu5RuPb3
_symmetry_space_group_name_H-M   'P 1'
_cell_length_a   9.16600300
_cell_length_b   9.16600323
_cell_length_c   6.46013300
_cell_angle_alpha   90.00000000
_cell_angle_beta   90.00000000
_cell_angle_gamma   119.99999557
_symmetry_Int_Tables_number   1
_chemical_formula_structural   Lu5RuPb3
_chemical_formula_sum   'Lu10 Ru2 Pb6'
_cell_volume   470.03707085
_cell_formula_units_Z   2
loop_
 _symmetry_equiv_pos_site_id
 _symmetry_equiv_pos_as_xyz
  1  'x, y, z'
loop_
 _atom_site_type_symbol
 _atom_site_label
 _atom_site_symmetry_multiplicity
 _atom_site_fract_x
 _atom_site_fract_y
 _atom_site_fract_z
 _atom_site_occupancy
  Lu  Lu0  1  0.764546  0.764546  0.750000  1
  Lu  Lu1  1  0.235454  0.000000  0.750000  1
  Lu  Lu2  1  0.000000  0.235454  0.750000  1
  Lu  Lu3  1  0.235454  0.235454  0.250000  1
  Lu  Lu4  1  0.764546  0.000000  0.250000  1
  Lu  Lu5  1  0.000000  0.764546  0.250000  1
  Lu  Lu6  1  0.666667  0.333333  0.000000  1
  Lu  Lu7  1  0.333333  0.666667  0.000000  1
  Lu  Lu8  1  0.333333  0.666667  0.500000  1
  Lu  Lu9  1  0.666667  0.333333  0.500000  1
  Ru  Ru10  1  0.000000  0.000000  0.000000  1
  Ru  Ru11  1  0.000000  0.000000  0.500000  1
  Pb  Pb12  1  0.403467  0.403467  0.750000  1
  Pb  Pb13  1  0.596533  0.000000  0.750000  1
  Pb  Pb14  1  0.000000  0.596533  0.750000  1
  Pb  Pb15  1  0.596533  0.596533  0.250000  1
  Pb  Pb16  1  0.403467  0.000000  0.250000  1
  Pb  Pb17  1  0.000000  0.403467  0.250000  1
