# generated using pymatgen
data_Er16MgIn3Rh4
_symmetry_space_group_name_H-M   'P 1'
_cell_length_a   9.56199946
_cell_length_b   9.57314600
_cell_length_c   9.56199600
_cell_angle_alpha   60.03882324
_cell_angle_beta   59.99832896
_cell_angle_gamma   60.03690038
_symmetry_Int_Tables_number   1
_chemical_formula_structural   Er16MgIn3Rh4
_chemical_formula_sum   'Er16 Mg1 In3 Rh4'
_cell_volume   619.26960864
_cell_formula_units_Z   1
loop_
 _symmetry_equiv_pos_site_id
 _symmetry_equiv_pos_as_xyz
  1  'x, y, z'
loop_
 _atom_site_type_symbol
 _atom_site_label
 _atom_site_symmetry_multiplicity
 _atom_site_fract_x
 _atom_site_fract_y
 _atom_site_fract_z
 _atom_site_occupancy
  Er  Er0  1  0.188798  0.188863  0.811162  1
  Er  Er1  1  0.436752  0.063958  0.062558  1
  Er  Er2  1  0.436767  0.063960  0.436730  1
  Er  Er3  1  0.062533  0.436604  0.062572  1
  Er  Er4  1  0.650129  0.049972  0.649902  1
  Er  Er5  1  0.187084  0.813288  0.812452  1
  Er  Er6  1  0.062502  0.063964  0.436757  1
  Er  Er7  1  0.811171  0.188850  0.188808  1
  Er  Er8  1  0.812479  0.813256  0.187169  1
  Er  Er9  1  0.650710  0.649303  0.049342  1
  Er  Er10  1  0.650722  0.649341  0.650603  1
  Er  Er11  1  0.062519  0.436608  0.438307  1
  Er  Er12  1  0.049302  0.649358  0.650643  1
  Er  Er13  1  0.811206  0.188854  0.811154  1
  Er  Er14  1  0.438306  0.436575  0.062579  1
  Er  Er15  1  0.187056  0.813288  0.187213  1
  Mg  Mg16  1  0.420488  0.738544  0.420487  1
  In  In17  1  0.416760  0.417843  0.748588  1
  In  In18  1  0.748613  0.417840  0.416789  1
  In  In19  1  0.416745  0.417843  0.416798  1
  Rh  Rh20  1  0.856832  0.429494  0.856844  1
  Rh  Rh21  1  0.857283  0.857471  0.427965  1
  Rh  Rh22  1  0.427963  0.857460  0.857287  1
  Rh  Rh23  1  0.857281  0.857465  0.857289  1
