# generated using pymatgen
data_TbLu4(In2Rh)2
_symmetry_space_group_name_H-M   'P 1'
_cell_length_a   3.54528200
_cell_length_b   7.96084400
_cell_length_c   18.15015300
_cell_angle_alpha   90.00000000
_cell_angle_beta   90.00000000
_cell_angle_gamma   90.00000000
_symmetry_Int_Tables_number   1
_chemical_formula_structural   TbLu4(In2Rh)2
_chemical_formula_sum   'Tb2 Lu8 In8 Rh4'
_cell_volume   512.25969861
_cell_formula_units_Z   2
loop_
 _symmetry_equiv_pos_site_id
 _symmetry_equiv_pos_as_xyz
  1  'x, y, z'
loop_
 _atom_site_type_symbol
 _atom_site_label
 _atom_site_symmetry_multiplicity
 _atom_site_fract_x
 _atom_site_fract_y
 _atom_site_fract_z
 _atom_site_occupancy
  Tb  Tb0  1  0.000000  0.000000  0.000000  1
  Tb  Tb1  1  0.000000  0.500000  0.500000  1
  Lu  Lu2  1  0.000000  0.749559  0.778784  1
  Lu  Lu3  1  0.000000  0.250441  0.221216  1
  Lu  Lu4  1  0.000000  0.249559  0.721216  1
  Lu  Lu5  1  0.000000  0.750441  0.278784  1
  Lu  Lu6  1  0.000000  0.878749  0.588095  1
  Lu  Lu7  1  0.000000  0.121251  0.411905  1
  Lu  Lu8  1  0.000000  0.378749  0.911905  1
  Lu  Lu9  1  0.000000  0.621251  0.088095  1
  In  In10  1  0.500000  0.799469  0.433029  1
  In  In11  1  0.500000  0.200531  0.566971  1
  In  In12  1  0.500000  0.299469  0.066971  1
  In  In13  1  0.500000  0.700531  0.933029  1
  In  In14  1  0.500000  0.931959  0.150667  1
  In  In15  1  0.500000  0.068041  0.849333  1
  In  In16  1  0.500000  0.431959  0.349333  1
  In  In17  1  0.500000  0.568041  0.650667  1
  Rh  Rh18  1  0.500000  0.971306  0.695771  1
  Rh  Rh19  1  0.500000  0.028694  0.304229  1
  Rh  Rh20  1  0.500000  0.471306  0.804229  1
  Rh  Rh21  1  0.500000  0.528694  0.195771  1
