# generated using pymatgen
data_LiNd2Th2Ru11C10
_symmetry_space_group_name_H-M   'P 1'
_cell_length_a   9.18038600
_cell_length_b   9.18125100
_cell_length_c   4.17359400
_cell_angle_alpha   90.00000000
_cell_angle_beta   90.00000000
_cell_angle_gamma   90.00012482
_symmetry_Int_Tables_number   1
_chemical_formula_structural   LiNd2Th2Ru11C10
_chemical_formula_sum   'Li1 Nd2 Th2 Ru11 C10'
_cell_volume   351.78150437
_cell_formula_units_Z   1
loop_
 _symmetry_equiv_pos_site_id
 _symmetry_equiv_pos_as_xyz
  1  'x, y, z'
loop_
 _atom_site_type_symbol
 _atom_site_label
 _atom_site_symmetry_multiplicity
 _atom_site_fract_x
 _atom_site_fract_y
 _atom_site_fract_z
 _atom_site_occupancy
  Li  Li0  1  0.000179  0.999126  0.500000  1
  Nd  Nd1  1  0.339981  0.817005  0.500000  1
  Nd  Nd2  1  0.817361  0.660368  0.500000  1
  Th  Th3  1  0.185632  0.344270  0.500000  1
  Th  Th4  1  0.656727  0.185211  0.500000  1
  Ru  Ru5  1  0.711967  0.424089  0.000000  1
  Ru  Ru6  1  0.424535  0.288901  0.000000  1
  Ru  Ru7  1  0.500616  0.001548  0.000000  1
  Ru  Ru8  1  0.000357  0.498534  0.000000  1
  Ru  Ru9  1  0.500304  0.496678  0.500000  1
  Ru  Ru10  1  0.791312  0.933656  0.000000  1
  Ru  Ru11  1  0.932257  0.207488  0.000000  1
  Ru  Ru12  1  0.066836  0.790577  0.000000  1
  Ru  Ru13  1  0.208242  0.067985  0.000000  1
  Ru  Ru14  1  0.573177  0.713869  0.000000  1
  Ru  Ru15  1  0.287475  0.572777  0.000000  1
  C  C16  1  0.501079  0.502925  0.000000  1
  C  C17  1  0.000250  0.998568  0.000000  1
  C  C18  1  0.878164  0.366522  0.672767  1
  C  C19  1  0.122149  0.633163  0.673285  1
  C  C20  1  0.878164  0.366522  0.327233  1
  C  C21  1  0.366917  0.121354  0.326656  1
  C  C22  1  0.633626  0.877174  0.327288  1
  C  C23  1  0.122149  0.633163  0.326715  1
  C  C24  1  0.633626  0.877174  0.672712  1
  C  C25  1  0.366917  0.121354  0.673344  1
