# generated using pymatgen
data_Sc4SiBr6
_symmetry_space_group_name_H-M   'P 1'
_cell_length_a   3.83790400
_cell_length_b   12.60672400
_cell_length_c   13.34742400
_cell_angle_alpha   90.00000000
_cell_angle_beta   90.00000000
_cell_angle_gamma   90.00000000
_symmetry_Int_Tables_number   1
_chemical_formula_structural   Sc4SiBr6
_chemical_formula_sum   'Sc8 Si2 Br12'
_cell_volume   645.79370720
_cell_formula_units_Z   2
loop_
 _symmetry_equiv_pos_site_id
 _symmetry_equiv_pos_as_xyz
  1  'x, y, z'
loop_
 _atom_site_type_symbol
 _atom_site_label
 _atom_site_symmetry_multiplicity
 _atom_site_fract_x
 _atom_site_fract_y
 _atom_site_fract_z
 _atom_site_occupancy
  Sc  Sc0  1  0.500000  0.117126  0.343192  1
  Sc  Sc1  1  0.500000  0.882874  0.656808  1
  Sc  Sc2  1  0.500000  0.617126  0.156808  1
  Sc  Sc3  1  0.500000  0.382874  0.843192  1
  Sc  Sc4  1  0.000000  0.117356  0.578115  1
  Sc  Sc5  1  0.000000  0.882644  0.421885  1
  Sc  Sc6  1  0.000000  0.617356  0.921885  1
  Sc  Sc7  1  0.000000  0.382644  0.078115  1
  Si  Si8  1  0.500000  0.000000  0.500000  1
  Si  Si9  1  0.500000  0.500000  0.000000  1
  Br  Br10  1  0.500000  0.246358  0.161777  1
  Br  Br11  1  0.500000  0.753642  0.838223  1
  Br  Br12  1  0.500000  0.746358  0.338223  1
  Br  Br13  1  0.500000  0.253642  0.661777  1
  Br  Br14  1  0.000000  0.254442  0.412764  1
  Br  Br15  1  0.000000  0.745558  0.587236  1
  Br  Br16  1  0.000000  0.754442  0.087236  1
  Br  Br17  1  0.000000  0.245558  0.912764  1
  Br  Br18  1  0.000000  0.001716  0.244247  1
  Br  Br19  1  0.000000  0.998284  0.755753  1
  Br  Br20  1  0.000000  0.501716  0.255753  1
  Br  Br21  1  0.000000  0.498284  0.744247  1
