# generated using pymatgen
data_ErUGa5Co6
_symmetry_space_group_name_H-M   'P 1'
_cell_length_a   5.07347707
_cell_length_b   6.54890390
_cell_length_c   6.54890419
_cell_angle_alpha   86.08272654
_cell_angle_beta   67.21009443
_cell_angle_gamma   67.21009828
_symmetry_Int_Tables_number   1
_chemical_formula_structural   ErUGa5Co6
_chemical_formula_sum   'Er1 U1 Ga5 Co6'
_cell_volume   184.08704200
_cell_formula_units_Z   1
loop_
 _symmetry_equiv_pos_site_id
 _symmetry_equiv_pos_as_xyz
  1  'x, y, z'
loop_
 _atom_site_type_symbol
 _atom_site_label
 _atom_site_symmetry_multiplicity
 _atom_site_fract_x
 _atom_site_fract_y
 _atom_site_fract_z
 _atom_site_occupancy
  Er  Er0  1  0.000000  0.991536  0.008464  1
  U  U1  1  0.000000  0.351449  0.648551  1
  Ga  Ga2  1  0.000000  0.674203  0.325797  1
  Ga  Ga3  1  0.500000  0.165428  0.834572  1
  Ga  Ga4  1  0.500000  0.819806  0.180194  1
  Ga  Ga5  1  0.343087  0.661161  0.652664  1
  Ga  Ga6  1  0.656913  0.347336  0.338839  1
  Co  Co7  1  0.246667  0.251849  0.254817  1
  Co  Co8  1  0.753333  0.745183  0.748151  1
  Co  Co9  1  0.492009  0.004764  0.508739  1
  Co  Co10  1  0.507991  0.491261  0.995236  1
  Co  Co11  1  0.005513  0.491261  0.995236  1
  Co  Co12  1  0.994487  0.004764  0.508739  1
