# generated using pymatgen
data_LuPa2Fe2Si7
_symmetry_space_group_name_H-M   'P 1'
_cell_length_a   12.38477200
_cell_length_b   12.38477155
_cell_length_c   4.06125000
_cell_angle_alpha   90.00000000
_cell_angle_beta   90.00000000
_cell_angle_gamma   161.20451074
_symmetry_Int_Tables_number   1
_chemical_formula_structural   LuPa2Fe2Si7
_chemical_formula_sum   'Lu1 Pa2 Fe2 Si7'
_cell_volume   200.70092317
_cell_formula_units_Z   1
loop_
 _symmetry_equiv_pos_site_id
 _symmetry_equiv_pos_as_xyz
  1  'x, y, z'
loop_
 _atom_site_type_symbol
 _atom_site_label
 _atom_site_symmetry_multiplicity
 _atom_site_fract_x
 _atom_site_fract_y
 _atom_site_fract_z
 _atom_site_occupancy
  Lu  Lu0  1  0.467163  0.532837  0.500000  1
  Pa  Pa1  1  0.098858  0.901142  0.500000  1
  Pa  Pa2  1  0.783940  0.216060  0.000000  1
  Fe  Fe3  1  0.653597  0.346403  0.000000  1
  Fe  Fe4  1  0.911201  0.088799  0.000000  1
  Si  Si5  1  0.371955  0.628045  0.000000  1
  Si  Si6  1  0.559552  0.440448  0.000000  1
  Si  Si7  1  0.871646  0.128354  0.500000  1
  Si  Si8  1  0.004451  0.995549  0.000000  1
  Si  Si9  1  0.195235  0.804765  0.000000  1
  Si  Si10  1  0.283331  0.716669  0.500000  1
  Si  Si11  1  0.695770  0.304230  0.500000  1
