# generated using pymatgen
data_Mg3NpN4
_symmetry_space_group_name_H-M   'P 1'
_cell_length_a   5.71312708
_cell_length_b   6.41053145
_cell_length_c   6.40890081
_cell_angle_alpha   58.94329732
_cell_angle_beta   70.61978485
_cell_angle_gamma   70.67670810
_symmetry_Int_Tables_number   1
_chemical_formula_structural   Mg3NpN4
_chemical_formula_sum   'Mg6 Np2 N8'
_cell_volume   185.94056002
_cell_formula_units_Z   2
loop_
 _symmetry_equiv_pos_site_id
 _symmetry_equiv_pos_as_xyz
  1  'x, y, z'
loop_
 _atom_site_type_symbol
 _atom_site_label
 _atom_site_symmetry_multiplicity
 _atom_site_fract_x
 _atom_site_fract_y
 _atom_site_fract_z
 _atom_site_occupancy
  Mg  Mg0  1  0.243933  0.374351  0.630313  1
  Mg  Mg1  1  0.756067  0.625649  0.369687  1
  Mg  Mg2  1  0.750062  0.626249  0.873413  1
  Mg  Mg3  1  0.249938  0.373751  0.126587  1
  Mg  Mg4  1  0.257085  0.870157  0.125724  1
  Mg  Mg5  1  0.742915  0.129843  0.874276  1
  Np  Np6  1  0.749984  0.141005  0.358698  1
  Np  Np7  1  0.250016  0.858995  0.641302  1
  N  N8  1  0.996363  0.771047  0.494374  1
  N  N9  1  0.003637  0.228953  0.505626  1
  N  N10  1  0.513495  0.488695  0.253199  1
  N  N11  1  0.486505  0.511305  0.746801  1
  N  N12  1  0.504140  0.005626  0.730111  1
  N  N13  1  0.495860  0.994374  0.269889  1
  N  N14  1  0.013765  0.752706  0.989456  1
  N  N15  1  0.986235  0.247294  0.010544  1
