# generated using pymatgen
data_Zr8Ti9Ge16Mo3
_symmetry_space_group_name_H-M   'P 1'
_cell_length_a   6.75193055
_cell_length_b   6.89051948
_cell_length_c   13.21250300
_cell_angle_alpha   90.00000000
_cell_angle_beta   90.00000000
_cell_angle_gamma   90.05093939
_symmetry_Int_Tables_number   1
_chemical_formula_structural   Zr8Ti9Ge16Mo3
_chemical_formula_sum   'Zr8 Ti9 Ge16 Mo3'
_cell_volume   614.70232937
_cell_formula_units_Z   1
loop_
 _symmetry_equiv_pos_site_id
 _symmetry_equiv_pos_as_xyz
  1  'x, y, z'
loop_
 _atom_site_type_symbol
 _atom_site_label
 _atom_site_symmetry_multiplicity
 _atom_site_fract_x
 _atom_site_fract_y
 _atom_site_fract_z
 _atom_site_occupancy
  Zr  Zr0  1  0.491906  0.674465  0.592264  1
  Zr  Zr1  1  0.993213  0.827116  0.907173  1
  Zr  Zr2  1  0.507629  0.326532  0.092207  1
  Zr  Zr3  1  0.009550  0.173720  0.407479  1
  Zr  Zr4  1  0.507629  0.326532  0.407793  1
  Zr  Zr5  1  0.009550  0.173720  0.092521  1
  Zr  Zr6  1  0.491906  0.674465  0.907736  1
  Zr  Zr7  1  0.993213  0.827116  0.592827  1
  Ti  Ti8  1  0.659647  0.165756  0.625594  1
  Ti  Ti9  1  0.163370  0.332641  0.875190  1
  Ti  Ti10  1  0.339126  0.834525  0.125329  1
  Ti  Ti11  1  0.839192  0.665141  0.374789  1
  Ti  Ti12  1  0.339126  0.834525  0.374671  1
  Ti  Ti13  1  0.839192  0.665141  0.125211  1
  Ti  Ti14  1  0.659647  0.165756  0.874406  1
  Ti  Ti15  1  0.163370  0.332641  0.624810  1
  Ti  Ti16  1  0.834348  0.491939  0.750000  1
  Ge  Ge17  1  0.679925  0.958517  0.460181  1
  Ge  Ge18  1  0.179345  0.542050  0.039791  1
  Ge  Ge19  1  0.320225  0.041499  0.960610  1
  Ge  Ge20  1  0.820881  0.458733  0.540474  1
  Ge  Ge21  1  0.320225  0.041499  0.539390  1
  Ge  Ge22  1  0.820881  0.458733  0.959526  1
  Ge  Ge23  1  0.679925  0.958517  0.039819  1
  Ge  Ge24  1  0.179345  0.542050  0.460209  1
  Ge  Ge25  1  0.464144  0.381383  0.750000  1
  Ge  Ge26  1  0.962901  0.122682  0.750000  1
  Ge  Ge27  1  0.535316  0.619239  0.250000  1
  Ge  Ge28  1  0.035625  0.880158  0.250000  1
  Ge  Ge29  1  0.695015  0.852565  0.750000  1
  Ge  Ge30  1  0.191170  0.643816  0.750000  1
  Ge  Ge31  1  0.305688  0.145771  0.250000  1
  Ge  Ge32  1  0.805038  0.353414  0.250000  1
  Mo  Mo33  1  0.334547  0.008501  0.750000  1
  Mo  Mo34  1  0.163994  0.509793  0.250000  1
  Mo  Mo35  1  0.664193  0.989351  0.250000  1
