# generated using pymatgen
data_Sr3Sc(Si5Pt3)2
_symmetry_space_group_name_H-M   'P 1'
_cell_length_a   8.33956286
_cell_length_b   8.31870577
_cell_length_c   8.31870641
_cell_angle_alpha   137.79680707
_cell_angle_beta   104.66832478
_cell_angle_gamma   90.30718754
_symmetry_Int_Tables_number   1
_chemical_formula_structural   Sr3Sc(Si5Pt3)2
_chemical_formula_sum   'Sr3 Sc1 Si10 Pt6'
_cell_volume   358.13163660
_cell_formula_units_Z   1
loop_
 _symmetry_equiv_pos_site_id
 _symmetry_equiv_pos_as_xyz
  1  'x, y, z'
loop_
 _atom_site_type_symbol
 _atom_site_label
 _atom_site_symmetry_multiplicity
 _atom_site_fract_x
 _atom_site_fract_y
 _atom_site_fract_z
 _atom_site_occupancy
  Sr  Sr0  1  0.865564  0.629580  0.235982  1
  Sr  Sr1  1  0.135788  0.371365  0.764423  1
  Sr  Sr2  1  0.393864  0.128139  0.265725  1
  Sc  Sc3  1  0.600250  0.871467  0.728783  1
  Si  Si4  1  0.500029  0.746299  0.250056  1
  Si  Si5  1  0.500029  0.249971  0.753730  1
  Si  Si6  1  0.233359  0.982725  0.752725  1
  Si  Si7  1  0.771419  0.524355  0.752215  1
  Si  Si8  1  0.771419  0.019203  0.247064  1
  Si  Si9  1  0.233359  0.480634  0.250632  1
  Si  Si10  1  0.037353  0.887383  0.149970  1
  Si  Si11  1  0.952867  0.104930  0.847937  1
  Si  Si12  1  0.738636  0.387043  0.351593  1
  Si  Si13  1  0.265732  0.617609  0.648124  1
  Pt  Pt14  1  0.996572  0.749310  0.748286  1
  Pt  Pt15  1  0.996572  0.248286  0.247263  1
  Pt  Pt16  1  0.255394  0.865247  0.390147  1
  Pt  Pt17  1  0.744230  0.132472  0.611757  1
  Pt  Pt18  1  0.482208  0.364515  0.117693  1
  Pt  Pt19  1  0.525360  0.639467  0.885892  1
