# generated using pymatgen
data_Ho4Hf3VF28
_symmetry_space_group_name_H-M   'P 1'
_cell_length_a   5.63874167
_cell_length_b   8.96045526
_cell_length_c   12.01703170
_cell_angle_alpha   62.68492862
_cell_angle_beta   89.97828154
_cell_angle_gamma   89.97622615
_symmetry_Int_Tables_number   1
_chemical_formula_structural   Ho4Hf3VF28
_chemical_formula_sum   'Ho4 Hf3 V1 F28'
_cell_volume   539.46737178
_cell_formula_units_Z   1
loop_
 _symmetry_equiv_pos_site_id
 _symmetry_equiv_pos_as_xyz
  1  'x, y, z'
loop_
 _atom_site_type_symbol
 _atom_site_label
 _atom_site_symmetry_multiplicity
 _atom_site_fract_x
 _atom_site_fract_y
 _atom_site_fract_z
 _atom_site_occupancy
  Ho  Ho0  1  0.757721  0.814829  0.766792  1
  Ho  Ho1  1  0.257245  0.188160  0.726763  1
  Ho  Ho2  1  0.243150  0.187784  0.240208  1
  Ho  Ho3  1  0.743305  0.816848  0.266606  1
  Hf  Hf4  1  0.756353  0.273337  0.955885  1
  Hf  Hf5  1  0.256059  0.725704  0.543934  1
  Hf  Hf6  1  0.245160  0.726769  0.045204  1
  V  V7  1  0.742412  0.274037  0.454343  1
  F  F8  1  0.463477  0.708514  0.920748  1
  F  F9  1  0.936628  0.290610  0.577187  1
  F  F10  1  0.534323  0.289690  0.079770  1
  F  F11  1  0.037894  0.709080  0.419260  1
  F  F12  1  0.457050  0.278009  0.541655  1
  F  F13  1  0.950744  0.721931  0.951151  1
  F  F14  1  0.551814  0.716543  0.452626  1
  F  F15  1  0.047319  0.277842  0.052028  1
  F  F16  1  0.772608  0.524323  0.859259  1
  F  F17  1  0.267158  0.474953  0.638859  1
  F  F18  1  0.226421  0.475988  0.143716  1
  F  F19  1  0.730798  0.505076  0.364126  1
  F  F20  1  0.758627  0.022536  0.057965  1
  F  F21  1  0.261438  0.975654  0.445599  1
  F  F22  1  0.242945  0.975669  0.941110  1
  F  F23  1  0.741436  0.043248  0.544378  1
  F  F24  1  0.979935  0.734049  0.646216  1
  F  F25  1  0.485692  0.267475  0.849423  1
  F  F26  1  0.015595  0.268573  0.363104  1
  F  F27  1  0.519293  0.729902  0.150367  1
  F  F28  1  0.036253  0.746301  0.174220  1
  F  F29  1  0.550203  0.255020  0.328915  1
  F  F30  1  0.968842  0.253024  0.827808  1
  F  F31  1  0.466143  0.746523  0.672428  1
  F  F32  1  0.423196  0.972607  0.236504  1
  F  F33  1  0.923901  0.028087  0.269137  1
  F  F34  1  0.574212  0.028062  0.763284  1
  F  F35  1  0.074650  0.973241  0.729422  1
