# generated using pymatgen
data_Pr9Ho11Ga7Sn9
_symmetry_space_group_name_H-M   'P 1'
_cell_length_a   7.77334440
_cell_length_b   8.29409449
_cell_length_c   15.64556400
_cell_angle_alpha   90.00000000
_cell_angle_beta   90.00000000
_cell_angle_gamma   90.18936778
_symmetry_Int_Tables_number   1
_chemical_formula_structural   Pr9Ho11Ga7Sn9
_chemical_formula_sum   'Pr9 Ho11 Ga7 Sn9'
_cell_volume   1008.70863777
_cell_formula_units_Z   1
loop_
 _symmetry_equiv_pos_site_id
 _symmetry_equiv_pos_as_xyz
  1  'x, y, z'
loop_
 _atom_site_type_symbol
 _atom_site_label
 _atom_site_symmetry_multiplicity
 _atom_site_fract_x
 _atom_site_fract_y
 _atom_site_fract_z
 _atom_site_occupancy
  Pr  Pr0  1  0.497732  0.316316  0.902642  1
  Pr  Pr1  1  0.003632  0.177929  0.596900  1
  Pr  Pr2  1  0.500998  0.680730  0.401666  1
  Pr  Pr3  1  0.997672  0.815306  0.097025  1
  Pr  Pr4  1  0.500998  0.680730  0.098334  1
  Pr  Pr5  1  0.997672  0.815306  0.402975  1
  Pr  Pr6  1  0.497732  0.316316  0.597358  1
  Pr  Pr7  1  0.003632  0.177929  0.903100  1
  Pr  Pr8  1  0.306851  0.978445  0.250000  1
  Ho  Ho9  1  0.332389  0.831104  0.869067  1
  Ho  Ho10  1  0.841812  0.675854  0.629094  1
  Ho  Ho11  1  0.659511  0.172406  0.368701  1
  Ho  Ho12  1  0.164748  0.329634  0.130795  1
  Ho  Ho13  1  0.659511  0.172406  0.131299  1
  Ho  Ho14  1  0.164748  0.329634  0.369205  1
  Ho  Ho15  1  0.332389  0.831104  0.630933  1
  Ho  Ho16  1  0.841812  0.675854  0.870906  1
  Ho  Ho17  1  0.193221  0.488286  0.750000  1
  Ho  Ho18  1  0.675354  0.002147  0.750000  1
  Ho  Ho19  1  0.821058  0.514540  0.250000  1
  Ga  Ga20  1  0.544752  0.626422  0.750000  1
  Ga  Ga21  1  0.040534  0.891962  0.750000  1
  Ga  Ga22  1  0.460411  0.392671  0.250000  1
  Ga  Ga23  1  0.949568  0.122694  0.250000  1
  Ga  Ga24  1  0.293640  0.125472  0.750000  1
  Ga  Ga25  1  0.718048  0.875259  0.250000  1
  Ga  Ga26  1  0.206671  0.616002  0.250000  1
  Sn  Sn27  1  0.322653  0.039239  0.036997  1
  Sn  Sn28  1  0.822308  0.458871  0.462293  1
  Sn  Sn29  1  0.675721  0.961808  0.537975  1
  Sn  Sn30  1  0.177870  0.538515  0.961253  1
  Sn  Sn31  1  0.675721  0.961808  0.962025  1
  Sn  Sn32  1  0.177870  0.538515  0.538747  1
  Sn  Sn33  1  0.322653  0.039239  0.463003  1
  Sn  Sn34  1  0.822308  0.458871  0.037707  1
  Sn  Sn35  1  0.795799  0.370672  0.750000  1
