# generated using pymatgen
data_Sm4Co3Si12Ni17
_symmetry_space_group_name_H-M   'P 1'
_cell_length_a   3.80703400
_cell_length_b   6.64447350
_cell_length_c   18.84217549
_cell_angle_alpha   90.15049118
_cell_angle_beta   90.00000000
_cell_angle_gamma   90.00000000
_symmetry_Int_Tables_number   1
_chemical_formula_structural   Sm4Co3Si12Ni17
_chemical_formula_sum   'Sm4 Co3 Si12 Ni17'
_cell_volume   476.62506266
_cell_formula_units_Z   1
loop_
 _symmetry_equiv_pos_site_id
 _symmetry_equiv_pos_as_xyz
  1  'x, y, z'
loop_
 _atom_site_type_symbol
 _atom_site_label
 _atom_site_symmetry_multiplicity
 _atom_site_fract_x
 _atom_site_fract_y
 _atom_site_fract_z
 _atom_site_occupancy
  Sm  Sm0  1  0.250000  0.874468  0.356164  1
  Sm  Sm1  1  0.750000  0.125645  0.643119  1
  Sm  Sm2  1  0.750000  0.374604  0.143594  1
  Sm  Sm3  1  0.250000  0.624026  0.856621  1
  Co  Co4  1  0.250000  0.063616  0.205739  1
  Co  Co5  1  0.750000  0.937137  0.794712  1
  Co  Co6  1  0.750000  0.563443  0.294245  1
  Si  Si7  1  0.250000  0.076287  0.086359  1
  Si  Si8  1  0.750000  0.922551  0.914066  1
  Si  Si9  1  0.750000  0.577143  0.413740  1
  Si  Si10  1  0.250000  0.425190  0.585836  1
  Si  Si11  1  0.250000  0.657298  0.073528  1
  Si  Si12  1  0.750000  0.340952  0.926461  1
  Si  Si13  1  0.750000  0.158882  0.426291  1
  Si  Si14  1  0.250000  0.843304  0.573210  1
  Si  Si15  1  0.250000  0.375200  0.262381  1
  Si  Si16  1  0.750000  0.627809  0.737924  1
  Si  Si17  1  0.750000  0.874439  0.237515  1
  Si  Si18  1  0.250000  0.120687  0.763056  1
  Ni  Ni19  1  0.250000  0.432059  0.706420  1
  Ni  Ni20  1  0.250000  0.614254  0.484371  1
  Ni  Ni21  1  0.750000  0.388478  0.515536  1
  Ni  Ni22  1  0.750000  0.112796  0.015654  1
  Ni  Ni23  1  0.250000  0.886687  0.984788  1
  Ni  Ni24  1  0.250000  0.683752  0.200446  1
  Ni  Ni25  1  0.750000  0.316322  0.800204  1
  Ni  Ni26  1  0.750000  0.184101  0.299409  1
  Ni  Ni27  1  0.250000  0.814666  0.699804  1
  Ni  Ni28  1  0.250000  0.360355  0.383008  1
  Ni  Ni29  1  0.750000  0.644934  0.616121  1
  Ni  Ni30  1  0.750000  0.859880  0.116894  1
  Ni  Ni31  1  0.250000  0.138716  0.883467  1
  Ni  Ni32  1  0.250000  0.362900  0.004470  1
  Ni  Ni33  1  0.750000  0.635389  0.995508  1
  Ni  Ni34  1  0.750000  0.865383  0.495055  1
  Ni  Ni35  1  0.250000  0.136649  0.504285  1
