# generated using pymatgen
data_DyPa5(Sb4Pt3)2
_symmetry_space_group_name_H-M   'P 1'
_cell_length_a   8.46540770
_cell_length_b   8.46540737
_cell_length_c   8.46540829
_cell_angle_alpha   109.52179075
_cell_angle_beta   109.37013350
_cell_angle_gamma   109.52178454
_symmetry_Int_Tables_number   1
_chemical_formula_structural   DyPa5(Sb4Pt3)2
_chemical_formula_sum   'Dy1 Pa5 Sb8 Pt6'
_cell_volume   467.00415889
_cell_formula_units_Z   1
loop_
 _symmetry_equiv_pos_site_id
 _symmetry_equiv_pos_as_xyz
  1  'x, y, z'
loop_
 _atom_site_type_symbol
 _atom_site_label
 _atom_site_symmetry_multiplicity
 _atom_site_fract_x
 _atom_site_fract_y
 _atom_site_fract_z
 _atom_site_occupancy
  Dy  Dy0  1  0.875000  0.250000  0.125000  1
  Pa  Pa1  1  0.625000  0.750000  0.375000  1
  Pa  Pa2  1  0.250032  0.124923  0.875559  1
  Pa  Pa3  1  0.750635  0.375077  0.625108  1
  Pa  Pa4  1  0.124441  0.874473  0.249365  1
  Pa  Pa5  1  0.374892  0.625527  0.749968  1
  Sb  Sb6  1  0.678828  0.500888  0.000369  1
  Sb  Sb7  1  0.499481  0.999112  0.677940  1
  Sb  Sb8  1  0.998738  0.676166  0.497524  1
  Sb  Sb9  1  0.821358  0.823834  0.822572  1
  Sb  Sb10  1  0.502476  0.001214  0.178642  1
  Sb  Sb11  1  0.177428  0.498786  0.001262  1
  Sb  Sb12  1  0.999631  0.178459  0.500519  1
  Sb  Sb13  1  0.322060  0.321541  0.321172  1
  Pt  Pt14  1  0.375000  0.250000  0.625000  1
  Pt  Pt15  1  0.125000  0.750000  0.875000  1
  Pt  Pt16  1  0.254330  0.627779  0.377190  1
  Pt  Pt17  1  0.749410  0.872221  0.126551  1
  Pt  Pt18  1  0.622810  0.377140  0.250590  1
  Pt  Pt19  1  0.873449  0.122860  0.745670  1
