# generated using pymatgen
data_Ho3Lu(Ga8Pt3)3
_symmetry_space_group_name_H-M   'P 1'
_cell_length_a   7.51796020
_cell_length_b   7.58569510
_cell_length_c   13.38247900
_cell_angle_alpha   84.69412201
_cell_angle_beta   79.38489530
_cell_angle_gamma   60.24771034
_symmetry_Int_Tables_number   1
_chemical_formula_structural   Ho3Lu(Ga8Pt3)3
_chemical_formula_sum   'Ho3 Lu1 Ga24 Pt9'
_cell_volume   651.24502989
_cell_formula_units_Z   1
loop_
 _symmetry_equiv_pos_site_id
 _symmetry_equiv_pos_as_xyz
  1  'x, y, z'
loop_
 _atom_site_type_symbol
 _atom_site_label
 _atom_site_symmetry_multiplicity
 _atom_site_fract_x
 _atom_site_fract_y
 _atom_site_fract_z
 _atom_site_occupancy
  Ho  Ho0  1  0.605712  0.831988  0.189122  1
  Ho  Ho1  1  0.732686  0.498105  0.811618  1
  Ho  Ho2  1  0.267796  0.501808  0.188631  1
  Lu  Lu3  1  0.395257  0.168429  0.809419  1
  Ga  Ga4  1  0.684002  0.835418  0.938295  1
  Ga  Ga5  1  0.314309  0.166173  0.061288  1
  Ga  Ga6  1  0.145630  0.832593  0.559142  1
  Ga  Ga7  1  0.854789  0.167427  0.440381  1
  Ga  Ga8  1  0.478439  0.166687  0.555950  1
  Ga  Ga9  1  0.522036  0.833069  0.443463  1
  Ga  Ga10  1  0.222015  0.165291  0.322331  1
  Ga  Ga11  1  0.778064  0.835247  0.676832  1
  Ga  Ga12  1  0.437513  0.502941  0.675285  1
  Ga  Ga13  1  0.562897  0.496642  0.323719  1
  Ga  Ga14  1  0.107285  0.163556  0.674934  1
  Ga  Ga15  1  0.893682  0.836342  0.324165  1
  Ga  Ga16  1  0.357866  0.495994  0.938813  1
  Ga  Ga17  1  0.640914  0.502965  0.062026  1
  Ga  Ga18  1  0.021141  0.169563  0.943931  1
  Ga  Ga19  1  0.979305  0.829760  0.057422  1
  Ga  Ga20  1  0.187321  0.499067  0.442749  1
  Ga  Ga21  1  0.812916  0.501281  0.556957  1
  Ga  Ga22  1  0.734399  0.164116  0.182115  1
  Ga  Ga23  1  0.266928  0.834405  0.818397  1
  Ga  Ga24  1  0.060058  0.630349  0.817646  1
  Ga  Ga25  1  0.938185  0.369820  0.183002  1
  Ga  Ga26  1  0.856877  0.041625  0.817351  1
  Ga  Ga27  1  0.143452  0.959433  0.183205  1
  Pt  Pt28  1  0.117259  0.495418  0.639298  1
  Pt  Pt29  1  0.883352  0.504420  0.360690  1
  Pt  Pt30  1  0.660095  0.169484  0.000006  1
  Pt  Pt31  1  0.338784  0.830096  0.001402  1
  Pt  Pt32  1  0.541229  0.166867  0.360113  1
  Pt  Pt33  1  0.458467  0.833691  0.639784  1
  Pt  Pt34  1  0.779367  0.172109  0.637306  1
  Pt  Pt35  1  0.221145  0.827564  0.362447  1
  Pt  Pt36  1  0.998826  0.500261  0.000767  1
