# generated using pymatgen
data_Pr4Sn2Pb
_symmetry_space_group_name_H-M   'P 1'
_cell_length_a   8.43471156
_cell_length_b   8.43477357
_cell_length_c   8.43451800
_cell_angle_alpha   109.49442777
_cell_angle_beta   109.45885372
_cell_angle_gamma   109.46007192
_symmetry_Int_Tables_number   1
_chemical_formula_structural   Pr4Sn2Pb
_chemical_formula_sum   'Pr8 Sn4 Pb2'
_cell_volume   461.93796434
_cell_formula_units_Z   2
loop_
 _symmetry_equiv_pos_site_id
 _symmetry_equiv_pos_as_xyz
  1  'x, y, z'
loop_
 _atom_site_type_symbol
 _atom_site_label
 _atom_site_symmetry_multiplicity
 _atom_site_fract_x
 _atom_site_fract_y
 _atom_site_fract_z
 _atom_site_occupancy
  Pr  Pr0  1  0.365273  0.500534  0.001429  1
  Pr  Pr1  1  0.860482  0.500697  0.002020  1
  Pr  Pr2  1  0.139518  0.140216  0.141538  1
  Pr  Pr3  1  0.499317  0.000185  0.361927  1
  Pr  Pr4  1  0.999849  0.361122  0.496877  1
  Pr  Pr5  1  0.000151  0.861273  0.497027  1
  Pr  Pr6  1  0.634728  0.635263  0.636158  1
  Pr  Pr7  1  0.500682  0.000868  0.862609  1
  Sn  Sn8  1  0.749980  0.875268  0.124763  1
  Sn  Sn9  1  0.625071  0.374643  0.250385  1
  Sn  Sn10  1  0.250020  0.625289  0.374783  1
  Sn  Sn11  1  0.374929  0.249573  0.625314  1
  Pb  Pb12  1  0.875291  0.125181  0.750231  1
  Pb  Pb13  1  0.124708  0.749889  0.874938  1
