# generated using pymatgen
data_NdSmEu2(ReC2)2
_symmetry_space_group_name_H-M   'P 1'
_cell_length_a   5.36938300
_cell_length_b   6.65668122
_cell_length_c   10.41692073
_cell_angle_alpha   90.06769122
_cell_angle_beta   90.00000000
_cell_angle_gamma   90.00000000
_symmetry_Int_Tables_number   1
_chemical_formula_structural   NdSmEu2(ReC2)2
_chemical_formula_sum   'Nd2 Sm2 Eu4 Re4 C8'
_cell_volume   372.32414358
_cell_formula_units_Z   2
loop_
 _symmetry_equiv_pos_site_id
 _symmetry_equiv_pos_as_xyz
  1  'x, y, z'
loop_
 _atom_site_type_symbol
 _atom_site_label
 _atom_site_symmetry_multiplicity
 _atom_site_fract_x
 _atom_site_fract_y
 _atom_site_fract_z
 _atom_site_occupancy
  Nd  Nd0  1  0.750000  0.807171  0.050488  1
  Nd  Nd1  1  0.250000  0.192829  0.949512  1
  Sm  Sm2  1  0.750000  0.310809  0.449962  1
  Sm  Sm3  1  0.250000  0.689191  0.550038  1
  Eu  Eu4  1  0.750000  0.467411  0.776404  1
  Eu  Eu5  1  0.250000  0.033901  0.279643  1
  Eu  Eu6  1  0.750000  0.966099  0.720357  1
  Eu  Eu7  1  0.250000  0.532589  0.223596  1
  Re  Re8  1  0.750000  0.769427  0.357383  1
  Re  Re9  1  0.250000  0.730495  0.852622  1
  Re  Re10  1  0.250000  0.230573  0.642617  1
  Re  Re11  1  0.750000  0.269505  0.147378  1
  C  C12  1  0.250000  0.965885  0.738892  1
  C  C13  1  0.750000  0.533467  0.244028  1
  C  C14  1  0.250000  0.466533  0.755972  1
  C  C15  1  0.750000  0.034115  0.261108  1
  C  C16  1  0.250000  0.312220  0.466891  1
  C  C17  1  0.750000  0.192974  0.970596  1
  C  C18  1  0.250000  0.807026  0.029404  1
  C  C19  1  0.750000  0.687780  0.533109  1
