# generated using pymatgen
data_ErTm4FeSb2
_symmetry_space_group_name_H-M   'P 1'
_cell_length_a   7.75191600
_cell_length_b   8.72562300
_cell_length_c   12.05380500
_cell_angle_alpha   90.00000000
_cell_angle_beta   90.00000000
_cell_angle_gamma   90.00000000
_symmetry_Int_Tables_number   1
_chemical_formula_structural   ErTm4FeSb2
_chemical_formula_sum   'Er4 Tm16 Fe4 Sb8'
_cell_volume   815.32294468
_cell_formula_units_Z   4
loop_
 _symmetry_equiv_pos_site_id
 _symmetry_equiv_pos_as_xyz
  1  'x, y, z'
loop_
 _atom_site_type_symbol
 _atom_site_label
 _atom_site_symmetry_multiplicity
 _atom_site_fract_x
 _atom_site_fract_y
 _atom_site_fract_z
 _atom_site_occupancy
  Er  Er0  1  0.622986  0.750000  0.308648  1
  Er  Er1  1  0.122986  0.250000  0.191352  1
  Er  Er2  1  0.377014  0.250000  0.691352  1
  Er  Er3  1  0.877014  0.750000  0.808648  1
  Tm  Tm4  1  0.157837  0.750000  0.205289  1
  Tm  Tm5  1  0.657837  0.250000  0.294711  1
  Tm  Tm6  1  0.842163  0.250000  0.794711  1
  Tm  Tm7  1  0.342163  0.750000  0.705289  1
  Tm  Tm8  1  0.448149  0.750000  0.996127  1
  Tm  Tm9  1  0.948149  0.250000  0.503873  1
  Tm  Tm10  1  0.551851  0.250000  0.003873  1
  Tm  Tm11  1  0.051851  0.750000  0.496127  1
  Tm  Tm12  1  0.825396  0.964043  0.064283  1
  Tm  Tm13  1  0.325396  0.035957  0.435717  1
  Tm  Tm14  1  0.174604  0.464043  0.935717  1
  Tm  Tm15  1  0.674604  0.535957  0.564283  1
  Tm  Tm16  1  0.174604  0.035957  0.935717  1
  Tm  Tm17  1  0.674604  0.964043  0.564283  1
  Tm  Tm18  1  0.825396  0.535957  0.064283  1
  Tm  Tm19  1  0.325396  0.464043  0.435717  1
  Fe  Fe20  1  0.427738  0.750000  0.489454  1
  Fe  Fe21  1  0.927738  0.250000  0.010546  1
  Fe  Fe22  1  0.572262  0.250000  0.510546  1
  Fe  Fe23  1  0.072262  0.750000  0.989454  1
  Sb  Sb24  1  0.931376  0.992726  0.328041  1
  Sb  Sb25  1  0.431376  0.007274  0.171959  1
  Sb  Sb26  1  0.068624  0.492726  0.671959  1
  Sb  Sb27  1  0.568624  0.507274  0.828041  1
  Sb  Sb28  1  0.068624  0.007274  0.671959  1
  Sb  Sb29  1  0.568624  0.992726  0.828041  1
  Sb  Sb30  1  0.931376  0.507274  0.328041  1
  Sb  Sb31  1  0.431376  0.492726  0.171959  1
