# generated using pymatgen
data_Tb12InGaCo4
_symmetry_space_group_name_H-M   'P 1'
_cell_length_a   8.38242260
_cell_length_b   8.38242331
_cell_length_c   8.38242248
_cell_angle_alpha   112.22892306
_cell_angle_beta   109.34942555
_cell_angle_gamma   106.87972135
_symmetry_Int_Tables_number   1
_chemical_formula_structural   Tb12InGaCo4
_chemical_formula_sum   'Tb12 In1 Ga1 Co4'
_cell_volume   452.41362359
_cell_formula_units_Z   1
loop_
 _symmetry_equiv_pos_site_id
 _symmetry_equiv_pos_as_xyz
  1  'x, y, z'
loop_
 _atom_site_type_symbol
 _atom_site_label
 _atom_site_symmetry_multiplicity
 _atom_site_fract_x
 _atom_site_fract_y
 _atom_site_fract_z
 _atom_site_occupancy
  Tb  Tb0  1  0.033014  0.732835  0.300178  1
  Tb  Tb1  1  0.966986  0.267165  0.699822  1
  Tb  Tb2  1  0.567342  0.267165  0.300178  1
  Tb  Tb3  1  0.432658  0.732835  0.699822  1
  Tb  Tb4  1  0.675020  0.861227  0.186207  1
  Tb  Tb5  1  0.324980  0.511188  0.186207  1
  Tb  Tb6  1  0.324980  0.138773  0.813793  1
  Tb  Tb7  1  0.675020  0.488812  0.813793  1
  Tb  Tb8  1  0.180426  0.217426  0.397852  1
  Tb  Tb9  1  0.819574  0.217426  0.037000  1
  Tb  Tb10  1  0.180426  0.782574  0.963000  1
  Tb  Tb11  1  0.819574  0.782574  0.602148  1
  In  In12  1  0.500000  0.000000  0.500000  1
  Ga  Ga13  1  0.000000  0.500000  0.500000  1
  Co  Co14  1  0.660615  0.500000  0.160615  1
  Co  Co15  1  0.339385  0.500000  0.839385  1
  Co  Co16  1  0.886616  0.886616  0.000000  1
  Co  Co17  1  0.113384  0.113384  0.000000  1
