# generated using pymatgen
data_Hf4Ga3Tc
_symmetry_space_group_name_H-M   'P 1'
_cell_length_a   7.92701600
_cell_length_b   7.92701530
_cell_length_c   5.40102400
_cell_angle_alpha   90.00000000
_cell_angle_beta   90.00000000
_cell_angle_gamma   119.99999458
_symmetry_Int_Tables_number   1
_chemical_formula_structural   Hf4Ga3Tc
_chemical_formula_sum   'Hf8 Ga6 Tc2'
_cell_volume   293.91800671
_cell_formula_units_Z   2
loop_
 _symmetry_equiv_pos_site_id
 _symmetry_equiv_pos_as_xyz
  1  'x, y, z'
loop_
 _atom_site_type_symbol
 _atom_site_label
 _atom_site_symmetry_multiplicity
 _atom_site_fract_x
 _atom_site_fract_y
 _atom_site_fract_z
 _atom_site_occupancy
  Hf  Hf0  1  0.333333  0.666667  0.500000  1
  Hf  Hf1  1  0.666667  0.333333  0.500000  1
  Hf  Hf2  1  0.756338  0.756338  0.755370  1
  Hf  Hf3  1  0.243662  0.000000  0.755370  1
  Hf  Hf4  1  0.000000  0.243662  0.755370  1
  Hf  Hf5  1  0.243662  0.243662  0.244630  1
  Hf  Hf6  1  0.756338  0.000000  0.244630  1
  Hf  Hf7  1  0.000000  0.756338  0.244630  1
  Ga  Ga8  1  0.399664  0.399664  0.768625  1
  Ga  Ga9  1  0.600336  0.000000  0.768625  1
  Ga  Ga10  1  0.000000  0.600336  0.768625  1
  Ga  Ga11  1  0.600336  0.600336  0.231375  1
  Ga  Ga12  1  0.399664  0.000000  0.231375  1
  Ga  Ga13  1  0.000000  0.399664  0.231375  1
  Tc  Tc14  1  0.666667  0.333333  0.000000  1
  Tc  Tc15  1  0.333333  0.666667  0.000000  1
