# generated using pymatgen
data_Er7Si4BiO20
_symmetry_space_group_name_H-M   'P 1'
_cell_length_a   6.76985982
_cell_length_b   7.99248972
_cell_length_c   9.66737670
_cell_angle_alpha   90.40084011
_cell_angle_beta   110.66449405
_cell_angle_gamma   114.76082699
_symmetry_Int_Tables_number   1
_chemical_formula_structural   Er7Si4BiO20
_chemical_formula_sum   'Er7 Si4 Bi1 O20'
_cell_volume   436.99436155
_cell_formula_units_Z   1
loop_
 _symmetry_equiv_pos_site_id
 _symmetry_equiv_pos_as_xyz
  1  'x, y, z'
loop_
 _atom_site_type_symbol
 _atom_site_label
 _atom_site_symmetry_multiplicity
 _atom_site_fract_x
 _atom_site_fract_y
 _atom_site_fract_z
 _atom_site_occupancy
  Er  Er0  1  0.934765  0.449229  0.166592  1
  Er  Er1  1  0.812429  0.056276  0.338699  1
  Er  Er2  1  0.689912  0.398149  0.465466  1
  Er  Er3  1  0.312776  0.605793  0.531735  1
  Er  Er4  1  0.177317  0.941501  0.656698  1
  Er  Er5  1  0.073566  0.547352  0.836077  1
  Er  Er6  1  0.674936  0.891220  0.972344  1
  Si  Si7  1  0.472589  0.565027  0.197777  1
  Si  Si8  1  0.215199  0.940675  0.308802  1
  Si  Si9  1  0.775574  0.054052  0.688983  1
  Si  Si10  1  0.536509  0.443294  0.804164  1
  Bi  Bi11  1  0.320399  0.108335  0.025387  1
  O  O12  1  0.203661  0.468958  0.065268  1
  O  O13  1  0.726509  0.141018  0.104094  1
  O  O14  1  0.045021  0.943175  0.138463  1
  O  O15  1  0.612055  0.781102  0.178681  1
  O  O16  1  0.620405  0.446108  0.194375  1
  O  O17  1  0.491182  0.087190  0.333912  1
  O  O18  1  0.181419  0.728680  0.327578  1
  O  O19  1  0.451427  0.538815  0.361736  1
  O  O20  1  0.976834  0.362442  0.397897  1
  O  O21  1  0.149922  0.026139  0.432305  1
  O  O22  1  0.836099  0.966778  0.564014  1
  O  O23  1  0.027559  0.635412  0.605297  1
  O  O24  1  0.549635  0.467104  0.638598  1
  O  O25  1  0.826720  0.271044  0.676553  1
  O  O26  1  0.500154  0.914988  0.667344  1
  O  O27  1  0.421689  0.583706  0.827586  1
  O  O28  1  0.371160  0.225457  0.809043  1
  O  O29  1  0.926357  0.029068  0.857158  1
  O  O30  1  0.281502  0.860595  0.893360  1
  O  O31  1  0.804720  0.521320  0.934016  1
