# generated using pymatgen
data_Gd4Hf3TiF28
_symmetry_space_group_name_H-M   'P 1'
_cell_length_a   5.68629698
_cell_length_b   9.03690277
_cell_length_c   12.16152400
_cell_angle_alpha   62.66345918
_cell_angle_beta   90.03363407
_cell_angle_gamma   89.87277803
_symmetry_Int_Tables_number   1
_chemical_formula_structural   Gd4Hf3TiF28
_chemical_formula_sum   'Gd4 Hf3 Ti1 F28'
_cell_volume   555.14576323
_cell_formula_units_Z   1
loop_
 _symmetry_equiv_pos_site_id
 _symmetry_equiv_pos_as_xyz
  1  'x, y, z'
loop_
 _atom_site_type_symbol
 _atom_site_label
 _atom_site_symmetry_multiplicity
 _atom_site_fract_x
 _atom_site_fract_y
 _atom_site_fract_z
 _atom_site_occupancy
  Gd  Gd0  1  0.257498  0.811636  0.261240  1
  Gd  Gd1  1  0.742343  0.184761  0.735732  1
  Gd  Gd2  1  0.757590  0.188823  0.233051  1
  Gd  Gd3  1  0.242196  0.810906  0.770882  1
  Hf  Hf4  1  0.245097  0.273042  0.957347  1
  Hf  Hf5  1  0.255420  0.273059  0.456662  1
  Hf  Hf6  1  0.744418  0.727009  0.543439  1
  Ti  Ti7  1  0.755896  0.724760  0.044779  1
  F  F8  1  0.958341  0.708512  0.419753  1
  F  F9  1  0.043561  0.293512  0.579616  1
  F  F10  1  0.457293  0.291710  0.080650  1
  F  F11  1  0.555643  0.710683  0.926489  1
  F  F12  1  0.492550  0.731510  0.136709  1
  F  F13  1  0.523296  0.267386  0.858853  1
  F  F14  1  0.979430  0.273149  0.354163  1
  F  F15  1  0.017704  0.729894  0.646533  1
  F  F16  1  0.949963  0.742760  0.166193  1
  F  F17  1  0.041735  0.254731  0.828797  1
  F  F18  1  0.456153  0.254755  0.327081  1
  F  F19  1  0.539636  0.746040  0.672235  1
  F  F20  1  0.767456  0.490827  0.135723  1
  F  F21  1  0.233897  0.521245  0.861220  1
  F  F22  1  0.274751  0.521150  0.356787  1
  F  F23  1  0.726538  0.478783  0.641366  1
  F  F24  1  0.952972  0.285594  0.045466  1
  F  F25  1  0.032465  0.717456  0.958370  1
  F  F26  1  0.452853  0.720481  0.451294  1
  F  F27  1  0.549354  0.280248  0.546321  1
  F  F28  1  0.741108  0.975493  0.444455  1
  F  F29  1  0.258945  0.025699  0.556556  1
  F  F30  1  0.237325  0.025057  0.053552  1
  F  F31  1  0.758728  0.958989  0.950559  1
  F  F32  1  0.582439  0.969762  0.230637  1
  F  F33  1  0.414231  0.031758  0.769622  1
  F  F34  1  0.082553  0.029824  0.265612  1
  F  F35  1  0.918620  0.968994  0.732258  1
