# generated using pymatgen
data_Tm5HgIO12
_symmetry_space_group_name_H-M   'P 1'
_cell_length_a   6.42519136
_cell_length_b   6.28598120
_cell_length_c   6.45421600
_cell_angle_alpha   98.42572391
_cell_angle_beta   99.51121644
_cell_angle_gamma   96.46715046
_symmetry_Int_Tables_number   1
_chemical_formula_structural   Tm5HgIO12
_chemical_formula_sum   'Tm5 Hg1 I1 O12'
_cell_volume   251.80432753
_cell_formula_units_Z   1
loop_
 _symmetry_equiv_pos_site_id
 _symmetry_equiv_pos_as_xyz
  1  'x, y, z'
loop_
 _atom_site_type_symbol
 _atom_site_label
 _atom_site_symmetry_multiplicity
 _atom_site_fract_x
 _atom_site_fract_y
 _atom_site_fract_z
 _atom_site_occupancy
  Tm  Tm0  1  0.393146  0.694170  0.857176  1
  Tm  Tm1  1  0.856980  0.384192  0.675404  1
  Tm  Tm2  1  0.676411  0.848916  0.384890  1
  Tm  Tm3  1  0.609793  0.318351  0.136565  1
  Tm  Tm4  1  0.145048  0.606100  0.318943  1
  Hg  Hg5  1  0.325642  0.152173  0.594645  1
  I  I6  1  0.991648  0.991617  0.001761  1
  O  O7  1  0.185180  0.441410  0.602512  1
  O  O8  1  0.633520  0.180997  0.420779  1
  O  O9  1  0.426845  0.594674  0.176228  1
  O  O10  1  0.827070  0.564094  0.399593  1
  O  O11  1  0.402413  0.825859  0.561757  1
  O  O12  1  0.603477  0.449710  0.838158  1
  O  O13  1  0.906626  0.022387  0.714024  1
  O  O14  1  0.966798  0.292433  0.076977  1
  O  O15  1  0.288560  0.059540  0.004516  1
  O  O16  1  0.034801  0.940829  0.287973  1
  O  O17  1  0.034180  0.696330  0.923299  1
  O  O18  1  0.691861  0.936217  0.024802  1
