# generated using pymatgen
data_V2SbAuS4
_symmetry_space_group_name_H-M   'P 1'
_cell_length_a   3.25618000
_cell_length_b   3.25617948
_cell_length_c   15.93730100
_cell_angle_alpha   90.00000000
_cell_angle_beta   90.00000000
_cell_angle_gamma   120.00000527
_symmetry_Int_Tables_number   1
_chemical_formula_structural   V2SbAuS4
_chemical_formula_sum   'V2 Sb1 Au1 S4'
_cell_volume   146.33968752
_cell_formula_units_Z   1
loop_
 _symmetry_equiv_pos_site_id
 _symmetry_equiv_pos_as_xyz
  1  'x, y, z'
loop_
 _atom_site_type_symbol
 _atom_site_label
 _atom_site_symmetry_multiplicity
 _atom_site_fract_x
 _atom_site_fract_y
 _atom_site_fract_z
 _atom_site_occupancy
  V  V0  1  0.333333  0.666667  0.262861  1
  V  V1  1  0.666667  0.333333  0.737139  1
  Sb  Sb2  1  0.000000  0.000000  0.000000  1
  Au  Au3  1  0.000000  0.000000  0.500000  1
  S  S4  1  0.000000  0.000000  0.352199  1
  S  S5  1  0.000000  0.000000  0.826118  1
  S  S6  1  0.000000  0.000000  0.173882  1
  S  S7  1  0.000000  0.000000  0.647801  1
