# generated using pymatgen
data_Nd8Zn(CuPd11)2
_symmetry_space_group_name_H-M   'P 1'
_cell_length_a   8.38784300
_cell_length_b   8.48722800
_cell_length_c   8.56765200
_cell_angle_alpha   90.00000000
_cell_angle_beta   90.00000000
_cell_angle_gamma   90.00000000
_symmetry_Int_Tables_number   1
_chemical_formula_structural   Nd8Zn(CuPd11)2
_chemical_formula_sum   'Nd8 Zn1 Cu2 Pd22'
_cell_volume   609.92717023
_cell_formula_units_Z   1
loop_
 _symmetry_equiv_pos_site_id
 _symmetry_equiv_pos_as_xyz
  1  'x, y, z'
loop_
 _atom_site_type_symbol
 _atom_site_label
 _atom_site_symmetry_multiplicity
 _atom_site_fract_x
 _atom_site_fract_y
 _atom_site_fract_z
 _atom_site_occupancy
  Nd  Nd0  1  0.250442  0.248385  0.253196  1
  Nd  Nd1  1  0.749558  0.751615  0.746804  1
  Nd  Nd2  1  0.749558  0.751615  0.253196  1
  Nd  Nd3  1  0.749558  0.248385  0.746804  1
  Nd  Nd4  1  0.250442  0.248385  0.746804  1
  Nd  Nd5  1  0.250442  0.751615  0.253196  1
  Nd  Nd6  1  0.250442  0.751615  0.746804  1
  Nd  Nd7  1  0.749558  0.248385  0.253196  1
  Zn  Zn8  1  0.000000  0.000000  0.000000  1
  Cu  Cu9  1  0.266010  0.500000  0.000000  1
  Cu  Cu10  1  0.733990  0.500000  0.000000  1
  Pd  Pd11  1  0.000000  0.259780  0.500000  1
  Pd  Pd12  1  0.500000  0.269571  0.000000  1
  Pd  Pd13  1  0.000000  0.740220  0.500000  1
  Pd  Pd14  1  0.500000  0.730429  0.000000  1
  Pd  Pd15  1  0.500000  0.000000  0.261544  1
  Pd  Pd16  1  0.260740  0.000000  0.500000  1
  Pd  Pd17  1  0.500000  0.000000  0.738456  1
  Pd  Pd18  1  0.739260  0.000000  0.500000  1
  Pd  Pd19  1  0.000000  0.500000  0.262973  1
  Pd  Pd20  1  0.000000  0.500000  0.737027  1
  Pd  Pd21  1  0.253961  0.500000  0.500000  1
  Pd  Pd22  1  0.746039  0.500000  0.500000  1
  Pd  Pd23  1  0.500000  0.254650  0.500000  1
  Pd  Pd24  1  0.500000  0.745350  0.500000  1
  Pd  Pd25  1  0.500000  0.500000  0.250020  1
  Pd  Pd26  1  0.500000  0.500000  0.749980  1
  Pd  Pd27  1  0.299245  0.000000  0.000000  1
  Pd  Pd28  1  0.700755  0.000000  0.000000  1
  Pd  Pd29  1  0.000000  0.303853  0.000000  1
  Pd  Pd30  1  0.000000  0.696147  0.000000  1
  Pd  Pd31  1  0.000000  0.000000  0.293133  1
  Pd  Pd32  1  0.000000  0.000000  0.706867  1
