# generated using pymatgen
data_TbErP7Ru12
_symmetry_space_group_name_H-M   'P 1'
_cell_length_a   9.41405400
_cell_length_b   9.41405271
_cell_length_c   3.96071500
_cell_angle_alpha   90.00000000
_cell_angle_beta   90.00000000
_cell_angle_gamma   119.99999752
_symmetry_Int_Tables_number   1
_chemical_formula_structural   TbErP7Ru12
_chemical_formula_sum   'Tb1 Er1 P7 Ru12'
_cell_volume   303.98877430
_cell_formula_units_Z   1
loop_
 _symmetry_equiv_pos_site_id
 _symmetry_equiv_pos_as_xyz
  1  'x, y, z'
loop_
 _atom_site_type_symbol
 _atom_site_label
 _atom_site_symmetry_multiplicity
 _atom_site_fract_x
 _atom_site_fract_y
 _atom_site_fract_z
 _atom_site_occupancy
  Tb  Tb0  1  0.333333  0.666667  0.000000  1
  Er  Er1  1  0.666667  0.333333  0.500000  1
  P  P2  1  0.601114  0.718601  0.500000  1
  P  P3  1  0.000000  0.000000  0.000000  1
  P  P4  1  0.281399  0.882513  0.500000  1
  P  P5  1  0.117487  0.398886  0.500000  1
  P  P6  1  0.884947  0.573038  0.000000  1
  P  P7  1  0.426962  0.311909  0.000000  1
  P  P8  1  0.688091  0.115053  0.000000  1
  Ru  Ru9  1  0.556767  0.950777  0.500000  1
  Ru  Ru10  1  0.394010  0.443233  0.500000  1
  Ru  Ru11  1  0.914671  0.121429  0.500000  1
  Ru  Ru12  1  0.206758  0.085329  0.500000  1
  Ru  Ru13  1  0.878571  0.793242  0.500000  1
  Ru  Ru14  1  0.728035  0.892448  0.000000  1
  Ru  Ru15  1  0.107552  0.835586  0.000000  1
  Ru  Ru16  1  0.164414  0.271965  0.000000  1
  Ru  Ru17  1  0.423683  0.067371  0.000000  1
  Ru  Ru18  1  0.932629  0.356313  0.000000  1
  Ru  Ru19  1  0.643687  0.576317  0.000000  1
  Ru  Ru20  1  0.049223  0.605990  0.500000  1
