# generated using pymatgen
data_K5ZrP3
_symmetry_space_group_name_H-M   'P 1'
_cell_length_a   8.30317700
_cell_length_b   8.99567202
_cell_length_c   17.45228708
_cell_angle_alpha   59.70761981
_cell_angle_beta   90.00000000
_cell_angle_gamma   90.00000000
_symmetry_Int_Tables_number   1
_chemical_formula_structural   K5ZrP3
_chemical_formula_sum   'K20 Zr4 P12'
_cell_volume   1125.57336728
_cell_formula_units_Z   4
loop_
 _symmetry_equiv_pos_site_id
 _symmetry_equiv_pos_as_xyz
  1  'x, y, z'
loop_
 _atom_site_type_symbol
 _atom_site_label
 _atom_site_symmetry_multiplicity
 _atom_site_fract_x
 _atom_site_fract_y
 _atom_site_fract_z
 _atom_site_occupancy
  K  K0  1  0.165064  0.841590  0.739625  1
  K  K1  1  0.665064  0.158410  0.760375  1
  K  K2  1  0.834936  0.158410  0.260375  1
  K  K3  1  0.334936  0.841590  0.239625  1
  K  K4  1  0.170345  0.161908  0.419208  1
  K  K5  1  0.670345  0.838092  0.080792  1
  K  K6  1  0.829655  0.838092  0.580792  1
  K  K7  1  0.329655  0.161908  0.919208  1
  K  K8  1  0.006019  0.088047  0.091181  1
  K  K9  1  0.506019  0.911953  0.408819  1
  K  K10  1  0.993981  0.911953  0.908819  1
  K  K11  1  0.493981  0.088047  0.591181  1
  K  K12  1  0.521102  0.259668  0.078613  1
  K  K13  1  0.021102  0.740332  0.421387  1
  K  K14  1  0.478898  0.740332  0.921387  1
  K  K15  1  0.978898  0.259668  0.578613  1
  K  K16  1  0.986113  0.551658  0.257302  1
  K  K17  1  0.486113  0.448342  0.242698  1
  K  K18  1  0.013887  0.448342  0.742698  1
  K  K19  1  0.513887  0.551658  0.757302  1
  Zr  Zr20  1  0.366121  0.491752  0.582181  1
  Zr  Zr21  1  0.866121  0.508248  0.917819  1
  Zr  Zr22  1  0.633879  0.508248  0.417819  1
  Zr  Zr23  1  0.133879  0.491752  0.082181  1
  P  P24  1  0.322154  0.487352  0.435815  1
  P  P25  1  0.822154  0.512648  0.064185  1
  P  P26  1  0.677846  0.512648  0.564185  1
  P  P27  1  0.177846  0.487352  0.935815  1
  P  P28  1  0.217985  0.211351  0.219152  1
  P  P29  1  0.717985  0.788649  0.280848  1
  P  P30  1  0.782015  0.788649  0.780848  1
  P  P31  1  0.282015  0.211351  0.719152  1
  P  P32  1  0.255618  0.755572  0.078492  1
  P  P33  1  0.755618  0.244428  0.421508  1
  P  P34  1  0.744382  0.244428  0.921508  1
  P  P35  1  0.244382  0.755572  0.578492  1
