# generated using pymatgen
data_Li2Fe3PtO8
_symmetry_space_group_name_H-M   'P 1'
_cell_length_a   5.98908434
_cell_length_b   5.98519116
_cell_length_c   10.55879213
_cell_angle_alpha   73.53927436
_cell_angle_beta   90.00928423
_cell_angle_gamma   119.99482130
_symmetry_Int_Tables_number   1
_chemical_formula_structural   Li2Fe3PtO8
_chemical_formula_sum   'Li4 Fe6 Pt2 O16'
_cell_volume   309.76743685
_cell_formula_units_Z   2
loop_
 _symmetry_equiv_pos_site_id
 _symmetry_equiv_pos_as_xyz
  1  'x, y, z'
loop_
 _atom_site_type_symbol
 _atom_site_label
 _atom_site_symmetry_multiplicity
 _atom_site_fract_x
 _atom_site_fract_y
 _atom_site_fract_z
 _atom_site_occupancy
  Li  Li0  1  0.934059  0.868825  0.196686  1
  Li  Li1  1  0.434041  0.868815  0.696692  1
  Li  Li2  1  0.565934  0.131166  0.303315  1
  Li  Li3  1  0.065920  0.131157  0.803312  1
  Fe  Fe4  1  0.500080  0.500053  0.999964  1
  Fe  Fe5  1  0.500087  0.000155  0.999974  1
  Fe  Fe6  1  0.499885  0.499906  0.499961  1
  Fe  Fe7  1  0.000063  0.500063  0.499994  1
  Fe  Fe8  1  0.000153  0.000078  0.499980  1
  Fe  Fe9  1  0.999851  0.499919  0.999974  1
  Pt  Pt10  1  0.749966  0.499967  0.750009  1
  Pt  Pt11  1  0.249992  0.500000  0.250011  1
  O  O12  1  0.867144  0.735136  0.397807  1
  O  O13  1  0.367123  0.735141  0.897813  1
  O  O14  1  0.632812  0.264878  0.102209  1
  O  O15  1  0.132829  0.264852  0.602204  1
  O  O16  1  0.097208  0.737848  0.621462  1
  O  O17  1  0.597192  0.737870  0.121458  1
  O  O18  1  0.640747  0.281118  0.621372  1
  O  O19  1  0.140753  0.281153  0.121375  1
  O  O20  1  0.640719  0.738137  0.621472  1
  O  O21  1  0.140725  0.738134  0.121481  1
  O  O22  1  0.859283  0.261796  0.878562  1
  O  O23  1  0.359297  0.261817  0.378551  1
  O  O24  1  0.859253  0.718871  0.878633  1
  O  O25  1  0.359251  0.718852  0.378640  1
  O  O26  1  0.402797  0.262150  0.878545  1
  O  O27  1  0.902835  0.262146  0.378546  1
