# generated using pymatgen
data_Lu3Sc5(CoB6)4
_symmetry_space_group_name_H-M   'P 1'
_cell_length_a   3.38230600
_cell_length_b   8.87803002
_cell_length_c   11.18410355
_cell_angle_alpha   90.01406896
_cell_angle_beta   90.00000000
_cell_angle_gamma   90.00000000
_symmetry_Int_Tables_number   1
_chemical_formula_structural   Lu3Sc5(CoB6)4
_chemical_formula_sum   'Lu3 Sc5 Co4 B24'
_cell_volume   335.83864714
_cell_formula_units_Z   1
loop_
 _symmetry_equiv_pos_site_id
 _symmetry_equiv_pos_as_xyz
  1  'x, y, z'
loop_
 _atom_site_type_symbol
 _atom_site_label
 _atom_site_symmetry_multiplicity
 _atom_site_fract_x
 _atom_site_fract_y
 _atom_site_fract_z
 _atom_site_occupancy
  Lu  Lu0  1  0.000000  0.321525  0.414303  1
  Lu  Lu1  1  0.000000  0.678333  0.586136  1
  Lu  Lu2  1  0.000000  0.822196  0.085229  1
  Sc  Sc3  1  0.000000  0.179167  0.914040  1
  Sc  Sc4  1  0.000000  0.943940  0.371514  1
  Sc  Sc5  1  0.000000  0.056607  0.629433  1
  Sc  Sc6  1  0.000000  0.442928  0.127618  1
  Sc  Sc7  1  0.000000  0.555578  0.871764  1
  Co  Co8  1  0.000000  0.641276  0.318542  1
  Co  Co9  1  0.000000  0.358165  0.682166  1
  Co  Co10  1  0.000000  0.141271  0.180103  1
  Co  Co11  1  0.000000  0.859440  0.819345  1
  B  B12  1  0.500000  0.554412  0.433490  1
  B  B13  1  0.500000  0.445221  0.566880  1
  B  B14  1  0.500000  0.055446  0.064787  1
  B  B15  1  0.500000  0.946839  0.933520  1
  B  B16  1  0.500000  0.751104  0.418359  1
  B  B17  1  0.500000  0.248861  0.582333  1
  B  B18  1  0.500000  0.250624  0.079568  1
  B  B19  1  0.500000  0.749133  0.918269  1
  B  B20  1  0.500000  0.794156  0.263592  1
  B  B21  1  0.500000  0.205333  0.737899  1
  B  B22  1  0.500000  0.293700  0.235292  1
  B  B23  1  0.500000  0.705958  0.764086  1
  B  B24  1  0.500000  0.630742  0.183037  1
  B  B25  1  0.500000  0.367821  0.817803  1
  B  B26  1  0.500000  0.131027  0.316521  1
  B  B27  1  0.500000  0.869437  0.683756  1
  B  B28  1  0.500000  0.983643  0.212240  1
  B  B29  1  0.500000  0.018276  0.788447  1
  B  B30  1  0.500000  0.482961  0.286961  1
  B  B31  1  0.500000  0.516347  0.713178  1
  B  B32  1  0.500000  0.600778  0.027089  1
  B  B33  1  0.500000  0.397400  0.972270  1
  B  B34  1  0.500000  0.100791  0.473054  1
  B  B35  1  0.500000  0.899562  0.527374  1
