# generated using pymatgen
data_Ac10GaSn2Os3
_symmetry_space_group_name_H-M   'P 1'
_cell_length_a   9.59403841
_cell_length_b   9.59404001
_cell_length_c   9.45684400
_cell_angle_alpha   127.51589609
_cell_angle_beta   127.51590343
_cell_angle_gamma   78.43110419
_symmetry_Int_Tables_number   1
_chemical_formula_structural   Ac10GaSn2Os3
_chemical_formula_sum   'Ac10 Ga1 Sn2 Os3'
_cell_volume   527.19508446
_cell_formula_units_Z   1
loop_
 _symmetry_equiv_pos_site_id
 _symmetry_equiv_pos_as_xyz
  1  'x, y, z'
loop_
 _atom_site_type_symbol
 _atom_site_label
 _atom_site_symmetry_multiplicity
 _atom_site_fract_x
 _atom_site_fract_y
 _atom_site_fract_z
 _atom_site_occupancy
  Ac  Ac0  1  0.492047  0.490371  0.982417  1
  Ac  Ac1  1  0.009629  0.007953  0.017583  1
  Ac  Ac2  1  0.530846  0.041437  0.840913  1
  Ac  Ac3  1  0.189930  0.700522  0.159087  1
  Ac  Ac4  1  0.029295  0.203561  0.500000  1
  Ac  Ac5  1  0.715861  0.518075  0.500000  1
  Ac  Ac6  1  0.458563  0.969154  0.159087  1
  Ac  Ac7  1  0.799478  0.310070  0.840913  1
  Ac  Ac8  1  0.981925  0.784139  0.500000  1
  Ac  Ac9  1  0.296439  0.470705  0.500000  1
  Ga  Ga10  1  0.629134  0.870866  0.500000  1
  Sn  Sn11  1  0.246497  0.253503  0.000000  1
  Sn  Sn12  1  0.746497  0.753503  0.000000  1
  Os  Os13  1  0.864550  0.366168  0.230717  1
  Os  Os14  1  0.133832  0.635450  0.769283  1
  Os  Os15  1  0.375474  0.124526  0.500000  1
