# generated using pymatgen
data_YbErRe4(SiC)2
_symmetry_space_group_name_H-M   'P 1'
_cell_length_a   5.76907057
_cell_length_b   5.76907026
_cell_length_c   7.32818100
_cell_angle_alpha   90.00000000
_cell_angle_beta   90.00000000
_cell_angle_gamma   139.89175350
_symmetry_Int_Tables_number   1
_chemical_formula_structural   YbErRe4(SiC)2
_chemical_formula_sum   'Yb1 Er1 Re4 Si2 C2'
_cell_volume   157.12718067
_cell_formula_units_Z   1
loop_
 _symmetry_equiv_pos_site_id
 _symmetry_equiv_pos_as_xyz
  1  'x, y, z'
loop_
 _atom_site_type_symbol
 _atom_site_label
 _atom_site_symmetry_multiplicity
 _atom_site_fract_x
 _atom_site_fract_y
 _atom_site_fract_z
 _atom_site_occupancy
  Yb  Yb0  1  0.541545  0.458455  0.250000  1
  Er  Er1  1  0.459560  0.540440  0.750000  1
  Re  Re2  1  0.826399  0.173601  0.060116  1
  Re  Re3  1  0.174678  0.825322  0.940072  1
  Re  Re4  1  0.174678  0.825322  0.559928  1
  Re  Re5  1  0.826399  0.173601  0.439884  1
  Si  Si6  1  0.264339  0.735661  0.250000  1
  Si  Si7  1  0.732487  0.267513  0.750000  1
  C  C8  1  0.999958  0.000042  0.996798  1
  C  C9  1  0.999958  0.000042  0.503202  1
