# generated using pymatgen
data_MgSc2B2Ir4Ru
_symmetry_space_group_name_H-M   'P 1'
_cell_length_a   3.05238900
_cell_length_b   9.50460100
_cell_length_c   9.50460100
_cell_angle_alpha   90.00000000
_cell_angle_beta   90.00000000
_cell_angle_gamma   90.00000000
_symmetry_Int_Tables_number   1
_chemical_formula_structural   MgSc2B2Ir4Ru
_chemical_formula_sum   'Mg2 Sc4 B4 Ir8 Ru2'
_cell_volume   275.74500866
_cell_formula_units_Z   2
loop_
 _symmetry_equiv_pos_site_id
 _symmetry_equiv_pos_as_xyz
  1  'x, y, z'
loop_
 _atom_site_type_symbol
 _atom_site_label
 _atom_site_symmetry_multiplicity
 _atom_site_fract_x
 _atom_site_fract_y
 _atom_site_fract_z
 _atom_site_occupancy
  Mg  Mg0  1  0.000000  0.000000  0.000000  1
  Mg  Mg1  1  0.000000  0.500000  0.500000  1
  Sc  Sc2  1  0.000000  0.174755  0.674755  1
  Sc  Sc3  1  0.000000  0.825245  0.325245  1
  Sc  Sc4  1  0.000000  0.325245  0.174755  1
  Sc  Sc5  1  0.000000  0.674755  0.825245  1
  B  B6  1  0.000000  0.622232  0.122232  1
  B  B7  1  0.000000  0.377768  0.877768  1
  B  B8  1  0.000000  0.877768  0.622232  1
  B  B9  1  0.000000  0.122232  0.377768  1
  Ir  Ir10  1  0.500000  0.070511  0.219684  1
  Ir  Ir11  1  0.500000  0.929489  0.780316  1
  Ir  Ir12  1  0.500000  0.780316  0.070511  1
  Ir  Ir13  1  0.500000  0.429489  0.719684  1
  Ir  Ir14  1  0.500000  0.219684  0.929489  1
  Ir  Ir15  1  0.500000  0.570511  0.280316  1
  Ir  Ir16  1  0.500000  0.719684  0.570511  1
  Ir  Ir17  1  0.500000  0.280316  0.429489  1
  Ru  Ru18  1  0.500000  0.000000  0.500000  1
  Ru  Ru19  1  0.500000  0.500000  0.000000  1
