# generated using pymatgen
data_Pa3Si3Pd2
_symmetry_space_group_name_H-M   'P 1'
_cell_length_a   5.63771481
_cell_length_b   5.63771374
_cell_length_c   14.14293600
_cell_angle_alpha   90.00000000
_cell_angle_beta   90.00000000
_cell_angle_gamma   136.15950799
_symmetry_Int_Tables_number   1
_chemical_formula_structural   Pa3Si3Pd2
_chemical_formula_sum   'Pa6 Si6 Pd4'
_cell_volume   311.35903349
_cell_formula_units_Z   2
loop_
 _symmetry_equiv_pos_site_id
 _symmetry_equiv_pos_as_xyz
  1  'x, y, z'
loop_
 _atom_site_type_symbol
 _atom_site_label
 _atom_site_symmetry_multiplicity
 _atom_site_fract_x
 _atom_site_fract_y
 _atom_site_fract_z
 _atom_site_occupancy
  Pa  Pa0  1  0.415167  0.584833  0.383740  1
  Pa  Pa1  1  0.584833  0.415167  0.616260  1
  Pa  Pa2  1  0.871553  0.128447  0.750000  1
  Pa  Pa3  1  0.128447  0.871553  0.250000  1
  Pa  Pa4  1  0.415167  0.584833  0.116260  1
  Pa  Pa5  1  0.584833  0.415167  0.883740  1
  Si  Si6  1  0.845082  0.154918  0.250000  1
  Si  Si7  1  0.154918  0.845082  0.750000  1
  Si  Si8  1  0.895688  0.104312  0.538713  1
  Si  Si9  1  0.104312  0.895688  0.461287  1
  Si  Si10  1  0.104312  0.895688  0.038713  1
  Si  Si11  1  0.895688  0.104312  0.961287  1
  Pd  Pd12  1  0.292116  0.707884  0.597717  1
  Pd  Pd13  1  0.707884  0.292116  0.402283  1
  Pd  Pd14  1  0.707884  0.292116  0.097717  1
  Pd  Pd15  1  0.292116  0.707884  0.902283  1
