# generated using pymatgen
data_La5Er10Th(CdIr)4
_symmetry_space_group_name_H-M   'P 1'
_cell_length_a   9.74406609
_cell_length_b   9.76637373
_cell_length_c   9.76637366
_cell_angle_alpha   60.06552560
_cell_angle_beta   60.16747664
_cell_angle_gamma   60.16747988
_symmetry_Int_Tables_number   1
_chemical_formula_structural   La5Er10Th(CdIr)4
_chemical_formula_sum   'La5 Er10 Th1 Cd4 Ir4'
_cell_volume   659.17746009
_cell_formula_units_Z   1
loop_
 _symmetry_equiv_pos_site_id
 _symmetry_equiv_pos_as_xyz
  1  'x, y, z'
loop_
 _atom_site_type_symbol
 _atom_site_label
 _atom_site_symmetry_multiplicity
 _atom_site_fract_x
 _atom_site_fract_y
 _atom_site_fract_z
 _atom_site_occupancy
  La  La0  1  0.797962  0.199314  0.199314  1
  La  La1  1  0.816781  0.187524  0.809934  1
  La  La2  1  0.194797  0.808594  0.187002  1
  La  La3  1  0.816781  0.809934  0.187524  1
  La  La4  1  0.194797  0.187002  0.808594  1
  Er  Er5  1  0.595902  0.603706  0.206157  1
  Er  Er6  1  0.595902  0.206157  0.603706  1
  Er  Er7  1  0.201688  0.598861  0.598861  1
  Er  Er8  1  0.067188  0.433450  0.433450  1
  Er  Er9  1  0.436498  0.065018  0.065018  1
  Er  Er10  1  0.432678  0.063137  0.439251  1
  Er  Er11  1  0.063424  0.436591  0.061518  1
  Er  Er12  1  0.432678  0.439251  0.063137  1
  Er  Er13  1  0.063424  0.061518  0.436591  1
  Er  Er14  1  0.196094  0.803162  0.803162  1
  Th  Th15  1  0.597261  0.594949  0.594949  1
  Cd  Cd16  1  0.832265  0.827427  0.827427  1
  Cd  Cd17  1  0.828999  0.830317  0.512980  1
  Cd  Cd18  1  0.828999  0.512980  0.830317  1
  Cd  Cd19  1  0.512204  0.827702  0.827702  1
  Ir  Ir20  1  0.393610  0.391089  0.391089  1
  Ir  Ir21  1  0.387552  0.396316  0.825072  1
  Ir  Ir22  1  0.387552  0.825072  0.396316  1
  Ir  Ir23  1  0.824962  0.390925  0.390925  1
