# generated using pymatgen
data_LaNd3(Y4Bi3)4
_symmetry_space_group_name_H-M   'P 1'
_cell_length_a   12.24158101
_cell_length_b   9.60745100
_cell_length_c   8.39883701
_cell_angle_alpha   90.00000000
_cell_angle_beta   90.00436661
_cell_angle_gamma   90.00000000
_symmetry_Int_Tables_number   1
_chemical_formula_structural   LaNd3(Y4Bi3)4
_chemical_formula_sum   'La1 Nd3 Y16 Bi12'
_cell_volume   987.79049049
_cell_formula_units_Z   1
loop_
 _symmetry_equiv_pos_site_id
 _symmetry_equiv_pos_as_xyz
  1  'x, y, z'
loop_
 _atom_site_type_symbol
 _atom_site_label
 _atom_site_symmetry_multiplicity
 _atom_site_fract_x
 _atom_site_fract_y
 _atom_site_fract_z
 _atom_site_occupancy
  La  La0  1  0.775935  0.750000  0.170173  1
  Nd  Nd1  1  0.723318  0.250000  0.669375  1
  Nd  Nd2  1  0.223797  0.250000  0.830527  1
  Nd  Nd3  1  0.275809  0.750000  0.330332  1
  Y  Y4  1  0.563590  0.060770  0.310953  1
  Y  Y5  1  0.064085  0.439566  0.189080  1
  Y  Y6  1  0.435640  0.560108  0.688966  1
  Y  Y7  1  0.936506  0.939652  0.810975  1
  Y  Y8  1  0.435640  0.939892  0.688966  1
  Y  Y9  1  0.936506  0.560348  0.810975  1
  Y  Y10  1  0.563590  0.439230  0.310953  1
  Y  Y11  1  0.064085  0.060434  0.189080  1
  Y  Y12  1  0.501336  0.250000  0.977322  1
  Y  Y13  1  0.002642  0.250000  0.523172  1
  Y  Y14  1  0.497764  0.750000  0.021996  1
  Y  Y15  1  0.998537  0.750000  0.478054  1
  Y  Y16  1  0.789322  0.250000  0.162348  1
  Y  Y17  1  0.289367  0.250000  0.337341  1
  Y  Y18  1  0.211213  0.750000  0.836852  1
  Y  Y19  1  0.710375  0.750000  0.663120  1
  Bi  Bi20  1  0.967843  0.250000  0.904782  1
  Bi  Bi21  1  0.467341  0.250000  0.595451  1
  Bi  Bi22  1  0.034409  0.750000  0.095756  1
  Bi  Bi23  1  0.531673  0.750000  0.404560  1
  Bi  Bi24  1  0.829199  0.007533  0.437038  1
  Bi  Bi25  1  0.328514  0.493542  0.064394  1
  Bi  Bi26  1  0.171602  0.506275  0.564154  1
  Bi  Bi27  1  0.670525  0.995109  0.933860  1
  Bi  Bi28  1  0.171602  0.993725  0.564154  1
  Bi  Bi29  1  0.670525  0.504891  0.933860  1
  Bi  Bi30  1  0.829199  0.492467  0.437038  1
  Bi  Bi31  1  0.328514  0.006458  0.064394  1
