# generated using pymatgen
data_LiLu2Al3Ge2Pt
_symmetry_space_group_name_H-M   'P 1'
_cell_length_a   6.81847500
_cell_length_b   6.75013585
_cell_length_c   4.16455500
_cell_angle_alpha   90.00000000
_cell_angle_beta   90.00000000
_cell_angle_gamma   120.33546704
_symmetry_Int_Tables_number   1
_chemical_formula_structural   LiLu2Al3Ge2Pt
_chemical_formula_sum   'Li1 Lu2 Al3 Ge2 Pt1'
_cell_volume   165.43255135
_cell_formula_units_Z   1
loop_
 _symmetry_equiv_pos_site_id
 _symmetry_equiv_pos_as_xyz
  1  'x, y, z'
loop_
 _atom_site_type_symbol
 _atom_site_label
 _atom_site_symmetry_multiplicity
 _atom_site_fract_x
 _atom_site_fract_y
 _atom_site_fract_z
 _atom_site_occupancy
  Li  Li0  1  0.409460  0.000000  0.000000  1
  Lu  Lu1  1  0.000786  0.421421  0.000000  1
  Lu  Lu2  1  0.579364  0.578578  0.000000  1
  Al  Al3  1  0.761629  0.000000  0.500001  1
  Al  Al4  1  0.238477  0.234426  0.500001  1
  Al  Al5  1  0.004050  0.765573  0.500001  1
  Ge  Ge6  1  0.666378  0.329472  0.500001  1
  Ge  Ge7  1  0.336906  0.670529  0.500001  1
  Pt  Pt8  1  0.002950  0.000000  0.000000  1
