# generated using pymatgen
data_TbEr7Re3RuC8
_symmetry_space_group_name_H-M   'P 1'
_cell_length_a   5.06481000
_cell_length_b   6.53504411
_cell_length_c   9.77546120
_cell_angle_alpha   90.23150459
_cell_angle_beta   90.00000000
_cell_angle_gamma   90.00000000
_symmetry_Int_Tables_number   1
_chemical_formula_structural   TbEr7Re3RuC8
_chemical_formula_sum   'Tb1 Er7 Re3 Ru1 C8'
_cell_volume   323.55297131
_cell_formula_units_Z   1
loop_
 _symmetry_equiv_pos_site_id
 _symmetry_equiv_pos_as_xyz
  1  'x, y, z'
loop_
 _atom_site_type_symbol
 _atom_site_label
 _atom_site_symmetry_multiplicity
 _atom_site_fract_x
 _atom_site_fract_y
 _atom_site_fract_z
 _atom_site_occupancy
  Tb  Tb0  1  0.250000  0.531015  0.212267  1
  Er  Er1  1  0.750000  0.827529  0.055663  1
  Er  Er2  1  0.250000  0.677061  0.556879  1
  Er  Er3  1  0.750000  0.321073  0.442834  1
  Er  Er4  1  0.250000  0.178219  0.942056  1
  Er  Er5  1  0.750000  0.466945  0.784330  1
  Er  Er6  1  0.250000  0.033373  0.284290  1
  Er  Er7  1  0.750000  0.967514  0.717418  1
  Re  Re8  1  0.250000  0.219511  0.632332  1
  Re  Re9  1  0.750000  0.781202  0.367231  1
  Re  Re10  1  0.250000  0.720972  0.867058  1
  Ru  Ru11  1  0.750000  0.279471  0.133283  1
  C  C12  1  0.750000  0.172147  0.948599  1
  C  C13  1  0.250000  0.826858  0.052524  1
  C  C14  1  0.750000  0.674766  0.552447  1
  C  C15  1  0.250000  0.322440  0.447212  1
  C  C16  1  0.750000  0.045856  0.260509  1
  C  C17  1  0.250000  0.453146  0.759593  1
  C  C18  1  0.750000  0.548474  0.243690  1
  C  C19  1  0.250000  0.952425  0.739782  1
