# generated using pymatgen
data_Ta6AlCr2Ga3C2
_symmetry_space_group_name_H-M   'P 1'
_cell_length_a   8.25963400
_cell_length_b   8.26848950
_cell_length_c   8.26835597
_cell_angle_alpha   60.05783564
_cell_angle_beta   60.03564237
_cell_angle_gamma   60.03596266
_symmetry_Int_Tables_number   1
_chemical_formula_structural   Ta6AlCr2Ga3C2
_chemical_formula_sum   'Ta12 Al2 Cr4 Ga6 C4'
_cell_volume   399.68295884
_cell_formula_units_Z   2
loop_
 _symmetry_equiv_pos_site_id
 _symmetry_equiv_pos_as_xyz
  1  'x, y, z'
loop_
 _atom_site_type_symbol
 _atom_site_label
 _atom_site_symmetry_multiplicity
 _atom_site_fract_x
 _atom_site_fract_y
 _atom_site_fract_z
 _atom_site_occupancy
  Ta  Ta0  1  0.554286  0.945538  0.554475  1
  Ta  Ta1  1  0.303562  0.696147  0.696136  1
  Ta  Ta2  1  0.695856  0.305009  0.305011  1
  Ta  Ta3  1  0.304302  0.695533  0.304468  1
  Ta  Ta4  1  0.696541  0.694767  0.304142  1
  Ta  Ta5  1  0.304295  0.304458  0.695538  1
  Ta  Ta6  1  0.554302  0.554475  0.945530  1
  Ta  Ta7  1  0.945842  0.553855  0.553865  1
  Ta  Ta8  1  0.555861  0.944991  0.944988  1
  Ta  Ta9  1  0.945459  0.945866  0.555226  1
  Ta  Ta10  1  0.696554  0.304136  0.694772  1
  Ta  Ta11  1  0.945456  0.555225  0.945860  1
  Al  Al12  1  0.915481  0.915485  0.915469  1
  Al  Al13  1  0.996438  0.334506  0.334522  1
  Cr  Cr14  1  0.124268  0.124881  0.124876  1
  Cr  Cr15  1  0.624057  0.125114  0.125106  1
  Cr  Cr16  1  0.124494  0.625001  0.124998  1
  Cr  Cr17  1  0.124457  0.125000  0.625000  1
  Ga  Ga18  1  0.335111  0.990723  0.337043  1
  Ga  Ga19  1  0.335119  0.337030  0.990716  1
  Ga  Ga20  1  0.912906  0.259278  0.912956  1
  Ga  Ga21  1  0.912892  0.912967  0.259287  1
  Ga  Ga22  1  0.258969  0.913066  0.913040  1
  Ga  Ga23  1  0.335058  0.336945  0.336971  1
  C  C24  1  0.624570  0.625327  0.625325  1
  C  C25  1  0.125219  0.624675  0.624677  1
  C  C26  1  0.624323  0.125001  0.625000  1
  C  C27  1  0.624320  0.625000  0.125003  1
