# generated using pymatgen
data_CePr15Cd4IrRu3
_symmetry_space_group_name_H-M   'P 1'
_cell_length_a   10.05455615
_cell_length_b   10.06601309
_cell_length_c   10.06601277
_cell_angle_alpha   59.11745369
_cell_angle_beta   59.20857369
_cell_angle_gamma   59.20858346
_symmetry_Int_Tables_number   1
_chemical_formula_structural   CePr15Cd4IrRu3
_chemical_formula_sum   'Ce1 Pr15 Cd4 Ir1 Ru3'
_cell_volume   706.89098727
_cell_formula_units_Z   1
loop_
 _symmetry_equiv_pos_site_id
 _symmetry_equiv_pos_as_xyz
  1  'x, y, z'
loop_
 _atom_site_type_symbol
 _atom_site_label
 _atom_site_symmetry_multiplicity
 _atom_site_fract_x
 _atom_site_fract_y
 _atom_site_fract_z
 _atom_site_occupancy
  Ce  Ce0  1  0.329323  0.343165  0.343165  1
  Pr  Pr1  1  0.347347  0.346476  0.955460  1
  Pr  Pr2  1  0.347347  0.955460  0.346476  1
  Pr  Pr3  1  0.956150  0.346331  0.346331  1
  Pr  Pr4  1  0.808430  0.191395  0.191395  1
  Pr  Pr5  1  0.190593  0.811196  0.811196  1
  Pr  Pr6  1  0.192413  0.810048  0.192149  1
  Pr  Pr7  1  0.812671  0.192332  0.807245  1
  Pr  Pr8  1  0.192413  0.192149  0.810048  1
  Pr  Pr9  1  0.812671  0.807245  0.192332  1
  Pr  Pr10  1  0.937785  0.562315  0.562315  1
  Pr  Pr11  1  0.560589  0.939195  0.939195  1
  Pr  Pr12  1  0.557242  0.943914  0.560376  1
  Pr  Pr13  1  0.938379  0.559067  0.940370  1
  Pr  Pr14  1  0.557242  0.560376  0.943914  1
  Pr  Pr15  1  0.938379  0.940370  0.559067  1
  Cd  Cd16  1  0.579461  0.579734  0.579734  1
  Cd  Cd17  1  0.576470  0.577159  0.261725  1
  Cd  Cd18  1  0.576470  0.261725  0.577159  1
  Cd  Cd19  1  0.260254  0.577908  0.577908  1
  Ir  Ir20  1  0.576008  0.142882  0.142882  1
  Ru  Ru21  1  0.138699  0.138152  0.138152  1
  Ru  Ru22  1  0.156830  0.153309  0.568096  1
  Ru  Ru23  1  0.156830  0.568096  0.153309  1
