# generated using pymatgen
data_Nd16Cd4AgOs3
_symmetry_space_group_name_H-M   'P 1'
_cell_length_a   9.95379244
_cell_length_b   10.05853911
_cell_length_c   10.05854000
_cell_angle_alpha   60.00000364
_cell_angle_beta   59.65128113
_cell_angle_gamma   59.65128078
_symmetry_Int_Tables_number   1
_chemical_formula_structural   Nd16Cd4AgOs3
_chemical_formula_sum   'Nd16 Cd4 Ag1 Os3'
_cell_volume   708.32751109
_cell_formula_units_Z   1
loop_
 _symmetry_equiv_pos_site_id
 _symmetry_equiv_pos_as_xyz
  1  'x, y, z'
loop_
 _atom_site_type_symbol
 _atom_site_label
 _atom_site_symmetry_multiplicity
 _atom_site_fract_x
 _atom_site_fract_y
 _atom_site_fract_z
 _atom_site_occupancy
  Nd  Nd0  1  0.339804  0.355337  0.355337  1
  Nd  Nd1  1  0.339804  0.355337  0.949523  1
  Nd  Nd2  1  0.339804  0.949523  0.355337  1
  Nd  Nd3  1  0.967588  0.344137  0.344137  1
  Nd  Nd4  1  0.820604  0.191646  0.191646  1
  Nd  Nd5  1  0.189297  0.810966  0.810966  1
  Nd  Nd6  1  0.189297  0.810966  0.188771  1
  Nd  Nd7  1  0.820604  0.191646  0.796103  1
  Nd  Nd8  1  0.189297  0.188771  0.810966  1
  Nd  Nd9  1  0.820604  0.796103  0.191646  1
  Nd  Nd10  1  0.935359  0.562628  0.562628  1
  Nd  Nd11  1  0.553716  0.939554  0.939554  1
  Nd  Nd12  1  0.553716  0.939554  0.567175  1
  Nd  Nd13  1  0.935359  0.562628  0.939385  1
  Nd  Nd14  1  0.553716  0.567175  0.939554  1
  Nd  Nd15  1  0.935359  0.939385  0.562628  1
  Cd  Cd16  1  0.580450  0.579206  0.579206  1
  Cd  Cd17  1  0.580450  0.579206  0.261140  1
  Cd  Cd18  1  0.580450  0.261140  0.579206  1
  Cd  Cd19  1  0.260347  0.579885  0.579885  1
  Ag  Ag20  1  0.574307  0.141897  0.141897  1
  Os  Os21  1  0.146691  0.137761  0.137761  1
  Os  Os22  1  0.146691  0.137761  0.577787  1
  Os  Os23  1  0.146691  0.577787  0.137761  1
