# generated using pymatgen
data_HoLu(Zr4Sn3)2
_symmetry_space_group_name_H-M   'P 1'
_cell_length_a   8.65624800
_cell_length_b   8.60418245
_cell_length_c   5.89312700
_cell_angle_alpha   90.00000000
_cell_angle_beta   90.00000000
_cell_angle_gamma   120.18981942
_symmetry_Int_Tables_number   1
_chemical_formula_structural   HoLu(Zr4Sn3)2
_chemical_formula_sum   'Ho1 Lu1 Zr8 Sn6'
_cell_volume   379.38648564
_cell_formula_units_Z   1
loop_
 _symmetry_equiv_pos_site_id
 _symmetry_equiv_pos_as_xyz
  1  'x, y, z'
loop_
 _atom_site_type_symbol
 _atom_site_label
 _atom_site_symmetry_multiplicity
 _atom_site_fract_x
 _atom_site_fract_y
 _atom_site_fract_z
 _atom_site_occupancy
  Ho  Ho0  1  0.761997  0.761936  0.750000  1
  Lu  Lu1  1  0.000839  0.762323  0.250000  1
  Zr  Zr2  1  0.665590  0.330460  0.000055  1
  Zr  Zr3  1  0.331942  0.663977  0.000060  1
  Zr  Zr4  1  0.331942  0.663977  0.499940  1
  Zr  Zr5  1  0.665590  0.330460  0.499945  1
  Zr  Zr6  1  0.250806  0.000968  0.750000  1
  Zr  Zr7  1  0.000369  0.245605  0.750000  1
  Zr  Zr8  1  0.244758  0.245887  0.250000  1
  Zr  Zr9  1  0.750917  0.002838  0.250000  1
  Sn  Sn10  1  0.389479  0.388911  0.750000  1
  Sn  Sn11  1  0.605996  0.000915  0.750000  1
  Sn  Sn12  1  0.002648  0.604591  0.750000  1
  Sn  Sn13  1  0.603763  0.605697  0.250000  1
  Sn  Sn14  1  0.393353  0.000437  0.250000  1
  Sn  Sn15  1  0.000012  0.391016  0.250000  1
