# generated using pymatgen
data_YHo4ErTm14(CoSb2)4
_symmetry_space_group_name_H-M   'P 1'
_cell_length_a   7.77829058
_cell_length_b   8.72368600
_cell_length_c   12.06166601
_cell_angle_alpha   90.00000000
_cell_angle_beta   90.03454441
_cell_angle_gamma   90.00000000
_symmetry_Int_Tables_number   1
_chemical_formula_structural   YHo4ErTm14(CoSb2)4
_chemical_formula_sum   'Y1 Ho4 Er1 Tm14 Co4 Sb8'
_cell_volume   818.44859680
_cell_formula_units_Z   1
loop_
 _symmetry_equiv_pos_site_id
 _symmetry_equiv_pos_as_xyz
  1  'x, y, z'
loop_
 _atom_site_type_symbol
 _atom_site_label
 _atom_site_symmetry_multiplicity
 _atom_site_fract_x
 _atom_site_fract_y
 _atom_site_fract_z
 _atom_site_occupancy
  Y  Y0  1  0.157265  0.750000  0.204969  1
  Ho  Ho1  1  0.623453  0.750000  0.308133  1
  Ho  Ho2  1  0.122726  0.250000  0.191878  1
  Ho  Ho3  1  0.377150  0.250000  0.691782  1
  Ho  Ho4  1  0.877109  0.750000  0.807965  1
  Er  Er5  1  0.343335  0.750000  0.703889  1
  Tm  Tm6  1  0.656365  0.250000  0.297040  1
  Tm  Tm7  1  0.843515  0.250000  0.796613  1
  Tm  Tm8  1  0.451559  0.750000  0.997625  1
  Tm  Tm9  1  0.950008  0.250000  0.502498  1
  Tm  Tm10  1  0.550022  0.250000  0.001761  1
  Tm  Tm11  1  0.049049  0.750000  0.498450  1
  Tm  Tm12  1  0.823302  0.963966  0.064881  1
  Tm  Tm13  1  0.323538  0.036839  0.434555  1
  Tm  Tm14  1  0.176342  0.463381  0.934209  1
  Tm  Tm15  1  0.676188  0.536426  0.565445  1
  Tm  Tm16  1  0.176342  0.036619  0.934209  1
  Tm  Tm17  1  0.676188  0.963574  0.565445  1
  Tm  Tm18  1  0.823302  0.536034  0.064881  1
  Tm  Tm19  1  0.323538  0.463161  0.434555  1
  Co  Co20  1  0.432860  0.750000  0.490965  1
  Co  Co21  1  0.933602  0.250000  0.008540  1
  Co  Co22  1  0.566476  0.250000  0.508803  1
  Co  Co23  1  0.066470  0.750000  0.990128  1
  Sb  Sb24  1  0.930267  0.992486  0.328467  1
  Sb  Sb25  1  0.432631  0.009123  0.171918  1
  Sb  Sb26  1  0.068412  0.491358  0.672234  1
  Sb  Sb27  1  0.568838  0.507959  0.827772  1
  Sb  Sb28  1  0.068412  0.008642  0.672234  1
  Sb  Sb29  1  0.568838  0.992041  0.827772  1
  Sb  Sb30  1  0.930267  0.507514  0.328467  1
  Sb  Sb31  1  0.432631  0.490877  0.171918  1
