# generated using pymatgen
data_Y8In(PdPt5)4
_symmetry_space_group_name_H-M   'P 1'
_cell_length_a   8.41947122
_cell_length_b   8.42886200
_cell_length_c   8.41947100
_cell_angle_alpha   90.00000000
_cell_angle_beta   89.98700216
_cell_angle_gamma   90.00000000
_symmetry_Int_Tables_number   1
_chemical_formula_structural   Y8In(PdPt5)4
_chemical_formula_sum   'Y8 In1 Pd4 Pt20'
_cell_volume   597.50088692
_cell_formula_units_Z   1
loop_
 _symmetry_equiv_pos_site_id
 _symmetry_equiv_pos_as_xyz
  1  'x, y, z'
loop_
 _atom_site_type_symbol
 _atom_site_label
 _atom_site_symmetry_multiplicity
 _atom_site_fract_x
 _atom_site_fract_y
 _atom_site_fract_z
 _atom_site_occupancy
  Y  Y0  1  0.749182  0.749178  0.251405  1
  Y  Y1  1  0.748288  0.251510  0.748288  1
  Y  Y2  1  0.251405  0.749178  0.749182  1
  Y  Y3  1  0.748288  0.748490  0.748288  1
  Y  Y4  1  0.749182  0.250822  0.251405  1
  Y  Y5  1  0.251405  0.250822  0.749182  1
  Y  Y6  1  0.250406  0.750272  0.250406  1
  Y  Y7  1  0.250406  0.249728  0.250406  1
  In  In8  1  0.002419  0.000000  0.002419  1
  Pd  Pd9  1  0.998899  0.000000  0.689269  1
  Pd  Pd10  1  0.998986  0.312021  0.998986  1
  Pd  Pd11  1  0.998986  0.687979  0.998986  1
  Pd  Pd12  1  0.689269  0.000000  0.998899  1
  Pt  Pt13  1  0.998742  0.000000  0.315712  1
  Pt  Pt14  1  0.732818  0.000000  0.500240  1
  Pt  Pt15  1  0.734617  0.500000  0.000095  1
  Pt  Pt16  1  0.500240  0.000000  0.732818  1
  Pt  Pt17  1  0.000217  0.733419  0.500285  1
  Pt  Pt18  1  0.500111  0.000000  0.265880  1
  Pt  Pt19  1  0.000217  0.266581  0.500285  1
  Pt  Pt20  1  0.500285  0.733419  0.000217  1
  Pt  Pt21  1  0.254277  0.500000  0.499718  1
  Pt  Pt22  1  0.499791  0.500000  0.745995  1
  Pt  Pt23  1  0.499718  0.500000  0.254277  1
  Pt  Pt24  1  0.499693  0.254235  0.499693  1
  Pt  Pt25  1  0.499693  0.745765  0.499693  1
  Pt  Pt26  1  0.745995  0.500000  0.499791  1
  Pt  Pt27  1  0.315712  0.000000  0.998742  1
  Pt  Pt28  1  0.000229  0.500000  0.264266  1
  Pt  Pt29  1  0.264266  0.500000  0.000229  1
  Pt  Pt30  1  0.265880  0.000000  0.500111  1
  Pt  Pt31  1  0.000095  0.500000  0.734617  1
  Pt  Pt32  1  0.500285  0.266581  0.000217  1
