# generated using pymatgen
data_Y3Al12NiRu3
_symmetry_space_group_name_H-M   'P 1'
_cell_length_a   8.78044780
_cell_length_b   8.78044539
_cell_length_c   9.52059872
_cell_angle_alpha   90.20162295
_cell_angle_beta   89.79837837
_cell_angle_gamma   120.23152954
_symmetry_Int_Tables_number   1
_chemical_formula_structural   Y3Al12NiRu3
_chemical_formula_sum   'Y6 Al24 Ni2 Ru6'
_cell_volume   634.17126994
_cell_formula_units_Z   2
loop_
 _symmetry_equiv_pos_site_id
 _symmetry_equiv_pos_as_xyz
  1  'x, y, z'
loop_
 _atom_site_type_symbol
 _atom_site_label
 _atom_site_symmetry_multiplicity
 _atom_site_fract_x
 _atom_site_fract_y
 _atom_site_fract_z
 _atom_site_occupancy
  Y  Y0  1  0.196031  0.386244  0.249627  1
  Y  Y1  1  0.803969  0.613756  0.750373  1
  Y  Y2  1  0.613756  0.803969  0.249627  1
  Y  Y3  1  0.386244  0.196031  0.750373  1
  Y  Y4  1  0.191794  0.808206  0.249221  1
  Y  Y5  1  0.808206  0.191794  0.750779  1
  Al  Al6  1  0.332279  0.667721  0.021886  1
  Al  Al7  1  0.667721  0.332279  0.978114  1
  Al  Al8  1  0.666946  0.333054  0.519102  1
  Al  Al9  1  0.333054  0.666946  0.480898  1
  Al  Al10  1  0.162561  0.326853  0.576873  1
  Al  Al11  1  0.837439  0.673147  0.423127  1
  Al  Al12  1  0.673147  0.837439  0.576873  1
  Al  Al13  1  0.835454  0.671856  0.076339  1
  Al  Al14  1  0.326853  0.162561  0.423127  1
  Al  Al15  1  0.164546  0.328144  0.923661  1
  Al  Al16  1  0.162919  0.837081  0.577823  1
  Al  Al17  1  0.328144  0.164546  0.076339  1
  Al  Al18  1  0.837081  0.162919  0.422177  1
  Al  Al19  1  0.671856  0.835454  0.923661  1
  Al  Al20  1  0.836641  0.163359  0.076488  1
  Al  Al21  1  0.163359  0.836641  0.923512  1
  Al  Al22  1  0.561111  0.121295  0.245972  1
  Al  Al23  1  0.438889  0.878705  0.754028  1
  Al  Al24  1  0.878705  0.438889  0.245972  1
  Al  Al25  1  0.121295  0.561111  0.754028  1
  Al  Al26  1  0.562841  0.437159  0.247954  1
  Al  Al27  1  0.437159  0.562841  0.752046  1
  Al  Al28  1  0.000446  0.999554  0.250101  1
  Al  Al29  1  0.999554  0.000446  0.749899  1
  Ni  Ni30  1  0.500000  0.000000  0.000000  1
  Ni  Ni31  1  0.000000  0.500000  0.000000  1
  Ru  Ru32  1  0.500000  0.000000  0.500000  1
  Ru  Ru33  1  0.500000  0.500000  0.000000  1
  Ru  Ru34  1  0.000000  0.500000  0.500000  1
  Ru  Ru35  1  0.500000  0.500000  0.500000  1
  Ru  Ru36  1  0.000000  0.000000  0.000000  1
  Ru  Ru37  1  0.000000  0.000000  0.500000  1
