# generated using pymatgen
data_Eu2CuCl6
_symmetry_space_group_name_H-M   'P 1'
_cell_length_a   6.56714500
_cell_length_b   7.65286539
_cell_length_c   9.33370500
_cell_angle_alpha   89.70217216
_cell_angle_beta   90.00000000
_cell_angle_gamma   90.00000000
_symmetry_Int_Tables_number   1
_chemical_formula_structural   Eu2CuCl6
_chemical_formula_sum   'Eu4 Cu2 Cl12'
_cell_volume   469.08212402
_cell_formula_units_Z   2
loop_
 _symmetry_equiv_pos_site_id
 _symmetry_equiv_pos_as_xyz
  1  'x, y, z'
loop_
 _atom_site_type_symbol
 _atom_site_label
 _atom_site_symmetry_multiplicity
 _atom_site_fract_x
 _atom_site_fract_y
 _atom_site_fract_z
 _atom_site_occupancy
  Eu  Eu0  1  0.955963  0.372458  0.281283  1
  Eu  Eu1  1  0.455963  0.127542  0.718717  1
  Eu  Eu2  1  0.044037  0.627542  0.718717  1
  Eu  Eu3  1  0.544037  0.872458  0.281283  1
  Cu  Cu4  1  0.500000  0.500000  0.000000  1
  Cu  Cu5  1  0.000000  0.000000  0.000000  1
  Cl  Cl6  1  0.664696  0.168171  0.447717  1
  Cl  Cl7  1  0.164696  0.331829  0.552283  1
  Cl  Cl8  1  0.335304  0.831829  0.552283  1
  Cl  Cl9  1  0.835304  0.668171  0.447717  1
  Cl  Cl10  1  0.691564  0.155813  0.085626  1
  Cl  Cl11  1  0.191564  0.344187  0.914374  1
  Cl  Cl12  1  0.348749  0.539498  0.228116  1
  Cl  Cl13  1  0.848749  0.960502  0.771884  1
  Cl  Cl14  1  0.651251  0.460502  0.771884  1
  Cl  Cl15  1  0.151251  0.039498  0.228116  1
  Cl  Cl16  1  0.808436  0.655813  0.085626  1
  Cl  Cl17  1  0.308436  0.844187  0.914374  1
