# generated using pymatgen
data_Pr2Ho3LuTa2O14
_symmetry_space_group_name_H-M   'P 1'
_cell_length_a   6.48772778
_cell_length_b   6.48423573
_cell_length_c   7.58914917
_cell_angle_alpha   90.00767742
_cell_angle_beta   89.97564769
_cell_angle_gamma   109.15739097
_symmetry_Int_Tables_number   1
_chemical_formula_structural   Pr2Ho3LuTa2O14
_chemical_formula_sum   'Pr2 Ho3 Lu1 Ta2 O14'
_cell_volume   301.57956543
_cell_formula_units_Z   1
loop_
 _symmetry_equiv_pos_site_id
 _symmetry_equiv_pos_as_xyz
  1  'x, y, z'
loop_
 _atom_site_type_symbol
 _atom_site_label
 _atom_site_symmetry_multiplicity
 _atom_site_fract_x
 _atom_site_fract_y
 _atom_site_fract_z
 _atom_site_occupancy
  Pr  Pr0  1  0.510604  0.509343  0.499286  1
  Pr  Pr1  1  0.494889  0.494947  0.000893  1
  Ho  Ho2  1  0.998972  0.467659  0.747489  1
  Ho  Ho3  1  0.532988  0.001399  0.752677  1
  Ho  Ho4  1  0.465910  0.999004  0.252629  1
  Lu  Lu5  1  0.002019  0.530365  0.247362  1
  Ta  Ta6  1  0.000868  0.001077  0.499166  1
  Ta  Ta7  1  0.999268  0.999218  0.001136  1
  O  O8  1  0.937008  0.066223  0.750114  1
  O  O9  1  0.064961  0.933302  0.249987  1
  O  O10  1  0.350461  0.644232  0.250414  1
  O  O11  1  0.644865  0.356338  0.750133  1
  O  O12  1  0.361498  0.637938  0.749864  1
  O  O13  1  0.644436  0.364303  0.249556  1
  O  O14  1  0.322314  0.072467  0.970055  1
  O  O15  1  0.676502  0.927419  0.470556  1
  O  O16  1  0.317922  0.066993  0.535830  1
  O  O17  1  0.680703  0.932475  0.035397  1
  O  O18  1  0.059965  0.315982  0.458861  1
  O  O19  1  0.936391  0.681376  0.966097  1
  O  O20  1  0.930187  0.676660  0.527729  1
  O  O21  1  0.067269  0.321280  0.034768  1
