# generated using pymatgen
data_Ta6Zn6Ru11Pt
_symmetry_space_group_name_H-M   'P 1'
_cell_length_a   4.38364000
_cell_length_b   6.24576100
_cell_length_c   13.10453500
_cell_angle_alpha   90.00001792
_cell_angle_beta   89.99963338
_cell_angle_gamma   89.99992409
_symmetry_Int_Tables_number   1
_chemical_formula_structural   Ta6Zn6Ru11Pt
_chemical_formula_sum   'Ta6 Zn6 Ru11 Pt1'
_cell_volume   358.79126205
_cell_formula_units_Z   1
loop_
 _symmetry_equiv_pos_site_id
 _symmetry_equiv_pos_as_xyz
  1  'x, y, z'
loop_
 _atom_site_type_symbol
 _atom_site_label
 _atom_site_symmetry_multiplicity
 _atom_site_fract_x
 _atom_site_fract_y
 _atom_site_fract_z
 _atom_site_occupancy
  Ta  Ta0  1  0.000000  0.512912  0.000003  1
  Ta  Ta1  1  0.499795  0.995206  0.172160  1
  Ta  Ta2  1  0.999776  0.498850  0.333595  1
  Ta  Ta3  1  0.500000  0.001430  0.500001  1
  Ta  Ta4  1  0.000221  0.498845  0.666407  1
  Ta  Ta5  1  0.500207  0.995211  0.827841  1
  Zn  Zn6  1  0.000000  0.998057  0.000003  1
  Zn  Zn7  1  0.499775  0.501021  0.167901  1
  Zn  Zn8  1  0.999755  0.000397  0.333296  1
  Zn  Zn9  1  0.500000  0.498792  0.499997  1
  Zn  Zn10  1  0.000246  0.000390  0.666703  1
  Zn  Zn11  1  0.500228  0.501033  0.832101  1
  Ru  Ru12  1  0.499999  0.751060  0.000003  1
  Ru  Ru13  1  0.999794  0.249280  0.165272  1
  Ru  Ru14  1  0.999807  0.750574  0.166092  1
  Ru  Ru15  1  0.499760  0.250571  0.332673  1
  Ru  Ru16  1  0.499796  0.748346  0.333792  1
  Ru  Ru17  1  0.999999  0.249351  0.499996  1
  Ru  Ru18  1  0.999999  0.749991  0.499995  1
  Ru  Ru19  1  0.500240  0.250568  0.667324  1
  Ru  Ru20  1  0.500202  0.748344  0.666206  1
  Ru  Ru21  1  0.000202  0.249284  0.834724  1
  Ru  Ru22  1  0.000193  0.750571  0.833917  1
  Pt  Pt23  1  0.500000  0.249914  0.999999  1
