# generated using pymatgen
data_Tm12MgIn(CoSi)2
_symmetry_space_group_name_H-M   'P 1'
_cell_length_a   8.35664909
_cell_length_b   8.35664872
_cell_length_c   8.35664996
_cell_angle_alpha   113.24611102
_cell_angle_beta   111.04066453
_cell_angle_gamma   104.25797000
_symmetry_Int_Tables_number   1
_chemical_formula_structural   Tm12MgIn(CoSi)2
_chemical_formula_sum   'Tm12 Mg1 In1 Co2 Si2'
_cell_volume   446.29793717
_cell_formula_units_Z   1
loop_
 _symmetry_equiv_pos_site_id
 _symmetry_equiv_pos_as_xyz
  1  'x, y, z'
loop_
 _atom_site_type_symbol
 _atom_site_label
 _atom_site_symmetry_multiplicity
 _atom_site_fract_x
 _atom_site_fract_y
 _atom_site_fract_z
 _atom_site_occupancy
  Tm  Tm0  1  0.440962  0.241616  0.199346  1
  Tm  Tm1  1  0.559038  0.758384  0.800654  1
  Tm  Tm2  1  0.042269  0.241616  0.800654  1
  Tm  Tm3  1  0.957731  0.758384  0.199346  1
  Tm  Tm4  1  0.186802  0.289167  0.475969  1
  Tm  Tm5  1  0.813198  0.710833  0.524031  1
  Tm  Tm6  1  0.186802  0.710833  0.897635  1
  Tm  Tm7  1  0.813198  0.289167  0.102365  1
  Tm  Tm8  1  0.304764  0.616092  0.311328  1
  Tm  Tm9  1  0.695236  0.383908  0.688672  1
  Tm  Tm10  1  0.304764  0.993437  0.688672  1
  Tm  Tm11  1  0.695236  0.006563  0.311328  1
  Mg  Mg12  1  0.000000  0.000000  0.000000  1
  In  In13  1  0.500000  0.500000  0.000000  1
  Co  Co14  1  0.108891  0.608891  0.500000  1
  Co  Co15  1  0.891109  0.391109  0.500000  1
  Si  Si16  1  0.352834  0.000000  0.352834  1
  Si  Si17  1  0.647166  0.000000  0.647166  1
