# generated using pymatgen
data_Zr2Fe3Co9P7
_symmetry_space_group_name_H-M   'P 1'
_cell_length_a   8.89334900
_cell_length_b   8.89334861
_cell_length_c   3.58200800
_cell_angle_alpha   90.00000000
_cell_angle_beta   90.00000000
_cell_angle_gamma   119.99999772
_symmetry_Int_Tables_number   1
_chemical_formula_structural   Zr2Fe3Co9P7
_chemical_formula_sum   'Zr2 Fe3 Co9 P7'
_cell_volume   245.35100732
_cell_formula_units_Z   1
loop_
 _symmetry_equiv_pos_site_id
 _symmetry_equiv_pos_as_xyz
  1  'x, y, z'
loop_
 _atom_site_type_symbol
 _atom_site_label
 _atom_site_symmetry_multiplicity
 _atom_site_fract_x
 _atom_site_fract_y
 _atom_site_fract_z
 _atom_site_occupancy
  Zr  Zr0  1  0.000000  0.000000  0.000000  1
  Zr  Zr1  1  0.333333  0.666667  0.500000  1
  Fe  Fe2  1  0.885792  0.426241  0.500000  1
  Fe  Fe3  1  0.540449  0.114208  0.500000  1
  Fe  Fe4  1  0.573759  0.459551  0.500000  1
  Co  Co5  1  0.101503  0.396703  0.000000  1
  Co  Co6  1  0.295200  0.898497  0.000000  1
  Co  Co7  1  0.603297  0.704800  0.000000  1
  Co  Co8  1  0.826384  0.610966  0.000000  1
  Co  Co9  1  0.784582  0.173616  0.000000  1
  Co  Co10  1  0.389034  0.215418  0.000000  1
  Co  Co11  1  0.053674  0.770997  0.500000  1
  Co  Co12  1  0.717324  0.946326  0.500000  1
  Co  Co13  1  0.229003  0.282676  0.500000  1
  P  P14  1  0.078841  0.629168  0.000000  1
  P  P15  1  0.550327  0.921159  0.000000  1
  P  P16  1  0.370832  0.449673  0.000000  1
  P  P17  1  0.783982  0.739316  0.500000  1
  P  P18  1  0.955334  0.216018  0.500000  1
  P  P19  1  0.260684  0.044666  0.500000  1
  P  P20  1  0.666667  0.333333  0.000000  1
