# generated using pymatgen
data_Gd4Tm(ReO6)2
_symmetry_space_group_name_H-M   'P 1'
_cell_length_a   6.90177424
_cell_length_b   6.90177467
_cell_length_c   7.59682840
_cell_angle_alpha   73.68868478
_cell_angle_beta   73.68868289
_cell_angle_gamma   48.89451133
_symmetry_Int_Tables_number   1
_chemical_formula_structural   Gd4Tm(ReO6)2
_chemical_formula_sum   'Gd4 Tm1 Re2 O12'
_cell_volume   259.36881724
_cell_formula_units_Z   1
loop_
 _symmetry_equiv_pos_site_id
 _symmetry_equiv_pos_as_xyz
  1  'x, y, z'
loop_
 _atom_site_type_symbol
 _atom_site_label
 _atom_site_symmetry_multiplicity
 _atom_site_fract_x
 _atom_site_fract_y
 _atom_site_fract_z
 _atom_site_occupancy
  Gd  Gd0  1  0.803975  0.803975  0.357934  1
  Gd  Gd1  1  0.196025  0.196025  0.642066  1
  Gd  Gd2  1  0.184202  0.184202  0.176252  1
  Gd  Gd3  1  0.815798  0.815798  0.823748  1
  Tm  Tm4  1  0.500000  0.500000  0.500000  1
  Re  Re5  1  0.286675  0.713325  0.000000  1
  Re  Re6  1  0.713325  0.286675  0.000000  1
  O  O7  1  0.412719  0.915112  0.915412  1
  O  O8  1  0.084888  0.587281  0.084588  1
  O  O9  1  0.587281  0.084888  0.084588  1
  O  O10  1  0.915112  0.412719  0.915412  1
  O  O11  1  0.598398  0.101195  0.571001  1
  O  O12  1  0.898805  0.401602  0.428999  1
  O  O13  1  0.401602  0.898805  0.428999  1
  O  O14  1  0.001218  0.001218  0.826282  1
  O  O15  1  0.998782  0.998782  0.173718  1
  O  O16  1  0.498176  0.498176  0.793598  1
  O  O17  1  0.501824  0.501824  0.206402  1
  O  O18  1  0.101195  0.598398  0.571001  1
