# generated using pymatgen
data_Ce3DyAu5
_symmetry_space_group_name_H-M   'P 1'
_cell_length_a   8.23772655
_cell_length_b   8.23772675
_cell_length_c   8.23772700
_cell_angle_alpha   65.64597217
_cell_angle_beta   65.64597153
_cell_angle_gamma   65.64594404
_symmetry_Int_Tables_number   1
_chemical_formula_structural   Ce3DyAu5
_chemical_formula_sum   'Ce6 Dy2 Au10'
_cell_volume   443.73606361
_cell_formula_units_Z   2
loop_
 _symmetry_equiv_pos_site_id
 _symmetry_equiv_pos_as_xyz
  1  'x, y, z'
loop_
 _atom_site_type_symbol
 _atom_site_label
 _atom_site_symmetry_multiplicity
 _atom_site_fract_x
 _atom_site_fract_y
 _atom_site_fract_z
 _atom_site_occupancy
  Ce  Ce0  1  0.892379  0.184238  0.623001  1
  Ce  Ce1  1  0.623001  0.892379  0.184238  1
  Ce  Ce2  1  0.184238  0.623001  0.892379  1
  Ce  Ce3  1  0.107621  0.815762  0.376999  1
  Ce  Ce4  1  0.376999  0.107621  0.815762  1
  Ce  Ce5  1  0.815762  0.376999  0.107621  1
  Dy  Dy6  1  0.657254  0.657254  0.657254  1
  Dy  Dy7  1  0.342746  0.342746  0.342746  1
  Au  Au8  1  0.000000  0.000000  0.000000  1
  Au  Au9  1  0.500000  0.500000  0.500000  1
  Au  Au10  1  0.806071  0.806071  0.806071  1
  Au  Au11  1  0.193929  0.193929  0.193929  1
  Au  Au12  1  0.939336  0.547499  0.318201  1
  Au  Au13  1  0.318201  0.939336  0.547499  1
  Au  Au14  1  0.547499  0.318201  0.939336  1
  Au  Au15  1  0.060664  0.452501  0.681799  1
  Au  Au16  1  0.681799  0.060664  0.452501  1
  Au  Au17  1  0.452501  0.681799  0.060664  1
