# generated using pymatgen
data_Li2PuCl6
_symmetry_space_group_name_H-M   'P 1'
_cell_length_a   6.59649800
_cell_length_b   6.59649864
_cell_length_c   25.11581100
_cell_angle_alpha   90.00000000
_cell_angle_beta   90.00000000
_cell_angle_gamma   120.00000684
_symmetry_Int_Tables_number   1
_chemical_formula_structural   Li2PuCl6
_chemical_formula_sum   'Li8 Pu4 Cl24'
_cell_volume   946.46535199
_cell_formula_units_Z   4
loop_
 _symmetry_equiv_pos_site_id
 _symmetry_equiv_pos_as_xyz
  1  'x, y, z'
loop_
 _atom_site_type_symbol
 _atom_site_label
 _atom_site_symmetry_multiplicity
 _atom_site_fract_x
 _atom_site_fract_y
 _atom_site_fract_z
 _atom_site_occupancy
  Li  Li0  1  0.000000  0.000000  0.250000  1
  Li  Li1  1  0.000000  0.000000  0.750000  1
  Li  Li2  1  0.333333  0.666667  0.001263  1
  Li  Li3  1  0.333333  0.666667  0.498737  1
  Li  Li4  1  0.333333  0.666667  0.250000  1
  Li  Li5  1  0.666667  0.333333  0.750000  1
  Li  Li6  1  0.666667  0.333333  0.998737  1
  Li  Li7  1  0.666667  0.333333  0.501263  1
  Pu  Pu8  1  0.000000  0.000000  0.000000  1
  Pu  Pu9  1  0.000000  0.000000  0.500000  1
  Pu  Pu10  1  0.333333  0.666667  0.750000  1
  Pu  Pu11  1  0.666667  0.333333  0.250000  1
  Cl  Cl12  1  0.335158  0.001667  0.306208  1
  Cl  Cl13  1  0.333491  0.998333  0.806208  1
  Cl  Cl14  1  0.999022  0.331053  0.056113  1
  Cl  Cl15  1  0.000978  0.332031  0.556113  1
  Cl  Cl16  1  0.998333  0.333491  0.306208  1
  Cl  Cl17  1  0.001667  0.335158  0.806208  1
  Cl  Cl18  1  0.335158  0.333491  0.193792  1
  Cl  Cl19  1  0.333491  0.335158  0.693792  1
  Cl  Cl20  1  0.332031  0.331053  0.443887  1
  Cl  Cl21  1  0.331053  0.332031  0.943887  1
  Cl  Cl22  1  0.668947  0.000978  0.443887  1
  Cl  Cl23  1  0.332031  0.000978  0.056113  1
  Cl  Cl24  1  0.331053  0.999022  0.556113  1
  Cl  Cl25  1  0.668947  0.667969  0.056113  1
  Cl  Cl26  1  0.667969  0.668947  0.556113  1
  Cl  Cl27  1  0.666509  0.664842  0.306208  1
  Cl  Cl28  1  0.664842  0.666509  0.806208  1
  Cl  Cl29  1  0.998333  0.664842  0.193792  1
  Cl  Cl30  1  0.001667  0.666509  0.693792  1
  Cl  Cl31  1  0.999022  0.667969  0.443887  1
  Cl  Cl32  1  0.000978  0.668947  0.943887  1
  Cl  Cl33  1  0.667969  0.999022  0.943887  1
  Cl  Cl34  1  0.666509  0.001667  0.193792  1
  Cl  Cl35  1  0.664842  0.998333  0.693792  1
