# generated using pymatgen
data_Hf9Re3MoP
_symmetry_space_group_name_H-M   'P 1'
_cell_length_a   8.56088262
_cell_length_b   8.56651645
_cell_length_c   8.65122000
_cell_angle_alpha   90.00000000
_cell_angle_beta   90.00000000
_cell_angle_gamma   120.02176974
_symmetry_Int_Tables_number   1
_chemical_formula_structural   Hf9Re3MoP
_chemical_formula_sum   'Hf18 Re6 Mo2 P2'
_cell_volume   549.33272551
_cell_formula_units_Z   2
loop_
 _symmetry_equiv_pos_site_id
 _symmetry_equiv_pos_as_xyz
  1  'x, y, z'
loop_
 _atom_site_type_symbol
 _atom_site_label
 _atom_site_symmetry_multiplicity
 _atom_site_fract_x
 _atom_site_fract_y
 _atom_site_fract_z
 _atom_site_occupancy
  Hf  Hf0  1  0.196887  0.803814  0.452951  1
  Hf  Hf1  1  0.196887  0.393072  0.452951  1
  Hf  Hf2  1  0.606476  0.803238  0.453771  1
  Hf  Hf3  1  0.803886  0.195933  0.550325  1
  Hf  Hf4  1  0.803886  0.607954  0.550325  1
  Hf  Hf5  1  0.391407  0.195704  0.549486  1
  Hf  Hf6  1  0.803886  0.195933  0.949675  1
  Hf  Hf7  1  0.803886  0.607954  0.949675  1
  Hf  Hf8  1  0.391407  0.195704  0.950514  1
  Hf  Hf9  1  0.196887  0.803814  0.047049  1
  Hf  Hf10  1  0.196887  0.393072  0.047049  1
  Hf  Hf11  1  0.606476  0.803238  0.046229  1
  Hf  Hf12  1  0.538352  0.459916  0.250000  1
  Hf  Hf13  1  0.538352  0.078436  0.250000  1
  Hf  Hf14  1  0.922321  0.461160  0.250000  1
  Hf  Hf15  1  0.459357  0.539999  0.750000  1
  Hf  Hf16  1  0.459357  0.919359  0.750000  1
  Hf  Hf17  1  0.080458  0.540229  0.750000  1
  Re  Re18  1  0.220593  0.110296  0.250000  1
  Re  Re19  1  0.110029  0.890480  0.750000  1
  Re  Re20  1  0.110029  0.219550  0.750000  1
  Re  Re21  1  0.780544  0.890273  0.750000  1
  Re  Re22  1  0.000505  0.000252  0.501219  1
  Re  Re23  1  0.000505  0.000252  0.998781  1
  Mo  Mo24  1  0.890952  0.108882  0.250000  1
  Mo  Mo25  1  0.890952  0.782069  0.250000  1
  P  P26  1  0.332526  0.666263  0.250000  1
  P  P27  1  0.666313  0.333156  0.750000  1
