# generated using pymatgen
data_Y3Cd3PtRh2
_symmetry_space_group_name_H-M   'P 1'
_cell_length_a   7.60127300
_cell_length_b   7.60127367
_cell_length_c   3.88467100
_cell_angle_alpha   90.00000000
_cell_angle_beta   90.00000000
_cell_angle_gamma   120.00000145
_symmetry_Int_Tables_number   1
_chemical_formula_structural   Y3Cd3PtRh2
_chemical_formula_sum   'Y3 Cd3 Pt1 Rh2'
_cell_volume   194.38268107
_cell_formula_units_Z   1
loop_
 _symmetry_equiv_pos_site_id
 _symmetry_equiv_pos_as_xyz
  1  'x, y, z'
loop_
 _atom_site_type_symbol
 _atom_site_label
 _atom_site_symmetry_multiplicity
 _atom_site_fract_x
 _atom_site_fract_y
 _atom_site_fract_z
 _atom_site_occupancy
  Y  Y0  1  0.405701  0.005091  0.500000  1
  Y  Y1  1  0.994909  0.400610  0.500000  1
  Y  Y2  1  0.599390  0.594299  0.500000  1
  Cd  Cd3  1  0.745808  0.002946  0.000000  1
  Cd  Cd4  1  0.997054  0.742862  0.000000  1
  Cd  Cd5  1  0.257138  0.254192  0.000000  1
  Pt  Pt6  1  0.333333  0.666667  0.000000  1
  Rh  Rh7  1  0.666667  0.333333  0.000000  1
  Rh  Rh8  1  0.000000  0.000000  0.500000  1
