# generated using pymatgen
data_Lu10In8IrRuPt2
_symmetry_space_group_name_H-M   'P 1'
_cell_length_a   3.55005600
_cell_length_b   7.98520726
_cell_length_c   18.05099948
_cell_angle_alpha   89.97286833
_cell_angle_beta   90.00000000
_cell_angle_gamma   90.00000000
_symmetry_Int_Tables_number   1
_chemical_formula_structural   Lu10In8IrRuPt2
_chemical_formula_sum   'Lu10 In8 Ir1 Ru1 Pt2'
_cell_volume   511.70846553
_cell_formula_units_Z   1
loop_
 _symmetry_equiv_pos_site_id
 _symmetry_equiv_pos_as_xyz
  1  'x, y, z'
loop_
 _atom_site_type_symbol
 _atom_site_label
 _atom_site_symmetry_multiplicity
 _atom_site_fract_x
 _atom_site_fract_y
 _atom_site_fract_z
 _atom_site_occupancy
  Lu  Lu0  1  0.000000  0.116143  0.412952  1
  Lu  Lu1  1  0.000000  0.884268  0.587774  1
  Lu  Lu2  1  0.000000  0.381968  0.914118  1
  Lu  Lu3  1  0.000000  0.617654  0.086029  1
  Lu  Lu4  1  0.000000  0.238668  0.222177  1
  Lu  Lu5  1  0.000000  0.762739  0.777412  1
  Lu  Lu6  1  0.000000  0.248089  0.720072  1
  Lu  Lu7  1  0.000000  0.750030  0.279572  1
  Lu  Lu8  1  0.000000  0.000040  0.000176  1
  Lu  Lu9  1  0.000000  0.500217  0.499891  1
  In  In10  1  0.500000  0.424374  0.352343  1
  In  In11  1  0.500000  0.576236  0.647754  1
  In  In12  1  0.500000  0.070412  0.850531  1
  In  In13  1  0.500000  0.928671  0.148855  1
  In  In14  1  0.500000  0.291643  0.065658  1
  In  In15  1  0.500000  0.708569  0.934484  1
  In  In16  1  0.500000  0.206228  0.567283  1
  In  In17  1  0.500000  0.792781  0.432922  1
  Ir  Ir18  1  0.500000  0.024279  0.303783  1
  Ru  Ru19  1  0.500000  0.976641  0.696242  1
  Pt  Pt20  1  0.500000  0.475155  0.803840  1
  Pt  Pt21  1  0.500000  0.525196  0.196132  1
