# generated using pymatgen
data_Tb2P4RuRh5
_symmetry_space_group_name_H-M   'P 1'
_cell_length_a   3.94468900
_cell_length_b   11.25632500
_cell_length_c   12.67595400
_cell_angle_alpha   90.00000000
_cell_angle_beta   90.00000000
_cell_angle_gamma   90.00000000
_symmetry_Int_Tables_number   1
_chemical_formula_structural   Tb2P4RuRh5
_chemical_formula_sum   'Tb6 P12 Ru3 Rh15'
_cell_volume   562.84660052
_cell_formula_units_Z   3
loop_
 _symmetry_equiv_pos_site_id
 _symmetry_equiv_pos_as_xyz
  1  'x, y, z'
loop_
 _atom_site_type_symbol
 _atom_site_label
 _atom_site_symmetry_multiplicity
 _atom_site_fract_x
 _atom_site_fract_y
 _atom_site_fract_z
 _atom_site_occupancy
  Tb  Tb0  1  0.000000  0.500000  0.520240  1
  Tb  Tb1  1  0.500000  0.000000  0.480159  1
  Tb  Tb2  1  0.500000  0.818221  0.205351  1
  Tb  Tb3  1  0.500000  0.181779  0.205351  1
  Tb  Tb4  1  0.000000  0.680094  0.795244  1
  Tb  Tb5  1  0.000000  0.319906  0.795244  1
  P  P6  1  0.500000  0.500000  0.881500  1
  P  P7  1  0.000000  0.000000  0.116553  1
  P  P8  1  0.500000  0.500000  0.347069  1
  P  P9  1  0.000000  0.000000  0.651181  1
  P  P10  1  0.500000  0.314269  0.619333  1
  P  P11  1  0.500000  0.685731  0.619333  1
  P  P12  1  0.000000  0.186299  0.380740  1
  P  P13  1  0.000000  0.813701  0.380740  1
  P  P14  1  0.500000  0.845304  0.892898  1
  P  P15  1  0.500000  0.154696  0.892898  1
  P  P16  1  0.000000  0.652588  0.108206  1
  P  P17  1  0.000000  0.347412  0.108206  1
  Ru  Ru18  1  0.500000  0.500000  0.161372  1
  Ru  Ru19  1  0.000000  0.500000  0.989980  1
  Ru  Ru20  1  0.500000  0.000000  0.011220  1
  Rh  Rh21  1  0.000000  0.000000  0.837475  1
  Rh  Rh22  1  0.500000  0.500000  0.700436  1
  Rh  Rh23  1  0.000000  0.000000  0.298191  1
  Rh  Rh24  1  0.500000  0.332296  0.991022  1
  Rh  Rh25  1  0.500000  0.667704  0.991022  1
  Rh  Rh26  1  0.000000  0.169053  0.009342  1
  Rh  Rh27  1  0.000000  0.830947  0.009342  1
  Rh  Rh28  1  0.500000  0.295043  0.430688  1
  Rh  Rh29  1  0.500000  0.704957  0.430688  1
  Rh  Rh30  1  0.000000  0.203654  0.568748  1
  Rh  Rh31  1  0.000000  0.796346  0.568748  1
  Rh  Rh32  1  0.500000  0.872435  0.711874  1
  Rh  Rh33  1  0.500000  0.127565  0.711874  1
  Rh  Rh34  1  0.000000  0.625369  0.288865  1
  Rh  Rh35  1  0.000000  0.374631  0.288865  1
