# generated using pymatgen
data_Er10GaSn2Bi3
_symmetry_space_group_name_H-M   'P 1'
_cell_length_a   8.95100600
_cell_length_b   8.96358622
_cell_length_c   6.47448500
_cell_angle_alpha   90.00000000
_cell_angle_beta   90.00000000
_cell_angle_gamma   119.89421319
_symmetry_Int_Tables_number   1
_chemical_formula_structural   Er10GaSn2Bi3
_chemical_formula_sum   'Er10 Ga1 Sn2 Bi3'
_cell_volume   450.35135248
_cell_formula_units_Z   1
loop_
 _symmetry_equiv_pos_site_id
 _symmetry_equiv_pos_as_xyz
  1  'x, y, z'
loop_
 _atom_site_type_symbol
 _atom_site_label
 _atom_site_symmetry_multiplicity
 _atom_site_fract_x
 _atom_site_fract_y
 _atom_site_fract_z
 _atom_site_occupancy
  Er  Er0  1  0.010778  0.772540  0.750000  1
  Er  Er1  1  0.994120  0.232096  0.250000  1
  Er  Er2  1  0.756880  0.763409  0.250000  1
  Er  Er3  1  0.752435  0.993359  0.750000  1
  Er  Er4  1  0.249737  0.231299  0.750000  1
  Er  Er5  1  0.240662  0.000731  0.250000  1
  Er  Er6  1  0.342477  0.685119  0.503866  1
  Er  Er7  1  0.654588  0.318426  0.996167  1
  Er  Er8  1  0.654588  0.318426  0.503833  1
  Er  Er9  1  0.342477  0.685119  0.996134  1
  Ga  Ga10  1  0.395483  0.999352  0.750000  1
  Sn  Sn11  1  0.611512  0.606877  0.750000  1
  Sn  Sn12  1  0.605768  0.002469  0.250000  1
  Bi  Bi13  1  0.388888  0.395667  0.250000  1
  Bi  Bi14  1  0.995948  0.604340  0.250000  1
  Bi  Bi15  1  0.003661  0.390772  0.750000  1
