# generated using pymatgen
data_Ca5(SnTe)2
_symmetry_space_group_name_H-M   'P 1'
_cell_length_a   8.36452000
_cell_length_b   8.36040800
_cell_length_c   16.01452500
_cell_angle_alpha   90.00000000
_cell_angle_beta   90.00000000
_cell_angle_gamma   90.00000000
_symmetry_Int_Tables_number   1
_chemical_formula_structural   Ca5(SnTe)2
_chemical_formula_sum   'Ca20 Sn8 Te8'
_cell_volume   1119.90854366
_cell_formula_units_Z   4
loop_
 _symmetry_equiv_pos_site_id
 _symmetry_equiv_pos_as_xyz
  1  'x, y, z'
loop_
 _atom_site_type_symbol
 _atom_site_label
 _atom_site_symmetry_multiplicity
 _atom_site_fract_x
 _atom_site_fract_y
 _atom_site_fract_z
 _atom_site_occupancy
  Ca  Ca0  1  0.074657  0.165007  0.385958  1
  Ca  Ca1  1  0.410662  0.835484  0.115979  1
  Ca  Ca2  1  0.089338  0.335484  0.615979  1
  Ca  Ca3  1  0.425343  0.665007  0.885958  1
  Ca  Ca4  1  0.910662  0.664516  0.115979  1
  Ca  Ca5  1  0.089338  0.335484  0.884021  1
  Ca  Ca6  1  0.242354  0.499753  0.250000  1
  Ca  Ca7  1  0.742354  0.000247  0.250000  1
  Ca  Ca8  1  0.425343  0.665007  0.614042  1
  Ca  Ca9  1  0.257646  0.999753  0.750000  1
  Ca  Ca10  1  0.589338  0.164516  0.615979  1
  Ca  Ca11  1  0.757646  0.500247  0.750000  1
  Ca  Ca12  1  0.910662  0.664516  0.384021  1
  Ca  Ca13  1  0.074657  0.165007  0.114042  1
  Ca  Ca14  1  0.925343  0.834993  0.885958  1
  Ca  Ca15  1  0.589338  0.164516  0.884021  1
  Ca  Ca16  1  0.574657  0.334993  0.114042  1
  Ca  Ca17  1  0.410662  0.835484  0.384021  1
  Ca  Ca18  1  0.925343  0.834993  0.614042  1
  Ca  Ca19  1  0.574657  0.334993  0.385958  1
  Sn  Sn20  1  0.630624  0.871701  0.750000  1
  Sn  Sn21  1  0.869376  0.371701  0.250000  1
  Sn  Sn22  1  0.614832  0.625852  0.250000  1
  Sn  Sn23  1  0.385168  0.374148  0.750000  1
  Sn  Sn24  1  0.130624  0.628299  0.750000  1
  Sn  Sn25  1  0.885168  0.125852  0.750000  1
  Sn  Sn26  1  0.369376  0.128299  0.250000  1
  Sn  Sn27  1  0.114832  0.874148  0.250000  1
  Te  Te28  1  0.754513  0.497012  0.544907  1
  Te  Te29  1  0.745487  0.997012  0.455093  1
  Te  Te30  1  0.245487  0.502988  0.455093  1
  Te  Te31  1  0.254513  0.002988  0.955093  1
  Te  Te32  1  0.754513  0.497012  0.955093  1
  Te  Te33  1  0.245487  0.502988  0.044907  1
  Te  Te34  1  0.254513  0.002988  0.544907  1
  Te  Te35  1  0.745487  0.997012  0.044907  1
