# generated using pymatgen
data_Yb6SmY(Cu2Sn5)2
_symmetry_space_group_name_H-M   'P 1'
_cell_length_a   4.46161600
_cell_length_b   8.81794900
_cell_length_c   14.11266500
_cell_angle_alpha   90.00000000
_cell_angle_beta   90.00000000
_cell_angle_gamma   90.00000000
_symmetry_Int_Tables_number   1
_chemical_formula_structural   Yb6SmY(Cu2Sn5)2
_chemical_formula_sum   'Yb6 Sm1 Y1 Cu4 Sn10'
_cell_volume   555.22473333
_cell_formula_units_Z   1
loop_
 _symmetry_equiv_pos_site_id
 _symmetry_equiv_pos_as_xyz
  1  'x, y, z'
loop_
 _atom_site_type_symbol
 _atom_site_label
 _atom_site_symmetry_multiplicity
 _atom_site_fract_x
 _atom_site_fract_y
 _atom_site_fract_z
 _atom_site_occupancy
  Yb  Yb0  1  0.500000  0.792730  0.742425  1
  Yb  Yb1  1  0.000000  0.207334  0.757417  1
  Yb  Yb2  1  0.000000  0.207334  0.242583  1
  Yb  Yb3  1  0.500000  0.137898  0.000000  1
  Yb  Yb4  1  0.000000  0.862766  0.500000  1
  Yb  Yb5  1  0.500000  0.792730  0.257575  1
  Sm  Sm6  1  0.500000  0.699637  0.000000  1
  Y  Y7  1  0.000000  0.300375  0.500000  1
  Cu  Cu8  1  0.500000  0.378489  0.644747  1
  Cu  Cu9  1  0.000000  0.621276  0.854762  1
  Cu  Cu10  1  0.000000  0.621276  0.145238  1
  Cu  Cu11  1  0.500000  0.378489  0.355253  1
  Sn  Sn12  1  0.500000  0.085524  0.396117  1
  Sn  Sn13  1  0.000000  0.555035  0.663637  1
  Sn  Sn14  1  0.000000  0.405791  0.000000  1
  Sn  Sn15  1  0.500000  0.444090  0.164351  1
  Sn  Sn16  1  0.500000  0.593141  0.500000  1
  Sn  Sn17  1  0.500000  0.444090  0.835649  1
  Sn  Sn18  1  0.000000  0.915719  0.895462  1
  Sn  Sn19  1  0.000000  0.555035  0.336363  1
  Sn  Sn20  1  0.500000  0.085524  0.603883  1
  Sn  Sn21  1  0.000000  0.915719  0.104538  1
