# generated using pymatgen
data_CrAg6RhF12
_symmetry_space_group_name_H-M   'P 1'
_cell_length_a   5.91170842
_cell_length_b   6.03496567
_cell_length_c   8.43983375
_cell_angle_alpha   90.04979840
_cell_angle_beta   90.72857523
_cell_angle_gamma   89.97763763
_symmetry_Int_Tables_number   1
_chemical_formula_structural   CrAg6RhF12
_chemical_formula_sum   'Cr1 Ag6 Rh1 F12'
_cell_volume   301.08310911
_cell_formula_units_Z   1
loop_
 _symmetry_equiv_pos_site_id
 _symmetry_equiv_pos_as_xyz
  1  'x, y, z'
loop_
 _atom_site_type_symbol
 _atom_site_label
 _atom_site_symmetry_multiplicity
 _atom_site_fract_x
 _atom_site_fract_y
 _atom_site_fract_z
 _atom_site_occupancy
  Cr  Cr0  1  0.000000  0.000000  0.000000  1
  Ag  Ag1  1  0.000000  0.000000  0.500000  1
  Ag  Ag2  1  0.500000  0.500000  0.000000  1
  Ag  Ag3  1  0.981127  0.560510  0.255329  1
  Ag  Ag4  1  0.018873  0.439490  0.744671  1
  Ag  Ag5  1  0.518243  0.059958  0.243878  1
  Ag  Ag6  1  0.481757  0.940042  0.756122  1
  Rh  Rh7  1  0.500000  0.500000  0.500000  1
  F  F8  1  0.848365  0.269477  0.072768  1
  F  F9  1  0.151635  0.730523  0.927232  1
  F  F10  1  0.658071  0.777867  0.424877  1
  F  F11  1  0.341929  0.222133  0.575123  1
  F  F12  1  0.118336  0.940146  0.213788  1
  F  F13  1  0.881664  0.059854  0.786212  1
  F  F14  1  0.377779  0.437624  0.279348  1
  F  F15  1  0.622221  0.562376  0.720652  1
  F  F16  1  0.726882  0.833607  0.052469  1
  F  F17  1  0.273118  0.166393  0.947531  1
  F  F18  1  0.782853  0.329336  0.445086  1
  F  F19  1  0.217147  0.670664  0.554914  1
