# generated using pymatgen
data_RbYScI6
_symmetry_space_group_name_H-M   'P 1'
_cell_length_a   8.69022000
_cell_length_b   8.69022099
_cell_length_c   14.19938100
_cell_angle_alpha   90.00000000
_cell_angle_beta   90.00000000
_cell_angle_gamma   119.99998863
_symmetry_Int_Tables_number   1
_chemical_formula_structural   RbYScI6
_chemical_formula_sum   'Rb2 Y2 Sc2 I12'
_cell_volume   928.67057542
_cell_formula_units_Z   2
loop_
 _symmetry_equiv_pos_site_id
 _symmetry_equiv_pos_as_xyz
  1  'x, y, z'
loop_
 _atom_site_type_symbol
 _atom_site_label
 _atom_site_symmetry_multiplicity
 _atom_site_fract_x
 _atom_site_fract_y
 _atom_site_fract_z
 _atom_site_occupancy
  Rb  Rb0  1  0.333333  0.666667  0.870379  1
  Rb  Rb1  1  0.666667  0.333333  0.375790  1
  Y  Y2  1  0.000000  0.000000  0.121253  1
  Y  Y3  1  0.000000  0.000000  0.381063  1
  Sc  Sc4  1  0.000000  0.000000  0.630943  1
  Sc  Sc5  1  0.000000  0.000000  0.870290  1
  I  I6  1  0.978481  0.711433  0.993014  1
  I  I7  1  0.268711  0.971872  0.250425  1
  I  I8  1  0.028128  0.296839  0.250425  1
  I  I9  1  0.288567  0.267048  0.993014  1
  I  I10  1  0.267656  0.288853  0.509806  1
  I  I11  1  0.732952  0.021519  0.993014  1
  I  I12  1  0.284862  0.024660  0.750003  1
  I  I13  1  0.703161  0.731289  0.250425  1
  I  I14  1  0.739798  0.715138  0.750003  1
  I  I15  1  0.021198  0.732344  0.509806  1
  I  I16  1  0.711147  0.978802  0.509806  1
  I  I17  1  0.975340  0.260202  0.750003  1
