# generated using pymatgen
data_TcF5
_symmetry_space_group_name_H-M   'P 1'
_cell_length_a   5.31974600
_cell_length_b   5.89818100
_cell_length_c   13.58133100
_cell_angle_alpha   90.00000000
_cell_angle_beta   90.00000000
_cell_angle_gamma   90.00000000
_symmetry_Int_Tables_number   1
_chemical_formula_structural   TcF5
_chemical_formula_sum   'Tc4 F20'
_cell_volume   426.13904309
_cell_formula_units_Z   4
loop_
 _symmetry_equiv_pos_site_id
 _symmetry_equiv_pos_as_xyz
  1  'x, y, z'
loop_
 _atom_site_type_symbol
 _atom_site_label
 _atom_site_symmetry_multiplicity
 _atom_site_fract_x
 _atom_site_fract_y
 _atom_site_fract_z
 _atom_site_occupancy
  Tc  Tc0  1  0.318206  0.115495  0.591226  1
  Tc  Tc1  1  0.818206  0.384505  0.408774  1
  Tc  Tc2  1  0.181794  0.884505  0.091226  1
  Tc  Tc3  1  0.681794  0.615495  0.908774  1
  F  F4  1  0.584833  0.079222  0.677365  1
  F  F5  1  0.133614  0.913891  0.666118  1
  F  F6  1  0.192925  0.379419  0.645771  1
  F  F7  1  0.522066  0.343842  0.506476  1
  F  F8  1  0.424505  0.908459  0.497411  1
  F  F9  1  0.924505  0.591541  0.502589  1
  F  F10  1  0.022066  0.156158  0.493524  1
  F  F11  1  0.692925  0.120581  0.354229  1
  F  F12  1  0.633614  0.586109  0.333882  1
  F  F13  1  0.084833  0.420778  0.322635  1
  F  F14  1  0.915167  0.920778  0.177365  1
  F  F15  1  0.366386  0.086109  0.166118  1
  F  F16  1  0.307075  0.620581  0.145771  1
  F  F17  1  0.977934  0.656158  0.006476  1
  F  F18  1  0.075495  0.091541  0.997411  1
  F  F19  1  0.575495  0.408459  0.002589  1
  F  F20  1  0.477934  0.843842  0.993524  1
  F  F21  1  0.807075  0.879419  0.854229  1
  F  F22  1  0.866386  0.413891  0.833882  1
  F  F23  1  0.415167  0.579222  0.822635  1
