# generated using pymatgen
data_La3NdPaPd15
_symmetry_space_group_name_H-M   'P 1'
_cell_length_a   4.21234100
_cell_length_b   4.21234100
_cell_length_c   21.06426300
_cell_angle_alpha   90.00000000
_cell_angle_beta   90.00000000
_cell_angle_gamma   90.00000000
_symmetry_Int_Tables_number   1
_chemical_formula_structural   La3NdPaPd15
_chemical_formula_sum   'La3 Nd1 Pa1 Pd15'
_cell_volume   373.76042160
_cell_formula_units_Z   1
loop_
 _symmetry_equiv_pos_site_id
 _symmetry_equiv_pos_as_xyz
  1  'x, y, z'
loop_
 _atom_site_type_symbol
 _atom_site_label
 _atom_site_symmetry_multiplicity
 _atom_site_fract_x
 _atom_site_fract_y
 _atom_site_fract_z
 _atom_site_occupancy
  La  La0  1  0.000000  0.000000  0.399824  1
  La  La1  1  0.000000  0.000000  0.599531  1
  La  La2  1  0.000000  0.000000  0.799096  1
  Nd  Nd3  1  0.000000  0.000000  0.200880  1
  Pa  Pa4  1  0.000000  0.000000  0.000467  1
  Pd  Pd5  1  0.500000  0.500000  0.000048  1
  Pd  Pd6  1  0.500000  0.500000  0.195033  1
  Pd  Pd7  1  0.500000  0.500000  0.399549  1
  Pd  Pd8  1  0.500000  0.500000  0.600366  1
  Pd  Pd9  1  0.500000  0.500000  0.805054  1
  Pd  Pd10  1  0.500000  0.000000  0.093530  1
  Pd  Pd11  1  0.500000  0.000000  0.297960  1
  Pd  Pd12  1  0.500000  0.000000  0.499990  1
  Pd  Pd13  1  0.500000  0.000000  0.701881  1
  Pd  Pd14  1  0.500000  0.000000  0.906715  1
  Pd  Pd15  1  0.000000  0.500000  0.093530  1
  Pd  Pd16  1  0.000000  0.500000  0.297960  1
  Pd  Pd17  1  0.000000  0.500000  0.499990  1
  Pd  Pd18  1  0.000000  0.500000  0.701881  1
  Pd  Pd19  1  0.000000  0.500000  0.906715  1
