# generated using pymatgen
data_Y5ScAl6(SiAu)3
_symmetry_space_group_name_H-M   'P 1'
_cell_length_a   6.96213531
_cell_length_b   6.95054231
_cell_length_c   8.54088209
_cell_angle_alpha   89.95472095
_cell_angle_beta   90.05433670
_cell_angle_gamma   119.71562386
_symmetry_Int_Tables_number   1
_chemical_formula_structural   Y5ScAl6(SiAu)3
_chemical_formula_sum   'Y5 Sc1 Al6 Si3 Au3'
_cell_volume   358.94810401
_cell_formula_units_Z   1
loop_
 _symmetry_equiv_pos_site_id
 _symmetry_equiv_pos_as_xyz
  1  'x, y, z'
loop_
 _atom_site_type_symbol
 _atom_site_label
 _atom_site_symmetry_multiplicity
 _atom_site_fract_x
 _atom_site_fract_y
 _atom_site_fract_z
 _atom_site_occupancy
  Y  Y0  1  0.579431  0.000013  0.743722  1
  Y  Y1  1  0.998604  0.578570  0.743592  1
  Y  Y2  1  0.420141  0.419415  0.744322  1
  Y  Y3  1  0.997251  0.578821  0.255526  1
  Y  Y4  1  0.579888  0.999573  0.255571  1
  Sc  Sc5  1  0.417910  0.418233  0.258186  1
  Al  Al6  1  0.746194  0.752549  0.004479  1
  Al  Al7  1  0.246426  0.993952  0.001396  1
  Al  Al8  1  0.008318  0.252916  0.001577  1
  Al  Al9  1  0.757310  0.757255  0.495766  1
  Al  Al10  1  0.242130  0.001245  0.498100  1
  Al  Al11  1  0.000544  0.241510  0.498238  1
  Si  Si12  1  0.663739  0.334395  0.003179  1
  Si  Si13  1  0.662215  0.334714  0.496269  1
  Si  Si14  1  0.334480  0.662541  0.496442  1
  Au  Au15  1  0.000398  0.000499  0.754054  1
  Au  Au16  1  0.010665  0.010865  0.245874  1
  Au  Au17  1  0.334355  0.662934  0.003707  1
