# generated using pymatgen
data_MnCoIO6
_symmetry_space_group_name_H-M   'P 1'
_cell_length_a   4.99888400
_cell_length_b   4.99888627
_cell_length_c   4.76858100
_cell_angle_alpha   90.00000000
_cell_angle_beta   90.00000000
_cell_angle_gamma   120.00001145
_symmetry_Int_Tables_number   1
_chemical_formula_structural   MnCoIO6
_chemical_formula_sum   'Mn1 Co1 I1 O6'
_cell_volume   103.19675964
_cell_formula_units_Z   1
loop_
 _symmetry_equiv_pos_site_id
 _symmetry_equiv_pos_as_xyz
  1  'x, y, z'
loop_
 _atom_site_type_symbol
 _atom_site_label
 _atom_site_symmetry_multiplicity
 _atom_site_fract_x
 _atom_site_fract_y
 _atom_site_fract_z
 _atom_site_occupancy
  Mn  Mn0  1  0.333333  0.666667  0.000000  1
  Co  Co1  1  0.666667  0.333333  0.500000  1
  I  I2  1  0.000000  0.000000  0.500000  1
  O  O3  1  0.332722  0.028494  0.722849  1
  O  O4  1  0.971506  0.667278  0.277151  1
  O  O5  1  0.332722  0.304229  0.277151  1
  O  O6  1  0.695771  0.028494  0.277151  1
  O  O7  1  0.971506  0.304229  0.722849  1
  O  O8  1  0.695771  0.667278  0.722849  1
