# generated using pymatgen
data_CeGd3CdCo
_symmetry_space_group_name_H-M   'P 1'
_cell_length_a   9.64091722
_cell_length_b   9.64091580
_cell_length_c   9.64091600
_cell_angle_alpha   59.99999246
_cell_angle_beta   59.99999731
_cell_angle_gamma   59.99999336
_symmetry_Int_Tables_number   1
_chemical_formula_structural   CeGd3CdCo
_chemical_formula_sum   'Ce4 Gd12 Cd4 Co4'
_cell_volume   633.63606691
_cell_formula_units_Z   4
loop_
 _symmetry_equiv_pos_site_id
 _symmetry_equiv_pos_as_xyz
  1  'x, y, z'
loop_
 _atom_site_type_symbol
 _atom_site_label
 _atom_site_symmetry_multiplicity
 _atom_site_fract_x
 _atom_site_fract_y
 _atom_site_fract_z
 _atom_site_occupancy
  Ce  Ce0  1  0.346445  0.346445  0.960665  1
  Ce  Ce1  1  0.346445  0.960665  0.346445  1
  Ce  Ce2  1  0.960665  0.346445  0.346445  1
  Ce  Ce3  1  0.346445  0.346445  0.346445  1
  Gd  Gd4  1  0.563134  0.563134  0.936866  1
  Gd  Gd5  1  0.936866  0.563134  0.936866  1
  Gd  Gd6  1  0.563134  0.936866  0.936866  1
  Gd  Gd7  1  0.936866  0.936866  0.563134  1
  Gd  Gd8  1  0.563134  0.936866  0.563134  1
  Gd  Gd9  1  0.936866  0.563134  0.563134  1
  Gd  Gd10  1  0.186555  0.186555  0.813445  1
  Gd  Gd11  1  0.813445  0.186555  0.813445  1
  Gd  Gd12  1  0.186554  0.813446  0.813445  1
  Gd  Gd13  1  0.813445  0.813446  0.186555  1
  Gd  Gd14  1  0.186554  0.813445  0.186554  1
  Gd  Gd15  1  0.813445  0.186555  0.186555  1
  Cd  Cd16  1  0.581338  0.581338  0.255985  1
  Cd  Cd17  1  0.581338  0.255985  0.581338  1
  Cd  Cd18  1  0.255985  0.581338  0.581338  1
  Cd  Cd19  1  0.581338  0.581338  0.581338  1
  Co  Co20  1  0.144273  0.144273  0.567182  1
  Co  Co21  1  0.144273  0.567182  0.144273  1
  Co  Co22  1  0.567182  0.144273  0.144273  1
  Co  Co23  1  0.144273  0.144273  0.144273  1
