# generated using pymatgen
data_Ho8CrSi16Tc11
_symmetry_space_group_name_H-M   'P 1'
_cell_length_a   6.80322774
_cell_length_b   6.79027459
_cell_length_c   12.62939900
_cell_angle_alpha   89.72137885
_cell_angle_beta   89.71402639
_cell_angle_gamma   89.92055957
_symmetry_Int_Tables_number   1
_chemical_formula_structural   Ho8CrSi16Tc11
_chemical_formula_sum   'Ho8 Cr1 Si16 Tc11'
_cell_volume   583.41028714
_cell_formula_units_Z   1
loop_
 _symmetry_equiv_pos_site_id
 _symmetry_equiv_pos_as_xyz
  1  'x, y, z'
loop_
 _atom_site_type_symbol
 _atom_site_label
 _atom_site_symmetry_multiplicity
 _atom_site_fract_x
 _atom_site_fract_y
 _atom_site_fract_z
 _atom_site_occupancy
  Ho  Ho0  1  0.001345  0.663460  0.030213  1
  Ho  Ho1  1  0.837880  0.499816  0.279687  1
  Ho  Ho2  1  0.159623  0.498093  0.780244  1
  Ho  Ho3  1  0.501100  0.840135  0.719435  1
  Ho  Ho4  1  0.495352  0.159864  0.219733  1
  Ho  Ho5  1  0.994420  0.338441  0.531168  1
  Ho  Ho6  1  0.659740  0.004822  0.969213  1
  Ho  Ho7  1  0.336503  0.998075  0.470401  1
  Cr  Cr8  1  0.826530  0.008275  0.376424  1
  Si  Si9  1  0.274450  0.976089  0.064012  1
  Si  Si10  1  0.531022  0.782155  0.316521  1
  Si  Si11  1  0.480710  0.233625  0.811955  1
  Si  Si12  1  0.768132  0.521607  0.687586  1
  Si  Si13  1  0.220086  0.472587  0.184256  1
  Si  Si14  1  0.722850  0.025347  0.563054  1
  Si  Si15  1  0.978296  0.274823  0.937213  1
  Si  Si16  1  0.029943  0.718760  0.433789  1
  Si  Si17  1  0.692756  0.383139  0.063597  1
  Si  Si18  1  0.113911  0.191784  0.314115  1
  Si  Si19  1  0.883740  0.809990  0.811686  1
  Si  Si20  1  0.191866  0.117088  0.687011  1
  Si  Si21  1  0.807488  0.885099  0.190996  1
  Si  Si22  1  0.308400  0.615004  0.561289  1
  Si  Si23  1  0.384744  0.691683  0.937491  1
  Si  Si24  1  0.620703  0.301201  0.435390  1
  Tc  Tc25  1  0.333108  0.333050  0.999132  1
  Tc  Tc26  1  0.164624  0.834545  0.251403  1
  Tc  Tc27  1  0.831169  0.168666  0.750348  1
  Tc  Tc28  1  0.665570  0.669233  0.498733  1
  Tc  Tc29  1  0.979016  0.181716  0.128429  1
  Tc  Tc30  1  0.325338  0.483483  0.373387  1
  Tc  Tc31  1  0.688506  0.525808  0.881339  1
  Tc  Tc32  1  0.476026  0.313655  0.619284  1
  Tc  Tc33  1  0.515838  0.675773  0.125505  1
  Tc  Tc34  1  0.018594  0.823617  0.624096  1
  Tc  Tc35  1  0.180621  0.979493  0.871862  1
