# generated using pymatgen
data_Nd3Sm(GaRh)4
_symmetry_space_group_name_H-M   'P 1'
_cell_length_a   4.34631000
_cell_length_b   7.04387314
_cell_length_c   7.97205998
_cell_angle_alpha   89.75335752
_cell_angle_beta   90.00000000
_cell_angle_gamma   90.00000000
_symmetry_Int_Tables_number   1
_chemical_formula_structural   Nd3Sm(GaRh)4
_chemical_formula_sum   'Nd3 Sm1 Ga4 Rh4'
_cell_volume   244.06120915
_cell_formula_units_Z   1
loop_
 _symmetry_equiv_pos_site_id
 _symmetry_equiv_pos_as_xyz
  1  'x, y, z'
loop_
 _atom_site_type_symbol
 _atom_site_label
 _atom_site_symmetry_multiplicity
 _atom_site_fract_x
 _atom_site_fract_y
 _atom_site_fract_z
 _atom_site_occupancy
  Nd  Nd0  1  0.250000  0.531012  0.187665  1
  Nd  Nd1  1  0.750000  0.468738  0.812814  1
  Nd  Nd2  1  0.750000  0.968961  0.686575  1
  Sm  Sm3  1  0.250000  0.031859  0.312223  1
  Ga  Ga4  1  0.250000  0.649238  0.567675  1
  Ga  Ga5  1  0.750000  0.350726  0.431137  1
  Ga  Ga6  1  0.750000  0.852021  0.069535  1
  Ga  Ga7  1  0.250000  0.148416  0.932473  1
  Rh  Rh8  1  0.250000  0.771477  0.888800  1
  Rh  Rh9  1  0.750000  0.226628  0.113176  1
  Rh  Rh10  1  0.750000  0.729939  0.387552  1
  Rh  Rh11  1  0.250000  0.270987  0.610375  1
