# generated using pymatgen
data_La5Pr5(Bi3Br)2
_symmetry_space_group_name_H-M   'P 1'
_cell_length_a   9.77582308
_cell_length_b   9.77582353
_cell_length_c   6.81536100
_cell_angle_alpha   90.00000000
_cell_angle_beta   90.00000000
_cell_angle_gamma   120.01440576
_symmetry_Int_Tables_number   1
_chemical_formula_structural   La5Pr5(Bi3Br)2
_chemical_formula_sum   'La5 Pr5 Bi6 Br2'
_cell_volume   563.97924480
_cell_formula_units_Z   1
loop_
 _symmetry_equiv_pos_site_id
 _symmetry_equiv_pos_as_xyz
  1  'x, y, z'
loop_
 _atom_site_type_symbol
 _atom_site_label
 _atom_site_symmetry_multiplicity
 _atom_site_fract_x
 _atom_site_fract_y
 _atom_site_fract_z
 _atom_site_occupancy
  La  La0  1  0.273104  0.000138  0.750000  1
  La  La1  1  0.726710  0.000071  0.250000  1
  La  La2  1  0.000138  0.273104  0.750000  1
  La  La3  1  0.000071  0.726710  0.250000  1
  La  La4  1  0.726883  0.726883  0.750000  1
  Pr  Pr5  1  0.273868  0.273868  0.250000  1
  Pr  Pr6  1  0.333250  0.666430  0.499807  1
  Pr  Pr7  1  0.666430  0.333250  0.499807  1
  Pr  Pr8  1  0.666430  0.333250  0.000193  1
  Pr  Pr9  1  0.333250  0.666430  0.000193  1
  Bi  Bi10  1  0.615988  0.000022  0.750000  1
  Bi  Bi11  1  0.383822  0.000263  0.250000  1
  Bi  Bi12  1  0.000022  0.615988  0.750000  1
  Bi  Bi13  1  0.000263  0.383822  0.250000  1
  Bi  Bi14  1  0.384060  0.384060  0.750000  1
  Bi  Bi15  1  0.615299  0.615299  0.250000  1
  Br  Br16  1  0.000206  0.000206  0.499772  1
  Br  Br17  1  0.000206  0.000206  0.000228  1
