# generated using pymatgen
data_Ba2Sr(SnIr)4
_symmetry_space_group_name_H-M   'P 1'
_cell_length_a   7.16548215
_cell_length_b   7.16548274
_cell_length_c   7.16548264
_cell_angle_alpha   108.28952046
_cell_angle_beta   111.86137904
_cell_angle_gamma   108.28952736
_symmetry_Int_Tables_number   1
_chemical_formula_structural   Ba2Sr(SnIr)4
_chemical_formula_sum   'Ba2 Sr1 Sn4 Ir4'
_cell_volume   282.84246754
_cell_formula_units_Z   1
loop_
 _symmetry_equiv_pos_site_id
 _symmetry_equiv_pos_as_xyz
  1  'x, y, z'
loop_
 _atom_site_type_symbol
 _atom_site_label
 _atom_site_symmetry_multiplicity
 _atom_site_fract_x
 _atom_site_fract_y
 _atom_site_fract_z
 _atom_site_occupancy
  Ba  Ba0  1  0.500000  0.500000  0.000000  1
  Ba  Ba1  1  0.000000  0.500000  0.500000  1
  Sr  Sr2  1  0.500000  0.000000  0.500000  1
  Sn  Sn3  1  0.389496  0.000000  0.005821  1
  Sn  Sn4  1  0.005821  0.000000  0.389496  1
  Sn  Sn5  1  0.994179  0.383675  0.994179  1
  Sn  Sn6  1  0.610503  0.616324  0.610504  1
  Ir  Ir7  1  0.007887  0.759356  0.007887  1
  Ir  Ir8  1  0.992113  0.000000  0.751469  1
  Ir  Ir9  1  0.248531  0.240644  0.248531  1
  Ir  Ir10  1  0.751469  0.000000  0.992113  1
