# generated using pymatgen
data_Dy17Ho3(Ir2Rh)4
_symmetry_space_group_name_H-M   'P 1'
_cell_length_a   10.87601700
_cell_length_b   10.87601700
_cell_length_c   6.38955600
_cell_angle_alpha   90.00000000
_cell_angle_beta   90.00000000
_cell_angle_gamma   90.00000000
_symmetry_Int_Tables_number   1
_chemical_formula_structural   Dy17Ho3(Ir2Rh)4
_chemical_formula_sum   'Dy17 Ho3 Ir8 Rh4'
_cell_volume   755.80617580
_cell_formula_units_Z   1
loop_
 _symmetry_equiv_pos_site_id
 _symmetry_equiv_pos_as_xyz
  1  'x, y, z'
loop_
 _atom_site_type_symbol
 _atom_site_label
 _atom_site_symmetry_multiplicity
 _atom_site_fract_x
 _atom_site_fract_y
 _atom_site_fract_z
 _atom_site_occupancy
  Dy  Dy0  1  0.290439  0.088756  0.378976  1
  Dy  Dy1  1  0.290375  0.911247  0.879030  1
  Dy  Dy2  1  0.709625  0.088753  0.879030  1
  Dy  Dy3  1  0.709561  0.911244  0.378976  1
  Dy  Dy4  1  0.588748  0.790339  0.879005  1
  Dy  Dy5  1  0.588728  0.209662  0.379017  1
  Dy  Dy6  1  0.411272  0.790338  0.379017  1
  Dy  Dy7  1  0.411252  0.209661  0.879005  1
  Dy  Dy8  1  0.209662  0.411272  0.620983  1
  Dy  Dy9  1  0.209661  0.588748  0.120995  1
  Dy  Dy10  1  0.790339  0.411252  0.120995  1
  Dy  Dy11  1  0.790338  0.588728  0.620983  1
  Dy  Dy12  1  0.911247  0.709625  0.120970  1
  Dy  Dy13  1  0.911244  0.290439  0.621024  1
  Dy  Dy14  1  0.088756  0.709561  0.621024  1
  Dy  Dy15  1  0.088753  0.290375  0.120970  1
  Dy  Dy16  1  0.000000  0.000000  0.500000  1
  Ho  Ho17  1  0.000000  0.000000  0.000000  1
  Ho  Ho18  1  0.500000  0.500000  0.000000  1
  Ho  Ho19  1  0.500000  0.500000  0.500000  1
  Ir  Ir20  1  0.846046  0.153956  0.249790  1
  Ir  Ir21  1  0.846044  0.846046  0.750210  1
  Ir  Ir22  1  0.153956  0.153954  0.750210  1
  Ir  Ir23  1  0.153954  0.846044  0.249790  1
  Ir  Ir24  1  0.653801  0.346204  0.749994  1
  Ir  Ir25  1  0.653796  0.653801  0.250006  1
  Ir  Ir26  1  0.346204  0.346199  0.250006  1
  Ir  Ir27  1  0.346199  0.653796  0.749994  1
  Rh  Rh28  1  0.500000  0.000000  0.122160  1
  Rh  Rh29  1  0.500000  0.000000  0.622163  1
  Rh  Rh30  1  0.000000  0.500000  0.877840  1
  Rh  Rh31  1  0.000000  0.500000  0.377837  1
