# generated using pymatgen
data_Dy9YIn8(PtRh)2
_symmetry_space_group_name_H-M   'P 1'
_cell_length_a   3.62369600
_cell_length_b   8.13000618
_cell_length_c   18.27249697
_cell_angle_alpha   90.08411199
_cell_angle_beta   90.00000000
_cell_angle_gamma   90.00000000
_symmetry_Int_Tables_number   1
_chemical_formula_structural   Dy9YIn8(PtRh)2
_chemical_formula_sum   'Dy9 Y1 In8 Pt2 Rh2'
_cell_volume   538.31943896
_cell_formula_units_Z   1
loop_
 _symmetry_equiv_pos_site_id
 _symmetry_equiv_pos_as_xyz
  1  'x, y, z'
loop_
 _atom_site_type_symbol
 _atom_site_label
 _atom_site_symmetry_multiplicity
 _atom_site_fract_x
 _atom_site_fract_y
 _atom_site_fract_z
 _atom_site_occupancy
  Dy  Dy0  1  0.000000  0.115266  0.412052  1
  Dy  Dy1  1  0.000000  0.884734  0.587948  1
  Dy  Dy2  1  0.000000  0.383035  0.913990  1
  Dy  Dy3  1  0.000000  0.616965  0.086010  1
  Dy  Dy4  1  0.000000  0.239679  0.221410  1
  Dy  Dy5  1  0.000000  0.760321  0.778590  1
  Dy  Dy6  1  0.000000  0.249860  0.720575  1
  Dy  Dy7  1  0.000000  0.750140  0.279425  1
  Dy  Dy8  1  0.000000  0.000000  0.000000  1
  Y  Y9  1  0.000000  0.500000  0.500000  1
  In  In10  1  0.500000  0.423767  0.351216  1
  In  In11  1  0.500000  0.576233  0.648784  1
  In  In12  1  0.500000  0.072317  0.850260  1
  In  In13  1  0.500000  0.927683  0.149740  1
  In  In14  1  0.500000  0.292198  0.066668  1
  In  In15  1  0.500000  0.707802  0.933332  1
  In  In16  1  0.500000  0.206195  0.568136  1
  In  In17  1  0.500000  0.793805  0.431864  1
  Pt  Pt18  1  0.500000  0.476740  0.803144  1
  Pt  Pt19  1  0.500000  0.523260  0.196856  1
  Rh  Rh20  1  0.500000  0.022480  0.304472  1
  Rh  Rh21  1  0.500000  0.977520  0.695528  1
