# generated using pymatgen
data_YThURu3
_symmetry_space_group_name_H-M   'P 1'
_cell_length_a   5.27341088
_cell_length_b   5.27341069
_cell_length_c   5.27341200
_cell_angle_alpha   68.06172037
_cell_angle_beta   68.06172214
_cell_angle_gamma   68.06172977
_symmetry_Int_Tables_number   1
_chemical_formula_structural   YThURu3
_chemical_formula_sum   'Y1 Th1 U1 Ru3'
_cell_volume   121.42122749
_cell_formula_units_Z   1
loop_
 _symmetry_equiv_pos_site_id
 _symmetry_equiv_pos_as_xyz
  1  'x, y, z'
loop_
 _atom_site_type_symbol
 _atom_site_label
 _atom_site_symmetry_multiplicity
 _atom_site_fract_x
 _atom_site_fract_y
 _atom_site_fract_z
 _atom_site_occupancy
  Y  Y0  1  0.871795  0.871795  0.871795  1
  Th  Th1  1  0.125448  0.125448  0.125448  1
  U  U2  1  0.503102  0.503102  0.503102  1
  Ru  Ru3  1  0.499529  0.000597  0.499529  1
  Ru  Ru4  1  0.000597  0.499529  0.499529  1
  Ru  Ru5  1  0.499529  0.499529  0.000597  1
