# generated using pymatgen
data_Cs8ScMn3S4(O4F3)4
_symmetry_space_group_name_H-M   'P 1'
_cell_length_a   11.94097400
_cell_length_b   7.56489072
_cell_length_c   9.40642100
_cell_angle_alpha   87.44459521
_cell_angle_beta   90.00000000
_cell_angle_gamma   90.00000000
_symmetry_Int_Tables_number   1
_chemical_formula_structural   Cs8ScMn3S4(O4F3)4
_chemical_formula_sum   'Cs8 Sc1 Mn3 S4 O16 F12'
_cell_volume   848.85739312
_cell_formula_units_Z   1
loop_
 _symmetry_equiv_pos_site_id
 _symmetry_equiv_pos_as_xyz
  1  'x, y, z'
loop_
 _atom_site_type_symbol
 _atom_site_label
 _atom_site_symmetry_multiplicity
 _atom_site_fract_x
 _atom_site_fract_y
 _atom_site_fract_z
 _atom_site_occupancy
  Cs  Cs0  1  0.189435  0.793172  0.330831  1
  Cs  Cs1  1  0.686287  0.205481  0.167016  1
  Cs  Cs2  1  0.810565  0.206828  0.669169  1
  Cs  Cs3  1  0.313713  0.794519  0.832984  1
  Cs  Cs4  1  0.311456  0.288050  0.173493  1
  Cs  Cs5  1  0.808703  0.710473  0.326253  1
  Cs  Cs6  1  0.688544  0.711950  0.826507  1
  Cs  Cs7  1  0.191297  0.289527  0.673747  1
  Sc  Sc8  1  0.000000  0.000000  0.000000  1
  Mn  Mn9  1  0.000000  0.500000  0.000000  1
  Mn  Mn10  1  0.500000  0.500000  0.500000  1
  Mn  Mn11  1  0.500000  0.000000  0.500000  1
  S  S12  1  0.999002  0.253339  0.291590  1
  S  S13  1  0.497925  0.745954  0.208726  1
  S  S14  1  0.000998  0.746661  0.708410  1
  S  S15  1  0.502075  0.254046  0.791274  1
  O  O16  1  0.452309  0.891618  0.294900  1
  O  O17  1  0.954923  0.107548  0.201851  1
  O  O18  1  0.547691  0.108382  0.705100  1
  O  O19  1  0.045077  0.892452  0.798149  1
  O  O20  1  0.049061  0.396994  0.190625  1
  O  O21  1  0.547725  0.601222  0.311029  1
  O  O22  1  0.950939  0.603006  0.809375  1
  O  O23  1  0.452275  0.398778  0.688971  1
  O  O24  1  0.905608  0.326262  0.372165  1
  O  O25  1  0.406500  0.669828  0.126200  1
  O  O26  1  0.094392  0.673738  0.627835  1
  O  O27  1  0.593500  0.330172  0.873800  1
  O  O28  1  0.091499  0.187536  0.382472  1
  O  O29  1  0.592324  0.809006  0.119484  1
  O  O30  1  0.908501  0.812464  0.617528  1
  O  O31  1  0.407676  0.190994  0.880516  1
  F  F32  1  0.347797  0.517969  0.453665  1
  F  F33  1  0.848282  0.480599  0.046637  1
  F  F34  1  0.652203  0.482031  0.546335  1
  F  F35  1  0.151718  0.519401  0.953363  1
  F  F36  1  0.163506  0.019582  0.041581  1
  F  F37  1  0.653067  0.980037  0.461764  1
  F  F38  1  0.836494  0.980418  0.958419  1
  F  F39  1  0.346933  0.019963  0.538236  1
  F  F40  1  0.001529  0.753272  0.097116  1
  F  F41  1  0.501314  0.235927  0.408916  1
  F  F42  1  0.998471  0.246728  0.902884  1
  F  F43  1  0.498686  0.764073  0.591084  1
