# generated using pymatgen
data_Sr8In15SbPt12
_symmetry_space_group_name_H-M   'P 1'
_cell_length_a   14.94887706
_cell_length_b   14.94887656
_cell_length_c   4.51487600
_cell_angle_alpha   90.00000000
_cell_angle_beta   90.00000000
_cell_angle_gamma   119.99007554
_symmetry_Int_Tables_number   1
_chemical_formula_structural   Sr8In15SbPt12
_chemical_formula_sum   'Sr8 In15 Sb1 Pt12'
_cell_volume   873.85023628
_cell_formula_units_Z   1
loop_
 _symmetry_equiv_pos_site_id
 _symmetry_equiv_pos_as_xyz
  1  'x, y, z'
loop_
 _atom_site_type_symbol
 _atom_site_label
 _atom_site_symmetry_multiplicity
 _atom_site_fract_x
 _atom_site_fract_y
 _atom_site_fract_z
 _atom_site_occupancy
  Sr  Sr0  1  0.551515  0.999999  0.000000  1
  Sr  Sr1  1  0.666659  0.333354  0.000000  1
  Sr  Sr2  1  0.448370  0.448370  0.000000  1
  Sr  Sr3  1  0.999999  0.551515  0.000000  1
  Sr  Sr4  1  0.333354  0.666659  0.000000  1
  Sr  Sr5  1  0.181728  0.000028  0.500001  1
  Sr  Sr6  1  0.000028  0.181729  0.500001  1
  Sr  Sr7  1  0.818488  0.818488  0.500001  1
  In  In8  1  0.805488  0.181512  0.000000  1
  In  In9  1  0.376362  0.194524  0.000000  1
  In  In10  1  0.194523  0.376361  0.000000  1
  In  In11  1  0.818149  0.623678  0.000000  1
  In  In12  1  0.181512  0.805488  0.000000  1
  In  In13  1  0.623679  0.818149  0.000000  1
  In  In14  1  0.722338  0.999951  0.500001  1
  In  In15  1  0.479052  0.125417  0.500001  1
  In  In16  1  0.277581  0.277580  0.500001  1
  In  In17  1  0.875039  0.353532  0.500001  1
  In  In18  1  0.125417  0.479052  0.500001  1
  In  In19  1  0.646275  0.521022  0.500001  1
  In  In20  1  0.521023  0.646275  0.500001  1
  In  In21  1  0.999951  0.722337  0.500001  1
  In  In22  1  0.353532  0.875040  0.500001  1
  Sb  Sb23  1  0.999965  0.999965  0.000000  1
  Pt  Pt24  1  0.353045  0.999907  0.000000  1
  Pt  Pt25  1  0.823378  0.999854  0.000000  1
  Pt  Pt26  1  0.176459  0.176459  0.000000  1
  Pt  Pt27  1  0.999907  0.353045  0.000000  1
  Pt  Pt28  1  0.646860  0.646860  0.000000  1
  Pt  Pt29  1  0.999854  0.823379  0.000000  1
  Pt  Pt30  1  0.685003  0.169720  0.500001  1
  Pt  Pt31  1  0.484787  0.315108  0.500001  1
  Pt  Pt32  1  0.315109  0.484787  0.500001  1
  Pt  Pt33  1  0.830500  0.515259  0.500001  1
  Pt  Pt34  1  0.169720  0.685003  0.500001  1
  Pt  Pt35  1  0.515259  0.830500  0.500001  1
