# generated using pymatgen
data_TaNb4Ga2P
_symmetry_space_group_name_H-M   'P 1'
_cell_length_a   6.67335123
_cell_length_b   7.61800980
_cell_length_c   6.66714257
_cell_angle_alpha   115.90312560
_cell_angle_beta   90.01939993
_cell_angle_gamma   115.94662059
_symmetry_Int_Tables_number   1
_chemical_formula_structural   TaNb4Ga2P
_chemical_formula_sum   'Ta2 Nb8 Ga4 P2'
_cell_volume   266.36523002
_cell_formula_units_Z   2
loop_
 _symmetry_equiv_pos_site_id
 _symmetry_equiv_pos_as_xyz
  1  'x, y, z'
loop_
 _atom_site_type_symbol
 _atom_site_label
 _atom_site_symmetry_multiplicity
 _atom_site_fract_x
 _atom_site_fract_y
 _atom_site_fract_z
 _atom_site_occupancy
  Ta  Ta0  1  0.307925  0.306330  0.815560  1
  Ta  Ta1  1  0.979140  0.295630  0.485920  1
  Nb  Nb2  1  0.990493  0.000108  0.997221  1
  Nb  Nb3  1  0.509409  0.000393  0.497417  1
  Nb  Nb4  1  0.521172  0.704642  0.690243  1
  Nb  Nb5  1  0.191620  0.694003  0.009835  1
  Nb  Nb6  1  0.683546  0.705202  0.190255  1
  Nb  Nb7  1  0.003869  0.695308  0.510848  1
  Nb  Nb8  1  0.496517  0.304475  0.315288  1
  Nb  Nb9  1  0.815994  0.293883  0.984620  1
  Ga  Ga10  1  0.749930  0.499636  0.756674  1
  Ga  Ga11  1  0.249586  0.499580  0.256740  1
  Ga  Ga12  1  0.138468  0.999678  0.363012  1
  Ga  Ga13  1  0.361165  0.999830  0.863121  1
  P  P14  1  0.872071  0.000748  0.631231  1
  P  P15  1  0.629095  0.000553  0.132018  1
