# generated using pymatgen
data_Th2Si3Ni14H3
_symmetry_space_group_name_H-M   'P 1'
_cell_length_a   6.31500440
_cell_length_b   6.31500417
_cell_length_c   6.31500496
_cell_angle_alpha   84.16761190
_cell_angle_beta   84.16760558
_cell_angle_gamma   84.16760491
_symmetry_Int_Tables_number   1
_chemical_formula_structural   Th2Si3Ni14H3
_chemical_formula_sum   'Th2 Si3 Ni14 H3'
_cell_volume   248.17461371
_cell_formula_units_Z   1
loop_
 _symmetry_equiv_pos_site_id
 _symmetry_equiv_pos_as_xyz
  1  'x, y, z'
loop_
 _atom_site_type_symbol
 _atom_site_label
 _atom_site_symmetry_multiplicity
 _atom_site_fract_x
 _atom_site_fract_y
 _atom_site_fract_z
 _atom_site_occupancy
  Th  Th0  1  0.651548  0.651548  0.651548  1
  Th  Th1  1  0.348452  0.348452  0.348452  1
  Si  Si2  1  0.000000  0.000000  0.500000  1
  Si  Si3  1  0.500000  0.000000  0.000000  1
  Si  Si4  1  0.000000  0.500000  0.000000  1
  Ni  Ni5  1  0.710035  0.289965  0.000000  1
  Ni  Ni6  1  0.000000  0.710035  0.289965  1
  Ni  Ni7  1  0.289965  0.000000  0.710035  1
  Ni  Ni8  1  0.000000  0.289965  0.710035  1
  Ni  Ni9  1  0.710035  0.000000  0.289965  1
  Ni  Ni10  1  0.289965  0.710035  0.000000  1
  Ni  Ni11  1  0.341207  0.341207  0.861546  1
  Ni  Ni12  1  0.861546  0.341207  0.341207  1
  Ni  Ni13  1  0.341207  0.861546  0.341207  1
  Ni  Ni14  1  0.658793  0.658793  0.138454  1
  Ni  Ni15  1  0.138454  0.658793  0.658793  1
  Ni  Ni16  1  0.658793  0.138454  0.658793  1
  Ni  Ni17  1  0.899402  0.899402  0.899402  1
  Ni  Ni18  1  0.100598  0.100598  0.100598  1
  H  H19  1  0.500000  0.500000  0.000000  1
  H  H20  1  0.000000  0.500000  0.500000  1
  H  H21  1  0.500000  0.000000  0.500000  1
