# generated using pymatgen
data_ThGe2IrAu
_symmetry_space_group_name_H-M   'P 1'
_cell_length_a   4.37649900
_cell_length_b   4.37649900
_cell_length_c   10.33040500
_cell_angle_alpha   90.00000000
_cell_angle_beta   90.00000000
_cell_angle_gamma   90.00000000
_symmetry_Int_Tables_number   1
_chemical_formula_structural   ThGe2IrAu
_chemical_formula_sum   'Th2 Ge4 Ir2 Au2'
_cell_volume   197.86592759
_cell_formula_units_Z   2
loop_
 _symmetry_equiv_pos_site_id
 _symmetry_equiv_pos_as_xyz
  1  'x, y, z'
loop_
 _atom_site_type_symbol
 _atom_site_label
 _atom_site_symmetry_multiplicity
 _atom_site_fract_x
 _atom_site_fract_y
 _atom_site_fract_z
 _atom_site_occupancy
  Th  Th0  1  0.000000  0.500000  0.261473  1
  Th  Th1  1  0.500000  0.000000  0.738527  1
  Ge  Ge2  1  0.000000  0.000000  0.500000  1
  Ge  Ge3  1  0.500000  0.500000  0.500000  1
  Ge  Ge4  1  0.000000  0.500000  0.851859  1
  Ge  Ge5  1  0.500000  0.000000  0.148141  1
  Ir  Ir6  1  0.000000  0.500000  0.617674  1
  Ir  Ir7  1  0.500000  0.000000  0.382326  1
  Au  Au8  1  0.000000  0.000000  0.000000  1
  Au  Au9  1  0.500000  0.500000  0.000000  1
