# generated using pymatgen
data_Li4Ca2YLuSi8
_symmetry_space_group_name_H-M   'P 1'
_cell_length_a   3.77966500
_cell_length_b   7.79245531
_cell_length_c   10.39244113
_cell_angle_alpha   89.35181243
_cell_angle_beta   90.00000000
_cell_angle_gamma   90.00000000
_symmetry_Int_Tables_number   1
_chemical_formula_structural   Li4Ca2YLuSi8
_chemical_formula_sum   'Li4 Ca2 Y1 Lu1 Si8'
_cell_volume   306.06763686
_cell_formula_units_Z   1
loop_
 _symmetry_equiv_pos_site_id
 _symmetry_equiv_pos_as_xyz
  1  'x, y, z'
loop_
 _atom_site_type_symbol
 _atom_site_label
 _atom_site_symmetry_multiplicity
 _atom_site_fract_x
 _atom_site_fract_y
 _atom_site_fract_z
 _atom_site_occupancy
  Li  Li0  1  0.250000  0.998857  0.389775  1
  Li  Li1  1  0.750000  0.000929  0.609713  1
  Li  Li2  1  0.250000  0.488381  0.108877  1
  Li  Li3  1  0.750000  0.511161  0.891760  1
  Ca  Ca4  1  0.250000  0.637434  0.634437  1
  Ca  Ca5  1  0.750000  0.363051  0.365142  1
  Y  Y6  1  0.250000  0.130507  0.864894  1
  Lu  Lu7  1  0.750000  0.871613  0.135241  1
  Si  Si8  1  0.750000  0.259598  0.062559  1
  Si  Si9  1  0.250000  0.739774  0.941710  1
  Si  Si10  1  0.750000  0.773774  0.423856  1
  Si  Si11  1  0.250000  0.227835  0.573528  1
  Si  Si12  1  0.750000  0.842404  0.827925  1
  Si  Si13  1  0.250000  0.152659  0.173553  1
  Si  Si14  1  0.750000  0.333312  0.684110  1
  Si  Si15  1  0.250000  0.668710  0.312920  1
