# generated using pymatgen
data_Be8VRe3
_symmetry_space_group_name_H-M   'P 1'
_cell_length_a   4.35493100
_cell_length_b   4.35493136
_cell_length_c   7.14778800
_cell_angle_alpha   90.00000000
_cell_angle_beta   90.00000000
_cell_angle_gamma   120.00000489
_symmetry_Int_Tables_number   1
_chemical_formula_structural   Be8VRe3
_chemical_formula_sum   'Be8 V1 Re3'
_cell_volume   117.39912651
_cell_formula_units_Z   1
loop_
 _symmetry_equiv_pos_site_id
 _symmetry_equiv_pos_as_xyz
  1  'x, y, z'
loop_
 _atom_site_type_symbol
 _atom_site_label
 _atom_site_symmetry_multiplicity
 _atom_site_fract_x
 _atom_site_fract_y
 _atom_site_fract_z
 _atom_site_occupancy
  Be  Be0  1  0.000000  0.000000  0.000165  1
  Be  Be1  1  0.000000  0.000000  0.499718  1
  Be  Be2  1  0.830304  0.660608  0.249198  1
  Be  Be3  1  0.169110  0.830890  0.750940  1
  Be  Be4  1  0.661780  0.830890  0.750940  1
  Be  Be5  1  0.339392  0.169696  0.249198  1
  Be  Be6  1  0.830304  0.169696  0.249198  1
  Be  Be7  1  0.169110  0.338220  0.750940  1
  V  V8  1  0.333333  0.666667  0.063331  1
  Re  Re9  1  0.666667  0.333333  0.561504  1
  Re  Re10  1  0.666667  0.333333  0.939032  1
  Re  Re11  1  0.333333  0.666667  0.435835  1
