# generated using pymatgen
data_Yb4HfIr7
_symmetry_space_group_name_H-M   'P 1'
_cell_length_a   5.51162500
_cell_length_b   5.51162415
_cell_length_c   8.37423200
_cell_angle_alpha   90.00000000
_cell_angle_beta   90.00000000
_cell_angle_gamma   120.00001108
_symmetry_Int_Tables_number   1
_chemical_formula_structural   Yb4HfIr7
_chemical_formula_sum   'Yb4 Hf1 Ir7'
_cell_volume   220.31031309
_cell_formula_units_Z   1
loop_
 _symmetry_equiv_pos_site_id
 _symmetry_equiv_pos_as_xyz
  1  'x, y, z'
loop_
 _atom_site_type_symbol
 _atom_site_label
 _atom_site_symmetry_multiplicity
 _atom_site_fract_x
 _atom_site_fract_y
 _atom_site_fract_z
 _atom_site_occupancy
  Yb  Yb0  1  0.333334  0.666667  0.077596  1
  Yb  Yb1  1  0.333334  0.666667  0.434075  1
  Yb  Yb2  1  0.666666  0.333334  0.565924  1
  Yb  Yb3  1  0.666666  0.333334  0.922404  1
  Hf  Hf4  1  0.000000  0.000000  0.000000  1
  Ir  Ir5  1  0.348225  0.174113  0.252426  1
  Ir  Ir6  1  0.825888  0.174113  0.252426  1
  Ir  Ir7  1  0.825886  0.651774  0.252426  1
  Ir  Ir8  1  0.000000  0.000000  0.500000  1
  Ir  Ir9  1  0.174113  0.348225  0.747573  1
  Ir  Ir10  1  0.174113  0.825886  0.747573  1
  Ir  Ir11  1  0.651774  0.825886  0.747573  1
