# generated using pymatgen
data_HoEr(Co5P3)2
_symmetry_space_group_name_H-M   'P 1'
_cell_length_a   3.64419500
_cell_length_b   10.27176931
_cell_length_c   11.71727719
_cell_angle_alpha   90.00392460
_cell_angle_beta   90.00000000
_cell_angle_gamma   90.00000000
_symmetry_Int_Tables_number   1
_chemical_formula_structural   HoEr(Co5P3)2
_chemical_formula_sum   'Ho2 Er2 Co20 P12'
_cell_volume   438.60498964
_cell_formula_units_Z   2
loop_
 _symmetry_equiv_pos_site_id
 _symmetry_equiv_pos_as_xyz
  1  'x, y, z'
loop_
 _atom_site_type_symbol
 _atom_site_label
 _atom_site_symmetry_multiplicity
 _atom_site_fract_x
 _atom_site_fract_y
 _atom_site_fract_z
 _atom_site_occupancy
  Ho  Ho0  1  0.250000  0.917115  0.202708  1
  Ho  Ho1  1  0.750000  0.082885  0.797292  1
  Er  Er2  1  0.750000  0.417217  0.297206  1
  Er  Er3  1  0.250000  0.582783  0.702794  1
  Co  Co4  1  0.250000  0.782934  0.491973  1
  Co  Co5  1  0.750000  0.217066  0.508027  1
  Co  Co6  1  0.750000  0.283338  0.007913  1
  Co  Co7  1  0.250000  0.716662  0.992087  1
  Co  Co8  1  0.250000  0.093065  0.988061  1
  Co  Co9  1  0.750000  0.906935  0.011939  1
  Co  Co10  1  0.750000  0.592948  0.512356  1
  Co  Co11  1  0.250000  0.407052  0.487644  1
  Co  Co12  1  0.250000  0.278965  0.676698  1
  Co  Co13  1  0.750000  0.721035  0.323302  1
  Co  Co14  1  0.750000  0.778504  0.823287  1
  Co  Co15  1  0.250000  0.221496  0.176713  1
  Co  Co16  1  0.250000  0.616888  0.198843  1
  Co  Co17  1  0.750000  0.383112  0.801157  1
  Co  Co18  1  0.750000  0.117422  0.301136  1
  Co  Co19  1  0.250000  0.882578  0.698864  1
  Co  Co20  1  0.250000  0.032288  0.431632  1
  Co  Co21  1  0.750000  0.967712  0.568368  1
  Co  Co22  1  0.750000  0.532137  0.068368  1
  Co  Co23  1  0.250000  0.467863  0.931632  1
  P  P24  1  0.250000  0.081461  0.612153  1
  P  P25  1  0.750000  0.918539  0.387847  1
  P  P26  1  0.750000  0.581305  0.887600  1
  P  P27  1  0.250000  0.418695  0.112400  1
  P  P28  1  0.250000  0.230064  0.370168  1
  P  P29  1  0.750000  0.769936  0.629832  1
  P  P30  1  0.750000  0.729585  0.129659  1
  P  P31  1  0.250000  0.270415  0.870341  1
  P  P32  1  0.250000  0.898340  0.891294  1
  P  P33  1  0.750000  0.101660  0.108706  1
  P  P34  1  0.750000  0.398702  0.608898  1
  P  P35  1  0.250000  0.601298  0.391102  1
