# generated using pymatgen
data_Sc4Fe12Co7MoP12
_symmetry_space_group_name_H-M   'P 1'
_cell_length_a   3.61623600
_cell_length_b   10.10752248
_cell_length_c   11.67927754
_cell_angle_alpha   90.13356656
_cell_angle_beta   90.00000000
_cell_angle_gamma   90.00000000
_symmetry_Int_Tables_number   1
_chemical_formula_structural   Sc4Fe12Co7MoP12
_chemical_formula_sum   'Sc4 Fe12 Co7 Mo1 P12'
_cell_volume   426.89029355
_cell_formula_units_Z   1
loop_
 _symmetry_equiv_pos_site_id
 _symmetry_equiv_pos_as_xyz
  1  'x, y, z'
loop_
 _atom_site_type_symbol
 _atom_site_label
 _atom_site_symmetry_multiplicity
 _atom_site_fract_x
 _atom_site_fract_y
 _atom_site_fract_z
 _atom_site_occupancy
  Sc  Sc0  1  0.250000  0.579972  0.705228  1
  Sc  Sc1  1  0.250000  0.921439  0.204134  1
  Sc  Sc2  1  0.750000  0.422702  0.295653  1
  Sc  Sc3  1  0.750000  0.079693  0.792246  1
  Fe  Fe4  1  0.250000  0.276540  0.674220  1
  Fe  Fe5  1  0.250000  0.878858  0.698054  1
  Fe  Fe6  1  0.250000  0.621652  0.205505  1
  Fe  Fe7  1  0.250000  0.406305  0.489417  1
  Fe  Fe8  1  0.250000  0.095112  0.987682  1
  Fe  Fe9  1  0.250000  0.457394  0.933140  1
  Fe  Fe10  1  0.250000  0.037730  0.430333  1
  Fe  Fe11  1  0.750000  0.532417  0.066839  1
  Fe  Fe12  1  0.750000  0.963183  0.563535  1
  Fe  Fe13  1  0.250000  0.789819  0.489443  1
  Fe  Fe14  1  0.750000  0.291548  0.009669  1
  Fe  Fe15  1  0.750000  0.208873  0.508593  1
  Co  Co16  1  0.250000  0.224237  0.174424  1
  Co  Co17  1  0.750000  0.776864  0.823572  1
  Co  Co18  1  0.750000  0.723681  0.330010  1
  Co  Co19  1  0.750000  0.122095  0.296637  1
  Co  Co20  1  0.750000  0.379051  0.797951  1
  Co  Co21  1  0.750000  0.593446  0.516711  1
  Co  Co22  1  0.750000  0.907919  0.017156  1
  Mo  Mo23  1  0.250000  0.706366  0.990093  1
  P  P24  1  0.250000  0.424755  0.117722  1
  P  P25  1  0.250000  0.076535  0.614495  1
  P  P26  1  0.750000  0.573283  0.882488  1
  P  P27  1  0.750000  0.925143  0.382380  1
  P  P28  1  0.250000  0.259444  0.864867  1
  P  P29  1  0.250000  0.238738  0.366643  1
  P  P30  1  0.750000  0.733430  0.141630  1
  P  P31  1  0.750000  0.765953  0.634596  1
  P  P32  1  0.250000  0.596840  0.394001  1
  P  P33  1  0.250000  0.909640  0.886318  1
  P  P34  1  0.750000  0.396736  0.608579  1
  P  P35  1  0.750000  0.102609  0.106030  1
