# generated using pymatgen
data_Ca10Sn2Bi3Sb
_symmetry_space_group_name_H-M   'P 1'
_cell_length_a   9.32384325
_cell_length_b   9.28156202
_cell_length_c   7.04474100
_cell_angle_alpha   90.00000000
_cell_angle_beta   90.00000000
_cell_angle_gamma   120.06619374
_symmetry_Int_Tables_number   1
_chemical_formula_structural   Ca10Sn2Bi3Sb
_chemical_formula_sum   'Ca10 Sn2 Bi3 Sb1'
_cell_volume   527.62046349
_cell_formula_units_Z   1
loop_
 _symmetry_equiv_pos_site_id
 _symmetry_equiv_pos_as_xyz
  1  'x, y, z'
loop_
 _atom_site_type_symbol
 _atom_site_label
 _atom_site_symmetry_multiplicity
 _atom_site_fract_x
 _atom_site_fract_y
 _atom_site_fract_z
 _atom_site_occupancy
  Ca  Ca0  1  0.341479  0.672930  0.998955  1
  Ca  Ca1  1  0.663744  0.330504  0.501050  1
  Ca  Ca2  1  0.663744  0.330504  0.998950  1
  Ca  Ca3  1  0.341479  0.672930  0.501045  1
  Ca  Ca4  1  0.278849  0.999696  0.250000  1
  Ca  Ca5  1  0.278157  0.275063  0.750000  1
  Ca  Ca6  1  0.996311  0.726808  0.750000  1
  Ca  Ca7  1  0.992985  0.268856  0.250000  1
  Ca  Ca8  1  0.726602  0.732933  0.250000  1
  Ca  Ca9  1  0.723251  0.993782  0.750000  1
  Sn  Sn10  1  0.622410  0.002346  0.250000  1
  Sn  Sn11  1  0.622495  0.620125  0.750000  1
  Bi  Bi12  1  0.001772  0.376205  0.750000  1
  Bi  Bi13  1  0.001253  0.625022  0.250000  1
  Bi  Bi14  1  0.372349  0.373860  0.250000  1
  Sb  Sb15  1  0.373122  0.998434  0.750000  1
