# generated using pymatgen
data_Pr3Nd2(RhO6)2
_symmetry_space_group_name_H-M   'P 1'
_cell_length_a   7.10923356
_cell_length_b   7.10923358
_cell_length_c   7.61738948
_cell_angle_alpha   74.40470172
_cell_angle_beta   74.40470297
_cell_angle_gamma   50.92956089
_symmetry_Int_Tables_number   1
_chemical_formula_structural   Pr3Nd2(RhO6)2
_chemical_formula_sum   'Pr3 Nd2 Rh2 O12'
_cell_volume   285.33831972
_cell_formula_units_Z   1
loop_
 _symmetry_equiv_pos_site_id
 _symmetry_equiv_pos_as_xyz
  1  'x, y, z'
loop_
 _atom_site_type_symbol
 _atom_site_label
 _atom_site_symmetry_multiplicity
 _atom_site_fract_x
 _atom_site_fract_y
 _atom_site_fract_z
 _atom_site_occupancy
  Pr  Pr0  1  0.692598  0.692598  0.167097  1
  Pr  Pr1  1  0.307402  0.307402  0.832903  1
  Pr  Pr2  1  0.000000  0.000000  0.500000  1
  Nd  Nd3  1  0.305121  0.305121  0.358131  1
  Nd  Nd4  1  0.694879  0.694879  0.641869  1
  Rh  Rh5  1  0.754466  0.245534  0.000000  1
  Rh  Rh6  1  0.245534  0.754466  0.000000  1
  O  O7  1  0.094388  0.596564  0.575328  1
  O  O8  1  0.999360  0.999360  0.172997  1
  O  O9  1  0.403436  0.905612  0.424672  1
  O  O10  1  0.499373  0.499373  0.177954  1
  O  O11  1  0.101803  0.576119  0.081153  1
  O  O12  1  0.905612  0.403436  0.424672  1
  O  O13  1  0.000640  0.000640  0.827003  1
  O  O14  1  0.596564  0.094387  0.575328  1
  O  O15  1  0.500627  0.500627  0.822046  1
  O  O16  1  0.576119  0.101803  0.081153  1
  O  O17  1  0.423881  0.898197  0.918847  1
  O  O18  1  0.898197  0.423881  0.918847  1
