# generated using pymatgen
data_Tm16In4CoRu3
_symmetry_space_group_name_H-M   'P 1'
_cell_length_a   9.50547788
_cell_length_b   9.50772012
_cell_length_c   9.50386522
_cell_angle_alpha   59.71322013
_cell_angle_beta   59.70095239
_cell_angle_gamma   59.75746699
_symmetry_Int_Tables_number   1
_chemical_formula_structural   Tm16In4CoRu3
_chemical_formula_sum   'Tm16 In4 Co1 Ru3'
_cell_volume   603.53615536
_cell_formula_units_Z   1
loop_
 _symmetry_equiv_pos_site_id
 _symmetry_equiv_pos_as_xyz
  1  'x, y, z'
loop_
 _atom_site_type_symbol
 _atom_site_label
 _atom_site_symmetry_multiplicity
 _atom_site_fract_x
 _atom_site_fract_y
 _atom_site_fract_z
 _atom_site_occupancy
  Tm  Tm0  1  0.060740  0.060760  0.442354  1
  Tm  Tm1  1  0.438159  0.061723  0.441037  1
  Tm  Tm2  1  0.057074  0.444158  0.056600  1
  Tm  Tm3  1  0.040094  0.654646  0.647813  1
  Tm  Tm4  1  0.443296  0.443284  0.057760  1
  Tm  Tm5  1  0.654643  0.040082  0.647810  1
  Tm  Tm6  1  0.188845  0.810997  0.194832  1
  Tm  Tm7  1  0.191151  0.191158  0.812360  1
  Tm  Tm8  1  0.810091  0.810092  0.193420  1
  Tm  Tm9  1  0.444160  0.057082  0.056577  1
  Tm  Tm10  1  0.810995  0.188851  0.194847  1
  Tm  Tm11  1  0.061729  0.438158  0.441035  1
  Tm  Tm12  1  0.808653  0.191275  0.808814  1
  Tm  Tm13  1  0.191288  0.808666  0.808816  1
  Tm  Tm14  1  0.650908  0.650898  0.046706  1
  Tm  Tm15  1  0.654602  0.654635  0.646885  1
  In  In16  1  0.416208  0.416241  0.419592  1
  In  In17  1  0.749392  0.416404  0.417700  1
  In  In18  1  0.416439  0.749358  0.417700  1
  In  In19  1  0.416545  0.416552  0.749336  1
  Co  Co20  1  0.858941  0.858946  0.417408  1
  Ru  Ru21  1  0.860313  0.860306  0.859996  1
  Ru  Ru22  1  0.419083  0.856677  0.860286  1
  Ru  Ru23  1  0.856652  0.419051  0.860313  1
