# generated using pymatgen
data_Hf16Fe4RePd3
_symmetry_space_group_name_H-M   'P 1'
_cell_length_a   8.64588281
_cell_length_b   8.61667638
_cell_length_c   8.61667700
_cell_angle_alpha   60.00000147
_cell_angle_beta   60.11168447
_cell_angle_gamma   60.11168927
_symmetry_Int_Tables_number   1
_chemical_formula_structural   Hf16Fe4RePd3
_chemical_formula_sum   'Hf16 Fe4 Re1 Pd3'
_cell_volume   454.67915205
_cell_formula_units_Z   1
loop_
 _symmetry_equiv_pos_site_id
 _symmetry_equiv_pos_as_xyz
  1  'x, y, z'
loop_
 _atom_site_type_symbol
 _atom_site_label
 _atom_site_symmetry_multiplicity
 _atom_site_fract_x
 _atom_site_fract_y
 _atom_site_fract_z
 _atom_site_occupancy
  Hf  Hf0  1  0.184778  0.605074  0.605074  1
  Hf  Hf1  1  0.600693  0.194748  0.602279  1
  Hf  Hf2  1  0.600693  0.602279  0.194748  1
  Hf  Hf3  1  0.600693  0.602279  0.602279  1
  Hf  Hf4  1  0.812301  0.810549  0.188575  1
  Hf  Hf5  1  0.198041  0.179285  0.811337  1
  Hf  Hf6  1  0.812301  0.188575  0.810549  1
  Hf  Hf7  1  0.198041  0.811337  0.179285  1
  Hf  Hf8  1  0.198041  0.811337  0.811337  1
  Hf  Hf9  1  0.812301  0.188575  0.188575  1
  Hf  Hf10  1  0.441099  0.449566  0.054667  1
  Hf  Hf11  1  0.056665  0.056217  0.443559  1
  Hf  Hf12  1  0.441099  0.054667  0.449566  1
  Hf  Hf13  1  0.056665  0.443559  0.056217  1
  Hf  Hf14  1  0.056665  0.443559  0.443559  1
  Hf  Hf15  1  0.441099  0.054667  0.054667  1
  Fe  Fe16  1  0.829548  0.390151  0.390151  1
  Fe  Fe17  1  0.388306  0.825567  0.393063  1
  Fe  Fe18  1  0.388306  0.393063  0.825567  1
  Fe  Fe19  1  0.388306  0.393063  0.393063  1
  Re  Re20  1  0.501074  0.832976  0.832976  1
  Pd  Pd21  1  0.831094  0.496015  0.836446  1
  Pd  Pd22  1  0.831094  0.836446  0.496015  1
  Pd  Pd23  1  0.831094  0.836446  0.836446  1
