# generated using pymatgen
data_CaTmPa2(Al3Ir)6
_symmetry_space_group_name_H-M   'P 1'
_cell_length_a   7.59697695
_cell_length_b   7.59797689
_cell_length_c   9.38030000
_cell_angle_alpha   90.00000000
_cell_angle_beta   90.00000000
_cell_angle_gamma   119.63853427
_symmetry_Int_Tables_number   1
_chemical_formula_structural   CaTmPa2(Al3Ir)6
_chemical_formula_sum   'Ca1 Tm1 Pa2 Al18 Ir6'
_cell_volume   470.60496210
_cell_formula_units_Z   1
loop_
 _symmetry_equiv_pos_site_id
 _symmetry_equiv_pos_as_xyz
  1  'x, y, z'
loop_
 _atom_site_type_symbol
 _atom_site_label
 _atom_site_symmetry_multiplicity
 _atom_site_fract_x
 _atom_site_fract_y
 _atom_site_fract_z
 _atom_site_occupancy
  Ca  Ca0  1  0.670282  0.993692  0.250000  1
  Tm  Tm1  1  0.330516  0.006871  0.750000  1
  Pa  Pa2  1  0.998085  0.671616  0.250000  1
  Pa  Pa3  1  0.002034  0.328189  0.750000  1
  Al  Al4  1  0.131607  0.126699  0.250000  1
  Al  Al5  1  0.869099  0.872531  0.750000  1
  Al  Al6  1  0.999795  0.330961  0.078526  1
  Al  Al7  1  0.999656  0.668709  0.920960  1
  Al  Al8  1  0.999656  0.668709  0.579040  1
  Al  Al9  1  0.339114  0.003376  0.425372  1
  Al  Al10  1  0.999795  0.330961  0.421474  1
  Al  Al11  1  0.661155  0.996362  0.574380  1
  Al  Al12  1  0.661155  0.996362  0.925620  1
  Al  Al13  1  0.339114  0.003376  0.074628  1
  Al  Al14  1  0.335276  0.333221  0.554479  1
  Al  Al15  1  0.664560  0.666893  0.446416  1
  Al  Al16  1  0.664560  0.666893  0.053584  1
  Al  Al17  1  0.335276  0.333221  0.945521  1
  Al  Al18  1  0.339747  0.547610  0.250000  1
  Al  Al19  1  0.658702  0.452084  0.750000  1
  Al  Al20  1  0.549535  0.342787  0.250000  1
  Al  Al21  1  0.451298  0.659425  0.750000  1
  Ir  Ir22  1  0.675613  0.330579  0.998028  1
  Ir  Ir23  1  0.322422  0.668860  0.999137  1
  Ir  Ir24  1  0.322422  0.668860  0.500863  1
  Ir  Ir25  1  0.675613  0.330579  0.501972  1
  Ir  Ir26  1  0.001957  0.000288  0.998446  1
  Ir  Ir27  1  0.001957  0.000288  0.501554  1
