# generated using pymatgen
data_Dy5Bi2Ir
_symmetry_space_group_name_H-M   'P 1'
_cell_length_a   8.01594600
_cell_length_b   9.01619000
_cell_length_c   12.51645800
_cell_angle_alpha   90.00000000
_cell_angle_beta   90.00000000
_cell_angle_gamma   90.00000000
_symmetry_Int_Tables_number   1
_chemical_formula_structural   Dy5Bi2Ir
_chemical_formula_sum   'Dy20 Bi8 Ir4'
_cell_volume   904.60562591
_cell_formula_units_Z   4
loop_
 _symmetry_equiv_pos_site_id
 _symmetry_equiv_pos_as_xyz
  1  'x, y, z'
loop_
 _atom_site_type_symbol
 _atom_site_label
 _atom_site_symmetry_multiplicity
 _atom_site_fract_x
 _atom_site_fract_y
 _atom_site_fract_z
 _atom_site_occupancy
  Dy  Dy0  1  0.841000  0.750000  0.793093  1
  Dy  Dy1  1  0.159000  0.250000  0.206907  1
  Dy  Dy2  1  0.341000  0.250000  0.706907  1
  Dy  Dy3  1  0.659000  0.750000  0.293093  1
  Dy  Dy4  1  0.376459  0.750000  0.693113  1
  Dy  Dy5  1  0.623541  0.250000  0.306887  1
  Dy  Dy6  1  0.876459  0.250000  0.806887  1
  Dy  Dy7  1  0.123541  0.750000  0.193113  1
  Dy  Dy8  1  0.945849  0.750000  0.501233  1
  Dy  Dy9  1  0.054151  0.250000  0.498767  1
  Dy  Dy10  1  0.445849  0.250000  0.998767  1
  Dy  Dy11  1  0.554151  0.750000  0.001233  1
  Dy  Dy12  1  0.676183  0.041777  0.566134  1
  Dy  Dy13  1  0.323817  0.958223  0.433866  1
  Dy  Dy14  1  0.176183  0.958223  0.933866  1
  Dy  Dy15  1  0.323817  0.541777  0.433866  1
  Dy  Dy16  1  0.823817  0.041777  0.066134  1
  Dy  Dy17  1  0.676183  0.458223  0.566134  1
  Dy  Dy18  1  0.823817  0.458223  0.066134  1
  Dy  Dy19  1  0.176183  0.541777  0.933866  1
  Bi  Bi20  1  0.569300  0.491388  0.827486  1
  Bi  Bi21  1  0.430700  0.508612  0.172514  1
  Bi  Bi22  1  0.069300  0.508612  0.672514  1
  Bi  Bi23  1  0.430700  0.991388  0.172514  1
  Bi  Bi24  1  0.930700  0.491388  0.327486  1
  Bi  Bi25  1  0.569300  0.008612  0.827486  1
  Bi  Bi26  1  0.930700  0.008612  0.327486  1
  Bi  Bi27  1  0.069300  0.991388  0.672514  1
  Ir  Ir28  1  0.570230  0.750000  0.509042  1
  Ir  Ir29  1  0.429770  0.250000  0.490958  1
  Ir  Ir30  1  0.070230  0.250000  0.990958  1
  Ir  Ir31  1  0.929770  0.750000  0.009042  1
