# generated using pymatgen
data_Yb5Mn7O12
_symmetry_space_group_name_H-M   'P 1'
_cell_length_a   5.63672499
_cell_length_b   5.63672434
_cell_length_c   10.75894739
_cell_angle_alpha   84.99190839
_cell_angle_beta   84.99191029
_cell_angle_gamma   119.89454170
_symmetry_Int_Tables_number   1
_chemical_formula_structural   Yb5Mn7O12
_chemical_formula_sum   'Yb5 Mn7 O12'
_cell_volume   291.81935137
_cell_formula_units_Z   1
loop_
 _symmetry_equiv_pos_site_id
 _symmetry_equiv_pos_as_xyz
  1  'x, y, z'
loop_
 _atom_site_type_symbol
 _atom_site_label
 _atom_site_symmetry_multiplicity
 _atom_site_fract_x
 _atom_site_fract_y
 _atom_site_fract_z
 _atom_site_occupancy
  Yb  Yb0  1  0.835281  0.669079  0.746744  1
  Yb  Yb1  1  0.661860  0.828981  0.253414  1
  Yb  Yb2  1  0.330921  0.164719  0.253256  1
  Yb  Yb3  1  0.171019  0.338140  0.746586  1
  Yb  Yb4  1  0.084293  0.915707  0.000000  1
  Mn  Mn5  1  0.913883  0.086117  0.500000  1
  Mn  Mn6  1  0.997940  0.496797  0.249998  1
  Mn  Mn7  1  0.749227  0.250773  0.000000  1
  Mn  Mn8  1  0.503203  0.002060  0.750002  1
  Mn  Mn9  1  0.586643  0.413357  0.500000  1
  Mn  Mn10  1  0.414590  0.585410  0.000000  1
  Mn  Mn11  1  0.249682  0.750318  0.500000  1
  O  O12  1  0.039024  0.219155  0.124525  1
  O  O13  1  0.780845  0.960976  0.875475  1
  O  O14  1  0.870730  0.370304  0.622208  1
  O  O15  1  0.629696  0.129270  0.377792  1
  O  O16  1  0.706136  0.533781  0.123898  1
  O  O17  1  0.466219  0.293864  0.876102  1
  O  O18  1  0.546245  0.719681  0.619591  1
  O  O19  1  0.280319  0.453755  0.380409  1
  O  O20  1  0.371566  0.866125  0.125908  1
  O  O21  1  0.133875  0.628434  0.874092  1
  O  O22  1  0.221300  0.044497  0.621022  1
  O  O23  1  0.955503  0.778700  0.378978  1
