# generated using pymatgen
data_Tm2Lu8(TlBi)3
_symmetry_space_group_name_H-M   'P 1'
_cell_length_a   6.44165500
_cell_length_b   8.88847105
_cell_length_c   8.89119700
_cell_angle_alpha   120.01109468
_cell_angle_beta   89.99885260
_cell_angle_gamma   90.00251416
_symmetry_Int_Tables_number   1
_chemical_formula_structural   Tm2Lu8(TlBi)3
_chemical_formula_sum   'Tm2 Lu8 Tl3 Bi3'
_cell_volume   440.82561672
_cell_formula_units_Z   1
loop_
 _symmetry_equiv_pos_site_id
 _symmetry_equiv_pos_as_xyz
  1  'x, y, z'
loop_
 _atom_site_type_symbol
 _atom_site_label
 _atom_site_symmetry_multiplicity
 _atom_site_fract_x
 _atom_site_fract_y
 _atom_site_fract_z
 _atom_site_occupancy
  Tm  Tm0  1  0.749848  0.234782  0.000069  1
  Tm  Tm1  1  0.749955  0.765263  0.765307  1
  Lu  Lu2  1  0.492160  0.333393  0.666781  1
  Lu  Lu3  1  0.492174  0.666570  0.333256  1
  Lu  Lu4  1  0.007931  0.666661  0.333376  1
  Lu  Lu5  1  0.007925  0.333357  0.666665  1
  Lu  Lu6  1  0.749952  0.000036  0.234781  1
  Lu  Lu7  1  0.249942  0.763200  0.000124  1
  Lu  Lu8  1  0.249920  0.236820  0.236965  1
  Lu  Lu9  1  0.249919  0.999981  0.762981  1
  Tl  Tl10  1  0.249951  0.391534  0.999865  1
  Tl  Tl11  1  0.250133  0.608382  0.608247  1
  Tl  Tl12  1  0.250142  0.000004  0.391720  1
  Bi  Bi13  1  0.750054  0.602696  0.000153  1
  Bi  Bi14  1  0.749998  0.397318  0.397466  1
  Bi  Bi15  1  0.749996  0.000006  0.602243  1
