# generated using pymatgen
data_Er20Cd5InCo2
_symmetry_space_group_name_H-M   'P 1'
_cell_length_a   9.50552104
_cell_length_b   9.50552081
_cell_length_c   9.69675500
_cell_angle_alpha   90.00000000
_cell_angle_beta   90.00000000
_cell_angle_gamma   120.01002357
_symmetry_Int_Tables_number   1
_chemical_formula_structural   Er20Cd5InCo2
_chemical_formula_sum   'Er20 Cd5 In1 Co2'
_cell_volume   758.69116107
_cell_formula_units_Z   1
loop_
 _symmetry_equiv_pos_site_id
 _symmetry_equiv_pos_as_xyz
  1  'x, y, z'
loop_
 _atom_site_type_symbol
 _atom_site_label
 _atom_site_symmetry_multiplicity
 _atom_site_fract_x
 _atom_site_fract_y
 _atom_site_fract_z
 _atom_site_occupancy
  Er  Er0  1  0.001112  0.998888  0.501605  1
  Er  Er1  1  0.001112  0.998888  0.998395  1
  Er  Er2  1  0.541642  0.458358  0.250000  1
  Er  Er3  1  0.539711  0.084446  0.250000  1
  Er  Er4  1  0.915554  0.460289  0.250000  1
  Er  Er5  1  0.457388  0.542612  0.750000  1
  Er  Er6  1  0.457806  0.915198  0.750000  1
  Er  Er7  1  0.084802  0.542194  0.750000  1
  Er  Er8  1  0.212030  0.787970  0.437057  1
  Er  Er9  1  0.211786  0.423663  0.436670  1
  Er  Er10  1  0.576337  0.788214  0.436670  1
  Er  Er11  1  0.788296  0.211704  0.563163  1
  Er  Er12  1  0.787738  0.576241  0.563722  1
  Er  Er13  1  0.423759  0.212262  0.563722  1
  Er  Er14  1  0.788296  0.211704  0.936837  1
  Er  Er15  1  0.787738  0.576241  0.936278  1
  Er  Er16  1  0.423759  0.212262  0.936278  1
  Er  Er17  1  0.212030  0.787970  0.062943  1
  Er  Er18  1  0.211786  0.423663  0.063330  1
  Er  Er19  1  0.576337  0.788214  0.063330  1
  Cd  Cd20  1  0.885962  0.770716  0.250000  1
  Cd  Cd21  1  0.229284  0.114038  0.250000  1
  Cd  Cd22  1  0.114986  0.885014  0.750000  1
  Cd  Cd23  1  0.114502  0.229331  0.750000  1
  Cd  Cd24  1  0.770669  0.885498  0.750000  1
  In  In25  1  0.885328  0.114672  0.250000  1
  Co  Co26  1  0.333460  0.666540  0.250000  1
  Co  Co27  1  0.666793  0.333207  0.750000  1
