# generated using pymatgen
data_Sm2Ho2LuPb4
_symmetry_space_group_name_H-M   'P 1'
_cell_length_a   8.19823100
_cell_length_b   8.29984800
_cell_length_c   15.67860700
_cell_angle_alpha   90.00000000
_cell_angle_beta   90.00000000
_cell_angle_gamma   90.00000000
_symmetry_Int_Tables_number   1
_chemical_formula_structural   Sm2Ho2LuPb4
_chemical_formula_sum   'Sm8 Ho8 Lu4 Pb16'
_cell_volume   1066.83625054
_cell_formula_units_Z   4
loop_
 _symmetry_equiv_pos_site_id
 _symmetry_equiv_pos_as_xyz
  1  'x, y, z'
loop_
 _atom_site_type_symbol
 _atom_site_label
 _atom_site_symmetry_multiplicity
 _atom_site_fract_x
 _atom_site_fract_y
 _atom_site_fract_z
 _atom_site_occupancy
  Sm  Sm0  1  0.468489  0.677415  0.598595  1
  Sm  Sm1  1  0.968489  0.822585  0.901405  1
  Sm  Sm2  1  0.531511  0.322585  0.098595  1
  Sm  Sm3  1  0.031511  0.177415  0.401405  1
  Sm  Sm4  1  0.531511  0.322585  0.401405  1
  Sm  Sm5  1  0.031511  0.177415  0.098595  1
  Sm  Sm6  1  0.468489  0.677415  0.901405  1
  Sm  Sm7  1  0.968489  0.822585  0.598595  1
  Ho  Ho8  1  0.627499  0.158342  0.621842  1
  Ho  Ho9  1  0.127499  0.341658  0.878158  1
  Ho  Ho10  1  0.372501  0.841658  0.121842  1
  Ho  Ho11  1  0.872501  0.658342  0.378158  1
  Ho  Ho12  1  0.372501  0.841658  0.378158  1
  Ho  Ho13  1  0.872501  0.658342  0.121842  1
  Ho  Ho14  1  0.627499  0.158342  0.878158  1
  Ho  Ho15  1  0.127499  0.341658  0.621842  1
  Lu  Lu16  1  0.794544  0.494478  0.750000  1
  Lu  Lu17  1  0.294544  0.005522  0.750000  1
  Lu  Lu18  1  0.205456  0.505522  0.250000  1
  Lu  Lu19  1  0.705456  0.994478  0.250000  1
  Pb  Pb20  1  0.712437  0.962912  0.456350  1
  Pb  Pb21  1  0.212437  0.537088  0.043650  1
  Pb  Pb22  1  0.287563  0.037088  0.956350  1
  Pb  Pb23  1  0.787563  0.462912  0.543650  1
  Pb  Pb24  1  0.287563  0.037088  0.543650  1
  Pb  Pb25  1  0.787563  0.462912  0.956350  1
  Pb  Pb26  1  0.712437  0.962912  0.043650  1
  Pb  Pb27  1  0.212437  0.537088  0.456350  1
  Pb  Pb28  1  0.432324  0.372223  0.750000  1
  Pb  Pb29  1  0.932324  0.127777  0.750000  1
  Pb  Pb30  1  0.567676  0.627777  0.250000  1
  Pb  Pb31  1  0.067676  0.872223  0.250000  1
  Pb  Pb32  1  0.657213  0.846785  0.750000  1
  Pb  Pb33  1  0.157213  0.653215  0.750000  1
  Pb  Pb34  1  0.342787  0.153215  0.250000  1
  Pb  Pb35  1  0.842787  0.346785  0.250000  1
