# generated using pymatgen
data_Cs(PdO2)8
_symmetry_space_group_name_H-M   'P 1'
_cell_length_a   6.27280014
_cell_length_b   7.49134335
_cell_length_c   7.48921636
_cell_angle_alpha   87.44939764
_cell_angle_beta   77.90541226
_cell_angle_gamma   77.91317263
_symmetry_Int_Tables_number   1
_chemical_formula_structural   Cs(PdO2)8
_chemical_formula_sum   'Cs1 Pd8 O16'
_cell_volume   336.49049228
_cell_formula_units_Z   1
loop_
 _symmetry_equiv_pos_site_id
 _symmetry_equiv_pos_as_xyz
  1  'x, y, z'
loop_
 _atom_site_type_symbol
 _atom_site_label
 _atom_site_symmetry_multiplicity
 _atom_site_fract_x
 _atom_site_fract_y
 _atom_site_fract_z
 _atom_site_occupancy
  Cs  Cs0  1  0.241911  0.000107  0.000141  1
  Pd  Pd1  1  0.079322  0.184351  0.483645  1
  Pd  Pd2  1  0.580345  0.184630  0.481870  1
  Pd  Pd3  1  0.321618  0.516417  0.184460  1
  Pd  Pd4  1  0.820694  0.518660  0.184517  1
  Pd  Pd5  1  0.171942  0.483441  0.815460  1
  Pd  Pd6  1  0.672600  0.481460  0.815508  1
  Pd  Pd7  1  0.414140  0.815697  0.516217  1
  Pd  Pd8  1  0.913007  0.815331  0.518277  1
  O  O9  1  0.394665  0.050043  0.357976  1
  O  O10  1  0.894718  0.048531  0.358831  1
  O  O11  1  0.082535  0.372019  0.281504  1
  O  O12  1  0.584233  0.372137  0.280430  1
  O  O13  1  0.074122  0.641612  0.049395  1
  O  O14  1  0.573960  0.641595  0.048324  1
  O  O15  1  0.269702  0.281680  0.627743  1
  O  O16  1  0.769225  0.279096  0.629271  1
  O  O17  1  0.223715  0.718237  0.372164  1
  O  O18  1  0.724281  0.720902  0.370836  1
  O  O19  1  0.419429  0.358068  0.950543  1
  O  O20  1  0.919109  0.358676  0.951666  1
  O  O21  1  0.410869  0.627985  0.718420  1
  O  O22  1  0.909260  0.627888  0.719613  1
  O  O23  1  0.598341  0.951478  0.641477  1
  O  O24  1  0.098835  0.949961  0.641712  1
