# generated using pymatgen
data_Nb12CrCo8Os3N4
_symmetry_space_group_name_H-M   'P 1'
_cell_length_a   8.12086993
_cell_length_b   8.07085994
_cell_length_c   8.12022202
_cell_angle_alpha   59.79935733
_cell_angle_beta   59.99485435
_cell_angle_gamma   59.79726130
_symmetry_Int_Tables_number   1
_chemical_formula_structural   Nb12CrCo8Os3N4
_chemical_formula_sum   'Nb12 Cr1 Co8 Os3 N4'
_cell_volume   375.16970659
_cell_formula_units_Z   1
loop_
 _symmetry_equiv_pos_site_id
 _symmetry_equiv_pos_as_xyz
  1  'x, y, z'
loop_
 _atom_site_type_symbol
 _atom_site_label
 _atom_site_symmetry_multiplicity
 _atom_site_fract_x
 _atom_site_fract_y
 _atom_site_fract_z
 _atom_site_occupancy
  Nb  Nb0  1  0.805631  0.804911  0.194653  1
  Nb  Nb1  1  0.192537  0.194247  0.806617  1
  Nb  Nb2  1  0.806602  0.194257  0.806631  1
  Nb  Nb3  1  0.194824  0.804906  0.194633  1
  Nb  Nb4  1  0.194761  0.804877  0.805638  1
  Nb  Nb5  1  0.806629  0.194312  0.192420  1
  Nb  Nb6  1  0.444431  0.445083  0.055169  1
  Nb  Nb7  1  0.057474  0.055804  0.443378  1
  Nb  Nb8  1  0.443346  0.055789  0.443389  1
  Nb  Nb9  1  0.055333  0.445060  0.055186  1
  Nb  Nb10  1  0.055288  0.445015  0.444407  1
  Nb  Nb11  1  0.443408  0.055824  0.057352  1
  Cr  Cr12  1  0.624971  0.124985  0.625076  1
  Co  Co13  1  0.732376  0.413975  0.426843  1
  Co  Co14  1  0.423148  0.730489  0.423172  1
  Co  Co15  1  0.426767  0.413920  0.732552  1
  Co  Co16  1  0.426791  0.413996  0.426823  1
  Co  Co17  1  0.517548  0.836050  0.823209  1
  Co  Co18  1  0.826846  0.519410  0.826903  1
  Co  Co19  1  0.823091  0.836000  0.517773  1
  Co  Co20  1  0.823159  0.836040  0.823219  1
  Os  Os21  1  0.124933  0.625022  0.625015  1
  Os  Os22  1  0.625041  0.625036  0.124890  1
  Os  Os23  1  0.625044  0.625022  0.625021  1
  N  N24  1  0.625039  0.124982  0.124993  1
  N  N25  1  0.124998  0.625021  0.124996  1
  N  N26  1  0.124990  0.124981  0.625049  1
  N  N27  1  0.124994  0.124987  0.124992  1
