# generated using pymatgen
data_Ho6Er10Cd4Ir3Pd
_symmetry_space_group_name_H-M   'P 1'
_cell_length_a   9.57173716
_cell_length_b   9.57090673
_cell_length_c   9.57074101
_cell_angle_alpha   60.13504392
_cell_angle_beta   60.14027399
_cell_angle_gamma   60.13935679
_symmetry_Int_Tables_number   1
_chemical_formula_structural   Ho6Er10Cd4Ir3Pd
_chemical_formula_sum   'Ho6 Er10 Cd4 Ir3 Pd1'
_cell_volume   621.91657908
_cell_formula_units_Z   1
loop_
 _symmetry_equiv_pos_site_id
 _symmetry_equiv_pos_as_xyz
  1  'x, y, z'
loop_
 _atom_site_type_symbol
 _atom_site_label
 _atom_site_symmetry_multiplicity
 _atom_site_fract_x
 _atom_site_fract_y
 _atom_site_fract_z
 _atom_site_occupancy
  Ho  Ho0  1  0.188705  0.812952  0.812921  1
  Ho  Ho1  1  0.814318  0.187334  0.187476  1
  Ho  Ho2  1  0.812925  0.188714  0.812944  1
  Ho  Ho3  1  0.187344  0.814338  0.187457  1
  Ho  Ho4  1  0.812979  0.813036  0.188555  1
  Ho  Ho5  1  0.187387  0.187329  0.814511  1
  Er  Er6  1  0.597568  0.597676  0.597553  1
  Er  Er7  1  0.603719  0.603721  0.197511  1
  Er  Er8  1  0.603714  0.197496  0.603629  1
  Er  Er9  1  0.197449  0.603765  0.603685  1
  Er  Er10  1  0.054904  0.440280  0.440203  1
  Er  Er11  1  0.438158  0.060719  0.060805  1
  Er  Er12  1  0.440285  0.054877  0.440160  1
  Er  Er13  1  0.060789  0.438104  0.060780  1
  Er  Er14  1  0.440294  0.440242  0.054953  1
  Er  Er15  1  0.060742  0.060656  0.438226  1
  Cd  Cd16  1  0.830672  0.830675  0.830764  1
  Cd  Cd17  1  0.830807  0.830823  0.506049  1
  Cd  Cd18  1  0.830849  0.506094  0.830778  1
  Cd  Cd19  1  0.506077  0.830837  0.830761  1
  Ir  Ir20  1  0.391623  0.391671  0.823819  1
  Ir  Ir21  1  0.391776  0.823759  0.391709  1
  Ir  Ir22  1  0.823794  0.391782  0.391662  1
  Pd  Pd23  1  0.393125  0.393122  0.393091  1
