# generated using pymatgen
data_Ca4ErIn(RuO6)2
_symmetry_space_group_name_H-M   'P 1'
_cell_length_a   5.77329643
_cell_length_b   5.54975776
_cell_length_c   9.69160768
_cell_angle_alpha   55.35245944
_cell_angle_beta   89.71092421
_cell_angle_gamma   89.96011926
_symmetry_Int_Tables_number   1
_chemical_formula_structural   Ca4ErIn(RuO6)2
_chemical_formula_sum   'Ca4 Er1 In1 Ru2 O12'
_cell_volume   255.45220010
_cell_formula_units_Z   1
loop_
 _symmetry_equiv_pos_site_id
 _symmetry_equiv_pos_as_xyz
  1  'x, y, z'
loop_
 _atom_site_type_symbol
 _atom_site_label
 _atom_site_symmetry_multiplicity
 _atom_site_fract_x
 _atom_site_fract_y
 _atom_site_fract_z
 _atom_site_occupancy
  Ca  Ca0  1  0.441201  0.259185  0.755241  1
  Ca  Ca1  1  0.558799  0.740815  0.244759  1
  Ca  Ca2  1  0.056454  0.267400  0.248992  1
  Ca  Ca3  1  0.943546  0.732600  0.751008  1
  Er  Er4  1  0.500000  0.000000  0.500000  1
  In  In5  1  0.000000  0.000000  0.000000  1
  Ru  Ru6  1  0.000000  0.500000  0.500000  1
  Ru  Ru7  1  0.500000  0.500000  0.000000  1
  O  O8  1  0.956536  0.846903  0.262533  1
  O  O9  1  0.285539  0.379948  0.439891  1
  O  O10  1  0.311647  0.738044  0.053181  1
  O  O11  1  0.213544  0.379154  0.938341  1
  O  O12  1  0.043464  0.153097  0.737467  1
  O  O13  1  0.541764  0.840488  0.765813  1
  O  O14  1  0.185469  0.736491  0.552156  1
  O  O15  1  0.814531  0.263509  0.447844  1
  O  O16  1  0.786456  0.620846  0.061659  1
  O  O17  1  0.714461  0.620052  0.560109  1
  O  O18  1  0.688353  0.261956  0.946819  1
  O  O19  1  0.458236  0.159512  0.234187  1
