# generated using pymatgen
data_Nd8Si12AgPt3
_symmetry_space_group_name_H-M   'P 1'
_cell_length_a   8.26623400
_cell_length_b   8.26623295
_cell_length_c   8.60016200
_cell_angle_alpha   90.00000000
_cell_angle_beta   90.00000000
_cell_angle_gamma   119.99999621
_symmetry_Int_Tables_number   1
_chemical_formula_structural   Nd8Si12AgPt3
_chemical_formula_sum   'Nd8 Si12 Ag1 Pt3'
_cell_volume   508.92362890
_cell_formula_units_Z   1
loop_
 _symmetry_equiv_pos_site_id
 _symmetry_equiv_pos_as_xyz
  1  'x, y, z'
loop_
 _atom_site_type_symbol
 _atom_site_label
 _atom_site_symmetry_multiplicity
 _atom_site_fract_x
 _atom_site_fract_y
 _atom_site_fract_z
 _atom_site_occupancy
  Nd  Nd0  1  0.000000  0.000000  0.749202  1
  Nd  Nd1  1  0.000000  0.000000  0.251105  1
  Nd  Nd2  1  0.497535  0.502465  0.747464  1
  Nd  Nd3  1  0.497535  0.995073  0.747464  1
  Nd  Nd4  1  0.004927  0.502465  0.747464  1
  Nd  Nd5  1  0.498719  0.501281  0.252348  1
  Nd  Nd6  1  0.002563  0.501281  0.252348  1
  Nd  Nd7  1  0.498719  0.997437  0.252348  1
  Si  Si8  1  0.838019  0.161981  0.000117  1
  Si  Si9  1  0.838019  0.676038  0.000117  1
  Si  Si10  1  0.323962  0.161981  0.000117  1
  Si  Si11  1  0.833761  0.166239  0.500537  1
  Si  Si12  1  0.833761  0.667522  0.500537  1
  Si  Si13  1  0.332478  0.166239  0.500537  1
  Si  Si14  1  0.165763  0.834237  0.499606  1
  Si  Si15  1  0.668475  0.834237  0.499606  1
  Si  Si16  1  0.165763  0.331525  0.499606  1
  Si  Si17  1  0.166951  0.833049  0.000253  1
  Si  Si18  1  0.666097  0.833049  0.000253  1
  Si  Si19  1  0.166951  0.333903  0.000253  1
  Ag  Ag20  1  0.666667  0.333333  0.997198  1
  Pt  Pt21  1  0.666667  0.333333  0.501684  1
  Pt  Pt22  1  0.333333  0.666667  0.498533  1
  Pt  Pt23  1  0.333333  0.666667  0.001303  1
