# generated using pymatgen
data_Nd6CoAs12Rh17
_symmetry_space_group_name_H-M   'P 1'
_cell_length_a   4.03321200
_cell_length_b   11.60357800
_cell_length_c   13.43013600
_cell_angle_alpha   90.00000000
_cell_angle_beta   90.00000000
_cell_angle_gamma   90.00000000
_symmetry_Int_Tables_number   1
_chemical_formula_structural   Nd6CoAs12Rh17
_chemical_formula_sum   'Nd6 Co1 As12 Rh17'
_cell_volume   628.52620189
_cell_formula_units_Z   1
loop_
 _symmetry_equiv_pos_site_id
 _symmetry_equiv_pos_as_xyz
  1  'x, y, z'
loop_
 _atom_site_type_symbol
 _atom_site_label
 _atom_site_symmetry_multiplicity
 _atom_site_fract_x
 _atom_site_fract_y
 _atom_site_fract_z
 _atom_site_occupancy
  Nd  Nd0  1  0.000000  0.500000  0.520070  1
  Nd  Nd1  1  0.500000  0.000000  0.478536  1
  Nd  Nd2  1  0.500000  0.816492  0.203855  1
  Nd  Nd3  1  0.500000  0.183508  0.203855  1
  Nd  Nd4  1  0.000000  0.689283  0.797027  1
  Nd  Nd5  1  0.000000  0.310717  0.797027  1
  Co  Co6  1  0.500000  0.000000  0.021841  1
  As  As7  1  0.500000  0.500000  0.879759  1
  As  As8  1  0.000000  0.000000  0.118707  1
  As  As9  1  0.500000  0.500000  0.347870  1
  As  As10  1  0.000000  0.000000  0.649597  1
  As  As11  1  0.500000  0.314516  0.618010  1
  As  As12  1  0.500000  0.685484  0.618010  1
  As  As13  1  0.000000  0.185558  0.382175  1
  As  As14  1  0.000000  0.814442  0.382175  1
  As  As15  1  0.500000  0.857482  0.895098  1
  As  As16  1  0.500000  0.142518  0.895098  1
  As  As17  1  0.000000  0.652743  0.107597  1
  As  As18  1  0.000000  0.347257  0.107597  1
  Rh  Rh19  1  0.500000  0.500000  0.165337  1
  Rh  Rh20  1  0.000000  0.000000  0.831189  1
  Rh  Rh21  1  0.500000  0.500000  0.702003  1
  Rh  Rh22  1  0.000000  0.000000  0.297977  1
  Rh  Rh23  1  0.000000  0.500000  0.981346  1
  Rh  Rh24  1  0.500000  0.331627  0.995043  1
  Rh  Rh25  1  0.500000  0.668373  0.995043  1
  Rh  Rh26  1  0.000000  0.161380  0.004145  1
  Rh  Rh27  1  0.000000  0.838620  0.004145  1
  Rh  Rh28  1  0.500000  0.294961  0.430978  1
  Rh  Rh29  1  0.500000  0.705039  0.430978  1
  Rh  Rh30  1  0.000000  0.204758  0.569078  1
  Rh  Rh31  1  0.000000  0.795242  0.569078  1
  Rh  Rh32  1  0.500000  0.876478  0.708782  1
  Rh  Rh33  1  0.500000  0.123522  0.708782  1
  Rh  Rh34  1  0.000000  0.624429  0.291098  1
  Rh  Rh35  1  0.000000  0.375571  0.291098  1
