# generated using pymatgen
data_Cs12K5Rb(GaAs4)2
_symmetry_space_group_name_H-M   'P 1'
_cell_length_a   10.58298300
_cell_length_b   10.69062083
_cell_length_c   11.25914100
_cell_angle_alpha   90.00000000
_cell_angle_beta   90.00000000
_cell_angle_gamma   119.66749091
_symmetry_Int_Tables_number   1
_chemical_formula_structural   Cs12K5Rb(GaAs4)2
_chemical_formula_sum   'Cs12 K5 Rb1 Ga2 As8'
_cell_volume   1106.85906048
_cell_formula_units_Z   1
loop_
 _symmetry_equiv_pos_site_id
 _symmetry_equiv_pos_as_xyz
  1  'x, y, z'
loop_
 _atom_site_type_symbol
 _atom_site_label
 _atom_site_symmetry_multiplicity
 _atom_site_fract_x
 _atom_site_fract_y
 _atom_site_fract_z
 _atom_site_occupancy
  Cs  Cs0  1  0.209059  0.418117  0.548309  1
  Cs  Cs1  1  0.790696  0.207437  0.044482  1
  Cs  Cs2  1  0.416740  0.207437  0.044482  1
  Cs  Cs3  1  0.584140  0.792303  0.545927  1
  Cs  Cs4  1  0.208165  0.792303  0.545927  1
  Cs  Cs5  1  0.791701  0.583404  0.454148  1
  Cs  Cs6  1  0.790696  0.207437  0.455518  1
  Cs  Cs7  1  0.791701  0.583404  0.045852  1
  Cs  Cs8  1  0.416740  0.207437  0.455518  1
  Cs  Cs9  1  0.584140  0.792303  0.954073  1
  Cs  Cs10  1  0.209059  0.418117  0.951691  1
  Cs  Cs11  1  0.208165  0.792303  0.954073  1
  K  K12  1  0.877908  0.121215  0.750000  1
  K  K13  1  0.243307  0.121215  0.750000  1
  K  K14  1  0.754802  0.876968  0.250000  1
  K  K15  1  0.122167  0.876968  0.250000  1
  K  K16  1  0.877421  0.754842  0.750000  1
  Rb  Rb17  1  0.120413  0.240825  0.250000  1
  Ga  Ga18  1  0.334137  0.668275  0.250000  1
  Ga  Ga19  1  0.666584  0.333167  0.750000  1
  As  As20  1  0.474701  0.536756  0.250000  1
  As  As21  1  0.938305  0.467542  0.750000  1
  As  As22  1  0.531934  0.063869  0.750000  1
  As  As23  1  0.469079  0.938158  0.250000  1
  As  As24  1  0.062056  0.536756  0.250000  1
  As  As25  1  0.529236  0.467542  0.750000  1
  As  As26  1  0.998475  0.996949  0.996151  1
  As  As27  1  0.998475  0.996949  0.503849  1
