# generated using pymatgen
data_Pr7Cd(IO6)4
_symmetry_space_group_name_H-M   'P 1'
_cell_length_a   5.60734791
_cell_length_b   7.89000722
_cell_length_c   11.84387300
_cell_angle_alpha   76.49260346
_cell_angle_beta   89.51861499
_cell_angle_gamma   89.72957304
_symmetry_Int_Tables_number   1
_chemical_formula_structural   Pr7Cd(IO6)4
_chemical_formula_sum   'Pr7 Cd1 I4 O24'
_cell_volume   509.48291183
_cell_formula_units_Z   1
loop_
 _symmetry_equiv_pos_site_id
 _symmetry_equiv_pos_as_xyz
  1  'x, y, z'
loop_
 _atom_site_type_symbol
 _atom_site_label
 _atom_site_symmetry_multiplicity
 _atom_site_fract_x
 _atom_site_fract_y
 _atom_site_fract_z
 _atom_site_occupancy
  Pr  Pr0  1  0.746903  0.984431  0.741366  1
  Pr  Pr1  1  0.254699  0.018232  0.258071  1
  Pr  Pr2  1  0.810156  0.803678  0.073302  1
  Pr  Pr3  1  0.691668  0.496805  0.748918  1
  Pr  Pr4  1  0.313174  0.506147  0.252510  1
  Pr  Pr5  1  0.188533  0.199101  0.928496  1
  Pr  Pr6  1  0.815778  0.225968  0.419996  1
  Cd  Cd7  1  0.201927  0.764449  0.584131  1
  I  I8  1  0.253052  0.720723  0.882503  1
  I  I9  1  0.739043  0.737235  0.387742  1
  I  I10  1  0.257062  0.263337  0.616926  1
  I  I11  1  0.739671  0.289653  0.108747  1
  O  O12  1  0.027778  0.938929  0.891005  1
  O  O13  1  0.516408  0.854014  0.928687  1
  O  O14  1  0.899953  0.949942  0.382927  1
  O  O15  1  0.457889  0.774931  0.728723  1
  O  O16  1  0.461334  0.836143  0.438793  1
  O  O17  1  0.977089  0.703728  0.769698  1
  O  O18  1  0.568227  0.804812  0.239553  1
  O  O19  1  0.856889  0.655012  0.539212  1
  O  O20  1  0.363990  0.490863  0.887562  1
  O  O21  1  0.006160  0.702294  0.290303  1
  O  O22  1  0.373062  0.482152  0.622111  1
  O  O23  1  0.829716  0.351774  0.939859  1
  O  O24  1  0.142461  0.635110  0.043636  1
  O  O25  1  0.626607  0.512499  0.391532  1
  O  O26  1  0.983479  0.287417  0.713011  1
  O  O27  1  0.615711  0.515875  0.099422  1
  O  O28  1  0.155137  0.367946  0.467269  1
  O  O29  1  0.425641  0.183607  0.763991  1
  O  O30  1  0.053280  0.289013  0.252952  1
  O  O31  1  0.528849  0.163326  0.564939  1
  O  O32  1  0.545892  0.236390  0.268502  1
  O  O33  1  0.080250  0.057488  0.600241  1
  O  O34  1  0.486966  0.152657  0.071273  1
  O  O35  1  0.005567  0.044320  0.102089  1
