# generated using pymatgen
data_Zr6Ti4Al12Os3Pd3Pt
_symmetry_space_group_name_H-M   'P 1'
_cell_length_a   8.81090840
_cell_length_b   8.81460941
_cell_length_c   8.84418000
_cell_angle_alpha   59.87936846
_cell_angle_beta   59.87424670
_cell_angle_gamma   60.24900887
_symmetry_Int_Tables_number   1
_chemical_formula_structural   Zr6Ti4Al12Os3Pd3Pt
_chemical_formula_sum   'Zr6 Ti4 Al12 Os3 Pd3 Pt1'
_cell_volume   485.69395265
_cell_formula_units_Z   1
loop_
 _symmetry_equiv_pos_site_id
 _symmetry_equiv_pos_as_xyz
  1  'x, y, z'
loop_
 _atom_site_type_symbol
 _atom_site_label
 _atom_site_symmetry_multiplicity
 _atom_site_fract_x
 _atom_site_fract_y
 _atom_site_fract_z
 _atom_site_occupancy
  Zr  Zr0  1  0.676913  0.670825  0.324530  1
  Zr  Zr1  1  0.304354  0.695335  0.303656  1
  Zr  Zr2  1  0.700368  0.304342  0.298454  1
  Zr  Zr3  1  0.324525  0.327586  0.676977  1
  Zr  Zr4  1  0.695884  0.303916  0.697073  1
  Zr  Zr5  1  0.299224  0.695742  0.701588  1
  Ti  Ti6  1  0.883681  0.869602  0.361021  1
  Ti  Ti7  1  0.888681  0.364032  0.873717  1
  Ti  Ti8  1  0.361661  0.884167  0.884021  1
  Ti  Ti9  1  0.873260  0.872842  0.890384  1
  Al  Al10  1  0.118313  0.126327  0.638582  1
  Al  Al11  1  0.115278  0.636080  0.123484  1
  Al  Al12  1  0.638093  0.117133  0.118301  1
  Al  Al13  1  0.123407  0.124953  0.114828  1
  Al  Al14  1  0.662516  0.661594  0.011163  1
  Al  Al15  1  0.665716  0.013231  0.659198  1
  Al  Al16  1  0.010624  0.666473  0.662001  1
  Al  Al17  1  0.659792  0.662495  0.663943  1
  Al  Al18  1  0.335760  0.335193  0.992222  1
  Al  Al19  1  0.337687  0.986824  0.336004  1
  Al  Al20  1  0.991822  0.336560  0.336089  1
  Al  Al21  1  0.335625  0.339086  0.338206  1
  Os  Os22  1  0.996167  0.505605  0.501520  1
  Os  Os23  1  0.996886  0.503339  0.996885  1
  Os  Os24  1  0.502216  0.996694  0.996090  1
  Pd  Pd25  1  0.000403  0.999449  0.000424  1
  Pd  Pd26  1  0.000242  0.999571  0.500065  1
  Pd  Pd27  1  0.500187  0.999784  0.500190  1
  Pt  Pt28  1  0.500713  0.501217  0.999388  1
