# generated using pymatgen
data_Pr4Nd2(PtRh5)3
_symmetry_space_group_name_H-M   'P 1'
_cell_length_a   5.38794105
_cell_length_b   5.38926840
_cell_length_c   17.74906000
_cell_angle_alpha   89.99830427
_cell_angle_beta   90.00036144
_cell_angle_gamma   119.99098981
_symmetry_Int_Tables_number   1
_chemical_formula_structural   Pr4Nd2(PtRh5)3
_chemical_formula_sum   'Pr4 Nd2 Pt3 Rh15'
_cell_volume   446.37314730
_cell_formula_units_Z   1
loop_
 _symmetry_equiv_pos_site_id
 _symmetry_equiv_pos_as_xyz
  1  'x, y, z'
loop_
 _atom_site_type_symbol
 _atom_site_label
 _atom_site_symmetry_multiplicity
 _atom_site_fract_x
 _atom_site_fract_y
 _atom_site_fract_z
 _atom_site_occupancy
  Pr  Pr0  1  0.333351  0.666675  0.543142  1
  Pr  Pr1  1  0.666667  0.333328  0.043880  1
  Pr  Pr2  1  0.333331  0.666669  0.750048  1
  Pr  Pr3  1  0.666664  0.333340  0.250046  1
  Nd  Nd4  1  0.666675  0.333326  0.455921  1
  Nd  Nd5  1  0.333339  0.666675  0.956659  1
  Pt  Pt6  1  0.000039  0.000038  0.249996  1
  Pt  Pt7  1  0.000005  0.000008  0.999642  1
  Pt  Pt8  1  0.000028  0.999993  0.500174  1
  Rh  Rh9  1  0.167938  0.335888  0.127409  1
  Rh  Rh10  1  0.832635  0.665283  0.628062  1
  Rh  Rh11  1  0.664103  0.832044  0.127398  1
  Rh  Rh12  1  0.167944  0.832030  0.127385  1
  Rh  Rh13  1  0.832629  0.167376  0.628046  1
  Rh  Rh14  1  0.334712  0.167363  0.628063  1
  Rh  Rh15  1  0.832665  0.665349  0.872016  1
  Rh  Rh16  1  0.832666  0.167340  0.872026  1
  Rh  Rh17  1  0.334665  0.167338  0.872022  1
  Rh  Rh18  1  0.664145  0.832063  0.372676  1
  Rh  Rh19  1  0.167914  0.832060  0.372681  1
  Rh  Rh20  1  0.167917  0.335834  0.372666  1
  Rh  Rh21  1  0.000011  0.000015  0.749999  1
  Rh  Rh22  1  0.333306  0.666645  0.250022  1
  Rh  Rh23  1  0.666649  0.333322  0.750018  1
