# generated using pymatgen
data_Dy5AlIrO12
_symmetry_space_group_name_H-M   'P 1'
_cell_length_a   6.80751915
_cell_length_b   6.80751977
_cell_length_c   7.26858000
_cell_angle_alpha   74.48273639
_cell_angle_beta   74.48272620
_cell_angle_gamma   50.59197910
_symmetry_Int_Tables_number   1
_chemical_formula_structural   Dy5AlIrO12
_chemical_formula_sum   'Dy5 Al1 Ir1 O12'
_cell_volume   248.60497265
_cell_formula_units_Z   1
loop_
 _symmetry_equiv_pos_site_id
 _symmetry_equiv_pos_as_xyz
  1  'x, y, z'
loop_
 _atom_site_type_symbol
 _atom_site_label
 _atom_site_symmetry_multiplicity
 _atom_site_fract_x
 _atom_site_fract_y
 _atom_site_fract_z
 _atom_site_occupancy
  Dy  Dy0  1  0.694425  0.691384  0.667537  1
  Dy  Dy1  1  0.685514  0.708935  0.140930  1
  Dy  Dy2  1  0.996488  0.003512  0.000000  1
  Dy  Dy3  1  0.291065  0.314486  0.859070  1
  Dy  Dy4  1  0.308616  0.305575  0.332463  1
  Al  Al5  1  0.251448  0.748552  0.500000  1
  Ir  Ir6  1  0.761708  0.238292  0.500000  1
  O  O7  1  0.399240  0.908808  0.923129  1
  O  O8  1  0.577006  0.095540  0.583254  1
  O  O9  1  0.904460  0.422994  0.416746  1
  O  O10  1  0.091192  0.600760  0.076871  1
  O  O11  1  0.007782  0.992214  0.320544  1
  O  O12  1  0.504039  0.496413  0.681099  1
  O  O13  1  0.897473  0.405067  0.927240  1
  O  O14  1  0.101807  0.578568  0.580458  1
  O  O15  1  0.421432  0.898193  0.419542  1
  O  O16  1  0.594933  0.102527  0.072760  1
  O  O17  1  0.503587  0.495961  0.318901  1
  O  O18  1  0.007786  0.992218  0.679456  1
