# generated using pymatgen
data_Ca3SmRuRh3O14
_symmetry_space_group_name_H-M   'P 1'
_cell_length_a   7.24934131
_cell_length_b   7.24933971
_cell_length_c   7.32491521
_cell_angle_alpha   60.34071351
_cell_angle_beta   60.34071833
_cell_angle_gamma   60.00000462
_symmetry_Int_Tables_number   1
_chemical_formula_structural   Ca3SmRuRh3O14
_chemical_formula_sum   'Ca3 Sm1 Ru1 Rh3 O14'
_cell_volume   273.59118900
_cell_formula_units_Z   1
loop_
 _symmetry_equiv_pos_site_id
 _symmetry_equiv_pos_as_xyz
  1  'x, y, z'
loop_
 _atom_site_type_symbol
 _atom_site_label
 _atom_site_symmetry_multiplicity
 _atom_site_fract_x
 _atom_site_fract_y
 _atom_site_fract_z
 _atom_site_occupancy
  Ca  Ca0  1  0.625000  0.125000  0.625000  1
  Ca  Ca1  1  0.125000  0.625000  0.625000  1
  Ca  Ca2  1  0.625000  0.625000  0.625000  1
  Sm  Sm3  1  0.625000  0.625000  0.125000  1
  Ru  Ru4  1  0.125000  0.125000  0.625000  1
  Rh  Rh5  1  0.625000  0.125000  0.125000  1
  Rh  Rh6  1  0.125000  0.625000  0.125000  1
  Rh  Rh7  1  0.125000  0.125000  0.125000  1
  O  O8  1  0.194981  0.194981  0.802076  1
  O  O9  1  0.203680  0.795515  0.205289  1
  O  O10  1  0.454485  0.046320  0.044711  1
  O  O11  1  0.194981  0.807962  0.802076  1
  O  O12  1  0.055019  0.442038  0.447924  1
  O  O13  1  0.795515  0.795515  0.205289  1
  O  O14  1  0.454485  0.454485  0.044711  1
  O  O15  1  0.500594  0.500594  0.498218  1
  O  O16  1  0.055019  0.055019  0.447924  1
  O  O17  1  0.442038  0.055019  0.447924  1
  O  O18  1  0.046320  0.454485  0.044711  1
  O  O19  1  0.749406  0.749406  0.751782  1
  O  O20  1  0.807962  0.194981  0.802076  1
  O  O21  1  0.795515  0.203680  0.205289  1
