# generated using pymatgen
data_Sr4MnFe(MoO6)2
_symmetry_space_group_name_H-M   'P 1'
_cell_length_a   5.71126693
_cell_length_b   5.72591648
_cell_length_c   8.00266455
_cell_angle_alpha   90.04147085
_cell_angle_beta   89.99799984
_cell_angle_gamma   90.01469929
_symmetry_Int_Tables_number   1
_chemical_formula_structural   Sr4MnFe(MoO6)2
_chemical_formula_sum   'Sr4 Mn1 Fe1 Mo2 O12'
_cell_volume   261.70495905
_cell_formula_units_Z   1
loop_
 _symmetry_equiv_pos_site_id
 _symmetry_equiv_pos_as_xyz
  1  'x, y, z'
loop_
 _atom_site_type_symbol
 _atom_site_label
 _atom_site_symmetry_multiplicity
 _atom_site_fract_x
 _atom_site_fract_y
 _atom_site_fract_z
 _atom_site_occupancy
  Sr  Sr0  1  0.504519  0.525602  0.242989  1
  Sr  Sr1  1  0.993391  0.024645  0.243450  1
  Sr  Sr2  1  0.006608  0.975355  0.756551  1
  Sr  Sr3  1  0.495480  0.474399  0.757012  1
  Mn  Mn4  1  0.000001  0.500001  0.500001  1
  Fe  Fe5  1  0.500001  0.000000  0.000000  1
  Mo  Mo6  1  0.000000  0.500001  0.000000  1
  Mo  Mo7  1  0.499999  0.000000  0.500000  1
  O  O8  1  0.723522  0.273609  0.030430  1
  O  O9  1  0.773315  0.776344  0.031563  1
  O  O10  1  0.058088  0.491068  0.236361  1
  O  O11  1  0.438659  0.988893  0.257155  1
  O  O12  1  0.700229  0.269925  0.467245  1
  O  O13  1  0.768422  0.797452  0.468084  1
  O  O14  1  0.231577  0.202548  0.531916  1
  O  O15  1  0.299770  0.730074  0.532755  1
  O  O16  1  0.561340  0.011106  0.742845  1
  O  O17  1  0.941910  0.508932  0.763639  1
  O  O18  1  0.226684  0.223656  0.968437  1
  O  O19  1  0.276477  0.726391  0.969570  1
