# generated using pymatgen
data_Sr4YbEuTa2O12
_symmetry_space_group_name_H-M   'P 1'
_cell_length_a   6.00067936
_cell_length_b   5.87351020
_cell_length_c   10.20108731
_cell_angle_alpha   55.03521564
_cell_angle_beta   90.02247346
_cell_angle_gamma   89.93026056
_symmetry_Int_Tables_number   1
_chemical_formula_structural   Sr4YbEuTa2O12
_chemical_formula_sum   'Sr4 Yb1 Eu1 Ta2 O12'
_cell_volume   294.64237806
_cell_formula_units_Z   1
loop_
 _symmetry_equiv_pos_site_id
 _symmetry_equiv_pos_as_xyz
  1  'x, y, z'
loop_
 _atom_site_type_symbol
 _atom_site_label
 _atom_site_symmetry_multiplicity
 _atom_site_fract_x
 _atom_site_fract_y
 _atom_site_fract_z
 _atom_site_occupancy
  Sr  Sr0  1  0.453043  0.249925  0.762478  1
  Sr  Sr1  1  0.960835  0.730513  0.760305  1
  Sr  Sr2  1  0.039165  0.269487  0.239695  1
  Sr  Sr3  1  0.546957  0.750075  0.237522  1
  Yb  Yb4  1  0.000000  0.000000  0.000000  1
  Eu  Eu5  1  0.500000  0.000000  0.500000  1
  Ta  Ta6  1  0.500000  0.500000  0.000000  1
  Ta  Ta7  1  0.000000  0.500000  0.500000  1
  O  O8  1  0.724118  0.638093  0.552289  1
  O  O9  1  0.229182  0.357829  0.953004  1
  O  O10  1  0.275882  0.361907  0.447711  1
  O  O11  1  0.770818  0.642171  0.046996  1
  O  O12  1  0.192667  0.729076  0.545943  1
  O  O13  1  0.692173  0.269319  0.958926  1
  O  O14  1  0.807333  0.270924  0.454057  1
  O  O15  1  0.307827  0.730681  0.041074  1
  O  O16  1  0.029387  0.183928  0.728965  1
  O  O17  1  0.530173  0.823732  0.764544  1
  O  O18  1  0.970613  0.816072  0.271035  1
  O  O19  1  0.469827  0.176268  0.235456  1
