# generated using pymatgen
data_Pr3DyGa18Ir5Pt
_symmetry_space_group_name_H-M   'P 1'
_cell_length_a   7.67299970
_cell_length_b   7.67885008
_cell_length_c   9.59709305
_cell_angle_alpha   90.02422424
_cell_angle_beta   90.04388363
_cell_angle_gamma   119.76587380
_symmetry_Int_Tables_number   1
_chemical_formula_structural   Pr3DyGa18Ir5Pt
_chemical_formula_sum   'Pr3 Dy1 Ga18 Ir5 Pt1'
_cell_volume   490.85267161
_cell_formula_units_Z   1
loop_
 _symmetry_equiv_pos_site_id
 _symmetry_equiv_pos_as_xyz
  1  'x, y, z'
loop_
 _atom_site_type_symbol
 _atom_site_label
 _atom_site_symmetry_multiplicity
 _atom_site_fract_x
 _atom_site_fract_y
 _atom_site_fract_z
 _atom_site_occupancy
  Pr  Pr0  1  0.996591  0.669497  0.250509  1
  Pr  Pr1  1  0.002830  0.330295  0.749589  1
  Pr  Pr2  1  0.669372  0.996649  0.250408  1
  Dy  Dy3  1  0.330482  0.002820  0.749112  1
  Ga  Ga4  1  0.131908  0.131182  0.252121  1
  Ga  Ga5  1  0.871176  0.869511  0.748163  1
  Ga  Ga6  1  0.001957  0.337854  0.079412  1
  Ga  Ga7  1  0.001234  0.665350  0.917916  1
  Ga  Ga8  1  0.001615  0.668277  0.579942  1
  Ga  Ga9  1  0.334604  0.001137  0.425079  1
  Ga  Ga10  1  0.001561  0.334682  0.422694  1
  Ga  Ga11  1  0.662667  0.998757  0.579920  1
  Ga  Ga12  1  0.659102  0.998489  0.917694  1
  Ga  Ga13  1  0.337563  0.001397  0.077059  1
  Ga  Ga14  1  0.333858  0.331478  0.562897  1
  Ga  Ga15  1  0.666126  0.666204  0.440827  1
  Ga  Ga16  1  0.661749  0.661788  0.061901  1
  Ga  Ga17  1  0.337869  0.335521  0.934583  1
  Ga  Ga18  1  0.338340  0.544549  0.250396  1
  Ga  Ga19  1  0.659286  0.452730  0.749606  1
  Ga  Ga20  1  0.543884  0.337537  0.250335  1
  Ga  Ga21  1  0.455380  0.663327  0.749701  1
  Ir  Ir22  1  0.670845  0.328931  0.999057  1
  Ir  Ir23  1  0.328958  0.670926  0.999124  1
  Ir  Ir24  1  0.329089  0.670814  0.500880  1
  Ir  Ir25  1  0.670735  0.329186  0.500926  1
  Ir  Ir26  1  0.000654  0.000527  0.501173  1
  Pt  Pt27  1  0.000566  0.000588  0.998978  1
