# generated using pymatgen
data_Li22AgPd3
_symmetry_space_group_name_H-M   'P 1'
_cell_length_a   8.37770842
_cell_length_b   8.29648450
_cell_length_c   8.37770991
_cell_angle_alpha   109.27495319
_cell_angle_beta   109.66678363
_cell_angle_gamma   109.27492928
_symmetry_Int_Tables_number   1
_chemical_formula_structural   Li22AgPd3
_chemical_formula_sum   'Li22 Ag1 Pd3'
_cell_volume   449.33377662
_cell_formula_units_Z   1
loop_
 _symmetry_equiv_pos_site_id
 _symmetry_equiv_pos_as_xyz
  1  'x, y, z'
loop_
 _atom_site_type_symbol
 _atom_site_label
 _atom_site_symmetry_multiplicity
 _atom_site_fract_x
 _atom_site_fract_y
 _atom_site_fract_z
 _atom_site_occupancy
  Li  Li0  1  0.000000  0.793121  0.000000  1
  Li  Li1  1  0.797780  0.993572  0.000000  1
  Li  Li2  1  0.000000  0.993572  0.797780  1
  Li  Li3  1  0.202220  0.195791  0.202220  1
  Li  Li4  1  0.358594  0.605417  0.358594  1
  Li  Li5  1  0.253087  0.004819  0.648599  1
  Li  Li6  1  0.648599  0.004819  0.253087  1
  Li  Li7  1  0.266623  0.657178  0.000000  1
  Li  Li8  1  0.746913  0.751733  0.395512  1
  Li  Li9  1  0.395512  0.751733  0.746913  1
  Li  Li10  1  0.000000  0.657178  0.266623  1
  Li  Li11  1  0.000000  0.246824  0.641406  1
  Li  Li12  1  0.641406  0.246824  0.000000  1
  Li  Li13  1  0.351401  0.356220  0.604488  1
  Li  Li14  1  0.604488  0.356220  0.351401  1
  Li  Li15  1  0.733377  0.390553  0.733377  1
  Li  Li16  1  0.350461  0.343277  0.000000  1
  Li  Li17  1  0.000000  0.652890  0.655775  1
  Li  Li18  1  0.000000  0.343277  0.350461  1
  Li  Li19  1  0.344225  0.997115  0.344225  1
  Li  Li20  1  0.649539  0.992815  0.649539  1
  Li  Li21  1  0.655775  0.652890  0.000000  1
  Ag  Ag22  1  0.000000  0.345108  0.000000  1
  Pd  Pd23  1  0.337216  0.001424  0.000000  1
  Pd  Pd24  1  0.000000  0.001424  0.337216  1
  Pd  Pd25  1  0.662784  0.664208  0.662784  1
