# generated using pymatgen
data_Ho20Co3Bi8Os
_symmetry_space_group_name_H-M   'P 1'
_cell_length_a   7.97530305
_cell_length_b   8.91423600
_cell_length_c   12.40899051
_cell_angle_alpha   90.00000000
_cell_angle_beta   89.74980825
_cell_angle_gamma   90.00000000
_symmetry_Int_Tables_number   1
_chemical_formula_structural   Ho20Co3Bi8Os
_chemical_formula_sum   'Ho20 Co3 Bi8 Os1'
_cell_volume   882.19305444
_cell_formula_units_Z   1
loop_
 _symmetry_equiv_pos_site_id
 _symmetry_equiv_pos_as_xyz
  1  'x, y, z'
loop_
 _atom_site_type_symbol
 _atom_site_label
 _atom_site_symmetry_multiplicity
 _atom_site_fract_x
 _atom_site_fract_y
 _atom_site_fract_z
 _atom_site_occupancy
  Ho  Ho0  1  0.345828  0.750000  0.700279  1
  Ho  Ho1  1  0.653585  0.250000  0.300942  1
  Ho  Ho2  1  0.846976  0.250000  0.800244  1
  Ho  Ho3  1  0.155232  0.750000  0.205724  1
  Ho  Ho4  1  0.881316  0.750000  0.806009  1
  Ho  Ho5  1  0.114139  0.250000  0.189036  1
  Ho  Ho6  1  0.385549  0.250000  0.688179  1
  Ho  Ho7  1  0.614308  0.750000  0.312689  1
  Ho  Ho8  1  0.674758  0.537331  0.562896  1
  Ho  Ho9  1  0.324834  0.461400  0.437080  1
  Ho  Ho10  1  0.175947  0.457669  0.935801  1
  Ho  Ho11  1  0.324834  0.038600  0.437080  1
  Ho  Ho12  1  0.824545  0.537210  0.063599  1
  Ho  Ho13  1  0.674758  0.962669  0.562896  1
  Ho  Ho14  1  0.824545  0.962790  0.063599  1
  Ho  Ho15  1  0.175947  0.042331  0.935801  1
  Ho  Ho16  1  0.053174  0.750000  0.498006  1
  Ho  Ho17  1  0.946888  0.250000  0.502336  1
  Ho  Ho18  1  0.554713  0.250000  0.002561  1
  Ho  Ho19  1  0.444423  0.750000  0.997083  1
  Co  Co20  1  0.931045  0.250000  0.008853  1
  Co  Co21  1  0.565436  0.250000  0.507956  1
  Co  Co22  1  0.433683  0.750000  0.492254  1
  Bi  Bi23  1  0.571590  0.508932  0.826323  1
  Bi  Bi24  1  0.429491  0.490421  0.173404  1
  Bi  Bi25  1  0.071759  0.490228  0.672429  1
  Bi  Bi26  1  0.429491  0.009579  0.173404  1
  Bi  Bi27  1  0.928032  0.509061  0.327276  1
  Bi  Bi28  1  0.571590  0.991068  0.826323  1
  Bi  Bi29  1  0.928032  0.990939  0.327276  1
  Bi  Bi30  1  0.071759  0.009772  0.672429  1
  Os  Os31  1  0.071793  0.750000  0.990233  1
