# generated using pymatgen
data_Tb3Lu5(BCl6)2
_symmetry_space_group_name_H-M   'P 1'
_cell_length_a   3.80127400
_cell_length_b   12.47952137
_cell_length_c   12.94296095
_cell_angle_alpha   90.29161414
_cell_angle_beta   90.00000000
_cell_angle_gamma   90.00000000
_symmetry_Int_Tables_number   1
_chemical_formula_structural   Tb3Lu5(BCl6)2
_chemical_formula_sum   'Tb3 Lu5 B2 Cl12'
_cell_volume   613.98126604
_cell_formula_units_Z   1
loop_
 _symmetry_equiv_pos_site_id
 _symmetry_equiv_pos_as_xyz
  1  'x, y, z'
loop_
 _atom_site_type_symbol
 _atom_site_label
 _atom_site_symmetry_multiplicity
 _atom_site_fract_x
 _atom_site_fract_y
 _atom_site_fract_z
 _atom_site_occupancy
  Tb  Tb0  1  0.500000  0.127946  0.849729  1
  Tb  Tb1  1  0.500000  0.872218  0.150407  1
  Tb  Tb2  1  0.500000  0.627556  0.649899  1
  Lu  Lu3  1  0.000000  0.104366  0.082688  1
  Lu  Lu4  1  0.000000  0.896575  0.918109  1
  Lu  Lu5  1  0.000000  0.603281  0.417774  1
  Lu  Lu6  1  0.000000  0.396120  0.581497  1
  Lu  Lu7  1  0.500000  0.373760  0.351596  1
  B  B8  1  0.500000  0.000445  0.000346  1
  B  B9  1  0.500000  0.498197  0.497839  1
  Cl  Cl10  1  0.500000  0.271723  0.677586  1
  Cl  Cl11  1  0.500000  0.727443  0.321409  1
  Cl  Cl12  1  0.500000  0.771475  0.821309  1
  Cl  Cl13  1  0.500000  0.231852  0.183078  1
  Cl  Cl14  1  0.000000  0.260825  0.934995  1
  Cl  Cl15  1  0.000000  0.739103  0.065277  1
  Cl  Cl16  1  0.000000  0.476648  0.244563  1
  Cl  Cl17  1  0.000000  0.515457  0.758729  1
  Cl  Cl18  1  0.000000  0.984432  0.259586  1
  Cl  Cl19  1  0.000000  0.015623  0.740474  1
  Cl  Cl20  1  0.000000  0.244784  0.428189  1
  Cl  Cl21  1  0.000000  0.760171  0.564921  1
