# generated using pymatgen
data_Rb3Ga13
_symmetry_space_group_name_H-M   'P 1'
_cell_length_a   8.81380100
_cell_length_b   8.81380033
_cell_length_c   28.90405500
_cell_angle_alpha   90.00000000
_cell_angle_beta   90.00000000
_cell_angle_gamma   136.54696672
_symmetry_Int_Tables_number   1
_chemical_formula_structural   Rb3Ga13
_chemical_formula_sum   'Rb12 Ga52'
_cell_volume   1544.26550741
_cell_formula_units_Z   4
loop_
 _symmetry_equiv_pos_site_id
 _symmetry_equiv_pos_as_xyz
  1  'x, y, z'
loop_
 _atom_site_type_symbol
 _atom_site_label
 _atom_site_symmetry_multiplicity
 _atom_site_fract_x
 _atom_site_fract_y
 _atom_site_fract_z
 _atom_site_occupancy
  Rb  Rb0  1  0.786869  0.213131  0.087649  1
  Rb  Rb1  1  0.015308  0.984692  0.140020  1
  Rb  Rb2  1  0.638414  0.361586  0.180053  1
  Rb  Rb3  1  0.015308  0.984692  0.359980  1
  Rb  Rb4  1  0.786869  0.213131  0.412351  1
  Rb  Rb5  1  0.984692  0.015308  0.640020  1
  Rb  Rb6  1  0.638414  0.361586  0.319947  1
  Rb  Rb7  1  0.984692  0.015308  0.859980  1
  Rb  Rb8  1  0.361586  0.638414  0.680053  1
  Rb  Rb9  1  0.361586  0.638414  0.819947  1
  Rb  Rb10  1  0.213131  0.786869  0.587649  1
  Rb  Rb11  1  0.213131  0.786869  0.912351  1
  Ga  Ga12  1  0.143749  0.242632  0.034631  1
  Ga  Ga13  1  0.242632  0.143749  0.534631  1
  Ga  Ga14  1  0.143749  0.242632  0.465369  1
  Ga  Ga15  1  0.242632  0.143749  0.965369  1
  Ga  Ga16  1  0.032777  0.372976  0.296097  1
  Ga  Ga17  1  0.032777  0.372976  0.203903  1
  Ga  Ga18  1  0.372976  0.032777  0.703903  1
  Ga  Ga19  1  0.372976  0.032777  0.796097  1
  Ga  Ga20  1  0.264175  0.323331  0.250000  1
  Ga  Ga21  1  0.323331  0.264175  0.750000  1
  Ga  Ga22  1  0.404162  0.186108  0.046804  1
  Ga  Ga23  1  0.404162  0.186108  0.453196  1
  Ga  Ga24  1  0.186108  0.404162  0.546804  1
  Ga  Ga25  1  0.186108  0.404162  0.953196  1
  Ga  Ga26  1  0.426445  0.573555  0.171345  1
  Ga  Ga27  1  0.343041  0.656959  0.031305  1
  Ga  Ga28  1  0.201781  0.798219  0.072033  1
  Ga  Ga29  1  0.481615  0.518385  0.088656  1
  Ga  Ga30  1  0.656959  0.343041  0.531305  1
  Ga  Ga31  1  0.260140  0.739860  0.156246  1
  Ga  Ga32  1  0.343041  0.656959  0.468695  1
  Ga  Ga33  1  0.260140  0.739860  0.343754  1
  Ga  Ga34  1  0.481615  0.518385  0.411344  1
  Ga  Ga35  1  0.573555  0.426445  0.671345  1
  Ga  Ga36  1  0.201781  0.798219  0.427967  1
  Ga  Ga37  1  0.518385  0.481615  0.588656  1
  Ga  Ga38  1  0.075435  0.924565  0.250000  1
  Ga  Ga39  1  0.798219  0.201781  0.572033  1
  Ga  Ga40  1  0.739860  0.260140  0.656246  1
  Ga  Ga41  1  0.924565  0.075435  0.750000  1
  Ga  Ga42  1  0.426445  0.573555  0.328655  1
  Ga  Ga43  1  0.771286  0.228714  0.750000  1
  Ga  Ga44  1  0.573555  0.426445  0.828655  1
  Ga  Ga45  1  0.739860  0.260140  0.843754  1
  Ga  Ga46  1  0.228714  0.771286  0.250000  1
  Ga  Ga47  1  0.798219  0.201781  0.927967  1
  Ga  Ga48  1  0.656959  0.343041  0.968695  1
  Ga  Ga49  1  0.518385  0.481615  0.911344  1
  Ga  Ga50  1  0.813892  0.595838  0.046804  1
  Ga  Ga51  1  0.595838  0.813892  0.546804  1
  Ga  Ga52  1  0.813892  0.595838  0.453196  1
  Ga  Ga53  1  0.595838  0.813892  0.953196  1
  Ga  Ga54  1  0.676669  0.735825  0.250000  1
  Ga  Ga55  1  0.735825  0.676669  0.750000  1
  Ga  Ga56  1  0.627024  0.967223  0.203903  1
  Ga  Ga57  1  0.627024  0.967223  0.296097  1
  Ga  Ga58  1  0.967223  0.627024  0.796097  1
  Ga  Ga59  1  0.967223  0.627024  0.703903  1
  Ga  Ga60  1  0.757368  0.856251  0.034631  1
  Ga  Ga61  1  0.856251  0.757368  0.534631  1
  Ga  Ga62  1  0.757368  0.856251  0.465369  1
  Ga  Ga63  1  0.856251  0.757368  0.965369  1
