# generated using pymatgen
data_Y5Er5Ru3Rh
_symmetry_space_group_name_H-M   'P 1'
_cell_length_a   6.34746658
_cell_length_b   7.30931999
_cell_length_c   8.45484331
_cell_angle_alpha   96.92817946
_cell_angle_beta   111.81211289
_cell_angle_gamma   89.94195604
_symmetry_Int_Tables_number   1
_chemical_formula_structural   Y5Er5Ru3Rh
_chemical_formula_sum   'Y5 Er5 Ru3 Rh1'
_cell_volume   361.11668646
_cell_formula_units_Z   1
loop_
 _symmetry_equiv_pos_site_id
 _symmetry_equiv_pos_as_xyz
  1  'x, y, z'
loop_
 _atom_site_type_symbol
 _atom_site_label
 _atom_site_symmetry_multiplicity
 _atom_site_fract_x
 _atom_site_fract_y
 _atom_site_fract_z
 _atom_site_occupancy
  Y  Y0  1  0.792253  0.581547  0.814055  1
  Y  Y1  1  0.979653  0.915913  0.189651  1
  Y  Y2  1  0.209456  0.415680  0.186926  1
  Y  Y3  1  0.024422  0.085542  0.813752  1
  Y  Y4  1  0.203405  0.683456  0.563663  1
  Er  Er5  1  0.642003  0.815447  0.432106  1
  Er  Er6  1  0.792587  0.314714  0.434174  1
  Er  Er7  1  0.357655  0.186436  0.564288  1
  Er  Er8  1  0.420385  0.749271  0.001089  1
  Er  Er9  1  0.579467  0.251947  0.001244  1
  Ru  Ru10  1  0.819573  0.575721  0.219103  1
  Ru  Ru11  1  0.400060  0.074789  0.222108  1
  Ru  Ru12  1  0.180231  0.423524  0.779627  1
  Rh  Rh13  1  0.598852  0.926012  0.778213  1
