# generated using pymatgen
data_Al4V7Re5
_symmetry_space_group_name_H-M   'P 1'
_cell_length_a   4.78939135
_cell_length_b   4.83037271
_cell_length_c   9.68567157
_cell_angle_alpha   90.00304978
_cell_angle_beta   89.99620992
_cell_angle_gamma   89.99199949
_symmetry_Int_Tables_number   1
_chemical_formula_structural   Al4V7Re5
_chemical_formula_sum   'Al4 V7 Re5'
_cell_volume   224.07360436
_cell_formula_units_Z   1
loop_
 _symmetry_equiv_pos_site_id
 _symmetry_equiv_pos_as_xyz
  1  'x, y, z'
loop_
 _atom_site_type_symbol
 _atom_site_label
 _atom_site_symmetry_multiplicity
 _atom_site_fract_x
 _atom_site_fract_y
 _atom_site_fract_z
 _atom_site_occupancy
  Al  Al0  1  0.494495  0.502935  0.997430  1
  Al  Al1  1  0.500946  0.506705  0.497619  1
  Al  Al2  1  0.002351  0.994725  0.750584  1
  Al  Al3  1  0.002077  0.995287  0.254210  1
  V  V4  1  0.751083  0.002912  0.500956  1
  V  V5  1  0.996291  0.498709  0.875764  1
  V  V6  1  0.001873  0.497807  0.374729  1
  V  V7  1  0.500884  0.750298  0.749395  1
  V  V8  1  0.500658  0.750471  0.249144  1
  V  V9  1  0.249492  0.000432  0.000384  1
  V  V10  1  0.251410  0.003022  0.500758  1
  Re  Re11  1  0.998325  0.500051  0.124702  1
  Re  Re12  1  0.001347  0.499060  0.624806  1
  Re  Re13  1  0.500131  0.249590  0.748326  1
  Re  Re14  1  0.500625  0.248432  0.251319  1
  Re  Re15  1  0.748010  0.999565  0.999872  1
