# generated using pymatgen
data_Hf(NF7)2
_symmetry_space_group_name_H-M   'P 1'
_cell_length_a   7.04302389
_cell_length_b   7.04302418
_cell_length_c   7.04302365
_cell_angle_alpha   118.96679498
_cell_angle_beta   118.96679809
_cell_angle_gamma   91.79907115
_symmetry_Int_Tables_number   1
_chemical_formula_structural   Hf(NF7)2
_chemical_formula_sum   'Hf1 N2 F14'
_cell_volume   250.76146950
_cell_formula_units_Z   1
loop_
 _symmetry_equiv_pos_site_id
 _symmetry_equiv_pos_as_xyz
  1  'x, y, z'
loop_
 _atom_site_type_symbol
 _atom_site_label
 _atom_site_symmetry_multiplicity
 _atom_site_fract_x
 _atom_site_fract_y
 _atom_site_fract_z
 _atom_site_occupancy
  Hf  Hf0  1  0.000000  0.000000  0.000000  1
  N  N1  1  0.750000  0.250000  0.500000  1
  N  N2  1  0.250000  0.750000  0.500000  1
  F  F3  1  0.399394  0.964669  0.706951  1
  F  F4  1  0.244416  0.141238  0.385653  1
  F  F5  1  0.141238  0.755584  0.896821  1
  F  F6  1  0.858762  0.244416  0.103179  1
  F  F7  1  0.755584  0.858762  0.614347  1
  F  F8  1  0.204495  0.204495  0.000000  1
  F  F9  1  0.795505  0.795505  0.000000  1
  F  F10  1  0.742282  0.307557  0.706951  1
  F  F11  1  0.307557  0.600606  0.565275  1
  F  F12  1  0.035331  0.742282  0.434725  1
  F  F13  1  0.600606  0.035331  0.293049  1
  F  F14  1  0.257718  0.692443  0.293049  1
  F  F15  1  0.692443  0.399394  0.434725  1
  F  F16  1  0.964669  0.257718  0.565275  1
