# generated using pymatgen
data_La19Nd(RuPb2)4
_symmetry_space_group_name_H-M   'P 1'
_cell_length_a   8.40149148
_cell_length_b   9.24615100
_cell_length_c   12.75492500
_cell_angle_alpha   90.00000000
_cell_angle_beta   90.40364182
_cell_angle_gamma   90.00000000
_symmetry_Int_Tables_number   1
_chemical_formula_structural   La19Nd(RuPb2)4
_chemical_formula_sum   'La19 Nd1 Ru4 Pb8'
_cell_volume   990.79659464
_cell_formula_units_Z   1
loop_
 _symmetry_equiv_pos_site_id
 _symmetry_equiv_pos_as_xyz
  1  'x, y, z'
loop_
 _atom_site_type_symbol
 _atom_site_label
 _atom_site_symmetry_multiplicity
 _atom_site_fract_x
 _atom_site_fract_y
 _atom_site_fract_z
 _atom_site_occupancy
  La  La0  1  0.662935  0.750000  0.706528  1
  La  La1  1  0.335795  0.250000  0.293540  1
  La  La2  1  0.161943  0.250000  0.791286  1
  La  La3  1  0.835829  0.750000  0.208351  1
  La  La4  1  0.131744  0.750000  0.801443  1
  La  La5  1  0.867360  0.250000  0.198581  1
  La  La6  1  0.631073  0.250000  0.696237  1
  La  La7  1  0.368290  0.750000  0.304638  1
  La  La8  1  0.556146  0.750000  0.998553  1
  La  La9  1  0.444956  0.250000  0.000732  1
  La  La10  1  0.052470  0.250000  0.501616  1
  La  La11  1  0.824414  0.466913  0.932789  1
  La  La12  1  0.175739  0.532057  0.067142  1
  La  La13  1  0.324157  0.533157  0.566897  1
  La  La14  1  0.175739  0.967943  0.067142  1
  La  La15  1  0.676911  0.468361  0.432587  1
  La  La16  1  0.824414  0.033087  0.932789  1
  La  La17  1  0.676911  0.031639  0.432587  1
  La  La18  1  0.324157  0.966843  0.566897  1
  Nd  Nd19  1  0.952376  0.750000  0.498951  1
  Ru  Ru20  1  0.916458  0.750000  0.981012  1
  Ru  Ru21  1  0.084711  0.250000  0.019407  1
  Ru  Ru22  1  0.415027  0.250000  0.519002  1
  Ru  Ru23  1  0.585818  0.750000  0.481927  1
  Pb  Pb24  1  0.933830  0.005910  0.671055  1
  Pb  Pb25  1  0.064930  0.990474  0.328522  1
  Pb  Pb26  1  0.434877  0.992155  0.826535  1
  Pb  Pb27  1  0.064930  0.509526  0.328522  1
  Pb  Pb28  1  0.563676  0.008008  0.173570  1
  Pb  Pb29  1  0.933830  0.494090  0.671055  1
  Pb  Pb30  1  0.563676  0.491992  0.173570  1
  Pb  Pb31  1  0.434877  0.507845  0.826535  1
