# generated using pymatgen
data_ZrBr2Cl
_symmetry_space_group_name_H-M   'P 1'
_cell_length_a   7.42060515
_cell_length_b   7.48351876
_cell_length_c   6.23518800
_cell_angle_alpha   90.00000000
_cell_angle_beta   90.00000000
_cell_angle_gamma   120.28086428
_symmetry_Int_Tables_number   1
_chemical_formula_structural   ZrBr2Cl
_chemical_formula_sum   'Zr2 Br4 Cl2'
_cell_volume   299.01244212
_cell_formula_units_Z   2
loop_
 _symmetry_equiv_pos_site_id
 _symmetry_equiv_pos_as_xyz
  1  'x, y, z'
loop_
 _atom_site_type_symbol
 _atom_site_label
 _atom_site_symmetry_multiplicity
 _atom_site_fract_x
 _atom_site_fract_y
 _atom_site_fract_z
 _atom_site_occupancy
  Zr  Zr0  1  0.001757  0.000878  0.500000  1
  Zr  Zr1  1  0.001757  0.000878  0.000000  1
  Br  Br2  1  0.298156  0.997284  0.250000  1
  Br  Br3  1  0.298156  0.300872  0.750000  1
  Br  Br4  1  0.980999  0.693239  0.750000  1
  Br  Br5  1  0.980999  0.287760  0.250000  1
  Cl  Cl6  1  0.719088  0.986154  0.750000  1
  Cl  Cl7  1  0.719088  0.732934  0.250000  1
