# generated using pymatgen
data_YEr2Cd(Ir2O7)2
_symmetry_space_group_name_H-M   'P 1'
_cell_length_a   7.18769859
_cell_length_b   7.18843485
_cell_length_c   7.18843525
_cell_angle_alpha   60.90595372
_cell_angle_beta   60.94644886
_cell_angle_gamma   60.94645584
_symmetry_Int_Tables_number   1
_chemical_formula_structural   YEr2Cd(Ir2O7)2
_chemical_formula_sum   'Y1 Er2 Cd1 Ir4 O14'
_cell_volume   268.15101380
_cell_formula_units_Z   1
loop_
 _symmetry_equiv_pos_site_id
 _symmetry_equiv_pos_as_xyz
  1  'x, y, z'
loop_
 _atom_site_type_symbol
 _atom_site_label
 _atom_site_symmetry_multiplicity
 _atom_site_fract_x
 _atom_site_fract_y
 _atom_site_fract_z
 _atom_site_occupancy
  Y  Y0  1  0.625000  0.125000  0.125000  1
  Er  Er1  1  0.125000  0.625000  0.125000  1
  Er  Er2  1  0.125000  0.125000  0.625000  1
  Cd  Cd3  1  0.125000  0.125000  0.125000  1
  Ir  Ir4  1  0.125000  0.625000  0.625000  1
  Ir  Ir5  1  0.625000  0.125000  0.625000  1
  Ir  Ir6  1  0.625000  0.625000  0.125000  1
  Ir  Ir7  1  0.625000  0.625000  0.625000  1
  O  O8  1  0.714335  0.710207  0.289653  1
  O  O9  1  0.294425  0.294767  0.697641  1
  O  O10  1  0.714335  0.289653  0.710207  1
  O  O11  1  0.294425  0.697641  0.294767  1
  O  O12  1  0.288968  0.712809  0.712809  1
  O  O13  1  0.699244  0.295328  0.295328  1
  O  O14  1  0.535665  0.539793  0.960347  1
  O  O15  1  0.955575  0.955233  0.552359  1
  O  O16  1  0.535665  0.960347  0.539793  1
  O  O17  1  0.955575  0.552359  0.955233  1
  O  O18  1  0.961032  0.537191  0.537191  1
  O  O19  1  0.550756  0.954672  0.954672  1
  O  O20  1  0.249264  0.253312  0.253312  1
  O  O21  1  0.000736  0.996688  0.996688  1
