# generated using pymatgen
data_Nd6Dy10Cd3HgIr4
_symmetry_space_group_name_H-M   'P 1'
_cell_length_a   9.73627660
_cell_length_b   9.73627695
_cell_length_c   9.73627736
_cell_angle_alpha   60.04936723
_cell_angle_beta   60.04936778
_cell_angle_gamma   60.04936803
_symmetry_Int_Tables_number   1
_chemical_formula_structural   Nd6Dy10Cd3HgIr4
_chemical_formula_sum   'Nd6 Dy10 Cd3 Hg1 Ir4'
_cell_volume   653.35533180
_cell_formula_units_Z   1
loop_
 _symmetry_equiv_pos_site_id
 _symmetry_equiv_pos_as_xyz
  1  'x, y, z'
loop_
 _atom_site_type_symbol
 _atom_site_label
 _atom_site_symmetry_multiplicity
 _atom_site_fract_x
 _atom_site_fract_y
 _atom_site_fract_z
 _atom_site_occupancy
  Nd  Nd0  1  0.940162  0.558576  0.558576  1
  Nd  Nd1  1  0.558860  0.941148  0.941148  1
  Nd  Nd2  1  0.558576  0.940162  0.558576  1
  Nd  Nd3  1  0.941148  0.558860  0.941148  1
  Nd  Nd4  1  0.558576  0.558576  0.940162  1
  Nd  Nd5  1  0.941148  0.941148  0.558860  1
  Dy  Dy6  1  0.347734  0.347734  0.347734  1
  Dy  Dy7  1  0.348262  0.348262  0.955614  1
  Dy  Dy8  1  0.348262  0.955614  0.348262  1
  Dy  Dy9  1  0.955614  0.348262  0.348262  1
  Dy  Dy10  1  0.811824  0.188039  0.188039  1
  Dy  Dy11  1  0.188273  0.811539  0.811539  1
  Dy  Dy12  1  0.188039  0.811824  0.188039  1
  Dy  Dy13  1  0.811539  0.188273  0.811539  1
  Dy  Dy14  1  0.188039  0.188039  0.811824  1
  Dy  Dy15  1  0.811539  0.811539  0.188273  1
  Cd  Cd16  1  0.579502  0.579502  0.260801  1
  Cd  Cd17  1  0.579502  0.260801  0.579502  1
  Cd  Cd18  1  0.260801  0.579502  0.579502  1
  Hg  Hg19  1  0.582521  0.582521  0.582521  1
  Ir  Ir20  1  0.141458  0.141458  0.141458  1
  Ir  Ir21  1  0.141415  0.141415  0.575790  1
  Ir  Ir22  1  0.141415  0.575790  0.141415  1
  Ir  Ir23  1  0.575790  0.141415  0.141415  1
