# generated using pymatgen
data_Pr14Nd2MgAg3Ir4
_symmetry_space_group_name_H-M   'P 1'
_cell_length_a   9.96204042
_cell_length_b   10.02388671
_cell_length_c   10.01080000
_cell_angle_alpha   60.04317134
_cell_angle_beta   59.83795086
_cell_angle_gamma   59.79607838
_symmetry_Int_Tables_number   1
_chemical_formula_structural   Pr14Nd2MgAg3Ir4
_chemical_formula_sum   'Pr14 Nd2 Mg1 Ag3 Ir4'
_cell_volume   705.13470617
_cell_formula_units_Z   1
loop_
 _symmetry_equiv_pos_site_id
 _symmetry_equiv_pos_as_xyz
  1  'x, y, z'
loop_
 _atom_site_type_symbol
 _atom_site_label
 _atom_site_symmetry_multiplicity
 _atom_site_fract_x
 _atom_site_fract_y
 _atom_site_fract_z
 _atom_site_occupancy
  Pr  Pr0  1  0.347870  0.955969  0.348081  1
  Pr  Pr1  1  0.944892  0.351680  0.351715  1
  Pr  Pr2  1  0.806272  0.192483  0.193006  1
  Pr  Pr3  1  0.188811  0.810068  0.811471  1
  Pr  Pr4  1  0.188811  0.810068  0.189652  1
  Pr  Pr5  1  0.806272  0.192483  0.808237  1
  Pr  Pr6  1  0.189290  0.189259  0.810726  1
  Pr  Pr7  1  0.806577  0.807472  0.192975  1
  Pr  Pr8  1  0.938002  0.562049  0.561784  1
  Pr  Pr9  1  0.560891  0.939309  0.938299  1
  Pr  Pr10  1  0.560891  0.939309  0.561502  1
  Pr  Pr11  1  0.938002  0.562049  0.938165  1
  Pr  Pr12  1  0.560798  0.561942  0.938630  1
  Pr  Pr13  1  0.938114  0.938144  0.561871  1
  Nd  Nd14  1  0.347135  0.347223  0.347300  1
  Nd  Nd15  1  0.347135  0.347223  0.958342  1
  Mg  Mg16  1  0.293257  0.568108  0.569317  1
  Ag  Ag17  1  0.579795  0.583861  0.584263  1
  Ag  Ag18  1  0.579795  0.583861  0.252082  1
  Ag  Ag19  1  0.579035  0.252956  0.584005  1
  Ir  Ir20  1  0.140941  0.143456  0.140355  1
  Ir  Ir21  1  0.140941  0.143456  0.575247  1
  Ir  Ir22  1  0.142112  0.573814  0.142036  1
  Ir  Ir23  1  0.574361  0.143759  0.140939  1
