# generated using pymatgen
data_Hf6Si6Mo4C
_symmetry_space_group_name_H-M   'P 1'
_cell_length_a   7.69370200
_cell_length_b   7.69370167
_cell_length_c   5.25808200
_cell_angle_alpha   90.00000000
_cell_angle_beta   90.00000000
_cell_angle_gamma   120.00000142
_symmetry_Int_Tables_number   1
_chemical_formula_structural   Hf6Si6Mo4C
_chemical_formula_sum   'Hf6 Si6 Mo4 C1'
_cell_volume   269.54338811
_cell_formula_units_Z   1
loop_
 _symmetry_equiv_pos_site_id
 _symmetry_equiv_pos_as_xyz
  1  'x, y, z'
loop_
 _atom_site_type_symbol
 _atom_site_label
 _atom_site_symmetry_multiplicity
 _atom_site_fract_x
 _atom_site_fract_y
 _atom_site_fract_z
 _atom_site_occupancy
  Hf  Hf0  1  0.000000  0.757930  0.253764  1
  Hf  Hf1  1  0.242070  0.242070  0.253764  1
  Hf  Hf2  1  0.757930  0.000000  0.253764  1
  Hf  Hf3  1  0.000000  0.242070  0.746236  1
  Hf  Hf4  1  0.757930  0.757930  0.746236  1
  Hf  Hf5  1  0.242070  0.000000  0.746236  1
  Si  Si6  1  0.000000  0.403454  0.241371  1
  Si  Si7  1  0.596546  0.596546  0.241371  1
  Si  Si8  1  0.403454  0.000000  0.241371  1
  Si  Si9  1  0.000000  0.596546  0.758629  1
  Si  Si10  1  0.403454  0.403454  0.758629  1
  Si  Si11  1  0.596546  0.000000  0.758629  1
  Mo  Mo12  1  0.333333  0.666667  0.000000  1
  Mo  Mo13  1  0.666667  0.333333  0.000000  1
  Mo  Mo14  1  0.666667  0.333333  0.500000  1
  Mo  Mo15  1  0.333333  0.666667  0.500000  1
  C  C16  1  0.000000  0.000000  0.500000  1
