# generated using pymatgen
data_La2PrHo(Mo2O7)2
_symmetry_space_group_name_H-M   'P 1'
_cell_length_a   7.49371008
_cell_length_b   7.53450448
_cell_length_c   7.52250563
_cell_angle_alpha   119.83874456
_cell_angle_beta   120.07107930
_cell_angle_gamma   89.99332695
_symmetry_Int_Tables_number   1
_chemical_formula_structural   La2PrHo(Mo2O7)2
_chemical_formula_sum   'La2 Pr1 Ho1 Mo4 O14'
_cell_volume   300.75533564
_cell_formula_units_Z   1
loop_
 _symmetry_equiv_pos_site_id
 _symmetry_equiv_pos_as_xyz
  1  'x, y, z'
loop_
 _atom_site_type_symbol
 _atom_site_label
 _atom_site_symmetry_multiplicity
 _atom_site_fract_x
 _atom_site_fract_y
 _atom_site_fract_z
 _atom_site_occupancy
  La  La0  1  0.375000  0.625000  0.250000  1
  La  La1  1  0.375000  0.125000  0.750000  1
  Pr  Pr2  1  0.375000  0.625000  0.750000  1
  Ho  Ho3  1  0.875000  0.625000  0.250000  1
  Mo  Mo4  1  0.875000  0.625000  0.750000  1
  Mo  Mo5  1  0.375000  0.125000  0.250000  1
  Mo  Mo6  1  0.875000  0.125000  0.250000  1
  Mo  Mo7  1  0.875000  0.125000  0.750000  1
  O  O8  1  0.790317  0.206629  0.004345  1
  O  O9  1  0.545395  0.463321  0.498665  1
  O  O10  1  0.206702  0.206605  0.999927  1
  O  O11  1  0.954834  0.460735  0.496819  1
  O  O12  1  0.805794  0.795652  0.579853  1
  O  O13  1  0.537828  0.031878  0.083895  1
  O  O14  1  0.234973  0.746020  0.490482  1
  O  O15  1  0.944206  0.454348  0.920147  1
  O  O16  1  0.959683  0.043371  0.495655  1
  O  O17  1  0.543298  0.043395  0.500073  1
  O  O18  1  0.212172  0.218122  0.416105  1
  O  O19  1  0.515027  0.503980  0.009518  1
  O  O20  1  0.795166  0.789265  0.003181  1
  O  O21  1  0.204605  0.786679  0.001335  1
