# generated using pymatgen
data_Ti8Al14AsOs4Rh3
_symmetry_space_group_name_H-M   'P 1'
_cell_length_a   8.64497295
_cell_length_b   8.64977286
_cell_length_c   8.67022203
_cell_angle_alpha   119.91926121
_cell_angle_beta   119.85067600
_cell_angle_gamma   90.07836953
_symmetry_Int_Tables_number   1
_chemical_formula_structural   Ti8Al14AsOs4Rh3
_chemical_formula_sum   'Ti8 Al14 As1 Os4 Rh3'
_cell_volume   459.71929230
_cell_formula_units_Z   1
loop_
 _symmetry_equiv_pos_site_id
 _symmetry_equiv_pos_as_xyz
  1  'x, y, z'
loop_
 _atom_site_type_symbol
 _atom_site_label
 _atom_site_symmetry_multiplicity
 _atom_site_fract_x
 _atom_site_fract_y
 _atom_site_fract_z
 _atom_site_occupancy
  Ti  Ti0  1  0.785678  0.293541  0.084185  1
  Ti  Ti1  1  0.218256  0.302412  0.508560  1
  Ti  Ti2  1  0.210269  0.709111  0.510667  1
  Ti  Ti3  1  0.219619  0.713594  0.916204  1
  Ti  Ti4  1  0.795207  0.711498  0.494846  1
  Ti  Ti5  1  0.781214  0.280887  0.487293  1
  Ti  Ti6  1  0.375761  0.121030  0.742264  1
  Ti  Ti7  1  0.383101  0.635818  0.260811  1
  Al  Al8  1  0.153345  0.339818  0.180571  1
  Al  Al9  1  0.158525  0.981118  0.822408  1
  Al  Al10  1  0.152793  0.342362  0.813450  1
  Al  Al11  1  0.521744  0.340983  0.183648  1
  Al  Al12  1  0.843989  0.656036  0.812422  1
  Al  Al13  1  0.845126  0.023762  0.183123  1
  Al  Al14  1  0.841523  0.657468  0.178833  1
  Al  Al15  1  0.487175  0.662403  0.824849  1
  Al  Al16  1  0.378881  0.120490  0.260614  1
  Al  Al17  1  0.858198  0.120707  0.739183  1
  Al  Al18  1  0.620541  0.876592  0.257220  1
  Al  Al19  1  0.620843  0.361554  0.741652  1
  Al  Al20  1  0.618556  0.878034  0.739471  1
  Al  Al21  1  0.139140  0.879295  0.260879  1
  As  As22  1  0.996843  0.496618  0.500030  1
  Os  Os23  1  0.000427  0.998658  0.501323  1
  Os  Os24  1  0.500212  0.001443  0.000795  1
  Os  Os25  1  0.497779  0.497598  0.999483  1
  Os  Os26  1  0.496579  0.499298  0.497714  1
  Rh  Rh27  1  0.000419  0.500117  0.999866  1
  Rh  Rh28  1  0.999133  0.999061  0.998490  1
  Rh  Rh29  1  0.499123  0.998690  0.499146  1
