# generated using pymatgen
data_YbYMgPd5
_symmetry_space_group_name_H-M   'P 1'
_cell_length_a   4.30573300
_cell_length_b   5.78300041
_cell_length_c   11.44955803
_cell_angle_alpha   89.68160361
_cell_angle_beta   90.00000000
_cell_angle_gamma   90.00000000
_symmetry_Int_Tables_number   1
_chemical_formula_structural   YbYMgPd5
_chemical_formula_sum   'Yb2 Y2 Mg2 Pd10'
_cell_volume   285.09023062
_cell_formula_units_Z   2
loop_
 _symmetry_equiv_pos_site_id
 _symmetry_equiv_pos_as_xyz
  1  'x, y, z'
loop_
 _atom_site_type_symbol
 _atom_site_label
 _atom_site_symmetry_multiplicity
 _atom_site_fract_x
 _atom_site_fract_y
 _atom_site_fract_z
 _atom_site_occupancy
  Yb  Yb0  1  0.500000  0.319364  0.637804  1
  Yb  Yb1  1  0.500000  0.680636  0.362196  1
  Y  Y2  1  0.500000  0.181992  0.143043  1
  Y  Y3  1  0.500000  0.818008  0.856957  1
  Mg  Mg4  1  0.000000  0.000000  0.500000  1
  Mg  Mg5  1  0.000000  0.500000  0.000000  1
  Pd  Pd6  1  0.500000  0.190917  0.390411  1
  Pd  Pd7  1  0.500000  0.809083  0.609589  1
  Pd  Pd8  1  0.500000  0.309815  0.889468  1
  Pd  Pd9  1  0.500000  0.690185  0.110532  1
  Pd  Pd10  1  0.000000  0.433185  0.250305  1
  Pd  Pd11  1  0.000000  0.566815  0.749695  1
  Pd  Pd12  1  0.000000  0.072818  0.747741  1
  Pd  Pd13  1  0.000000  0.927182  0.252259  1
  Pd  Pd14  1  0.000000  0.000000  0.000000  1
  Pd  Pd15  1  0.000000  0.500000  0.500000  1
