# generated using pymatgen
data_Li2PPdPt2
_symmetry_space_group_name_H-M   'P 1'
_cell_length_a   7.18668466
_cell_length_b   7.16718590
_cell_length_c   7.17668510
_cell_angle_alpha   90.01478532
_cell_angle_beta   89.42110380
_cell_angle_gamma   89.64415060
_symmetry_Int_Tables_number   1
_chemical_formula_structural   Li2PPdPt2
_chemical_formula_sum   'Li8 P4 Pd4 Pt8'
_cell_volume   369.63286875
_cell_formula_units_Z   4
loop_
 _symmetry_equiv_pos_site_id
 _symmetry_equiv_pos_as_xyz
  1  'x, y, z'
loop_
 _atom_site_type_symbol
 _atom_site_label
 _atom_site_symmetry_multiplicity
 _atom_site_fract_x
 _atom_site_fract_y
 _atom_site_fract_z
 _atom_site_occupancy
  Li  Li0  1  0.297545  0.292180  0.287534  1
  Li  Li1  1  0.038922  0.463630  0.545913  1
  Li  Li2  1  0.543888  0.039616  0.456994  1
  Li  Li3  1  0.460671  0.543630  0.043485  1
  Li  Li4  1  0.207712  0.707438  0.791428  1
  Li  Li5  1  0.954382  0.958383  0.955855  1
  Li  Li6  1  0.790288  0.208114  0.710417  1
  Li  Li7  1  0.703043  0.789995  0.205923  1
  P  P8  1  0.867359  0.374096  0.116687  1
  P  P9  1  0.375167  0.127248  0.881115  1
  P  P10  1  0.629517  0.626736  0.620673  1
  P  P11  1  0.130136  0.870566  0.382722  1
  Pd  Pd12  1  0.175460  0.078702  0.627077  1
  Pd  Pd13  1  0.422074  0.376327  0.673888  1
  Pd  Pd14  1  0.073174  0.623606  0.175111  1
  Pd  Pd15  1  0.931011  0.126602  0.323842  1
  Pt  Pt16  1  0.322851  0.918729  0.124741  1
  Pt  Pt17  1  0.673172  0.419115  0.374627  1
  Pt  Pt18  1  0.577089  0.875213  0.828046  1
  Pt  Pt19  1  0.623174  0.167866  0.083296  1
  Pt  Pt20  1  0.376981  0.667277  0.421277  1
  Pt  Pt21  1  0.872835  0.835438  0.574951  1
  Pt  Pt22  1  0.123608  0.327657  0.921831  1
  Pt  Pt23  1  0.829942  0.581836  0.872565  1
