# generated using pymatgen
data_Ho15Tm5(Bi2As)4
_symmetry_space_group_name_H-M   'P 1'
_cell_length_a   8.00672304
_cell_length_b   9.09802505
_cell_length_c   12.00985011
_cell_angle_alpha   90.01129399
_cell_angle_beta   89.98917559
_cell_angle_gamma   89.99448084
_symmetry_Int_Tables_number   1
_chemical_formula_structural   Ho15Tm5(Bi2As)4
_chemical_formula_sum   'Ho15 Tm5 Bi8 As4'
_cell_volume   874.86190078
_cell_formula_units_Z   1
loop_
 _symmetry_equiv_pos_site_id
 _symmetry_equiv_pos_as_xyz
  1  'x, y, z'
loop_
 _atom_site_type_symbol
 _atom_site_label
 _atom_site_symmetry_multiplicity
 _atom_site_fract_x
 _atom_site_fract_y
 _atom_site_fract_z
 _atom_site_occupancy
  Ho  Ho0  1  0.317008  0.056494  0.437154  1
  Ho  Ho1  1  0.817107  0.943495  0.062914  1
  Ho  Ho2  1  0.682954  0.556426  0.562891  1
  Ho  Ho3  1  0.156315  0.749898  0.210841  1
  Ho  Ho4  1  0.343628  0.750129  0.710846  1
  Ho  Ho5  1  0.843643  0.249974  0.789232  1
  Ho  Ho6  1  0.656385  0.250146  0.289171  1
  Ho  Ho7  1  0.463731  0.749923  0.999940  1
  Ho  Ho8  1  0.036216  0.749963  0.499947  1
  Ho  Ho9  1  0.536022  0.250046  0.000040  1
  Ho  Ho10  1  0.963813  0.250003  0.500074  1
  Ho  Ho11  1  0.634495  0.749914  0.292641  1
  Ho  Ho12  1  0.865556  0.750100  0.792700  1
  Ho  Ho13  1  0.365457  0.250026  0.707430  1
  Ho  Ho14  1  0.134489  0.250130  0.207212  1
  Tm  Tm15  1  0.817380  0.556682  0.062896  1
  Tm  Tm16  1  0.682636  0.943352  0.562950  1
  Tm  Tm17  1  0.182687  0.056827  0.937089  1
  Tm  Tm18  1  0.317310  0.443286  0.437067  1
  Tm  Tm19  1  0.182709  0.443250  0.937119  1
  Bi  Bi20  1  0.925484  0.510039  0.326719  1
  Bi  Bi21  1  0.574511  0.989990  0.826754  1
  Bi  Bi22  1  0.074525  0.010049  0.673275  1
  Bi  Bi23  1  0.425500  0.489999  0.173152  1
  Bi  Bi24  1  0.074479  0.490097  0.673243  1
  Bi  Bi25  1  0.425559  0.009977  0.173118  1
  Bi  Bi26  1  0.925599  0.990075  0.326849  1
  Bi  Bi27  1  0.574374  0.509994  0.826896  1
  As  As28  1  0.412818  0.749723  0.478500  1
  As  As29  1  0.087382  0.749660  0.978386  1
  As  As30  1  0.587197  0.249723  0.521523  1
  As  As31  1  0.913034  0.250610  0.021430  1
