# generated using pymatgen
data_Cs5Rb7(Pb2O5)2
_symmetry_space_group_name_H-M   'P 1'
_cell_length_a   8.04756875
_cell_length_b   9.79904165
_cell_length_c   9.84853000
_cell_angle_alpha   76.70830898
_cell_angle_beta   82.78931314
_cell_angle_gamma   81.49328660
_symmetry_Int_Tables_number   1
_chemical_formula_structural   Cs5Rb7(Pb2O5)2
_chemical_formula_sum   'Cs5 Rb7 Pb4 O10'
_cell_volume   744.13407970
_cell_formula_units_Z   1
loop_
 _symmetry_equiv_pos_site_id
 _symmetry_equiv_pos_as_xyz
  1  'x, y, z'
loop_
 _atom_site_type_symbol
 _atom_site_label
 _atom_site_symmetry_multiplicity
 _atom_site_fract_x
 _atom_site_fract_y
 _atom_site_fract_z
 _atom_site_occupancy
  Cs  Cs0  1  0.797823  0.898546  0.898761  1
  Cs  Cs1  1  0.292604  0.397474  0.404636  1
  Cs  Cs2  1  0.526566  0.661303  0.660206  1
  Cs  Cs3  1  0.020896  0.156595  0.164504  1
  Cs  Cs4  1  0.251545  0.506405  0.993483  1
  Rb  Rb5  1  0.505688  0.243388  0.754195  1
  Rb  Rb6  1  0.999319  0.741341  0.258835  1
  Rb  Rb7  1  0.502619  0.757434  0.242581  1
  Rb  Rb8  1  0.000408  0.256755  0.743820  1
  Rb  Rb9  1  0.741324  0.486664  0.019397  1
  Rb  Rb10  1  0.242929  0.988795  0.516183  1
  Rb  Rb11  1  0.741034  0.016875  0.487548  1
  Pb  Pb12  1  0.078525  0.650197  0.641453  1
  Pb  Pb13  1  0.575875  0.146215  0.144337  1
  Pb  Pb14  1  0.317578  0.894016  0.885619  1
  Pb  Pb15  1  0.808692  0.389085  0.392205  1
  O  O16  1  0.239010  0.722515  0.449961  1
  O  O17  1  0.737140  0.221454  0.953620  1
  O  O18  1  0.235746  0.452276  0.714940  1
  O  O19  1  0.736490  0.951769  0.222711  1
  O  O20  1  0.491566  0.712450  0.971168  1
  O  O21  1  0.980250  0.204815  0.476672  1
  O  O22  1  0.486496  0.976424  0.704266  1
  O  O23  1  0.976951  0.472692  0.212169  1
  O  O24  1  0.158568  0.784195  0.776988  1
  O  O25  1  0.648263  0.282422  0.281845  1
