# generated using pymatgen
data_SrLi3CaNbN4
_symmetry_space_group_name_H-M   'P 1'
_cell_length_a   8.54429300
_cell_length_b   8.87283400
_cell_length_c   6.98427400
_cell_angle_alpha   90.00000000
_cell_angle_beta   90.00000000
_cell_angle_gamma   90.00000000
_symmetry_Int_Tables_number   1
_chemical_formula_structural   SrLi3CaNbN4
_chemical_formula_sum   'Sr4 Li12 Ca4 Nb4 N16'
_cell_volume   529.49243307
_cell_formula_units_Z   4
loop_
 _symmetry_equiv_pos_site_id
 _symmetry_equiv_pos_as_xyz
  1  'x, y, z'
loop_
 _atom_site_type_symbol
 _atom_site_label
 _atom_site_symmetry_multiplicity
 _atom_site_fract_x
 _atom_site_fract_y
 _atom_site_fract_z
 _atom_site_occupancy
  Sr  Sr0  1  0.242878  0.752822  0.000000  1
  Sr  Sr1  1  0.757122  0.247178  0.000000  1
  Sr  Sr2  1  0.742877  0.747178  0.500001  1
  Sr  Sr3  1  0.257123  0.252822  0.500001  1
  Li  Li4  1  0.018517  0.363029  0.235991  1
  Li  Li5  1  0.981482  0.636972  0.235991  1
  Li  Li6  1  0.518518  0.136971  0.264009  1
  Li  Li7  1  0.481481  0.863028  0.264009  1
  Li  Li8  1  0.981482  0.636972  0.764009  1
  Li  Li9  1  0.018517  0.363029  0.764009  1
  Li  Li10  1  0.481481  0.863028  0.735991  1
  Li  Li11  1  0.518518  0.136971  0.735991  1
  Li  Li12  1  0.214327  0.421002  0.000000  1
  Li  Li13  1  0.785672  0.578998  0.000000  1
  Li  Li14  1  0.714326  0.078998  0.500001  1
  Li  Li15  1  0.285674  0.921002  0.500001  1
  Ca  Ca16  1  0.000000  0.000000  0.261669  1
  Ca  Ca17  1  0.500001  0.500000  0.238332  1
  Ca  Ca18  1  0.000000  0.000000  0.738331  1
  Ca  Ca19  1  0.500001  0.500000  0.761668  1
  Nb  Nb20  1  0.281456  0.135976  0.000000  1
  Nb  Nb21  1  0.718543  0.864024  0.000000  1
  Nb  Nb22  1  0.781457  0.364024  0.500001  1
  Nb  Nb23  1  0.218543  0.635976  0.500001  1
  N  N24  1  0.297989  0.015272  0.236058  1
  N  N25  1  0.702011  0.984728  0.236058  1
  N  N26  1  0.797990  0.484728  0.263943  1
  N  N27  1  0.202012  0.515271  0.263943  1
  N  N28  1  0.702011  0.984728  0.763942  1
  N  N29  1  0.297989  0.015272  0.763942  1
  N  N30  1  0.202012  0.515271  0.736057  1
  N  N31  1  0.797990  0.484728  0.736057  1
  N  N32  1  0.063892  0.216812  0.000000  1
  N  N33  1  0.936108  0.783188  0.000000  1
  N  N34  1  0.563893  0.283188  0.500001  1
  N  N35  1  0.436109  0.716812  0.500001  1
  N  N36  1  0.448320  0.292872  0.000000  1
  N  N37  1  0.551680  0.707129  0.000000  1
  N  N38  1  0.948320  0.207128  0.500001  1
  N  N39  1  0.051680  0.792871  0.500001  1
