# generated using pymatgen
data_YHo2Sn3Ir2Pd
_symmetry_space_group_name_H-M   'P 1'
_cell_length_a   7.58201457
_cell_length_b   7.58882138
_cell_length_c   3.89100500
_cell_angle_alpha   90.00000000
_cell_angle_beta   90.00000000
_cell_angle_gamma   120.04401266
_symmetry_Int_Tables_number   1
_chemical_formula_structural   YHo2Sn3Ir2Pd
_chemical_formula_sum   'Y1 Ho2 Sn3 Ir2 Pd1'
_cell_volume   193.80214749
_cell_formula_units_Z   1
loop_
 _symmetry_equiv_pos_site_id
 _symmetry_equiv_pos_as_xyz
  1  'x, y, z'
loop_
 _atom_site_type_symbol
 _atom_site_label
 _atom_site_symmetry_multiplicity
 _atom_site_fract_x
 _atom_site_fract_y
 _atom_site_fract_z
 _atom_site_occupancy
  Y  Y0  1  0.396346  0.408504  0.500000  1
  Ho  Ho1  1  0.591093  0.987021  0.500000  1
  Ho  Ho2  1  0.013035  0.604149  0.500000  1
  Sn  Sn3  1  0.740065  0.738003  0.000000  1
  Sn  Sn4  1  0.262044  0.001935  0.000000  1
  Sn  Sn5  1  0.997677  0.259921  0.000000  1
  Ir  Ir6  1  0.333035  0.668269  0.000000  1
  Ir  Ir7  1  0.999100  0.999044  0.500000  1
  Pd  Pd8  1  0.667604  0.333154  0.000000  1
