# generated using pymatgen
data_IrOs4Ru
_symmetry_space_group_name_H-M   'P 1'
_cell_length_a   4.77568958
_cell_length_b   4.77974783
_cell_length_c   4.34596800
_cell_angle_alpha   90.00000000
_cell_angle_beta   90.00000000
_cell_angle_gamma   120.02812302
_symmetry_Int_Tables_number   1
_chemical_formula_structural   IrOs4Ru
_chemical_formula_sum   'Ir1 Os4 Ru1'
_cell_volume   85.88851375
_cell_formula_units_Z   1
loop_
 _symmetry_equiv_pos_site_id
 _symmetry_equiv_pos_as_xyz
  1  'x, y, z'
loop_
 _atom_site_type_symbol
 _atom_site_label
 _atom_site_symmetry_multiplicity
 _atom_site_fract_x
 _atom_site_fract_y
 _atom_site_fract_z
 _atom_site_occupancy
  Ir  Ir0  1  0.000000  0.000704  0.000000  1
  Os  Os1  1  0.665494  0.331996  0.000000  1
  Os  Os2  1  0.334506  0.666501  0.000000  1
  Os  Os3  1  0.663592  0.999889  0.500000  1
  Os  Os4  1  0.336408  0.336298  0.500000  1
  Ru  Ru5  1  0.000000  0.664613  0.500000  1
