# generated using pymatgen
data_La5Tb3(SiI6)2
_symmetry_space_group_name_H-M   'P 1'
_cell_length_a   4.37416700
_cell_length_b   14.40482803
_cell_length_c   15.28050879
_cell_angle_alpha   89.53649599
_cell_angle_beta   90.00000000
_cell_angle_gamma   90.00000000
_symmetry_Int_Tables_number   1
_chemical_formula_structural   La5Tb3(SiI6)2
_chemical_formula_sum   'La5 Tb3 Si2 I12'
_cell_volume   962.77996003
_cell_formula_units_Z   1
loop_
 _symmetry_equiv_pos_site_id
 _symmetry_equiv_pos_as_xyz
  1  'x, y, z'
loop_
 _atom_site_type_symbol
 _atom_site_label
 _atom_site_symmetry_multiplicity
 _atom_site_fract_x
 _atom_site_fract_y
 _atom_site_fract_z
 _atom_site_occupancy
  La  La0  1  0.500000  0.116601  0.341143  1
  La  La1  1  0.500000  0.879768  0.656620  1
  La  La2  1  0.500000  0.617402  0.156443  1
  La  La3  1  0.500000  0.384189  0.845241  1
  La  La4  1  0.000000  0.112215  0.575131  1
  Tb  Tb5  1  0.000000  0.889214  0.426121  1
  Tb  Tb6  1  0.000000  0.607672  0.928391  1
  Tb  Tb7  1  0.000000  0.392631  0.072009  1
  Si  Si8  1  0.500000  0.996260  0.497611  1
  Si  Si9  1  0.500000  0.500620  0.000893  1
  I  I10  1  0.500000  0.254036  0.157769  1
  I  I11  1  0.500000  0.745532  0.842040  1
  I  I12  1  0.500000  0.751923  0.340621  1
  I  I13  1  0.500000  0.257485  0.662742  1
  I  I14  1  0.000000  0.263232  0.414165  1
  I  I15  1  0.000000  0.738379  0.577397  1
  I  I16  1  0.000000  0.759876  0.076904  1
  I  I17  1  0.000000  0.240469  0.923327  1
  I  I18  1  0.000000  0.990471  0.241287  1
  I  I19  1  0.000000  0.001070  0.763787  1
  I  I20  1  0.000000  0.490772  0.256957  1
  I  I21  1  0.000000  0.510184  0.743402  1
