# generated using pymatgen
data_Ce11Tm(SiOs)8
_symmetry_space_group_name_H-M   'P 1'
_cell_length_a   5.54715800
_cell_length_b   7.89604428
_cell_length_c   13.36635200
_cell_angle_alpha   90.00000000
_cell_angle_beta   90.00000000
_cell_angle_gamma   89.96738309
_symmetry_Int_Tables_number   1
_chemical_formula_structural   Ce11Tm(SiOs)8
_chemical_formula_sum   'Ce11 Tm1 Si8 Os8'
_cell_volume   585.45421196
_cell_formula_units_Z   1
loop_
 _symmetry_equiv_pos_site_id
 _symmetry_equiv_pos_as_xyz
  1  'x, y, z'
loop_
 _atom_site_type_symbol
 _atom_site_label
 _atom_site_symmetry_multiplicity
 _atom_site_fract_x
 _atom_site_fract_y
 _atom_site_fract_z
 _atom_site_occupancy
  Ce  Ce0  1  0.869651  0.748339  0.250000  1
  Ce  Ce1  1  0.131214  0.250195  0.250000  1
  Ce  Ce2  1  0.864554  0.751497  0.750000  1
  Ce  Ce3  1  0.651781  0.400536  0.599811  1
  Ce  Ce4  1  0.348852  0.601924  0.101029  1
  Ce  Ce5  1  0.652871  0.099129  0.398986  1
  Ce  Ce6  1  0.349380  0.898637  0.899195  1
  Ce  Ce7  1  0.348852  0.601924  0.398971  1
  Ce  Ce8  1  0.651781  0.400536  0.900189  1
  Ce  Ce9  1  0.349380  0.898637  0.600805  1
  Ce  Ce10  1  0.652871  0.099129  0.101014  1
  Tm  Tm11  1  0.131032  0.252285  0.750000  1
  Si  Si12  1  0.108759  0.249495  0.501497  1
  Si  Si13  1  0.891598  0.749772  0.999918  1
  Si  Si14  1  0.891598  0.749772  0.500082  1
  Si  Si15  1  0.108759  0.249495  0.998503  1
  Si  Si16  1  0.644366  0.108623  0.750000  1
  Si  Si17  1  0.359370  0.898811  0.250000  1
  Si  Si18  1  0.638928  0.398288  0.250000  1
  Si  Si19  1  0.354956  0.595593  0.750000  1
  Os  Os20  1  0.852966  0.026970  0.591375  1
  Os  Os21  1  0.147112  0.973750  0.090806  1
  Os  Os22  1  0.855169  0.472118  0.408019  1
  Os  Os23  1  0.144475  0.525852  0.909080  1
  Os  Os24  1  0.147112  0.973750  0.409194  1
  Os  Os25  1  0.852966  0.026970  0.908625  1
  Os  Os26  1  0.144475  0.525852  0.590920  1
  Os  Os27  1  0.855169  0.472118  0.091981  1
