# generated using pymatgen
data_La4Nd4GePd24
_symmetry_space_group_name_H-M   'P 1'
_cell_length_a   8.52811205
_cell_length_b   8.52801503
_cell_length_c   8.52801503
_cell_angle_alpha   89.99789005
_cell_angle_beta   89.99137337
_cell_angle_gamma   89.99137337
_symmetry_Int_Tables_number   1
_chemical_formula_structural   La4Nd4GePd24
_chemical_formula_sum   'La4 Nd4 Ge1 Pd24'
_cell_volume   620.22433395
_cell_formula_units_Z   1
loop_
 _symmetry_equiv_pos_site_id
 _symmetry_equiv_pos_as_xyz
  1  'x, y, z'
loop_
 _atom_site_type_symbol
 _atom_site_label
 _atom_site_symmetry_multiplicity
 _atom_site_fract_x
 _atom_site_fract_y
 _atom_site_fract_z
 _atom_site_occupancy
  La  La0  1  0.253632  0.253638  0.253638  1
  La  La1  1  0.746554  0.746687  0.746687  1
  La  La2  1  0.746423  0.746431  0.253420  1
  La  La3  1  0.746423  0.253420  0.746431  1
  Nd  Nd4  1  0.252897  0.253077  0.747138  1
  Nd  Nd5  1  0.252897  0.747138  0.253077  1
  Nd  Nd6  1  0.253062  0.746764  0.746764  1
  Nd  Nd7  1  0.747206  0.252822  0.252822  1
  Ge  Ge8  1  0.000112  0.000044  0.000044  1
  Pd  Pd9  1  0.259928  0.500310  0.999667  1
  Pd  Pd10  1  0.740124  0.499717  0.000326  1
  Pd  Pd11  1  0.000146  0.259911  0.500010  1
  Pd  Pd12  1  0.499848  0.259913  0.000022  1
  Pd  Pd13  1  0.000801  0.740106  0.500011  1
  Pd  Pd14  1  0.499258  0.740087  0.999989  1
  Pd  Pd15  1  0.499848  0.000022  0.259913  1
  Pd  Pd16  1  0.259928  0.999667  0.500310  1
  Pd  Pd17  1  0.499258  0.999989  0.740087  1
  Pd  Pd18  1  0.740124  0.000326  0.499717  1
  Pd  Pd19  1  0.000146  0.500010  0.259911  1
  Pd  Pd20  1  0.000801  0.500011  0.740106  1
  Pd  Pd21  1  0.253044  0.500348  0.500348  1
  Pd  Pd22  1  0.746948  0.499633  0.499633  1
  Pd  Pd23  1  0.499879  0.253034  0.499986  1
  Pd  Pd24  1  0.499176  0.746964  0.499998  1
  Pd  Pd25  1  0.499879  0.499986  0.253034  1
  Pd  Pd26  1  0.499176  0.499998  0.746964  1
  Pd  Pd27  1  0.290518  0.999389  0.999389  1
  Pd  Pd28  1  0.709078  0.000561  0.000561  1
  Pd  Pd29  1  0.000146  0.290744  0.999974  1
  Pd  Pd30  1  0.001297  0.709312  0.999967  1
  Pd  Pd31  1  0.000146  0.999974  0.290744  1
  Pd  Pd32  1  0.001297  0.999967  0.709312  1
