# generated using pymatgen
data_Ho8Si12Ir3Au
_symmetry_space_group_name_H-M   'P 1'
_cell_length_a   8.18163500
_cell_length_b   8.18162413
_cell_length_c   7.88666600
_cell_angle_alpha   90.00002101
_cell_angle_beta   90.00001401
_cell_angle_gamma   119.99993477
_symmetry_Int_Tables_number   1
_chemical_formula_structural   Ho8Si12Ir3Au
_chemical_formula_sum   'Ho8 Si12 Ir3 Au1'
_cell_volume   457.19765136
_cell_formula_units_Z   1
loop_
 _symmetry_equiv_pos_site_id
 _symmetry_equiv_pos_as_xyz
  1  'x, y, z'
loop_
 _atom_site_type_symbol
 _atom_site_label
 _atom_site_symmetry_multiplicity
 _atom_site_fract_x
 _atom_site_fract_y
 _atom_site_fract_z
 _atom_site_occupancy
  Ho  Ho0  1  0.513534  0.027070  0.245190  1
  Ho  Ho1  1  0.491227  0.982455  0.753762  1
  Ho  Ho2  1  0.972930  0.486465  0.245189  1
  Ho  Ho3  1  0.017544  0.508772  0.753762  1
  Ho  Ho4  1  0.513534  0.486465  0.245189  1
  Ho  Ho5  1  0.491228  0.508773  0.753763  1
  Ho  Ho6  1  0.000001  0.999999  0.250978  1
  Ho  Ho7  1  0.000001  0.000000  0.752778  1
  Si  Si8  1  0.166769  0.333538  0.004401  1
  Si  Si9  1  0.834022  0.668044  0.996237  1
  Si  Si10  1  0.666462  0.833231  0.004401  1
  Si  Si11  1  0.831642  0.663284  0.500663  1
  Si  Si12  1  0.331957  0.165979  0.996237  1
  Si  Si13  1  0.161139  0.322280  0.502586  1
  Si  Si14  1  0.166769  0.833232  0.004401  1
  Si  Si15  1  0.336717  0.168358  0.500663  1
  Si  Si16  1  0.834022  0.165978  0.996237  1
  Si  Si17  1  0.677720  0.838861  0.502586  1
  Si  Si18  1  0.831642  0.168358  0.500663  1
  Si  Si19  1  0.161139  0.838861  0.502586  1
  Ir  Ir20  1  0.333334  0.666667  0.029360  1
  Ir  Ir21  1  0.666667  0.333334  0.964230  1
  Ir  Ir22  1  0.666666  0.333333  0.540566  1
  Au  Au23  1  0.333333  0.666667  0.453574  1
