# generated using pymatgen
data_Er8MoWI8
_symmetry_space_group_name_H-M   'P 1'
_cell_length_a   11.38557850
_cell_length_b   11.38557866
_cell_length_c   5.90619613
_cell_angle_alpha   90.35253394
_cell_angle_beta   90.35252851
_cell_angle_gamma   90.02872224
_symmetry_Int_Tables_number   1
_chemical_formula_structural   Er8MoWI8
_chemical_formula_sum   'Er8 Mo1 W1 I8'
_cell_volume   765.59937538
_cell_formula_units_Z   1
loop_
 _symmetry_equiv_pos_site_id
 _symmetry_equiv_pos_as_xyz
  1  'x, y, z'
loop_
 _atom_site_type_symbol
 _atom_site_label
 _atom_site_symmetry_multiplicity
 _atom_site_fract_x
 _atom_site_fract_y
 _atom_site_fract_z
 _atom_site_occupancy
  Er  Er0  1  0.204433  0.915948  0.002787  1
  Er  Er1  1  0.795477  0.084101  0.998306  1
  Er  Er2  1  0.084052  0.795567  0.497213  1
  Er  Er3  1  0.915899  0.204523  0.501694  1
  Er  Er4  1  0.795382  0.915767  0.496186  1
  Er  Er5  1  0.204550  0.084190  0.502751  1
  Er  Er6  1  0.084233  0.204618  0.003814  1
  Er  Er7  1  0.915810  0.795450  0.997249  1
  Mo  Mo8  1  0.000079  0.999921  0.750000  1
  W  W9  1  0.999986  0.000014  0.250000  1
  I  I10  1  0.357977  0.849706  0.496431  1
  I  I11  1  0.642068  0.150267  0.503086  1
  I  I12  1  0.150294  0.642023  0.003569  1
  I  I13  1  0.849733  0.357932  0.996914  1
  I  I14  1  0.357981  0.150572  0.011135  1
  I  I15  1  0.642053  0.849434  0.989254  1
  I  I16  1  0.849428  0.642019  0.488865  1
  I  I17  1  0.150566  0.357947  0.510746  1
