# generated using pymatgen
data_Pr5Nd(PtCl3)2
_symmetry_space_group_name_H-M   'P 1'
_cell_length_a   10.40342391
_cell_length_b   10.40342143
_cell_length_c   10.41480228
_cell_angle_alpha   109.33683980
_cell_angle_beta   109.53999758
_cell_angle_gamma   109.49264866
_symmetry_Int_Tables_number   1
_chemical_formula_structural   Pr5Nd(PtCl3)2
_chemical_formula_sum   'Pr10 Nd2 Pt4 Cl12'
_cell_volume   868.19454322
_cell_formula_units_Z   2
loop_
 _symmetry_equiv_pos_site_id
 _symmetry_equiv_pos_as_xyz
  1  'x, y, z'
loop_
 _atom_site_type_symbol
 _atom_site_label
 _atom_site_symmetry_multiplicity
 _atom_site_fract_x
 _atom_site_fract_y
 _atom_site_fract_z
 _atom_site_occupancy
  Pr  Pr0  1  0.750059  0.010911  0.489067  1
  Pr  Pr1  1  0.238463  0.477919  0.488402  1
  Pr  Pr2  1  0.261303  0.749921  0.238916  1
  Pr  Pr3  1  0.021844  0.260992  0.010933  1
  Pr  Pr4  1  0.011005  0.022386  0.261084  1
  Pr  Pr5  1  0.489518  0.750061  0.011598  1
  Pr  Pr6  1  0.489479  0.239574  0.477658  1
  Pr  Pr7  1  0.010873  0.488837  0.749804  1
  Pr  Pr8  1  0.261917  0.011821  0.022342  1
  Pr  Pr9  1  0.239033  0.261067  0.750196  1
  Nd  Nd10  1  0.476239  0.488090  0.237881  1
  Nd  Nd11  1  0.750209  0.238360  0.262119  1
  Pt  Pt12  1  0.250385  0.250504  0.249896  1
  Pt  Pt13  1  0.500608  0.000490  0.250104  1
  Pt  Pt14  1  0.999656  0.250050  0.499725  1
  Pt  Pt15  1  0.250325  0.499931  0.000275  1
  Cl  Cl16  1  0.250096  0.748446  0.751682  1
  Cl  Cl17  1  0.496764  0.498414  0.748318  1
  Cl  Cl18  1  0.003465  0.751847  0.001717  1
  Cl  Cl19  1  0.751297  0.250074  0.748553  1
  Cl  Cl20  1  0.001522  0.002744  0.751447  1
  Cl  Cl21  1  0.250131  0.001749  0.498283  1
  Cl  Cl22  1  0.747356  0.495811  0.494818  1
  Cl  Cl23  1  0.500994  0.252539  0.005182  1
  Cl  Cl24  1  0.747312  0.750129  0.250369  1
  Cl  Cl25  1  0.751330  0.003392  0.004331  1
  Cl  Cl26  1  0.999760  0.496943  0.249631  1
  Cl  Cl27  1  0.499060  0.746999  0.495669  1
