# generated using pymatgen
data_LaY6P12Pd17
_symmetry_space_group_name_H-M   'P 1'
_cell_length_a   12.33294232
_cell_length_b   12.33294291
_cell_length_c   13.60987646
_cell_angle_alpha   68.24436417
_cell_angle_beta   68.24436347
_cell_angle_gamma   18.77654971
_symmetry_Int_Tables_number   1
_chemical_formula_structural   LaY6P12Pd17
_chemical_formula_sum   'La1 Y6 P12 Pd17'
_cell_volume   617.50626928
_cell_formula_units_Z   1
loop_
 _symmetry_equiv_pos_site_id
 _symmetry_equiv_pos_as_xyz
  1  'x, y, z'
loop_
 _atom_site_type_symbol
 _atom_site_label
 _atom_site_symmetry_multiplicity
 _atom_site_fract_x
 _atom_site_fract_y
 _atom_site_fract_z
 _atom_site_occupancy
  La  La0  1  0.582277  0.582277  0.738805  1
  Y  Y1  1  0.500044  0.500044  0.499489  1
  Y  Y2  1  0.364598  0.364598  0.001409  1
  Y  Y3  1  0.634919  0.634919  0.000920  1
  Y  Y4  1  0.233755  0.233755  0.313405  1
  Y  Y5  1  0.766843  0.766843  0.685446  1
  Y  Y6  1  0.418275  0.418275  0.261102  1
  P  P7  1  0.062003  0.062003  0.927296  1
  P  P8  1  0.937784  0.937784  0.076690  1
  P  P9  1  0.886664  0.886664  0.829652  1
  P  P10  1  0.113238  0.113238  0.170366  1
  P  P11  1  0.190256  0.190256  0.620903  1
  P  P12  1  0.811729  0.811729  0.377356  1
  P  P13  1  0.364729  0.364729  0.581326  1
  P  P14  1  0.635584  0.635584  0.418418  1
  P  P15  1  0.010356  0.010356  0.664390  1
  P  P16  1  0.987704  0.987704  0.331221  1
  P  P17  1  0.231893  0.231893  0.883507  1
  P  P18  1  0.768762  0.768762  0.118095  1
  Pd  Pd19  1  0.839178  0.839178  0.194168  1
  Pd  Pd20  1  0.162231  0.162231  0.807265  1
  Pd  Pd21  1  0.026251  0.026251  0.125009  1
  Pd  Pd22  1  0.971904  0.971904  0.878344  1
  Pd  Pd23  1  0.888845  0.888845  0.455549  1
  Pd  Pd24  1  0.111502  0.111502  0.539918  1
  Pd  Pd25  1  0.499395  0.499395  0.002397  1
  Pd  Pd26  1  0.545510  0.545510  0.255267  1
  Pd  Pd27  1  0.452602  0.452602  0.745954  1
  Pd  Pd28  1  0.296688  0.296688  0.489358  1
  Pd  Pd29  1  0.705099  0.705099  0.508167  1
  Pd  Pd30  1  0.667764  0.667764  0.224947  1
  Pd  Pd31  1  0.331982  0.331982  0.774869  1
  Pd  Pd32  1  0.909045  0.909045  0.640711  1
  Pd  Pd33  1  0.090428  0.090428  0.357219  1
  Pd  Pd34  1  0.216474  0.216474  0.069147  1
  Pd  Pd35  1  0.783688  0.783688  0.931913  1
