# generated using pymatgen
data_Zr2Ti3(GeAs)2
_symmetry_space_group_name_H-M   'P 1'
_cell_length_a   6.87460000
_cell_length_b   6.85661700
_cell_length_c   13.13096400
_cell_angle_alpha   90.00000000
_cell_angle_beta   90.00000000
_cell_angle_gamma   90.00000000
_symmetry_Int_Tables_number   1
_chemical_formula_structural   Zr2Ti3(GeAs)2
_chemical_formula_sum   'Zr8 Ti12 Ge8 As8'
_cell_volume   618.94767445
_cell_formula_units_Z   4
loop_
 _symmetry_equiv_pos_site_id
 _symmetry_equiv_pos_as_xyz
  1  'x, y, z'
loop_
 _atom_site_type_symbol
 _atom_site_label
 _atom_site_symmetry_multiplicity
 _atom_site_fract_x
 _atom_site_fract_y
 _atom_site_fract_z
 _atom_site_occupancy
  Zr  Zr0  1  0.483964  0.679087  0.092749  1
  Zr  Zr1  1  0.983964  0.820913  0.407251  1
  Zr  Zr2  1  0.516036  0.320913  0.592749  1
  Zr  Zr3  1  0.016036  0.179087  0.907251  1
  Zr  Zr4  1  0.516036  0.320913  0.907251  1
  Zr  Zr5  1  0.016036  0.179087  0.592749  1
  Zr  Zr6  1  0.483964  0.679087  0.407251  1
  Zr  Zr7  1  0.983964  0.820913  0.092749  1
  Ti  Ti8  1  0.325840  0.006991  0.250000  1
  Ti  Ti9  1  0.825840  0.493009  0.250000  1
  Ti  Ti10  1  0.674160  0.993009  0.750000  1
  Ti  Ti11  1  0.174160  0.506991  0.750000  1
  Ti  Ti12  1  0.653115  0.161205  0.122858  1
  Ti  Ti13  1  0.153115  0.338795  0.377142  1
  Ti  Ti14  1  0.346885  0.838795  0.622858  1
  Ti  Ti15  1  0.846885  0.661205  0.877142  1
  Ti  Ti16  1  0.346885  0.838795  0.877142  1
  Ti  Ti17  1  0.846885  0.661205  0.622858  1
  Ti  Ti18  1  0.653115  0.161205  0.377142  1
  Ti  Ti19  1  0.153115  0.338795  0.122858  1
  Ge  Ge20  1  0.687951  0.855903  0.250000  1
  Ge  Ge21  1  0.187951  0.644097  0.250000  1
  Ge  Ge22  1  0.312049  0.144097  0.750000  1
  Ge  Ge23  1  0.812049  0.355903  0.750000  1
  Ge  Ge24  1  0.455575  0.377415  0.250000  1
  Ge  Ge25  1  0.955575  0.122585  0.250000  1
  Ge  Ge26  1  0.544425  0.622585  0.750000  1
  Ge  Ge27  1  0.044425  0.877415  0.750000  1
  As  As28  1  0.693852  0.957289  0.957425  1
  As  As29  1  0.193852  0.542711  0.542575  1
  As  As30  1  0.306148  0.042711  0.457425  1
  As  As31  1  0.806148  0.457289  0.042575  1
  As  As32  1  0.306148  0.042711  0.042575  1
  As  As33  1  0.806148  0.457289  0.457425  1
  As  As34  1  0.693852  0.957289  0.542575  1
  As  As35  1  0.193852  0.542711  0.957425  1
