# generated using pymatgen
data_YbHo3NbOs7
_symmetry_space_group_name_H-M   'P 1'
_cell_length_a   5.43396400
_cell_length_b   5.43396275
_cell_length_c   8.63308700
_cell_angle_alpha   90.00000000
_cell_angle_beta   90.00000000
_cell_angle_gamma   119.99999544
_symmetry_Int_Tables_number   1
_chemical_formula_structural   YbHo3NbOs7
_chemical_formula_sum   'Yb1 Ho3 Nb1 Os7'
_cell_volume   220.76498035
_cell_formula_units_Z   1
loop_
 _symmetry_equiv_pos_site_id
 _symmetry_equiv_pos_as_xyz
  1  'x, y, z'
loop_
 _atom_site_type_symbol
 _atom_site_label
 _atom_site_symmetry_multiplicity
 _atom_site_fract_x
 _atom_site_fract_y
 _atom_site_fract_z
 _atom_site_occupancy
  Yb  Yb0  1  0.333333  0.666667  0.060702  1
  Ho  Ho1  1  0.333333  0.666667  0.421574  1
  Ho  Ho2  1  0.666667  0.333333  0.571788  1
  Ho  Ho3  1  0.666667  0.333333  0.942135  1
  Nb  Nb4  1  0.000000  0.000000  0.503513  1
  Os  Os5  1  0.000000  0.000000  0.999099  1
  Os  Os6  1  0.827137  0.172863  0.249254  1
  Os  Os7  1  0.827137  0.654275  0.249254  1
  Os  Os8  1  0.345725  0.172863  0.249254  1
  Os  Os9  1  0.174499  0.825501  0.751142  1
  Os  Os10  1  0.174499  0.348997  0.751142  1
  Os  Os11  1  0.651003  0.825501  0.751142  1
