# generated using pymatgen
data_Tb2B10Ir
_symmetry_space_group_name_H-M   'P 1'
_cell_length_a   4.17991900
_cell_length_b   5.69317200
_cell_length_c   11.35474300
_cell_angle_alpha   90.00000000
_cell_angle_beta   90.00000000
_cell_angle_gamma   90.00000000
_symmetry_Int_Tables_number   1
_chemical_formula_structural   Tb2B10Ir
_chemical_formula_sum   'Tb4 B20 Ir2'
_cell_volume   270.20879434
_cell_formula_units_Z   2
loop_
 _symmetry_equiv_pos_site_id
 _symmetry_equiv_pos_as_xyz
  1  'x, y, z'
loop_
 _atom_site_type_symbol
 _atom_site_label
 _atom_site_symmetry_multiplicity
 _atom_site_fract_x
 _atom_site_fract_y
 _atom_site_fract_z
 _atom_site_occupancy
  Tb  Tb0  1  0.500000  0.204821  0.366076  1
  Tb  Tb1  1  0.500000  0.795179  0.633924  1
  Tb  Tb2  1  0.500000  0.295179  0.866076  1
  Tb  Tb3  1  0.500000  0.704821  0.133924  1
  B  B4  1  0.000000  0.381460  0.042810  1
  B  B5  1  0.000000  0.618540  0.957190  1
  B  B6  1  0.000000  0.118540  0.542810  1
  B  B7  1  0.000000  0.881460  0.457190  1
  B  B8  1  0.000000  0.363174  0.197331  1
  B  B9  1  0.000000  0.636826  0.802669  1
  B  B10  1  0.000000  0.136826  0.697331  1
  B  B11  1  0.000000  0.863174  0.302669  1
  B  B12  1  0.000000  0.055511  0.193154  1
  B  B13  1  0.000000  0.944489  0.806846  1
  B  B14  1  0.000000  0.444489  0.693154  1
  B  B15  1  0.000000  0.555511  0.306846  1
  B  B16  1  0.301224  0.219984  0.118956  1
  B  B17  1  0.698776  0.780016  0.881044  1
  B  B18  1  0.301224  0.780016  0.881044  1
  B  B19  1  0.698776  0.280016  0.618956  1
  B  B20  1  0.698776  0.219984  0.118956  1
  B  B21  1  0.301224  0.719984  0.381044  1
  B  B22  1  0.698776  0.719984  0.381044  1
  B  B23  1  0.301224  0.280016  0.618956  1
  Ir  Ir24  1  0.000000  0.000000  0.000000  1
  Ir  Ir25  1  0.000000  0.500000  0.500000  1
