# generated using pymatgen
data_HoTmCo9P6Ru
_symmetry_space_group_name_H-M   'P 1'
_cell_length_a   3.66124300
_cell_length_b   10.30657200
_cell_length_c   11.72906700
_cell_angle_alpha   90.00000000
_cell_angle_beta   90.00000000
_cell_angle_gamma   90.00000000
_symmetry_Int_Tables_number   1
_chemical_formula_structural   HoTmCo9P6Ru
_chemical_formula_sum   'Ho2 Tm2 Co18 P12 Ru2'
_cell_volume   442.59475500
_cell_formula_units_Z   2
loop_
 _symmetry_equiv_pos_site_id
 _symmetry_equiv_pos_as_xyz
  1  'x, y, z'
loop_
 _atom_site_type_symbol
 _atom_site_label
 _atom_site_symmetry_multiplicity
 _atom_site_fract_x
 _atom_site_fract_y
 _atom_site_fract_z
 _atom_site_occupancy
  Ho  Ho0  1  0.250000  0.582288  0.702200  1
  Ho  Ho1  1  0.250000  0.917712  0.202200  1
  Tm  Tm2  1  0.750000  0.414045  0.295541  1
  Tm  Tm3  1  0.750000  0.085955  0.795541  1
  Co  Co4  1  0.750000  0.283382  0.008274  1
  Co  Co5  1  0.750000  0.216618  0.508274  1
  Co  Co6  1  0.250000  0.406027  0.486962  1
  Co  Co7  1  0.250000  0.093973  0.986962  1
  Co  Co8  1  0.750000  0.590508  0.510312  1
  Co  Co9  1  0.750000  0.909492  0.010312  1
  Co  Co10  1  0.250000  0.221046  0.176912  1
  Co  Co11  1  0.250000  0.278954  0.676912  1
  Co  Co12  1  0.750000  0.778552  0.822913  1
  Co  Co13  1  0.750000  0.721448  0.322913  1
  Co  Co14  1  0.250000  0.887328  0.702173  1
  Co  Co15  1  0.250000  0.612672  0.202173  1
  Co  Co16  1  0.750000  0.116769  0.300759  1
  Co  Co17  1  0.750000  0.383231  0.800759  1
  Co  Co18  1  0.250000  0.464138  0.932471  1
  Co  Co19  1  0.250000  0.035862  0.432471  1
  Co  Co20  1  0.750000  0.532455  0.069542  1
  Co  Co21  1  0.750000  0.967545  0.569542  1
  P  P22  1  0.250000  0.417028  0.112942  1
  P  P23  1  0.250000  0.082972  0.612942  1
  P  P24  1  0.750000  0.578619  0.886911  1
  P  P25  1  0.750000  0.921381  0.386911  1
  P  P26  1  0.250000  0.269235  0.868967  1
  P  P27  1  0.250000  0.230765  0.368967  1
  P  P28  1  0.750000  0.729170  0.132702  1
  P  P29  1  0.750000  0.770830  0.632702  1
  P  P30  1  0.250000  0.593953  0.390024  1
  P  P31  1  0.250000  0.906047  0.890024  1
  P  P32  1  0.750000  0.397243  0.608689  1
  P  P33  1  0.750000  0.102757  0.108689  1
  Ru  Ru34  1  0.250000  0.715591  0.991705  1
  Ru  Ru35  1  0.250000  0.784409  0.491705  1
