# generated using pymatgen
data_CsMn2S3
_symmetry_space_group_name_H-M   'P 1'
_cell_length_a   7.79411089
_cell_length_b   7.79411049
_cell_length_c   5.21330300
_cell_angle_alpha   90.00000000
_cell_angle_beta   90.00000000
_cell_angle_gamma   104.44834027
_symmetry_Int_Tables_number   1
_chemical_formula_structural   CsMn2S3
_chemical_formula_sum   'Cs2 Mn4 S6'
_cell_volume   306.68234580
_cell_formula_units_Z   2
loop_
 _symmetry_equiv_pos_site_id
 _symmetry_equiv_pos_as_xyz
  1  'x, y, z'
loop_
 _atom_site_type_symbol
 _atom_site_label
 _atom_site_symmetry_multiplicity
 _atom_site_fract_x
 _atom_site_fract_y
 _atom_site_fract_z
 _atom_site_occupancy
  Cs  Cs0  1  0.177430  0.822569  0.249999  1
  Cs  Cs1  1  0.822569  0.177430  0.750000  1
  Mn  Mn2  1  0.368119  0.368119  0.000000  1
  Mn  Mn3  1  0.631881  0.631881  0.000000  1
  Mn  Mn4  1  0.368119  0.368119  0.500001  1
  Mn  Mn5  1  0.631881  0.631881  0.500001  1
  S  S6  1  0.138575  0.325994  0.249999  1
  S  S7  1  0.607183  0.392817  0.249999  1
  S  S8  1  0.674006  0.861425  0.249999  1
  S  S9  1  0.325994  0.138575  0.750000  1
  S  S10  1  0.392817  0.607183  0.750000  1
  S  S11  1  0.861425  0.674006  0.750000  1
