# generated using pymatgen
data_Er3Lu7Si5P
_symmetry_space_group_name_H-M   'P 1'
_cell_length_a   8.24172800
_cell_length_b   8.24847282
_cell_length_c   6.14638900
_cell_angle_alpha   90.00000000
_cell_angle_beta   90.00000000
_cell_angle_gamma   119.97295423
_symmetry_Int_Tables_number   1
_chemical_formula_structural   Er3Lu7Si5P
_chemical_formula_sum   'Er3 Lu7 Si5 P1'
_cell_volume   361.96017859
_cell_formula_units_Z   1
loop_
 _symmetry_equiv_pos_site_id
 _symmetry_equiv_pos_as_xyz
  1  'x, y, z'
loop_
 _atom_site_type_symbol
 _atom_site_label
 _atom_site_symmetry_multiplicity
 _atom_site_fract_x
 _atom_site_fract_y
 _atom_site_fract_z
 _atom_site_occupancy
  Er  Er0  1  0.755811  0.000000  0.750000  1
  Er  Er1  1  0.000974  0.757449  0.750000  1
  Er  Er2  1  0.243525  0.242551  0.750000  1
  Lu  Lu3  1  0.666189  0.332579  0.999861  1
  Lu  Lu4  1  0.333609  0.667421  0.500139  1
  Lu  Lu5  1  0.333609  0.667421  0.999861  1
  Lu  Lu6  1  0.666189  0.332579  0.500139  1
  Lu  Lu7  1  0.757639  0.756802  0.250000  1
  Lu  Lu8  1  0.000837  0.243198  0.250000  1
  Lu  Lu9  1  0.242820  0.000000  0.250000  1
  Si  Si10  1  0.394813  0.394104  0.250000  1
  Si  Si11  1  0.000709  0.605896  0.250000  1
  Si  Si12  1  0.999980  0.395110  0.750000  1
  Si  Si13  1  0.604870  0.604890  0.750000  1
  Si  Si14  1  0.606411  0.000000  0.250000  1
  P  P15  1  0.392016  0.000000  0.750000  1
