# generated using pymatgen
data_TbTm2AuO7
_symmetry_space_group_name_H-M   'P 1'
_cell_length_a   6.43120654
_cell_length_b   6.43120786
_cell_length_c   7.40067500
_cell_angle_alpha   90.00000000
_cell_angle_beta   90.00000000
_cell_angle_gamma   108.80299695
_symmetry_Int_Tables_number   1
_chemical_formula_structural   TbTm2AuO7
_chemical_formula_sum   'Tb2 Tm4 Au2 O14'
_cell_volume   289.75951263
_cell_formula_units_Z   2
loop_
 _symmetry_equiv_pos_site_id
 _symmetry_equiv_pos_as_xyz
  1  'x, y, z'
loop_
 _atom_site_type_symbol
 _atom_site_label
 _atom_site_symmetry_multiplicity
 _atom_site_fract_x
 _atom_site_fract_y
 _atom_site_fract_z
 _atom_site_occupancy
  Tb  Tb0  1  0.500000  0.500000  0.500000  1
  Tb  Tb1  1  0.500000  0.500000  0.000000  1
  Tm  Tm2  1  0.528885  0.998200  0.750000  1
  Tm  Tm3  1  0.998200  0.528885  0.250000  1
  Tm  Tm4  1  0.471115  0.001800  0.250000  1
  Tm  Tm5  1  0.001800  0.471115  0.750000  1
  Au  Au6  1  0.000000  0.000000  0.500000  1
  Au  Au7  1  0.000000  0.000000  0.000000  1
  O  O8  1  0.667599  0.919966  0.475358  1
  O  O9  1  0.919966  0.667599  0.524642  1
  O  O10  1  0.667599  0.919966  0.024642  1
  O  O11  1  0.919966  0.667599  0.975358  1
  O  O12  1  0.332401  0.080034  0.524642  1
  O  O13  1  0.080034  0.332401  0.475358  1
  O  O14  1  0.332401  0.080034  0.975358  1
  O  O15  1  0.080034  0.332401  0.024642  1
  O  O16  1  0.918623  0.081377  0.750000  1
  O  O17  1  0.081377  0.918623  0.250000  1
  O  O18  1  0.364626  0.635374  0.750000  1
  O  O19  1  0.635374  0.364626  0.250000  1
  O  O20  1  0.642020  0.357980  0.750000  1
  O  O21  1  0.357980  0.642020  0.250000  1
