# generated using pymatgen
data_ThSi(AsRh2)3
_symmetry_space_group_name_H-M   'P 1'
_cell_length_a   7.20627200
_cell_length_b   7.20627146
_cell_length_c   3.89307200
_cell_angle_alpha   90.00000000
_cell_angle_beta   90.00000000
_cell_angle_gamma   120.00000246
_symmetry_Int_Tables_number   1
_chemical_formula_structural   ThSi(AsRh2)3
_chemical_formula_sum   'Th1 Si1 As3 Rh6'
_cell_volume   175.08313946
_cell_formula_units_Z   1
loop_
 _symmetry_equiv_pos_site_id
 _symmetry_equiv_pos_as_xyz
  1  'x, y, z'
loop_
 _atom_site_type_symbol
 _atom_site_label
 _atom_site_symmetry_multiplicity
 _atom_site_fract_x
 _atom_site_fract_y
 _atom_site_fract_z
 _atom_site_occupancy
  Th  Th0  1  0.000000  0.000000  0.000000  1
  Si  Si1  1  0.333333  0.666667  0.000000  1
  As  As2  1  0.806459  0.193541  0.500000  1
  As  As3  1  0.387083  0.193541  0.500000  1
  As  As4  1  0.806459  0.612917  0.500000  1
  Rh  Rh5  1  0.200467  0.799533  0.500000  1
  Rh  Rh6  1  0.200467  0.400934  0.500000  1
  Rh  Rh7  1  0.530121  0.060243  0.000000  1
  Rh  Rh8  1  0.939757  0.469879  0.000000  1
  Rh  Rh9  1  0.530121  0.469879  0.000000  1
  Rh  Rh10  1  0.599066  0.799533  0.500000  1
