# generated using pymatgen
data_Ho3Er4TmIn3Co
_symmetry_space_group_name_H-M   'P 1'
_cell_length_a   10.28461379
_cell_length_b   10.28461278
_cell_length_c   6.97652338
_cell_angle_alpha   89.96731405
_cell_angle_beta   90.03268843
_cell_angle_gamma   120.03065167
_symmetry_Int_Tables_number   1
_chemical_formula_structural   Ho3Er4TmIn3Co
_chemical_formula_sum   'Ho6 Er8 Tm2 In6 Co2'
_cell_volume   638.86824457
_cell_formula_units_Z   2
loop_
 _symmetry_equiv_pos_site_id
 _symmetry_equiv_pos_as_xyz
  1  'x, y, z'
loop_
 _atom_site_type_symbol
 _atom_site_label
 _atom_site_symmetry_multiplicity
 _atom_site_fract_x
 _atom_site_fract_y
 _atom_site_fract_z
 _atom_site_occupancy
  Ho  Ho0  1  0.534687  0.070343  0.791558  1
  Ho  Ho1  1  0.929657  0.465313  0.791558  1
  Ho  Ho2  1  0.535119  0.464881  0.791244  1
  Ho  Ho3  1  0.464856  0.929922  0.291813  1
  Ho  Ho4  1  0.070078  0.535144  0.291813  1
  Ho  Ho5  1  0.465207  0.534793  0.291651  1
  Er  Er6  1  0.821736  0.178264  0.498622  1
  Er  Er7  1  0.178142  0.356735  0.997953  1
  Er  Er8  1  0.643265  0.821858  0.997953  1
  Er  Er9  1  0.178357  0.821643  0.998285  1
  Er  Er10  1  0.666625  0.333375  0.183346  1
  Er  Er11  1  0.333250  0.666750  0.681999  1
  Er  Er12  1  0.000334  0.999666  0.778955  1
  Er  Er13  1  0.999986  0.000014  0.280029  1
  Tm  Tm14  1  0.821581  0.642793  0.498329  1
  Tm  Tm15  1  0.357207  0.178419  0.498329  1
  In  In16  1  0.837023  0.674602  0.041334  1
  In  In17  1  0.325398  0.162977  0.041334  1
  In  In18  1  0.837189  0.162811  0.039142  1
  In  In19  1  0.163033  0.324838  0.539160  1
  In  In20  1  0.675162  0.836967  0.539160  1
  In  In21  1  0.162379  0.837621  0.538987  1
  Co  Co22  1  0.666424  0.333576  0.566860  1
  Co  Co23  1  0.333307  0.666693  0.066488  1
