# generated using pymatgen
data_TbTh3(HgPd2)2
_symmetry_space_group_name_H-M   'P 1'
_cell_length_a   3.80716900
_cell_length_b   7.90586794
_cell_length_c   7.90586728
_cell_angle_alpha   90.67161160
_cell_angle_beta   90.00000000
_cell_angle_gamma   90.00000000
_symmetry_Int_Tables_number   1
_chemical_formula_structural   TbTh3(HgPd2)2
_chemical_formula_sum   'Tb1 Th3 Hg2 Pd4'
_cell_volume   237.94215656
_cell_formula_units_Z   1
loop_
 _symmetry_equiv_pos_site_id
 _symmetry_equiv_pos_as_xyz
  1  'x, y, z'
loop_
 _atom_site_type_symbol
 _atom_site_label
 _atom_site_symmetry_multiplicity
 _atom_site_fract_x
 _atom_site_fract_y
 _atom_site_fract_z
 _atom_site_occupancy
  Tb  Tb0  1  0.500000  0.674704  0.825296  1
  Th  Th1  1  0.500000  0.172515  0.676231  1
  Th  Th2  1  0.500000  0.823769  0.327485  1
  Th  Th3  1  0.500000  0.328342  0.171658  1
  Hg  Hg4  1  0.000000  0.994732  0.998055  1
  Hg  Hg5  1  0.000000  0.501945  0.505268  1
  Pd  Pd6  1  0.000000  0.626624  0.128782  1
  Pd  Pd7  1  0.000000  0.371218  0.873376  1
  Pd  Pd8  1  0.000000  0.876608  0.623392  1
  Pd  Pd9  1  0.000000  0.129543  0.370457  1
