# generated using pymatgen
data_Tb2Y4Al24Ir5Ru3
_symmetry_space_group_name_H-M   'P 1'
_cell_length_a   8.84076311
_cell_length_b   8.79335786
_cell_length_c   9.54708703
_cell_angle_alpha   89.99999789
_cell_angle_beta   89.91351282
_cell_angle_gamma   119.82277873
_symmetry_Int_Tables_number   1
_chemical_formula_structural   Tb2Y4Al24Ir5Ru3
_chemical_formula_sum   'Tb2 Y4 Al24 Ir5 Ru3'
_cell_volume   643.89959674
_cell_formula_units_Z   1
loop_
 _symmetry_equiv_pos_site_id
 _symmetry_equiv_pos_as_xyz
  1  'x, y, z'
loop_
 _atom_site_type_symbol
 _atom_site_label
 _atom_site_symmetry_multiplicity
 _atom_site_fract_x
 _atom_site_fract_y
 _atom_site_fract_z
 _atom_site_occupancy
  Tb  Tb0  1  0.190995  0.806094  0.750248  1
  Tb  Tb1  1  0.190995  0.384901  0.750248  1
  Y  Y2  1  0.385368  0.192684  0.249832  1
  Y  Y3  1  0.808806  0.194173  0.249800  1
  Y  Y4  1  0.808806  0.614632  0.249800  1
  Y  Y5  1  0.614661  0.807331  0.750168  1
  Al  Al6  1  0.438327  0.875125  0.250214  1
  Al  Al7  1  0.124059  0.562029  0.248645  1
  Al  Al8  1  0.438327  0.563202  0.250214  1
  Al  Al9  1  0.561900  0.125054  0.749737  1
  Al  Al10  1  0.875442  0.437722  0.751377  1
  Al  Al11  1  0.561900  0.436846  0.749737  1
  Al  Al12  1  0.164621  0.837441  0.423136  1
  Al  Al13  1  0.164621  0.327182  0.423136  1
  Al  Al14  1  0.674256  0.837129  0.423372  1
  Al  Al15  1  0.835320  0.162514  0.576659  1
  Al  Al16  1  0.835320  0.672804  0.576659  1
  Al  Al17  1  0.325789  0.162894  0.576552  1
  Al  Al18  1  0.837511  0.164743  0.923507  1
  Al  Al19  1  0.837511  0.672767  0.923507  1
  Al  Al20  1  0.326756  0.163378  0.924412  1
  Al  Al21  1  0.162350  0.835169  0.076711  1
  Al  Al22  1  0.162350  0.327183  0.076711  1
  Al  Al23  1  0.673306  0.836653  0.075674  1
  Al  Al24  1  0.332746  0.666374  0.527912  1
  Al  Al25  1  0.667461  0.333730  0.471671  1
  Al  Al26  1  0.669646  0.334823  0.027658  1
  Al  Al27  1  0.330526  0.665264  0.972769  1
  Al  Al28  1  0.001868  0.000934  0.250042  1
  Al  Al29  1  0.998227  0.999113  0.749957  1
  Ir  Ir30  1  0.500111  0.000100  0.499917  1
  Ir  Ir31  1  0.999972  0.499986  0.499957  1
  Ir  Ir32  1  0.500111  0.500011  0.499917  1
  Ir  Ir33  1  0.500074  0.000064  0.000042  1
  Ir  Ir34  1  0.500074  0.500010  0.000042  1
  Ru  Ru35  1  0.999979  0.999990  0.499893  1
  Ru  Ru36  1  0.999973  0.999986  0.000112  1
  Ru  Ru37  1  0.999934  0.499967  0.000058  1
