# generated using pymatgen
data_La2GeCO7
_symmetry_space_group_name_H-M   'P 1'
_cell_length_a   6.91246695
_cell_length_b   6.97129711
_cell_length_c   7.16322391
_cell_angle_alpha   96.87908008
_cell_angle_beta   116.47163312
_cell_angle_gamma   91.16477619
_symmetry_Int_Tables_number   1
_chemical_formula_structural   La2GeCO7
_chemical_formula_sum   'La4 Ge2 C2 O14'
_cell_volume   305.71483862
_cell_formula_units_Z   2
loop_
 _symmetry_equiv_pos_site_id
 _symmetry_equiv_pos_as_xyz
  1  'x, y, z'
loop_
 _atom_site_type_symbol
 _atom_site_label
 _atom_site_symmetry_multiplicity
 _atom_site_fract_x
 _atom_site_fract_y
 _atom_site_fract_z
 _atom_site_occupancy
  La  La0  1  0.263463  0.662545  0.194654  1
  La  La1  1  0.247770  0.910498  0.706938  1
  La  La2  1  0.736537  0.337455  0.805346  1
  La  La3  1  0.752230  0.089502  0.293062  1
  Ge  Ge4  1  0.260461  0.156672  0.240015  1
  Ge  Ge5  1  0.739539  0.843328  0.759985  1
  C  C6  1  0.807068  0.592888  0.268666  1
  C  C7  1  0.192932  0.407112  0.731334  1
  O  O8  1  0.118420  0.021424  0.341241  1
  O  O9  1  0.336719  0.285593  0.745511  1
  O  O10  1  0.257496  0.584870  0.828467  1
  O  O11  1  0.011662  0.647794  0.374388  1
  O  O12  1  0.477600  0.741925  0.568389  1
  O  O13  1  0.661891  0.024625  0.911597  1
  O  O14  1  0.988338  0.352206  0.625612  1
  O  O15  1  0.338109  0.975375  0.088403  1
  O  O16  1  0.116406  0.331006  0.085650  1
  O  O17  1  0.881580  0.978576  0.658759  1
  O  O18  1  0.742504  0.415130  0.171533  1
  O  O19  1  0.883594  0.668994  0.914350  1
  O  O20  1  0.663281  0.714407  0.254489  1
  O  O21  1  0.522400  0.258075  0.431611  1
