# generated using pymatgen
data_K9Rb3(P4W)2
_symmetry_space_group_name_H-M   'P 1'
_cell_length_a   10.24929142
_cell_length_b   10.32889162
_cell_length_c   8.00309067
_cell_angle_alpha   89.80151862
_cell_angle_beta   89.99435982
_cell_angle_gamma   120.83531745
_symmetry_Int_Tables_number   1
_chemical_formula_structural   K9Rb3(P4W)2
_chemical_formula_sum   'K9 Rb3 P8 W2'
_cell_volume   727.46960579
_cell_formula_units_Z   1
loop_
 _symmetry_equiv_pos_site_id
 _symmetry_equiv_pos_as_xyz
  1  'x, y, z'
loop_
 _atom_site_type_symbol
 _atom_site_label
 _atom_site_symmetry_multiplicity
 _atom_site_fract_x
 _atom_site_fract_y
 _atom_site_fract_z
 _atom_site_occupancy
  K  K0  1  0.148103  0.298631  0.288932  1
  K  K1  1  0.848774  0.152430  0.787763  1
  K  K2  1  0.531053  0.468957  0.104950  1
  K  K3  1  0.063708  0.532123  0.606909  1
  K  K4  1  0.466261  0.936880  0.605974  1
  K  K5  1  0.533502  0.062510  0.105092  1
  K  K6  1  0.935720  0.466168  0.104595  1
  K  K7  1  0.467192  0.528606  0.606407  1
  K  K8  1  0.151561  0.847775  0.287881  1
  Rb  Rb9  1  0.719540  0.860208  0.293577  1
  Rb  Rb10  1  0.857258  0.713986  0.791463  1
  Rb  Rb11  1  0.281075  0.140445  0.793779  1
  P  P12  1  0.795066  0.582420  0.399475  1
  P  P13  1  0.413282  0.204519  0.397843  1
  P  P14  1  0.334772  0.666007  0.287421  1
  P  P15  1  0.664803  0.332873  0.782579  1
  P  P16  1  0.793746  0.210686  0.403539  1
  P  P17  1  0.208195  0.788527  0.906606  1
  P  P18  1  0.203390  0.414712  0.904606  1
  P  P19  1  0.584144  0.794157  0.900843  1
  W  W20  1  0.666153  0.332111  0.492309  1
  W  W21  1  0.332703  0.665269  0.997255  1
