# generated using pymatgen
data_V12ZnFe4Si7C4
_symmetry_space_group_name_H-M   'P 1'
_cell_length_a   7.65597256
_cell_length_b   7.65515406
_cell_length_c   7.65515400
_cell_angle_alpha   60.00000025
_cell_angle_beta   60.00353675
_cell_angle_gamma   60.00353291
_symmetry_Int_Tables_number   1
_chemical_formula_structural   V12ZnFe4Si7C4
_chemical_formula_sum   'V12 Zn1 Fe4 Si7 C4'
_cell_volume   317.26081828
_cell_formula_units_Z   1
loop_
 _symmetry_equiv_pos_site_id
 _symmetry_equiv_pos_as_xyz
  1  'x, y, z'
loop_
 _atom_site_type_symbol
 _atom_site_label
 _atom_site_symmetry_multiplicity
 _atom_site_fract_x
 _atom_site_fract_y
 _atom_site_fract_z
 _atom_site_occupancy
  V  V0  1  0.811055  0.810134  0.189406  1
  V  V1  1  0.187477  0.188490  0.812017  1
  V  V2  1  0.811055  0.189406  0.810134  1
  V  V3  1  0.187477  0.812017  0.188490  1
  V  V4  1  0.187477  0.812017  0.812017  1
  V  V5  1  0.811055  0.189406  0.189406  1
  V  V6  1  0.435079  0.439774  0.062574  1
  V  V7  1  0.064677  0.042326  0.446498  1
  V  V8  1  0.435079  0.062574  0.439774  1
  V  V9  1  0.064677  0.446498  0.042326  1
  V  V10  1  0.064677  0.446498  0.446498  1
  V  V11  1  0.435079  0.062574  0.062574  1
  Zn  Zn12  1  0.768409  0.410531  0.410531  1
  Fe  Fe13  1  0.127469  0.624177  0.624177  1
  Fe  Fe14  1  0.620293  0.116292  0.631708  1
  Fe  Fe15  1  0.620293  0.631708  0.116292  1
  Fe  Fe16  1  0.620293  0.631708  0.631708  1
  Si  Si17  1  0.422951  0.754102  0.411474  1
  Si  Si18  1  0.422951  0.411474  0.754102  1
  Si  Si19  1  0.422951  0.411474  0.411474  1
  Si  Si20  1  0.487917  0.837360  0.837360  1
  Si  Si21  1  0.834001  0.491718  0.837139  1
  Si  Si22  1  0.834001  0.837139  0.491718  1
  Si  Si23  1  0.834001  0.837139  0.837139  1
  C  C24  1  0.623079  0.125640  0.125640  1
  C  C25  1  0.122175  0.621357  0.128234  1
  C  C26  1  0.122175  0.128234  0.621357  1
  C  C27  1  0.122175  0.128234  0.128234  1
