# generated using pymatgen
data_Er16Cd3Co4Ag
_symmetry_space_group_name_H-M   'P 1'
_cell_length_a   9.36861151
_cell_length_b   9.37861479
_cell_length_c   9.36861300
_cell_angle_alpha   60.03528209
_cell_angle_beta   60.00000533
_cell_angle_gamma   60.03528235
_symmetry_Int_Tables_number   1
_chemical_formula_structural   Er16Cd3Co4Ag
_chemical_formula_sum   'Er16 Cd3 Co4 Ag1'
_cell_volume   582.37892084
_cell_formula_units_Z   1
loop_
 _symmetry_equiv_pos_site_id
 _symmetry_equiv_pos_as_xyz
  1  'x, y, z'
loop_
 _atom_site_type_symbol
 _atom_site_label
 _atom_site_symmetry_multiplicity
 _atom_site_fract_x
 _atom_site_fract_y
 _atom_site_fract_z
 _atom_site_occupancy
  Er  Er0  1  0.153489  0.539533  0.153489  1
  Er  Er1  1  0.687632  0.312530  0.687632  1
  Er  Er2  1  0.687632  0.312530  0.312206  1
  Er  Er3  1  0.937917  0.559184  0.564981  1
  Er  Er4  1  0.540049  0.152898  0.153526  1
  Er  Er5  1  0.153526  0.152898  0.540049  1
  Er  Er6  1  0.937670  0.936254  0.563038  1
  Er  Er7  1  0.312090  0.687957  0.312090  1
  Er  Er8  1  0.563038  0.936254  0.937670  1
  Er  Er9  1  0.563038  0.936254  0.563038  1
  Er  Er10  1  0.687863  0.687957  0.312090  1
  Er  Er11  1  0.564981  0.559184  0.937917  1
  Er  Er12  1  0.937917  0.559184  0.937917  1
  Er  Er13  1  0.312090  0.687957  0.687863  1
  Er  Er14  1  0.153526  0.152898  0.153526  1
  Er  Er15  1  0.312206  0.312530  0.687632  1
  Cd  Cd16  1  0.919202  0.922076  0.919202  1
  Cd  Cd17  1  0.919202  0.922076  0.239520  1
  Cd  Cd18  1  0.239520  0.922076  0.919202  1
  Co  Co19  1  0.358727  0.359128  0.923420  1
  Co  Co20  1  0.359084  0.922749  0.359084  1
  Co  Co21  1  0.923420  0.359128  0.358727  1
  Co  Co22  1  0.358727  0.359128  0.358727  1
  Ag  Ag23  1  0.917454  0.247638  0.917454  1
