# generated using pymatgen
data_Dy2CdCuNi
_symmetry_space_group_name_H-M   'P 1'
_cell_length_a   7.48532690
_cell_length_b   7.48532690
_cell_length_c   3.66486100
_cell_angle_alpha   90.00000000
_cell_angle_beta   90.00000000
_cell_angle_gamma   90.67509247
_symmetry_Int_Tables_number   1
_chemical_formula_structural   Dy2CdCuNi
_chemical_formula_sum   'Dy4 Cd2 Cu2 Ni2'
_cell_volume   205.32834345
_cell_formula_units_Z   2
loop_
 _symmetry_equiv_pos_site_id
 _symmetry_equiv_pos_as_xyz
  1  'x, y, z'
loop_
 _atom_site_type_symbol
 _atom_site_label
 _atom_site_symmetry_multiplicity
 _atom_site_fract_x
 _atom_site_fract_y
 _atom_site_fract_z
 _atom_site_occupancy
  Dy  Dy0  1  0.684167  0.184167  0.500000  1
  Dy  Dy1  1  0.315833  0.815833  0.500000  1
  Dy  Dy2  1  0.166779  0.333221  0.500000  1
  Dy  Dy3  1  0.833221  0.666779  0.500000  1
  Cd  Cd4  1  0.000000  0.000000  0.000000  1
  Cd  Cd5  1  0.500000  0.500000  0.000000  1
  Cu  Cu6  1  0.618820  0.881180  0.000000  1
  Cu  Cu7  1  0.381180  0.118820  0.000000  1
  Ni  Ni8  1  0.118904  0.618904  0.000000  1
  Ni  Ni9  1  0.881096  0.381096  0.000000  1
