# generated using pymatgen
data_Ca4Pr9Nd7Sn16
_symmetry_space_group_name_H-M   'P 1'
_cell_length_a   8.12607307
_cell_length_b   8.52866251
_cell_length_c   16.18280975
_cell_angle_alpha   90.01521252
_cell_angle_beta   90.04587670
_cell_angle_gamma   90.02658406
_symmetry_Int_Tables_number   1
_chemical_formula_structural   Ca4Pr9Nd7Sn16
_chemical_formula_sum   'Ca4 Pr9 Nd7 Sn16'
_cell_volume   1121.54158105
_cell_formula_units_Z   1
loop_
 _symmetry_equiv_pos_site_id
 _symmetry_equiv_pos_as_xyz
  1  'x, y, z'
loop_
 _atom_site_type_symbol
 _atom_site_label
 _atom_site_symmetry_multiplicity
 _atom_site_fract_x
 _atom_site_fract_y
 _atom_site_fract_z
 _atom_site_occupancy
  Ca  Ca0  1  0.162648  0.494988  0.749599  1
  Ca  Ca1  1  0.662700  0.004349  0.749497  1
  Ca  Ca2  1  0.837502  0.504299  0.250106  1
  Ca  Ca3  1  0.337167  0.996294  0.250207  1
  Pr  Pr4  1  0.834455  0.672301  0.875469  1
  Pr  Pr5  1  0.491201  0.316579  0.904139  1
  Pr  Pr6  1  0.991020  0.182756  0.595987  1
  Pr  Pr7  1  0.508788  0.683476  0.403689  1
  Pr  Pr8  1  0.009294  0.816954  0.096866  1
  Pr  Pr9  1  0.508987  0.682990  0.096596  1
  Pr  Pr10  1  0.008590  0.817242  0.403493  1
  Pr  Pr11  1  0.490986  0.317019  0.595663  1
  Pr  Pr12  1  0.991093  0.182267  0.903763  1
  Nd  Nd13  1  0.333815  0.828129  0.875653  1
  Nd  Nd14  1  0.833440  0.671620  0.624408  1
  Nd  Nd15  1  0.666158  0.171595  0.375506  1
  Nd  Nd16  1  0.166475  0.328642  0.124856  1
  Nd  Nd17  1  0.665940  0.172035  0.124881  1
  Nd  Nd18  1  0.166254  0.328478  0.375389  1
  Nd  Nd19  1  0.333979  0.827950  0.624253  1
  Sn  Sn20  1  0.325155  0.037626  0.037716  1
  Sn  Sn21  1  0.825625  0.462818  0.462227  1
  Sn  Sn22  1  0.674645  0.962242  0.537257  1
  Sn  Sn23  1  0.175190  0.536081  0.962626  1
  Sn  Sn24  1  0.673852  0.963028  0.963126  1
  Sn  Sn25  1  0.173583  0.537230  0.537325  1
  Sn  Sn26  1  0.324708  0.037765  0.462521  1
  Sn  Sn27  1  0.825927  0.462094  0.037867  1
  Sn  Sn28  1  0.530475  0.604813  0.749758  1
  Sn  Sn29  1  0.031989  0.895982  0.749482  1
  Sn  Sn30  1  0.469341  0.394871  0.250220  1
  Sn  Sn31  1  0.968992  0.105499  0.250033  1
  Sn  Sn32  1  0.292851  0.140024  0.749799  1
  Sn  Sn33  1  0.791731  0.359497  0.749797  1
  Sn  Sn34  1  0.707545  0.859951  0.250058  1
  Sn  Sn35  1  0.207898  0.640517  0.250164  1
