# generated using pymatgen
data_U3Cr(Co4P3)2
_symmetry_space_group_name_H-M   'P 1'
_cell_length_a   3.73108100
_cell_length_b   10.55177400
_cell_length_c   12.25510400
_cell_angle_alpha   90.00000000
_cell_angle_beta   90.00000000
_cell_angle_gamma   90.00000000
_symmetry_Int_Tables_number   1
_chemical_formula_structural   U3Cr(Co4P3)2
_chemical_formula_sum   'U6 Cr2 Co16 P12'
_cell_volume   482.47760477
_cell_formula_units_Z   2
loop_
 _symmetry_equiv_pos_site_id
 _symmetry_equiv_pos_as_xyz
  1  'x, y, z'
loop_
 _atom_site_type_symbol
 _atom_site_label
 _atom_site_symmetry_multiplicity
 _atom_site_fract_x
 _atom_site_fract_y
 _atom_site_fract_z
 _atom_site_occupancy
  U  U0  1  0.000000  0.500000  0.525456  1
  U  U1  1  0.500000  0.000000  0.474544  1
  U  U2  1  0.500000  0.819808  0.205828  1
  U  U3  1  0.500000  0.180192  0.205828  1
  U  U4  1  0.000000  0.680192  0.794172  1
  U  U5  1  0.000000  0.319808  0.794172  1
  Cr  Cr6  1  0.500000  0.500000  0.157879  1
  Cr  Cr7  1  0.000000  0.000000  0.842121  1
  Co  Co8  1  0.500000  0.500000  0.700271  1
  Co  Co9  1  0.000000  0.000000  0.299729  1
  Co  Co10  1  0.000000  0.500000  0.988042  1
  Co  Co11  1  0.500000  0.000000  0.011958  1
  Co  Co12  1  0.500000  0.332358  0.994127  1
  Co  Co13  1  0.500000  0.667642  0.994127  1
  Co  Co14  1  0.000000  0.167642  0.005873  1
  Co  Co15  1  0.000000  0.832358  0.005873  1
  Co  Co16  1  0.500000  0.300505  0.430243  1
  Co  Co17  1  0.500000  0.699495  0.430243  1
  Co  Co18  1  0.000000  0.199495  0.569757  1
  Co  Co19  1  0.000000  0.800505  0.569757  1
  Co  Co20  1  0.500000  0.879215  0.709236  1
  Co  Co21  1  0.500000  0.120785  0.709236  1
  Co  Co22  1  0.000000  0.620785  0.290764  1
  Co  Co23  1  0.000000  0.379215  0.290764  1
  P  P24  1  0.500000  0.500000  0.884666  1
  P  P25  1  0.000000  0.000000  0.115334  1
  P  P26  1  0.500000  0.500000  0.344080  1
  P  P27  1  0.000000  0.000000  0.655920  1
  P  P28  1  0.500000  0.308410  0.613871  1
  P  P29  1  0.500000  0.691590  0.613871  1
  P  P30  1  0.000000  0.191590  0.386129  1
  P  P31  1  0.000000  0.808410  0.386129  1
  P  P32  1  0.500000  0.846971  0.891999  1
  P  P33  1  0.500000  0.153029  0.891999  1
  P  P34  1  0.000000  0.653029  0.108001  1
  P  P35  1  0.000000  0.346971  0.108001  1
