# generated using pymatgen
data_SrNd6CoBr12
_symmetry_space_group_name_H-M   'P 1'
_cell_length_a   9.43279762
_cell_length_b   9.43279705
_cell_length_c   9.43279873
_cell_angle_alpha   105.88567262
_cell_angle_beta   105.88567249
_cell_angle_gamma   105.88566672
_symmetry_Int_Tables_number   1
_chemical_formula_structural   SrNd6CoBr12
_chemical_formula_sum   'Sr1 Nd6 Co1 Br12'
_cell_volume   719.17476673
_cell_formula_units_Z   1
loop_
 _symmetry_equiv_pos_site_id
 _symmetry_equiv_pos_as_xyz
  1  'x, y, z'
loop_
 _atom_site_type_symbol
 _atom_site_label
 _atom_site_symmetry_multiplicity
 _atom_site_fract_x
 _atom_site_fract_y
 _atom_site_fract_z
 _atom_site_occupancy
  Sr  Sr0  1  0.500000  0.500000  0.500000  1
  Nd  Nd1  1  0.978657  0.899428  0.691265  1
  Nd  Nd2  1  0.021343  0.100572  0.308735  1
  Nd  Nd3  1  0.100572  0.308735  0.021343  1
  Nd  Nd4  1  0.308735  0.021343  0.100572  1
  Nd  Nd5  1  0.899428  0.691265  0.978657  1
  Nd  Nd6  1  0.691265  0.978657  0.899428  1
  Co  Co7  1  0.000000  0.000000  0.000000  1
  Br  Br8  1  0.549986  0.630928  0.853848  1
  Br  Br9  1  0.450014  0.369072  0.146152  1
  Br  Br10  1  0.320248  0.926983  0.776751  1
  Br  Br11  1  0.369072  0.146152  0.450014  1
  Br  Br12  1  0.926983  0.776751  0.320248  1
  Br  Br13  1  0.679752  0.073017  0.223249  1
  Br  Br14  1  0.073017  0.223249  0.679752  1
  Br  Br15  1  0.776751  0.320248  0.926983  1
  Br  Br16  1  0.223249  0.679752  0.073017  1
  Br  Br17  1  0.853848  0.549986  0.630928  1
  Br  Br18  1  0.146152  0.450014  0.369072  1
  Br  Br19  1  0.630928  0.853848  0.549986  1
