# generated using pymatgen
data_Dy5Y5(In2Rh)4
_symmetry_space_group_name_H-M   'P 1'
_cell_length_a   3.64518200
_cell_length_b   8.05347062
_cell_length_c   18.35971542
_cell_angle_alpha   90.04500041
_cell_angle_beta   90.00000000
_cell_angle_gamma   90.00000000
_symmetry_Int_Tables_number   1
_chemical_formula_structural   Dy5Y5(In2Rh)4
_chemical_formula_sum   'Dy5 Y5 In8 Rh4'
_cell_volume   538.97436183
_cell_formula_units_Z   1
loop_
 _symmetry_equiv_pos_site_id
 _symmetry_equiv_pos_as_xyz
  1  'x, y, z'
loop_
 _atom_site_type_symbol
 _atom_site_label
 _atom_site_symmetry_multiplicity
 _atom_site_fract_x
 _atom_site_fract_y
 _atom_site_fract_z
 _atom_site_occupancy
  Dy  Dy0  1  0.500000  0.752858  0.721895  1
  Dy  Dy1  1  0.500000  0.253054  0.778179  1
  Dy  Dy2  1  0.500000  0.747550  0.221768  1
  Dy  Dy3  1  0.500000  0.246886  0.278146  1
  Dy  Dy4  1  0.500000  0.616644  0.410941  1
  Y  Y5  1  0.500000  0.383195  0.588073  1
  Y  Y6  1  0.500000  0.882991  0.911757  1
  Y  Y7  1  0.500000  0.117138  0.088258  1
  Y  Y8  1  0.500000  0.500017  0.000006  1
  Y  Y9  1  0.500000  0.999076  0.499794  1
  In  In10  1  0.000000  0.792626  0.068944  1
  In  In11  1  0.000000  0.929704  0.349759  1
  In  In12  1  0.000000  0.070250  0.650188  1
  In  In13  1  0.000000  0.570268  0.849788  1
  In  In14  1  0.000000  0.707255  0.568743  1
  In  In15  1  0.000000  0.207345  0.931162  1
  In  In16  1  0.000000  0.292661  0.431283  1
  In  In17  1  0.000000  0.429744  0.150320  1
  Rh  Rh18  1  0.000000  0.978318  0.804132  1
  Rh  Rh19  1  0.000000  0.522111  0.305206  1
  Rh  Rh20  1  0.000000  0.478401  0.695775  1
  Rh  Rh21  1  0.000000  0.021910  0.195884  1
