# generated using pymatgen
data_ThTcAsN
_symmetry_space_group_name_H-M   'P 1'
_cell_length_a   4.06653200
_cell_length_b   4.06653200
_cell_length_c   8.89323300
_cell_angle_alpha   90.00000000
_cell_angle_beta   90.00000000
_cell_angle_gamma   90.00000000
_symmetry_Int_Tables_number   1
_chemical_formula_structural   ThTcAsN
_chemical_formula_sum   'Th2 Tc2 As2 N2'
_cell_volume   147.06457058
_cell_formula_units_Z   2
loop_
 _symmetry_equiv_pos_site_id
 _symmetry_equiv_pos_as_xyz
  1  'x, y, z'
loop_
 _atom_site_type_symbol
 _atom_site_label
 _atom_site_symmetry_multiplicity
 _atom_site_fract_x
 _atom_site_fract_y
 _atom_site_fract_z
 _atom_site_occupancy
  Th  Th0  1  0.250002  0.250002  0.130815  1
  Th  Th1  1  0.750001  0.750001  0.869186  1
  Tc  Tc2  1  0.750001  0.250002  0.500000  1
  Tc  Tc3  1  0.250002  0.750001  0.500000  1
  As  As4  1  0.750001  0.750001  0.332452  1
  As  As5  1  0.250002  0.250002  0.667547  1
  N  N6  1  0.750001  0.250002  0.000000  1
  N  N7  1  0.250002  0.750001  0.000000  1
