# generated using pymatgen
data_DyEr2(Al3Os)4
_symmetry_space_group_name_H-M   'P 1'
_cell_length_a   8.81125800
_cell_length_b   8.80987649
_cell_length_c   9.58703700
_cell_angle_alpha   90.00000000
_cell_angle_beta   90.00000000
_cell_angle_gamma   120.00518748
_symmetry_Int_Tables_number   1
_chemical_formula_structural   DyEr2(Al3Os)4
_chemical_formula_sum   'Dy2 Er4 Al24 Os8'
_cell_volume   644.46608730
_cell_formula_units_Z   2
loop_
 _symmetry_equiv_pos_site_id
 _symmetry_equiv_pos_as_xyz
  1  'x, y, z'
loop_
 _atom_site_type_symbol
 _atom_site_label
 _atom_site_symmetry_multiplicity
 _atom_site_fract_x
 _atom_site_fract_y
 _atom_site_fract_z
 _atom_site_occupancy
  Dy  Dy0  1  0.193415  0.386831  0.250000  1
  Dy  Dy1  1  0.806585  0.613169  0.750000  1
  Er  Er2  1  0.611138  0.805761  0.250000  1
  Er  Er3  1  0.388862  0.194239  0.750000  1
  Er  Er4  1  0.194623  0.805761  0.250000  1
  Er  Er5  1  0.805377  0.194239  0.750000  1
  Al  Al6  1  0.333424  0.666849  0.018177  1
  Al  Al7  1  0.666576  0.333151  0.981823  1
  Al  Al8  1  0.666576  0.333151  0.518177  1
  Al  Al9  1  0.333424  0.666849  0.481823  1
  Al  Al10  1  0.163574  0.327149  0.575525  1
  Al  Al11  1  0.836426  0.672851  0.424475  1
  Al  Al12  1  0.672689  0.836209  0.574367  1
  Al  Al13  1  0.836426  0.672851  0.075525  1
  Al  Al14  1  0.327311  0.163791  0.425633  1
  Al  Al15  1  0.163574  0.327149  0.924475  1
  Al  Al16  1  0.163520  0.836209  0.574367  1
  Al  Al17  1  0.327311  0.163791  0.074367  1
  Al  Al18  1  0.836480  0.163791  0.425633  1
  Al  Al19  1  0.672689  0.836209  0.925633  1
  Al  Al20  1  0.836480  0.163791  0.074367  1
  Al  Al21  1  0.163520  0.836209  0.925633  1
  Al  Al22  1  0.561340  0.122681  0.250000  1
  Al  Al23  1  0.438660  0.877319  0.750000  1
  Al  Al24  1  0.877247  0.439094  0.250000  1
  Al  Al25  1  0.122753  0.560906  0.750000  1
  Al  Al26  1  0.561848  0.439094  0.250000  1
  Al  Al27  1  0.438152  0.560906  0.750000  1
  Al  Al28  1  0.999577  0.999154  0.250000  1
  Al  Al29  1  0.000423  0.000846  0.750000  1
  Os  Os30  1  0.500000  0.000000  0.000000  1
  Os  Os31  1  0.000000  0.500000  0.000000  1
  Os  Os32  1  0.500000  0.000000  0.500000  1
  Os  Os33  1  0.500000  0.500000  0.000000  1
  Os  Os34  1  0.000000  0.500000  0.500000  1
  Os  Os35  1  0.500000  0.500000  0.500000  1
  Os  Os36  1  0.000000  0.000000  0.000000  1
  Os  Os37  1  0.000000  0.000000  0.500000  1
