# generated using pymatgen
data_MnInMoO4
_symmetry_space_group_name_H-M   'P 1'
_cell_length_a   6.46221014
_cell_length_b   6.46221015
_cell_length_c   6.46221008
_cell_angle_alpha   119.88881475
_cell_angle_beta   120.11377230
_cell_angle_gamma   89.99786803
_symmetry_Int_Tables_number   1
_chemical_formula_structural   MnInMoO4
_chemical_formula_sum   'Mn2 In2 Mo2 O8'
_cell_volume   190.81725819
_cell_formula_units_Z   2
loop_
 _symmetry_equiv_pos_site_id
 _symmetry_equiv_pos_as_xyz
  1  'x, y, z'
loop_
 _atom_site_type_symbol
 _atom_site_label
 _atom_site_symmetry_multiplicity
 _atom_site_fract_x
 _atom_site_fract_y
 _atom_site_fract_z
 _atom_site_occupancy
  Mn  Mn0  1  0.374489  0.624489  0.750000  1
  Mn  Mn1  1  0.625511  0.375511  0.250000  1
  In  In2  1  0.000000  0.000000  0.000000  1
  In  In3  1  0.500000  0.000000  0.500000  1
  Mo  Mo4  1  0.000000  0.000000  0.500000  1
  Mo  Mo5  1  0.000000  0.500000  0.000000  1
  O  O6  1  0.238860  0.755768  0.016908  1
  O  O7  1  0.238860  0.221952  0.483092  1
  O  O8  1  0.236525  0.757841  0.478684  1
  O  O9  1  0.779158  0.757841  0.021316  1
  O  O10  1  0.761140  0.244232  0.983092  1
  O  O11  1  0.761140  0.778048  0.516908  1
  O  O12  1  0.763475  0.242159  0.521316  1
  O  O13  1  0.220842  0.242159  0.978684  1
