# generated using pymatgen
data_Pr9SnBi4O5
_symmetry_space_group_name_H-M   'P 1'
_cell_length_a   10.42884500
_cell_length_b   10.42884500
_cell_length_c   9.41184500
_cell_angle_alpha   90.00000000
_cell_angle_beta   90.00000000
_cell_angle_gamma   90.00000000
_symmetry_Int_Tables_number   1
_chemical_formula_structural   Pr9SnBi4O5
_chemical_formula_sum   'Pr18 Sn2 Bi8 O10'
_cell_volume   1023.63986729
_cell_formula_units_Z   2
loop_
 _symmetry_equiv_pos_site_id
 _symmetry_equiv_pos_as_xyz
  1  'x, y, z'
loop_
 _atom_site_type_symbol
 _atom_site_label
 _atom_site_symmetry_multiplicity
 _atom_site_fract_x
 _atom_site_fract_y
 _atom_site_fract_z
 _atom_site_occupancy
  Pr  Pr0  1  0.725107  0.918167  0.003130  1
  Pr  Pr1  1  0.581833  0.225107  0.003130  1
  Pr  Pr2  1  0.000000  0.500000  0.329426  1
  Pr  Pr3  1  0.774893  0.581833  0.996870  1
  Pr  Pr4  1  0.225107  0.418167  0.996870  1
  Pr  Pr5  1  0.209235  0.897636  0.338826  1
  Pr  Pr6  1  0.274893  0.081833  0.003130  1
  Pr  Pr7  1  0.897636  0.790765  0.661174  1
  Pr  Pr8  1  0.918167  0.274893  0.996870  1
  Pr  Pr9  1  0.290765  0.602364  0.661174  1
  Pr  Pr10  1  0.418167  0.774893  0.003130  1
  Pr  Pr11  1  0.102364  0.209235  0.661174  1
  Pr  Pr12  1  0.790765  0.102364  0.338826  1
  Pr  Pr13  1  0.500000  0.000000  0.670574  1
  Pr  Pr14  1  0.081833  0.725107  0.996870  1
  Pr  Pr15  1  0.397636  0.290765  0.338826  1
  Pr  Pr16  1  0.709235  0.397636  0.661174  1
  Pr  Pr17  1  0.602364  0.709235  0.338826  1
  Sn  Sn18  1  0.500000  0.000000  0.315358  1
  Sn  Sn19  1  0.000000  0.500000  0.684642  1
  Bi  Bi20  1  0.195244  0.903860  0.699345  1
  Bi  Bi21  1  0.403860  0.304756  0.699345  1
  Bi  Bi22  1  0.695244  0.403860  0.300655  1
  Bi  Bi23  1  0.096140  0.195244  0.300655  1
  Bi  Bi24  1  0.596140  0.695244  0.699345  1
  Bi  Bi25  1  0.304756  0.596140  0.300655  1
  Bi  Bi26  1  0.804756  0.096140  0.699345  1
  Bi  Bi27  1  0.903860  0.804756  0.300655  1
  O  O28  1  0.500000  0.000000  0.932358  1
  O  O29  1  0.724000  0.378196  0.913288  1
  O  O30  1  0.621804  0.724000  0.086712  1
  O  O31  1  0.378196  0.276000  0.086712  1
  O  O32  1  0.121804  0.224000  0.913288  1
  O  O33  1  0.276000  0.621804  0.913288  1
  O  O34  1  0.000000  0.500000  0.067642  1
  O  O35  1  0.224000  0.878196  0.086712  1
  O  O36  1  0.878196  0.776000  0.913288  1
  O  O37  1  0.776000  0.121804  0.086712  1
