# generated using pymatgen
data_Cr2Ir5Ru
_symmetry_space_group_name_H-M   'P 1'
_cell_length_a   5.41931900
_cell_length_b   5.43222077
_cell_length_c   4.30833500
_cell_angle_alpha   89.99992323
_cell_angle_beta   90.00000000
_cell_angle_gamma   119.92145911
_symmetry_Int_Tables_number   1
_chemical_formula_structural   Cr2Ir5Ru
_chemical_formula_sum   'Cr2 Ir5 Ru1'
_cell_volume   109.92725775
_cell_formula_units_Z   1
loop_
 _symmetry_equiv_pos_site_id
 _symmetry_equiv_pos_as_xyz
  1  'x, y, z'
loop_
 _atom_site_type_symbol
 _atom_site_label
 _atom_site_symmetry_multiplicity
 _atom_site_fract_x
 _atom_site_fract_y
 _atom_site_fract_z
 _atom_site_occupancy
  Cr  Cr0  1  0.332752  0.665502  0.749991  1
  Cr  Cr1  1  0.666792  0.333585  0.250006  1
  Ir  Ir2  1  0.661593  0.830523  0.249999  1
  Ir  Ir3  1  0.168930  0.830523  0.249999  1
  Ir  Ir4  1  0.830748  0.661493  0.750000  1
  Ir  Ir5  1  0.337714  0.169897  0.750000  1
  Ir  Ir6  1  0.832183  0.169897  0.750000  1
  Ru  Ru7  1  0.169289  0.338578  0.250000  1
