# generated using pymatgen
data_Ho8Mn(Si4Pt)3
_symmetry_space_group_name_H-M   'P 1'
_cell_length_a   8.15639900
_cell_length_b   8.15639898
_cell_length_c   7.87929400
_cell_angle_alpha   90.00000000
_cell_angle_beta   90.00000000
_cell_angle_gamma   119.99999604
_symmetry_Int_Tables_number   1
_chemical_formula_structural   Ho8Mn(Si4Pt)3
_chemical_formula_sum   'Ho8 Mn1 Si12 Pt3'
_cell_volume   453.95716892
_cell_formula_units_Z   1
loop_
 _symmetry_equiv_pos_site_id
 _symmetry_equiv_pos_as_xyz
  1  'x, y, z'
loop_
 _atom_site_type_symbol
 _atom_site_label
 _atom_site_symmetry_multiplicity
 _atom_site_fract_x
 _atom_site_fract_y
 _atom_site_fract_z
 _atom_site_occupancy
  Ho  Ho0  1  0.510225  0.020449  0.254443  1
  Ho  Ho1  1  0.487269  0.974537  0.746270  1
  Ho  Ho2  1  0.979551  0.489775  0.254443  1
  Ho  Ho3  1  0.025463  0.512731  0.746270  1
  Ho  Ho4  1  0.510225  0.489775  0.254443  1
  Ho  Ho5  1  0.487269  0.512731  0.746270  1
  Ho  Ho6  1  0.000000  0.000000  0.251062  1
  Ho  Ho7  1  0.000000  0.000000  0.747299  1
  Mn  Mn8  1  0.333333  0.666667  0.453271  1
  Si  Si9  1  0.165281  0.330563  0.002348  1
  Si  Si10  1  0.834756  0.669513  0.996675  1
  Si  Si11  1  0.669437  0.834719  0.002348  1
  Si  Si12  1  0.836295  0.672591  0.503902  1
  Si  Si13  1  0.330487  0.165244  0.996675  1
  Si  Si14  1  0.171788  0.343576  0.497123  1
  Si  Si15  1  0.165281  0.834719  0.002348  1
  Si  Si16  1  0.327409  0.163705  0.503902  1
  Si  Si17  1  0.834756  0.165244  0.996675  1
  Si  Si18  1  0.656424  0.828212  0.497123  1
  Si  Si19  1  0.836295  0.163705  0.503902  1
  Si  Si20  1  0.171788  0.828212  0.497123  1
  Pt  Pt21  1  0.333333  0.666667  0.043772  1
  Pt  Pt22  1  0.666667  0.333333  0.966775  1
  Pt  Pt23  1  0.666667  0.333333  0.535542  1
