# generated using pymatgen
data_Hf2Co9ReB6
_symmetry_space_group_name_H-M   'P 1'
_cell_length_a   5.65360524
_cell_length_b   5.65360474
_cell_length_c   5.65360493
_cell_angle_alpha   95.46400542
_cell_angle_beta   95.46400963
_cell_angle_gamma   95.46400692
_symmetry_Int_Tables_number   1
_chemical_formula_structural   Hf2Co9ReB6
_chemical_formula_sum   'Hf2 Co9 Re1 B6'
_cell_volume   178.07469385
_cell_formula_units_Z   1
loop_
 _symmetry_equiv_pos_site_id
 _symmetry_equiv_pos_as_xyz
  1  'x, y, z'
loop_
 _atom_site_type_symbol
 _atom_site_label
 _atom_site_symmetry_multiplicity
 _atom_site_fract_x
 _atom_site_fract_y
 _atom_site_fract_z
 _atom_site_occupancy
  Hf  Hf0  1  0.684286  0.684286  0.684286  1
  Hf  Hf1  1  0.315714  0.315714  0.315714  1
  Co  Co2  1  0.500000  0.000000  0.000000  1
  Co  Co3  1  0.000000  0.500000  0.000000  1
  Co  Co4  1  0.000000  0.000000  0.500000  1
  Co  Co5  1  0.703063  0.200664  0.703063  1
  Co  Co6  1  0.703063  0.703063  0.200664  1
  Co  Co7  1  0.200664  0.703063  0.703063  1
  Co  Co8  1  0.296937  0.799336  0.296937  1
  Co  Co9  1  0.296937  0.296937  0.799336  1
  Co  Co10  1  0.799336  0.296937  0.296937  1
  Re  Re11  1  0.000000  0.000000  0.000000  1
  B  B12  1  0.384844  0.000000  0.615156  1
  B  B13  1  0.615156  0.384844  0.000000  1
  B  B14  1  0.000000  0.615156  0.384844  1
  B  B15  1  0.615156  0.000000  0.384844  1
  B  B16  1  0.384844  0.615156  0.000000  1
  B  B17  1  0.000000  0.384844  0.615156  1
