# generated using pymatgen
data_TbEr3Ni2(B8Pt)2
_symmetry_space_group_name_H-M   'P 1'
_cell_length_a   6.92091707
_cell_length_b   6.92091651
_cell_length_c   6.92091766
_cell_angle_alpha   113.40891770
_cell_angle_beta   111.43281749
_cell_angle_gamma   103.72719159
_symmetry_Int_Tables_number   1
_chemical_formula_structural   TbEr3Ni2(B8Pt)2
_chemical_formula_sum   'Tb1 Er3 Ni2 B16 Pt2'
_cell_volume   253.21159093
_cell_formula_units_Z   1
loop_
 _symmetry_equiv_pos_site_id
 _symmetry_equiv_pos_as_xyz
  1  'x, y, z'
loop_
 _atom_site_type_symbol
 _atom_site_label
 _atom_site_symmetry_multiplicity
 _atom_site_fract_x
 _atom_site_fract_y
 _atom_site_fract_z
 _atom_site_occupancy
  Tb  Tb0  1  0.246783  0.746783  0.500000  1
  Er  Er1  1  0.204050  0.204050  0.000000  1
  Er  Er2  1  0.795951  0.795951  0.000000  1
  Er  Er3  1  0.753655  0.253655  0.500000  1
  Ni  Ni4  1  0.742740  0.499375  0.243365  1
  Ni  Ni5  1  0.256009  0.499375  0.756635  1
  B  B6  1  0.107855  0.272683  0.380654  1
  B  B7  1  0.892029  0.727202  0.619346  1
  B  B8  1  0.892029  0.272683  0.164828  1
  B  B9  1  0.107855  0.727202  0.835172  1
  B  B10  1  0.735230  0.890158  0.625439  1
  B  B11  1  0.264719  0.109792  0.374561  1
  B  B12  1  0.735230  0.109792  0.845072  1
  B  B13  1  0.264719  0.890158  0.154928  1
  B  B14  1  0.412826  0.419750  0.526005  1
  B  B15  1  0.893745  0.886821  0.473995  1
  B  B16  1  0.587472  0.113517  0.007645  1
  B  B17  1  0.105872  0.579826  0.992355  1
  B  B18  1  0.587472  0.579826  0.473955  1
  B  B19  1  0.105872  0.113517  0.526045  1
  B  B20  1  0.893745  0.419750  0.006924  1
  B  B21  1  0.412826  0.886821  0.993076  1
  Pt  Pt22  1  0.500658  0.273560  0.772902  1
  Pt  Pt23  1  0.500658  0.727757  0.227098  1
