# generated using pymatgen
data_Hf4ZrCuAs3
_symmetry_space_group_name_H-M   'P 1'
_cell_length_a   3.70904400
_cell_length_b   10.35840400
_cell_length_c   17.66645500
_cell_angle_alpha   90.00000000
_cell_angle_beta   90.00000000
_cell_angle_gamma   90.00000000
_symmetry_Int_Tables_number   1
_chemical_formula_structural   Hf4ZrCuAs3
_chemical_formula_sum   'Hf16 Zr4 Cu4 As12'
_cell_volume   678.74124745
_cell_formula_units_Z   4
loop_
 _symmetry_equiv_pos_site_id
 _symmetry_equiv_pos_as_xyz
  1  'x, y, z'
loop_
 _atom_site_type_symbol
 _atom_site_label
 _atom_site_symmetry_multiplicity
 _atom_site_fract_x
 _atom_site_fract_y
 _atom_site_fract_z
 _atom_site_occupancy
  Hf  Hf0  1  0.250000  0.879810  0.478342  1
  Hf  Hf1  1  0.750000  0.120190  0.521658  1
  Hf  Hf2  1  0.750000  0.379810  0.021658  1
  Hf  Hf3  1  0.250000  0.620190  0.978342  1
  Hf  Hf4  1  0.250000  0.933286  0.083038  1
  Hf  Hf5  1  0.750000  0.066714  0.916962  1
  Hf  Hf6  1  0.750000  0.433286  0.416962  1
  Hf  Hf7  1  0.250000  0.566714  0.583038  1
  Hf  Hf8  1  0.250000  0.243836  0.169338  1
  Hf  Hf9  1  0.750000  0.756164  0.830662  1
  Hf  Hf10  1  0.750000  0.743836  0.330662  1
  Hf  Hf11  1  0.250000  0.256164  0.669338  1
  Hf  Hf12  1  0.250000  0.512975  0.271516  1
  Hf  Hf13  1  0.750000  0.487025  0.728484  1
  Hf  Hf14  1  0.750000  0.012975  0.228484  1
  Hf  Hf15  1  0.250000  0.987025  0.771516  1
  Zr  Zr16  1  0.250000  0.184400  0.368251  1
  Zr  Zr17  1  0.750000  0.815600  0.631749  1
  Zr  Zr18  1  0.750000  0.684400  0.131749  1
  Zr  Zr19  1  0.250000  0.315600  0.868251  1
  Cu  Cu20  1  0.250000  0.625662  0.412222  1
  Cu  Cu21  1  0.750000  0.374338  0.587778  1
  Cu  Cu22  1  0.750000  0.125662  0.087778  1
  Cu  Cu23  1  0.250000  0.874338  0.912222  1
  As  As24  1  0.250000  0.488901  0.116573  1
  As  As25  1  0.750000  0.511099  0.883427  1
  As  As26  1  0.750000  0.988901  0.383427  1
  As  As27  1  0.250000  0.011099  0.616573  1
  As  As28  1  0.250000  0.809934  0.222725  1
  As  As29  1  0.750000  0.190066  0.777275  1
  As  As30  1  0.750000  0.309934  0.277275  1
  As  As31  1  0.250000  0.690066  0.722725  1
  As  As32  1  0.250000  0.185387  0.007037  1
  As  As33  1  0.750000  0.814613  0.992963  1
  As  As34  1  0.750000  0.685387  0.492963  1
  As  As35  1  0.250000  0.314613  0.507037  1
