# generated using pymatgen
data_NdPa2Ga8Os3
_symmetry_space_group_name_H-M   'P 1'
_cell_length_a   8.10116292
_cell_length_b   8.10116443
_cell_length_c   8.10116400
_cell_angle_alpha   149.27204739
_cell_angle_beta   104.66876993
_cell_angle_gamma   83.52130292
_symmetry_Int_Tables_number   1
_chemical_formula_structural   NdPa2Ga8Os3
_chemical_formula_sum   'Nd1 Pa2 Ga8 Os3'
_cell_volume   256.82919486
_cell_formula_units_Z   1
loop_
 _symmetry_equiv_pos_site_id
 _symmetry_equiv_pos_as_xyz
  1  'x, y, z'
loop_
 _atom_site_type_symbol
 _atom_site_label
 _atom_site_symmetry_multiplicity
 _atom_site_fract_x
 _atom_site_fract_y
 _atom_site_fract_z
 _atom_site_occupancy
  Nd  Nd0  1  0.500000  0.500000  0.000000  1
  Pa  Pa1  1  0.164018  0.164018  0.000000  1
  Pa  Pa2  1  0.835982  0.835982  0.000000  1
  Ga  Ga3  1  0.097631  0.374922  0.722710  1
  Ga  Ga4  1  0.902369  0.625078  0.277290  1
  Ga  Ga5  1  0.652211  0.374922  0.277290  1
  Ga  Ga6  1  0.347789  0.625078  0.722710  1
  Ga  Ga7  1  0.796560  0.168573  0.627987  1
  Ga  Ga8  1  0.203440  0.831427  0.372013  1
  Ga  Ga9  1  0.540588  0.168573  0.372013  1
  Ga  Ga10  1  0.459412  0.831427  0.627987  1
  Os  Os11  1  0.000000  0.500000  0.500000  1
  Os  Os12  1  0.793711  0.000000  0.793711  1
  Os  Os13  1  0.206289  0.000000  0.206289  1
