# generated using pymatgen
data_HoLu11In2Tc3
_symmetry_space_group_name_H-M   'P 1'
_cell_length_a   8.30825295
_cell_length_b   8.30825310
_cell_length_c   8.31304112
_cell_angle_alpha   108.84146580
_cell_angle_beta   108.84147226
_cell_angle_gamma   110.71539554
_symmetry_Int_Tables_number   1
_chemical_formula_structural   HoLu11In2Tc3
_chemical_formula_sum   'Ho1 Lu11 In2 Tc3'
_cell_volume   441.69535630
_cell_formula_units_Z   1
loop_
 _symmetry_equiv_pos_site_id
 _symmetry_equiv_pos_as_xyz
  1  'x, y, z'
loop_
 _atom_site_type_symbol
 _atom_site_label
 _atom_site_symmetry_multiplicity
 _atom_site_fract_x
 _atom_site_fract_y
 _atom_site_fract_z
 _atom_site_occupancy
  Ho  Ho0  1  0.304445  0.304445  0.608891  1
  Lu  Lu1  1  0.694760  0.694760  0.389519  1
  Lu  Lu2  1  0.695069  0.305297  0.000367  1
  Lu  Lu3  1  0.305297  0.695069  0.000367  1
  Lu  Lu4  1  0.189538  0.428848  0.238796  1
  Lu  Lu5  1  0.811175  0.571588  0.761106  1
  Lu  Lu6  1  0.189517  0.949930  0.761106  1
  Lu  Lu7  1  0.949930  0.189517  0.761106  1
  Lu  Lu8  1  0.809949  0.049260  0.238796  1
  Lu  Lu9  1  0.049260  0.809949  0.238796  1
  Lu  Lu10  1  0.428848  0.189538  0.238796  1
  Lu  Lu11  1  0.571588  0.811175  0.761106  1
  In  In12  1  0.000026  0.499968  0.499994  1
  In  In13  1  0.499968  0.000026  0.499994  1
  Tc  Tc14  1  0.370684  0.370684  0.000534  1
  Tc  Tc15  1  0.629850  0.629850  0.000534  1
  Tc  Tc16  1  0.000096  0.000096  0.000191  1
