# generated using pymatgen
data_K4LaNp3F16
_symmetry_space_group_name_H-M   'P 1'
_cell_length_a   3.83158300
_cell_length_b   6.37594511
_cell_length_c   15.84733835
_cell_angle_alpha   89.96339001
_cell_angle_beta   90.00000000
_cell_angle_gamma   90.00000000
_symmetry_Int_Tables_number   1
_chemical_formula_structural   K4LaNp3F16
_chemical_formula_sum   'K4 La1 Np3 F16'
_cell_volume   387.14980852
_cell_formula_units_Z   1
loop_
 _symmetry_equiv_pos_site_id
 _symmetry_equiv_pos_as_xyz
  1  'x, y, z'
loop_
 _atom_site_type_symbol
 _atom_site_label
 _atom_site_symmetry_multiplicity
 _atom_site_fract_x
 _atom_site_fract_y
 _atom_site_fract_z
 _atom_site_occupancy
  K  K0  1  0.250000  0.221963  0.298151  1
  K  K1  1  0.750000  0.779162  0.701787  1
  K  K2  1  0.250000  0.722220  0.200080  1
  K  K3  1  0.750000  0.277513  0.800099  1
  La  La4  1  0.250000  0.253658  0.561978  1
  Np  Np5  1  0.750000  0.248185  0.061880  1
  Np  Np6  1  0.250000  0.751290  0.937974  1
  Np  Np7  1  0.750000  0.750744  0.437518  1
  F  F8  1  0.250000  0.089368  0.695301  1
  F  F9  1  0.750000  0.910479  0.305638  1
  F  F10  1  0.250000  0.592137  0.806104  1
  F  F11  1  0.750000  0.407928  0.194351  1
  F  F12  1  0.750000  0.397681  0.636391  1
  F  F13  1  0.250000  0.603525  0.364274  1
  F  F14  1  0.750000  0.896302  0.865663  1
  F  F15  1  0.250000  0.101835  0.134731  1
  F  F16  1  0.750000  0.364962  0.462060  1
  F  F17  1  0.250000  0.636035  0.536354  1
  F  F18  1  0.750000  0.865180  0.039020  1
  F  F19  1  0.250000  0.133961  0.960920  1
  F  F20  1  0.250000  0.499755  0.058199  1
  F  F21  1  0.750000  0.498919  0.942284  1
  F  F22  1  0.250000  0.002735  0.440750  1
  F  F23  1  0.750000  0.994462  0.558496  1
