# generated using pymatgen
data_Ti8Co11Si16Rh
_symmetry_space_group_name_H-M   'P 1'
_cell_length_a   5.14395110
_cell_length_b   6.60719337
_cell_length_c   13.39164901
_cell_angle_alpha   90.07762415
_cell_angle_beta   89.99063471
_cell_angle_gamma   89.88429276
_symmetry_Int_Tables_number   1
_chemical_formula_structural   Ti8Co11Si16Rh
_chemical_formula_sum   'Ti8 Co11 Si16 Rh1'
_cell_volume   455.14168906
_cell_formula_units_Z   1
loop_
 _symmetry_equiv_pos_site_id
 _symmetry_equiv_pos_as_xyz
  1  'x, y, z'
loop_
 _atom_site_type_symbol
 _atom_site_label
 _atom_site_symmetry_multiplicity
 _atom_site_fract_x
 _atom_site_fract_y
 _atom_site_fract_z
 _atom_site_occupancy
  Ti  Ti0  1  0.233599  0.397705  0.154609  1
  Ti  Ti1  1  0.726528  0.100939  0.152897  1
  Ti  Ti2  1  0.272391  0.101394  0.648412  1
  Ti  Ti3  1  0.768190  0.399789  0.647990  1
  Ti  Ti4  1  0.228603  0.601887  0.350450  1
  Ti  Ti5  1  0.730068  0.897683  0.350158  1
  Ti  Ti6  1  0.268613  0.900665  0.848844  1
  Ti  Ti7  1  0.772073  0.603714  0.846747  1
  Co  Co8  1  0.505499  0.220334  0.483944  1
  Co  Co9  1  0.775687  0.999789  0.748843  1
  Co  Co10  1  0.493842  0.216953  0.984330  1
  Co  Co11  1  0.721862  0.500416  0.251680  1
  Co  Co12  1  0.495813  0.779534  0.516012  1
  Co  Co13  1  0.005325  0.279767  0.483673  1
  Co  Co14  1  0.004707  0.721209  0.017004  1
  Co  Co15  1  0.221688  0.998570  0.252111  1
  Co  Co16  1  0.280551  0.501981  0.749009  1
  Co  Co17  1  0.505060  0.778124  0.017522  1
  Co  Co18  1  0.995754  0.720593  0.516348  1
  Si  Si19  1  0.216845  0.016152  0.073607  1
  Si  Si20  1  0.711008  0.521941  0.430929  1
  Si  Si21  1  0.790984  0.021643  0.568657  1
  Si  Si22  1  0.479167  0.754181  0.189415  1
  Si  Si23  1  0.021665  0.255041  0.804399  1
  Si  Si24  1  0.520413  0.246553  0.812435  1
  Si  Si25  1  0.209959  0.978401  0.431327  1
  Si  Si26  1  0.298942  0.528359  0.928944  1
  Si  Si27  1  0.978138  0.745251  0.188364  1
  Si  Si28  1  0.701832  0.482103  0.072278  1
  Si  Si29  1  0.289590  0.478760  0.568800  1
  Si  Si30  1  0.479146  0.245461  0.313817  1
  Si  Si31  1  0.021549  0.746214  0.686735  1
  Si  Si32  1  0.781009  0.970292  0.928015  1
  Si  Si33  1  0.520570  0.755112  0.686593  1
  Si  Si34  1  0.979004  0.254380  0.313194  1
  Rh  Rh35  1  0.994327  0.279112  0.981910  1
