# generated using pymatgen
data_Y2Ho4Co17TcP12
_symmetry_space_group_name_H-M   'P 1'
_cell_length_a   3.70184400
_cell_length_b   10.52354800
_cell_length_c   12.21962700
_cell_angle_alpha   90.00000000
_cell_angle_beta   90.00000000
_cell_angle_gamma   90.00000000
_symmetry_Int_Tables_number   1
_chemical_formula_structural   Y2Ho4Co17TcP12
_chemical_formula_sum   'Y2 Ho4 Co17 Tc1 P12'
_cell_volume   476.03430275
_cell_formula_units_Z   1
loop_
 _symmetry_equiv_pos_site_id
 _symmetry_equiv_pos_as_xyz
  1  'x, y, z'
loop_
 _atom_site_type_symbol
 _atom_site_label
 _atom_site_symmetry_multiplicity
 _atom_site_fract_x
 _atom_site_fract_y
 _atom_site_fract_z
 _atom_site_occupancy
  Y  Y0  1  0.000000  0.500000  0.523803  1
  Y  Y1  1  0.500000  0.000000  0.478191  1
  Ho  Ho2  1  0.500000  0.817606  0.206609  1
  Ho  Ho3  1  0.500000  0.182394  0.206609  1
  Ho  Ho4  1  0.000000  0.682781  0.795074  1
  Ho  Ho5  1  0.000000  0.317219  0.795074  1
  Co  Co6  1  0.000000  0.000000  0.840024  1
  Co  Co7  1  0.500000  0.500000  0.703877  1
  Co  Co8  1  0.000000  0.000000  0.295641  1
  Co  Co9  1  0.000000  0.500000  0.987591  1
  Co  Co10  1  0.500000  0.000000  0.014494  1
  Co  Co11  1  0.500000  0.331932  0.991029  1
  Co  Co12  1  0.500000  0.668068  0.991029  1
  Co  Co13  1  0.000000  0.166426  0.005686  1
  Co  Co14  1  0.000000  0.833574  0.005686  1
  Co  Co15  1  0.500000  0.296539  0.430609  1
  Co  Co16  1  0.500000  0.703461  0.430609  1
  Co  Co17  1  0.000000  0.203382  0.569232  1
  Co  Co18  1  0.000000  0.796618  0.569232  1
  Co  Co19  1  0.500000  0.879018  0.709384  1
  Co  Co20  1  0.500000  0.120982  0.709384  1
  Co  Co21  1  0.000000  0.620939  0.291501  1
  Co  Co22  1  0.000000  0.379061  0.291501  1
  Tc  Tc23  1  0.500000  0.500000  0.156598  1
  P  P24  1  0.500000  0.500000  0.881572  1
  P  P25  1  0.000000  0.000000  0.117216  1
  P  P26  1  0.500000  0.500000  0.348427  1
  P  P27  1  0.000000  0.000000  0.656386  1
  P  P28  1  0.500000  0.310906  0.616996  1
  P  P29  1  0.500000  0.689094  0.616996  1
  P  P30  1  0.000000  0.188642  0.383824  1
  P  P31  1  0.000000  0.811358  0.383824  1
  P  P32  1  0.500000  0.849371  0.891987  1
  P  P33  1  0.500000  0.150629  0.891987  1
  P  P34  1  0.000000  0.655939  0.106158  1
  P  P35  1  0.000000  0.344061  0.106158  1
