# generated using pymatgen
data_Pr5Bi2Ru
_symmetry_space_group_name_H-M   'P 1'
_cell_length_a   8.44220100
_cell_length_b   9.22409200
_cell_length_c   12.95814800
_cell_angle_alpha   90.00000000
_cell_angle_beta   90.00000000
_cell_angle_gamma   90.00000000
_symmetry_Int_Tables_number   1
_chemical_formula_structural   Pr5Bi2Ru
_chemical_formula_sum   'Pr20 Bi8 Ru4'
_cell_volume   1009.07221936
_cell_formula_units_Z   4
loop_
 _symmetry_equiv_pos_site_id
 _symmetry_equiv_pos_as_xyz
  1  'x, y, z'
loop_
 _atom_site_type_symbol
 _atom_site_label
 _atom_site_symmetry_multiplicity
 _atom_site_fract_x
 _atom_site_fract_y
 _atom_site_fract_z
 _atom_site_occupancy
  Pr  Pr0  1  0.348242  0.750000  0.704720  1
  Pr  Pr1  1  0.651758  0.250000  0.295280  1
  Pr  Pr2  1  0.848242  0.250000  0.795280  1
  Pr  Pr3  1  0.151758  0.750000  0.204720  1
  Pr  Pr4  1  0.876707  0.750000  0.806549  1
  Pr  Pr5  1  0.123293  0.250000  0.193451  1
  Pr  Pr6  1  0.376707  0.250000  0.693451  1
  Pr  Pr7  1  0.623293  0.750000  0.306549  1
  Pr  Pr8  1  0.678953  0.537398  0.565825  1
  Pr  Pr9  1  0.321047  0.462602  0.434175  1
  Pr  Pr10  1  0.178953  0.462602  0.934175  1
  Pr  Pr11  1  0.321047  0.037398  0.434175  1
  Pr  Pr12  1  0.821047  0.537398  0.065825  1
  Pr  Pr13  1  0.678953  0.962602  0.565825  1
  Pr  Pr14  1  0.821047  0.962602  0.065825  1
  Pr  Pr15  1  0.178953  0.037398  0.934175  1
  Pr  Pr16  1  0.054341  0.750000  0.497589  1
  Pr  Pr17  1  0.945659  0.250000  0.502411  1
  Pr  Pr18  1  0.554341  0.250000  0.002411  1
  Pr  Pr19  1  0.445659  0.750000  0.997589  1
  Bi  Bi20  1  0.573924  0.506982  0.827207  1
  Bi  Bi21  1  0.426076  0.493018  0.172793  1
  Bi  Bi22  1  0.073924  0.493018  0.672793  1
  Bi  Bi23  1  0.426076  0.006982  0.172793  1
  Bi  Bi24  1  0.926076  0.506982  0.327207  1
  Bi  Bi25  1  0.573924  0.993018  0.827207  1
  Bi  Bi26  1  0.926076  0.993018  0.327207  1
  Bi  Bi27  1  0.073924  0.006982  0.672793  1
  Ru  Ru28  1  0.075610  0.750000  0.990276  1
  Ru  Ru29  1  0.924390  0.250000  0.009724  1
  Ru  Ru30  1  0.575610  0.250000  0.509724  1
  Ru  Ru31  1  0.424390  0.750000  0.490276  1
