# generated using pymatgen
data_Mg4Zn2B4PdRh9
_symmetry_space_group_name_H-M   'P 1'
_cell_length_a   9.43723136
_cell_length_b   2.93893300
_cell_length_c   9.45270500
_cell_angle_alpha   90.00000000
_cell_angle_beta   90.09815107
_cell_angle_gamma   90.00000000
_symmetry_Int_Tables_number   1
_chemical_formula_structural   Mg4Zn2B4PdRh9
_chemical_formula_sum   'Mg4 Zn2 B4 Pd1 Rh9'
_cell_volume   262.17408154
_cell_formula_units_Z   1
loop_
 _symmetry_equiv_pos_site_id
 _symmetry_equiv_pos_as_xyz
  1  'x, y, z'
loop_
 _atom_site_type_symbol
 _atom_site_label
 _atom_site_symmetry_multiplicity
 _atom_site_fract_x
 _atom_site_fract_y
 _atom_site_fract_z
 _atom_site_occupancy
  Mg  Mg0  1  0.323078  0.000000  0.176097  1
  Mg  Mg1  1  0.825630  0.000000  0.328552  1
  Mg  Mg2  1  0.176079  0.000000  0.675666  1
  Mg  Mg3  1  0.674403  0.000000  0.818013  1
  Zn  Zn4  1  0.003397  0.000000  0.999326  1
  Zn  Zn5  1  0.499697  0.000000  0.500492  1
  B  B6  1  0.613244  0.000000  0.130339  1
  B  B7  1  0.126075  0.000000  0.373628  1
  B  B8  1  0.873366  0.000000  0.626998  1
  B  B9  1  0.372814  0.000000  0.870682  1
  Pd  Pd10  1  0.785875  0.500000  0.071578  1
  Rh  Rh11  1  0.503425  0.500000  0.999020  1
  Rh  Rh12  1  0.070846  0.500000  0.216959  1
  Rh  Rh13  1  0.575165  0.500000  0.284900  1
  Rh  Rh14  1  0.283657  0.500000  0.428297  1
  Rh  Rh15  1  0.000828  0.500000  0.500896  1
  Rh  Rh16  1  0.716775  0.500000  0.569908  1
  Rh  Rh17  1  0.428721  0.500000  0.716343  1
  Rh  Rh18  1  0.928611  0.500000  0.783717  1
  Rh  Rh19  1  0.218318  0.500000  0.928593  1
