# generated using pymatgen
data_CeTh2(BN2)2
_symmetry_space_group_name_H-M   'P 1'
_cell_length_a   6.43050055
_cell_length_b   6.43050135
_cell_length_c   6.43050162
_cell_angle_alpha   147.66071525
_cell_angle_beta   121.58695395
_cell_angle_gamma   68.36531943
_symmetry_Int_Tables_number   1
_chemical_formula_structural   CeTh2(BN2)2
_chemical_formula_sum   'Ce1 Th2 B2 N4'
_cell_volume   119.56731582
_cell_formula_units_Z   1
loop_
 _symmetry_equiv_pos_site_id
 _symmetry_equiv_pos_as_xyz
  1  'x, y, z'
loop_
 _atom_site_type_symbol
 _atom_site_label
 _atom_site_symmetry_multiplicity
 _atom_site_fract_x
 _atom_site_fract_y
 _atom_site_fract_z
 _atom_site_occupancy
  Ce  Ce0  1  0.306503  0.806503  0.500000  1
  Th  Th1  1  0.696683  0.196683  0.500000  1
  Th  Th2  1  0.000759  0.000759  0.000000  1
  B  B3  1  0.359246  0.498383  0.860863  1
  B  B4  1  0.637520  0.498383  0.139137  1
  N  N5  1  0.358776  0.621219  0.737557  1
  N  N6  1  0.883661  0.621219  0.262443  1
  N  N7  1  0.115066  0.378426  0.736639  1
  N  N8  1  0.641787  0.378426  0.263361  1
