# generated using pymatgen
data_Er9Tm(In2Rh)4
_symmetry_space_group_name_H-M   'P 1'
_cell_length_a   3.58077300
_cell_length_b   8.01433800
_cell_length_c   18.23930400
_cell_angle_alpha   90.00221831
_cell_angle_beta   90.00000000
_cell_angle_gamma   90.00000000
_symmetry_Int_Tables_number   1
_chemical_formula_structural   Er9Tm(In2Rh)4
_chemical_formula_sum   'Er9 Tm1 In8 Rh4'
_cell_volume   523.42288458
_cell_formula_units_Z   1
loop_
 _symmetry_equiv_pos_site_id
 _symmetry_equiv_pos_as_xyz
  1  'x, y, z'
loop_
 _atom_site_type_symbol
 _atom_site_label
 _atom_site_symmetry_multiplicity
 _atom_site_fract_x
 _atom_site_fract_y
 _atom_site_fract_z
 _atom_site_occupancy
  Er  Er0  1  0.000000  0.499838  0.499633  1
  Er  Er1  1  0.000000  0.999936  0.000237  1
  Er  Er2  1  0.000000  0.745579  0.278675  1
  Er  Er3  1  0.000000  0.254197  0.721282  1
  Er  Er4  1  0.000000  0.754437  0.778795  1
  Er  Er5  1  0.000000  0.245549  0.221466  1
  Er  Er6  1  0.000000  0.617168  0.087690  1
  Er  Er7  1  0.000000  0.382770  0.912778  1
  Er  Er8  1  0.000000  0.882871  0.587100  1
  Tm  Tm9  1  0.000000  0.117471  0.412033  1
  In  In10  1  0.500000  0.707141  0.932326  1
  In  In11  1  0.500000  0.292825  0.068023  1
  In  In12  1  0.500000  0.793649  0.432117  1
  In  In13  1  0.500000  0.206911  0.567239  1
  In  In14  1  0.500000  0.571772  0.649909  1
  In  In15  1  0.500000  0.427406  0.349948  1
  In  In16  1  0.500000  0.928050  0.150260  1
  In  In17  1  0.500000  0.071746  0.850027  1
  Rh  Rh18  1  0.500000  0.524865  0.195729  1
  Rh  Rh19  1  0.500000  0.475161  0.804579  1
  Rh  Rh20  1  0.500000  0.975369  0.695421  1
  Rh  Rh21  1  0.500000  0.025288  0.304735  1
