# generated using pymatgen
data_HfSc2BP2Os3
_symmetry_space_group_name_H-M   'P 1'
_cell_length_a   6.58786044
_cell_length_b   6.59201846
_cell_length_c   3.44530100
_cell_angle_alpha   90.00000000
_cell_angle_beta   90.00000000
_cell_angle_gamma   120.02088966
_symmetry_Int_Tables_number   1
_chemical_formula_structural   HfSc2BP2Os3
_chemical_formula_sum   'Hf1 Sc2 B1 P2 Os3'
_cell_volume   129.54753389
_cell_formula_units_Z   1
loop_
 _symmetry_equiv_pos_site_id
 _symmetry_equiv_pos_as_xyz
  1  'x, y, z'
loop_
 _atom_site_type_symbol
 _atom_site_label
 _atom_site_symmetry_multiplicity
 _atom_site_fract_x
 _atom_site_fract_y
 _atom_site_fract_z
 _atom_site_occupancy
  Hf  Hf0  1  0.000000  0.600820  0.500000  1
  Sc  Sc1  1  0.398538  0.399987  0.500000  1
  Sc  Sc2  1  0.601462  0.001448  0.500000  1
  B  B3  1  0.000000  0.999618  0.500000  1
  P  P4  1  0.663438  0.330594  0.000000  1
  P  P5  1  0.336562  0.667158  0.000000  1
  Os  Os6  1  0.762259  0.761500  0.000000  1
  Os  Os7  1  0.237741  0.999241  0.000000  1
  Os  Os8  1  0.000000  0.239635  0.000000  1
