# generated using pymatgen
data_Tb7Dy13(IrPt5)2
_symmetry_space_group_name_H-M   'P 1'
_cell_length_a   11.05579414
_cell_length_b   11.05536504
_cell_length_c   6.42408906
_cell_angle_alpha   89.99741563
_cell_angle_beta   89.98428579
_cell_angle_gamma   89.99040179
_symmetry_Int_Tables_number   1
_chemical_formula_structural   Tb7Dy13(IrPt5)2
_chemical_formula_sum   'Tb7 Dy13 Ir2 Pt10'
_cell_volume   785.18964096
_cell_formula_units_Z   1
loop_
 _symmetry_equiv_pos_site_id
 _symmetry_equiv_pos_as_xyz
  1  'x, y, z'
loop_
 _atom_site_type_symbol
 _atom_site_label
 _atom_site_symmetry_multiplicity
 _atom_site_fract_x
 _atom_site_fract_y
 _atom_site_fract_z
 _atom_site_occupancy
  Tb  Tb0  1  0.292348  0.088965  0.376718  1
  Tb  Tb1  1  0.292266  0.911332  0.876673  1
  Tb  Tb2  1  0.707604  0.088892  0.876722  1
  Tb  Tb3  1  0.707731  0.911145  0.376724  1
  Tb  Tb4  1  0.588816  0.792231  0.876692  1
  Tb  Tb5  1  0.588701  0.207750  0.376772  1
  Tb  Tb6  1  0.411194  0.792240  0.376623  1
  Dy  Dy7  1  0.411192  0.207486  0.876981  1
  Dy  Dy8  1  0.204758  0.412007  0.623514  1
  Dy  Dy9  1  0.204718  0.587890  0.123456  1
  Dy  Dy10  1  0.795288  0.412082  0.123363  1
  Dy  Dy11  1  0.795304  0.587899  0.623425  1
  Dy  Dy12  1  0.912144  0.704691  0.123420  1
  Dy  Dy13  1  0.912079  0.295315  0.623405  1
  Dy  Dy14  1  0.087926  0.704719  0.623447  1
  Dy  Dy15  1  0.087925  0.295291  0.123383  1
  Dy  Dy16  1  0.000038  0.000018  0.500887  1
  Dy  Dy17  1  0.999984  0.000014  0.000839  1
  Dy  Dy18  1  0.499943  0.499853  0.000810  1
  Dy  Dy19  1  0.499974  0.499954  0.500911  1
  Ir  Ir20  1  0.000033  0.499979  0.878192  1
  Ir  Ir21  1  0.000011  0.499984  0.378145  1
  Pt  Pt22  1  0.846508  0.153103  0.250272  1
  Pt  Pt23  1  0.846513  0.846863  0.750249  1
  Pt  Pt24  1  0.153777  0.153197  0.750408  1
  Pt  Pt25  1  0.153494  0.846889  0.250256  1
  Pt  Pt26  1  0.652911  0.346421  0.750370  1
  Pt  Pt27  1  0.653106  0.653480  0.250275  1
  Pt  Pt28  1  0.347004  0.346318  0.249720  1
  Pt  Pt29  1  0.346896  0.653519  0.750255  1
  Pt  Pt30  1  0.499890  0.000274  0.118328  1
  Pt  Pt31  1  0.499924  0.000199  0.618767  1
