# generated using pymatgen
data_La2Pr14MgCd3Ir4
_symmetry_space_group_name_H-M   'P 1'
_cell_length_a   10.03505221
_cell_length_b   10.03568374
_cell_length_c   10.05234956
_cell_angle_alpha   60.26183357
_cell_angle_beta   60.26084327
_cell_angle_gamma   60.23598847
_symmetry_Int_Tables_number   1
_chemical_formula_structural   La2Pr14MgCd3Ir4
_chemical_formula_sum   'La2 Pr14 Mg1 Cd3 Ir4'
_cell_volume   719.94300848
_cell_formula_units_Z   1
loop_
 _symmetry_equiv_pos_site_id
 _symmetry_equiv_pos_as_xyz
  1  'x, y, z'
loop_
 _atom_site_type_symbol
 _atom_site_label
 _atom_site_symmetry_multiplicity
 _atom_site_fract_x
 _atom_site_fract_y
 _atom_site_fract_z
 _atom_site_occupancy
  La  La0  1  0.346697  0.346708  0.347383  1
  La  La1  1  0.346625  0.346625  0.960574  1
  Pr  Pr2  1  0.348217  0.954505  0.348981  1
  Pr  Pr3  1  0.954476  0.348228  0.349005  1
  Pr  Pr4  1  0.810370  0.190453  0.190241  1
  Pr  Pr5  1  0.188529  0.810776  0.809711  1
  Pr  Pr6  1  0.190421  0.810354  0.190281  1
  Pr  Pr7  1  0.810812  0.188527  0.809701  1
  Pr  Pr8  1  0.190516  0.190474  0.809749  1
  Pr  Pr9  1  0.810389  0.810400  0.188232  1
  Pr  Pr10  1  0.939037  0.562094  0.562005  1
  Pr  Pr11  1  0.559557  0.939430  0.939579  1
  Pr  Pr12  1  0.562052  0.939032  0.561990  1
  Pr  Pr13  1  0.939470  0.559546  0.939593  1
  Pr  Pr14  1  0.562546  0.562541  0.938563  1
  Pr  Pr15  1  0.939697  0.939694  0.559556  1
  Mg  Mg16  1  0.575389  0.575380  0.574328  1
  Cd  Cd17  1  0.581212  0.581214  0.257962  1
  Cd  Cd18  1  0.581381  0.258035  0.580646  1
  Cd  Cd19  1  0.258017  0.581387  0.580673  1
  Ir  Ir20  1  0.142593  0.142606  0.141080  1
  Ir  Ir21  1  0.143478  0.143469  0.574996  1
  Ir  Ir22  1  0.143842  0.574657  0.142593  1
  Ir  Ir23  1  0.574677  0.143863  0.142577  1
