# generated using pymatgen
data_RbPOs
_symmetry_space_group_name_H-M   'P 1'
_cell_length_a   4.03265600
_cell_length_b   4.03265600
_cell_length_c   11.32787500
_cell_angle_alpha   90.00000000
_cell_angle_beta   90.00000000
_cell_angle_gamma   90.00000000
_symmetry_Int_Tables_number   1
_chemical_formula_structural   RbPOs
_chemical_formula_sum   'Rb2 P2 Os2'
_cell_volume   184.21746490
_cell_formula_units_Z   2
loop_
 _symmetry_equiv_pos_site_id
 _symmetry_equiv_pos_as_xyz
  1  'x, y, z'
loop_
 _atom_site_type_symbol
 _atom_site_label
 _atom_site_symmetry_multiplicity
 _atom_site_fract_x
 _atom_site_fract_y
 _atom_site_fract_z
 _atom_site_occupancy
  Rb  Rb0  1  0.000000  0.500000  0.278863  1
  Rb  Rb1  1  0.500000  0.000000  0.721137  1
  P  P2  1  0.000000  0.500000  0.891085  1
  P  P3  1  0.500000  0.000000  0.108915  1
  Os  Os4  1  0.000000  0.000000  0.000000  1
  Os  Os5  1  0.500000  0.500000  0.000000  1
