# generated using pymatgen
data_Dy3Ho2Nb3(Co4P3)4
_symmetry_space_group_name_H-M   'P 1'
_cell_length_a   12.18705101
_cell_length_b   12.18705120
_cell_length_c   3.69994400
_cell_angle_alpha   90.00000000
_cell_angle_beta   90.00000000
_cell_angle_gamma   119.99526507
_symmetry_Int_Tables_number   1
_chemical_formula_structural   Dy3Ho2Nb3(Co4P3)4
_chemical_formula_sum   'Dy3 Ho2 Nb3 Co16 P12'
_cell_volume   475.93075107
_cell_formula_units_Z   1
loop_
 _symmetry_equiv_pos_site_id
 _symmetry_equiv_pos_as_xyz
  1  'x, y, z'
loop_
 _atom_site_type_symbol
 _atom_site_label
 _atom_site_symmetry_multiplicity
 _atom_site_fract_x
 _atom_site_fract_y
 _atom_site_fract_z
 _atom_site_occupancy
  Dy  Dy0  1  0.183497  0.183497  0.500000  1
  Dy  Dy1  1  0.333334  0.666633  0.000000  1
  Dy  Dy2  1  0.666633  0.333334  0.000000  1
  Ho  Ho3  1  0.816443  0.999928  0.500000  1
  Ho  Ho4  1  0.999928  0.816443  0.500000  1
  Nb  Nb5  1  0.444577  0.999984  0.000000  1
  Nb  Nb6  1  0.999984  0.444577  0.000000  1
  Nb  Nb7  1  0.555480  0.555480  0.000000  1
  Co  Co8  1  0.279216  0.999902  0.500000  1
  Co  Co9  1  0.999902  0.279216  0.500000  1
  Co  Co10  1  0.720879  0.720879  0.500000  1
  Co  Co11  1  0.626501  0.803303  0.000000  1
  Co  Co12  1  0.196675  0.823143  0.000000  1
  Co  Co13  1  0.176857  0.373708  0.000000  1
  Co  Co14  1  0.373708  0.176857  0.000000  1
  Co  Co15  1  0.803303  0.626501  0.000000  1
  Co  Co16  1  0.823143  0.196675  0.000000  1
  Co  Co17  1  0.519800  0.873121  0.500000  1
  Co  Co18  1  0.126902  0.646667  0.500000  1
  Co  Co19  1  0.353387  0.480279  0.500000  1
  Co  Co20  1  0.480279  0.353387  0.500000  1
  Co  Co21  1  0.873121  0.519800  0.500000  1
  Co  Co22  1  0.646667  0.126902  0.500000  1
  Co  Co23  1  0.999790  0.999790  0.000000  1
  P  P24  1  0.178236  0.999677  0.000000  1
  P  P25  1  0.999677  0.178236  0.000000  1
  P  P26  1  0.821652  0.821652  0.000000  1
  P  P27  1  0.520714  0.688472  0.500000  1
  P  P28  1  0.311605  0.832195  0.500000  1
  P  P29  1  0.167750  0.479302  0.500000  1
  P  P30  1  0.479302  0.167750  0.500000  1
  P  P31  1  0.688472  0.520714  0.500000  1
  P  P32  1  0.832195  0.311605  0.500000  1
  P  P33  1  0.644285  0.000013  0.000000  1
  P  P34  1  0.000013  0.644285  0.000000  1
  P  P35  1  0.356093  0.356093  0.000000  1
