# generated using pymatgen
data_Fe2AsClO4
_symmetry_space_group_name_H-M   'P 1'
_cell_length_a   8.51482590
_cell_length_b   8.63103725
_cell_length_c   8.68507661
_cell_angle_alpha   106.41021982
_cell_angle_beta   110.59917977
_cell_angle_gamma   111.31340204
_symmetry_Int_Tables_number   1
_chemical_formula_structural   Fe2AsClO4
_chemical_formula_sum   'Fe8 As4 Cl4 O16'
_cell_volume   491.11995848
_cell_formula_units_Z   4
loop_
 _symmetry_equiv_pos_site_id
 _symmetry_equiv_pos_as_xyz
  1  'x, y, z'
loop_
 _atom_site_type_symbol
 _atom_site_label
 _atom_site_symmetry_multiplicity
 _atom_site_fract_x
 _atom_site_fract_y
 _atom_site_fract_z
 _atom_site_occupancy
  Fe  Fe0  1  0.998922  0.999902  0.000501  1
  Fe  Fe1  1  0.734873  0.924563  0.176878  1
  Fe  Fe2  1  0.982703  0.728536  0.249645  1
  Fe  Fe3  1  0.254954  0.559954  0.326066  1
  Fe  Fe4  1  0.500432  0.000440  0.500639  1
  Fe  Fe5  1  0.745470  0.440721  0.674336  1
  Fe  Fe6  1  0.018467  0.270968  0.750644  1
  Fe  Fe7  1  0.263746  0.074104  0.824260  1
  As  As8  1  0.238967  0.756562  0.011312  1
  As  As9  1  0.241229  0.228414  0.487113  1
  As  As10  1  0.759440  0.771961  0.513035  1
  As  As11  1  0.760207  0.243034  0.988060  1
  Cl  Cl12  1  0.253356  0.335418  0.071434  1
  Cl  Cl13  1  0.760184  0.179648  0.426718  1
  Cl  Cl14  1  0.240066  0.820344  0.573206  1
  Cl  Cl15  1  0.746410  0.664029  0.929203  1
  O  O16  1  0.801683  0.071040  0.024112  1
  O  O17  1  0.447292  0.780176  0.020875  1
  O  O18  1  0.952121  0.461309  0.170492  1
  O  O19  1  0.242620  0.777895  0.220422  1
  O  O20  1  0.054806  0.020774  0.278202  1
  O  O21  1  0.798735  0.782764  0.333248  1
  O  O22  1  0.252428  0.422322  0.475132  1
  O  O23  1  0.547995  0.778891  0.472223  1
  O  O24  1  0.453410  0.222407  0.528289  1
  O  O25  1  0.748453  0.577778  0.523871  1
  O  O26  1  0.202895  0.218957  0.667505  1
  O  O27  1  0.946448  0.979336  0.722405  1
  O  O28  1  0.758163  0.220871  0.779518  1
  O  O29  1  0.046877  0.538019  0.829193  1
  O  O30  1  0.551259  0.221166  0.975747  1
  O  O31  1  0.195386  0.927691  0.975715  1
