# generated using pymatgen
data_Dy2Pa4Ni20P13
_symmetry_space_group_name_H-M   'P 1'
_cell_length_a   12.62858477
_cell_length_b   12.63947942
_cell_length_c   3.77680100
_cell_angle_alpha   90.00000000
_cell_angle_beta   90.00000000
_cell_angle_gamma   120.02764402
_symmetry_Int_Tables_number   1
_chemical_formula_structural   Dy2Pa4Ni20P13
_chemical_formula_sum   'Dy2 Pa4 Ni20 P13'
_cell_volume   521.93637010
_cell_formula_units_Z   1
loop_
 _symmetry_equiv_pos_site_id
 _symmetry_equiv_pos_as_xyz
  1  'x, y, z'
loop_
 _atom_site_type_symbol
 _atom_site_label
 _atom_site_symmetry_multiplicity
 _atom_site_fract_x
 _atom_site_fract_y
 _atom_site_fract_z
 _atom_site_occupancy
  Dy  Dy0  1  0.469226  0.186900  0.000000  1
  Dy  Dy1  1  0.717050  0.530505  0.000000  1
  Pa  Pa2  1  0.811093  0.283093  0.000000  1
  Pa  Pa3  1  0.532415  0.812282  0.500000  1
  Pa  Pa4  1  0.280209  0.467637  0.500000  1
  Pa  Pa5  1  0.187945  0.720152  0.500000  1
  Ni  Ni6  1  0.333920  0.666929  0.000000  1
  Ni  Ni7  1  0.668457  0.332850  0.500000  1
  Ni  Ni8  1  0.195391  0.088209  0.000000  1
  Ni  Ni9  1  0.891676  0.804157  0.000000  1
  Ni  Ni10  1  0.912243  0.108736  0.000000  1
  Ni  Ni11  1  0.849890  0.929374  0.500000  1
  Ni  Ni12  1  0.080728  0.150443  0.500000  1
  Ni  Ni13  1  0.070902  0.918377  0.500000  1
  Ni  Ni14  1  0.436986  0.414074  0.000000  1
  Ni  Ni15  1  0.977323  0.562538  0.000000  1
  Ni  Ni16  1  0.586636  0.022993  0.000000  1
  Ni  Ni17  1  0.564911  0.587162  0.500000  1
  Ni  Ni18  1  0.022859  0.436266  0.500000  1
  Ni  Ni19  1  0.411357  0.976940  0.500000  1
  Ni  Ni20  1  0.080845  0.323059  0.000000  1
  Ni  Ni21  1  0.241793  0.919104  0.000000  1
  Ni  Ni22  1  0.676844  0.757825  0.000000  1
  Ni  Ni23  1  0.928628  0.682729  0.500000  1
  Ni  Ni24  1  0.751168  0.070112  0.500000  1
  Ni  Ni25  1  0.318434  0.246769  0.500000  1
  P  P26  1  0.233332  0.277866  0.000000  1
  P  P27  1  0.044811  0.767347  0.000000  1
  P  P28  1  0.723000  0.954974  0.000000  1
  P  P29  1  0.768421  0.723265  0.500000  1
  P  P30  1  0.955150  0.231269  0.500000  1
  P  P31  1  0.276542  0.045604  0.500000  1
  P  P32  1  0.477181  0.610992  0.000000  1
  P  P33  1  0.134801  0.523106  0.000000  1
  P  P34  1  0.388462  0.865699  0.000000  1
  P  P35  1  0.523806  0.386136  0.500000  1
  P  P36  1  0.864563  0.479866  0.500000  1
  P  P37  1  0.611392  0.134842  0.500000  1
  P  P38  1  0.999611  0.999821  0.000000  1
