# generated using pymatgen
data_GaS8I3
_symmetry_space_group_name_H-M   'P 1'
_cell_length_a   8.61665767
_cell_length_b   10.92156912
_cell_length_c   12.63284279
_cell_angle_alpha   98.13356719
_cell_angle_beta   114.00528922
_cell_angle_gamma   102.57690990
_symmetry_Int_Tables_number   1
_chemical_formula_structural   GaS8I3
_chemical_formula_sum   'Ga2 S16 I6'
_cell_volume   1024.06249887
_cell_formula_units_Z   2
loop_
 _symmetry_equiv_pos_site_id
 _symmetry_equiv_pos_as_xyz
  1  'x, y, z'
loop_
 _atom_site_type_symbol
 _atom_site_label
 _atom_site_symmetry_multiplicity
 _atom_site_fract_x
 _atom_site_fract_y
 _atom_site_fract_z
 _atom_site_occupancy
  Ga  Ga0  1  0.812058  0.977737  0.852866  1
  Ga  Ga1  1  0.187942  0.022263  0.147134  1
  S  S2  1  0.854006  0.491286  0.799915  1
  S  S3  1  0.145994  0.508714  0.200085  1
  S  S4  1  0.708897  0.407208  0.617883  1
  S  S5  1  0.291103  0.592792  0.382117  1
  S  S6  1  0.748011  0.230004  0.578467  1
  S  S7  1  0.251989  0.769996  0.421533  1
  S  S8  1  0.943805  0.252126  0.522877  1
  S  S9  1  0.056195  0.747874  0.477123  1
  S  S10  1  0.906648  0.380009  0.165275  1
  S  S11  1  0.093352  0.619991  0.834725  1
  S  S12  1  0.710315  0.469683  0.112551  1
  S  S13  1  0.289685  0.530317  0.887449  1
  S  S14  1  0.669915  0.537497  0.257189  1
  S  S15  1  0.330085  0.462503  0.742811  1
  S  S16  1  0.815900  0.731015  0.334765  1
  S  S17  1  0.184100  0.268985  0.665235  1
  I  I18  1  0.576649  0.086352  0.832478  1
  I  I19  1  0.423351  0.913648  0.167522  1
  I  I20  1  0.856191  0.847560  0.024585  1
  I  I21  1  0.143809  0.152440  0.975415  1
  I  I22  1  0.788365  0.838246  0.667508  1
  I  I23  1  0.211635  0.161754  0.332492  1
