# generated using pymatgen
data_Tm4Ga5Ni9
_symmetry_space_group_name_H-M   'P 1'
_cell_length_a   5.15790913
_cell_length_b   5.15791027
_cell_length_c   12.13611713
_cell_angle_alpha   77.73095971
_cell_angle_beta   77.73095649
_cell_angle_gamma   60.00000634
_symmetry_Int_Tables_number   1
_chemical_formula_structural   Tm4Ga5Ni9
_chemical_formula_sum   'Tm4 Ga5 Ni9'
_cell_volume   271.06494896
_cell_formula_units_Z   1
loop_
 _symmetry_equiv_pos_site_id
 _symmetry_equiv_pos_as_xyz
  1  'x, y, z'
loop_
 _atom_site_type_symbol
 _atom_site_label
 _atom_site_symmetry_multiplicity
 _atom_site_fract_x
 _atom_site_fract_y
 _atom_site_fract_z
 _atom_site_occupancy
  Tm  Tm0  1  0.952002  0.952002  0.143990  1
  Tm  Tm1  1  0.047998  0.047998  0.856010  1
  Tm  Tm2  1  0.854483  0.854483  0.436551  1
  Tm  Tm3  1  0.145517  0.145517  0.563449  1
  Ga  Ga4  1  0.500000  0.500000  0.500000  1
  Ga  Ga5  1  0.722204  0.722204  0.833391  1
  Ga  Ga6  1  0.277796  0.277796  0.166609  1
  Ga  Ga7  1  0.610640  0.610640  0.168081  1
  Ga  Ga8  1  0.389360  0.389360  0.831919  1
  Ni  Ni9  1  0.000000  0.500000  0.000000  1
  Ni  Ni10  1  0.500000  0.000000  0.000000  1
  Ni  Ni11  1  0.500000  0.500000  0.000000  1
  Ni  Ni12  1  0.386220  0.386220  0.332872  1
  Ni  Ni13  1  0.894689  0.386220  0.332872  1
  Ni  Ni14  1  0.386220  0.894689  0.332872  1
  Ni  Ni15  1  0.613780  0.613780  0.667128  1
  Ni  Ni16  1  0.105311  0.613780  0.667128  1
  Ni  Ni17  1  0.613780  0.105311  0.667128  1
