# generated using pymatgen
data_Ti3NbP2
_symmetry_space_group_name_H-M   'P 1'
_cell_length_a   3.43349200
_cell_length_b   6.49577574
_cell_length_c   8.03551519
_cell_angle_alpha   90.40667778
_cell_angle_beta   90.00000000
_cell_angle_gamma   90.00000000
_symmetry_Int_Tables_number   1
_chemical_formula_structural   Ti3NbP2
_chemical_formula_sum   'Ti6 Nb2 P4'
_cell_volume   179.21314001
_cell_formula_units_Z   2
loop_
 _symmetry_equiv_pos_site_id
 _symmetry_equiv_pos_as_xyz
  1  'x, y, z'
loop_
 _atom_site_type_symbol
 _atom_site_label
 _atom_site_symmetry_multiplicity
 _atom_site_fract_x
 _atom_site_fract_y
 _atom_site_fract_z
 _atom_site_occupancy
  Ti  Ti0  1  0.750000  0.963030  0.671290  1
  Ti  Ti1  1  0.250000  0.036970  0.328710  1
  Ti  Ti2  1  0.250000  0.638488  0.563050  1
  Ti  Ti3  1  0.750000  0.361512  0.436950  1
  Ti  Ti4  1  0.750000  0.857484  0.062894  1
  Ti  Ti5  1  0.250000  0.142516  0.937106  1
  Nb  Nb6  1  0.250000  0.536065  0.173597  1
  Nb  Nb7  1  0.750000  0.463935  0.826403  1
  P  P8  1  0.250000  0.762774  0.857895  1
  P  P9  1  0.750000  0.237226  0.142105  1
  P  P10  1  0.750000  0.748795  0.364008  1
  P  P11  1  0.250000  0.251205  0.635992  1
