# generated using pymatgen
data_La3Sm2Pt19
_symmetry_space_group_name_H-M   'P 1'
_cell_length_a   5.44421773
_cell_length_b   5.44421848
_cell_length_c   18.25117953
_cell_angle_alpha   81.42249711
_cell_angle_beta   81.42249465
_cell_angle_gamma   60.00000701
_symmetry_Int_Tables_number   1
_chemical_formula_structural   La3Sm2Pt19
_chemical_formula_sum   'La3 Sm2 Pt19'
_cell_volume   461.48186380
_cell_formula_units_Z   1
loop_
 _symmetry_equiv_pos_site_id
 _symmetry_equiv_pos_as_xyz
  1  'x, y, z'
loop_
 _atom_site_type_symbol
 _atom_site_label
 _atom_site_symmetry_multiplicity
 _atom_site_fract_x
 _atom_site_fract_y
 _atom_site_fract_z
 _atom_site_occupancy
  La  La0  1  0.000000  0.000000  0.000000  1
  La  La1  1  0.077902  0.077902  0.766292  1
  La  La2  1  0.922098  0.922098  0.233708  1
  Sm  Sm3  1  0.152418  0.152418  0.542746  1
  Sm  Sm4  1  0.847582  0.847582  0.457254  1
  Pt  Pt5  1  0.500000  0.500000  0.500000  1
  Pt  Pt6  1  0.249698  0.249698  0.250906  1
  Pt  Pt7  1  0.750302  0.750302  0.749094  1
  Pt  Pt8  1  0.333339  0.333339  0.999981  1
  Pt  Pt9  1  0.666661  0.666661  0.000019  1
  Pt  Pt10  1  0.416699  0.416699  0.749903  1
  Pt  Pt11  1  0.583301  0.583301  0.250097  1
  Pt  Pt12  1  0.122284  0.627294  0.623126  1
  Pt  Pt13  1  0.627294  0.627294  0.623126  1
  Pt  Pt14  1  0.627294  0.122284  0.623126  1
  Pt  Pt15  1  0.877716  0.372706  0.376874  1
  Pt  Pt16  1  0.372706  0.372706  0.376874  1
  Pt  Pt17  1  0.372706  0.877716  0.376874  1
  Pt  Pt18  1  0.041132  0.541457  0.875954  1
  Pt  Pt19  1  0.541457  0.541457  0.875954  1
  Pt  Pt20  1  0.541457  0.041132  0.875954  1
  Pt  Pt21  1  0.958868  0.458543  0.124046  1
  Pt  Pt22  1  0.458543  0.458543  0.124046  1
  Pt  Pt23  1  0.458543  0.958868  0.124046  1
