# generated using pymatgen
data_U4Co7Ge6
_symmetry_space_group_name_H-M   'P 1'
_cell_length_a   7.05543725
_cell_length_b   7.05535350
_cell_length_c   7.05559200
_cell_angle_alpha   109.47115757
_cell_angle_beta   109.47233382
_cell_angle_gamma   109.46917300
_symmetry_Int_Tables_number   1
_chemical_formula_structural   U4Co7Ge6
_chemical_formula_sum   'U4 Co7 Ge6'
_cell_volume   270.37070063
_cell_formula_units_Z   1
loop_
 _symmetry_equiv_pos_site_id
 _symmetry_equiv_pos_as_xyz
  1  'x, y, z'
loop_
 _atom_site_type_symbol
 _atom_site_label
 _atom_site_symmetry_multiplicity
 _atom_site_fract_x
 _atom_site_fract_y
 _atom_site_fract_z
 _atom_site_occupancy
  U  U0  1  0.500001  0.000000  0.000000  1
  U  U1  1  0.000000  0.500001  0.000000  1
  U  U2  1  0.000000  0.000000  0.500001  1
  U  U3  1  0.500001  0.500001  0.500001  1
  Co  Co4  1  0.000000  0.000000  0.000000  1
  Co  Co5  1  0.749998  0.500010  0.250013  1
  Co  Co6  1  0.500012  0.750001  0.250015  1
  Co  Co7  1  0.749996  0.250000  0.499999  1
  Co  Co8  1  0.250005  0.750001  0.500001  1
  Co  Co9  1  0.499988  0.250000  0.749986  1
  Co  Co10  1  0.250003  0.499990  0.749988  1
  Ge  Ge11  1  0.319706  0.319704  0.999999  1
  Ge  Ge12  1  0.680294  0.680296  0.000001  1
  Ge  Ge13  1  0.319708  0.000021  0.319728  1
  Ge  Ge14  1  0.000019  0.319703  0.319724  1
  Ge  Ge15  1  0.680292  0.999979  0.680272  1
  Ge  Ge16  1  0.999981  0.680297  0.680276  1
