# generated using pymatgen
data_Tb8Ho12CoBi8Rh3
_symmetry_space_group_name_H-M   'P 1'
_cell_length_a   8.03232732
_cell_length_b   8.98709200
_cell_length_c   12.45231228
_cell_angle_alpha   90.00000000
_cell_angle_beta   89.82788115
_cell_angle_gamma   90.00000000
_symmetry_Int_Tables_number   1
_chemical_formula_structural   Tb8Ho12CoBi8Rh3
_chemical_formula_sum   'Tb8 Ho12 Co1 Bi8 Rh3'
_cell_volume   898.89430540
_cell_formula_units_Z   1
loop_
 _symmetry_equiv_pos_site_id
 _symmetry_equiv_pos_as_xyz
  1  'x, y, z'
loop_
 _atom_site_type_symbol
 _atom_site_label
 _atom_site_symmetry_multiplicity
 _atom_site_fract_x
 _atom_site_fract_y
 _atom_site_fract_z
 _atom_site_occupancy
  Tb  Tb0  1  0.345641  0.750000  0.699707  1
  Tb  Tb1  1  0.657627  0.250000  0.293917  1
  Tb  Tb2  1  0.842738  0.250000  0.793840  1
  Tb  Tb3  1  0.157215  0.750000  0.205757  1
  Tb  Tb4  1  0.879269  0.750000  0.806003  1
  Tb  Tb5  1  0.121344  0.250000  0.193551  1
  Tb  Tb6  1  0.378668  0.250000  0.693699  1
  Tb  Tb7  1  0.615376  0.750000  0.311538  1
  Ho  Ho8  1  0.676634  0.545205  0.563972  1
  Ho  Ho9  1  0.324048  0.465659  0.436720  1
  Ho  Ho10  1  0.177838  0.457360  0.934390  1
  Ho  Ho11  1  0.324048  0.034341  0.436720  1
  Ho  Ho12  1  0.821669  0.541652  0.065522  1
  Ho  Ho13  1  0.676634  0.954795  0.563972  1
  Ho  Ho14  1  0.821669  0.958348  0.065522  1
  Ho  Ho15  1  0.177838  0.042640  0.934390  1
  Ho  Ho16  1  0.051574  0.750000  0.498720  1
  Ho  Ho17  1  0.949901  0.250000  0.501414  1
  Ho  Ho18  1  0.547578  0.250000  0.000867  1
  Ho  Ho19  1  0.450867  0.750000  0.998077  1
  Co  Co20  1  0.432390  0.750000  0.491727  1
  Bi  Bi21  1  0.570806  0.509811  0.826623  1
  Bi  Bi22  1  0.429357  0.491116  0.173251  1
  Bi  Bi23  1  0.071552  0.490661  0.672246  1
  Bi  Bi24  1  0.429357  0.008884  0.173251  1
  Bi  Bi25  1  0.928725  0.509988  0.327961  1
  Bi  Bi26  1  0.570806  0.990189  0.826623  1
  Bi  Bi27  1  0.928725  0.990012  0.327961  1
  Bi  Bi28  1  0.071552  0.009339  0.672246  1
  Rh  Rh29  1  0.070452  0.750000  0.990537  1
  Rh  Rh30  1  0.928186  0.250000  0.010064  1
  Rh  Rh31  1  0.569916  0.250000  0.509214  1
