# generated using pymatgen
data_Cr3AuF20
_symmetry_space_group_name_H-M   'P 1'
_cell_length_a   8.67401249
_cell_length_b   7.88803469
_cell_length_c   5.68584563
_cell_angle_alpha   90.06029063
_cell_angle_beta   90.06381781
_cell_angle_gamma   89.33849799
_symmetry_Int_Tables_number   1
_chemical_formula_structural   Cr3AuF20
_chemical_formula_sum   'Cr3 Au1 F20'
_cell_volume   389.00436034
_cell_formula_units_Z   1
loop_
 _symmetry_equiv_pos_site_id
 _symmetry_equiv_pos_as_xyz
  1  'x, y, z'
loop_
 _atom_site_type_symbol
 _atom_site_label
 _atom_site_symmetry_multiplicity
 _atom_site_fract_x
 _atom_site_fract_y
 _atom_site_fract_z
 _atom_site_occupancy
  Cr  Cr0  1  0.255526  0.591023  0.248828  1
  Cr  Cr1  1  0.745587  0.419300  0.751266  1
  Cr  Cr2  1  0.257579  0.907568  0.749362  1
  Au  Au3  1  0.738873  0.103130  0.250517  1
  F  F4  1  0.651673  0.260227  0.002857  1
  F  F5  1  0.327049  0.746066  0.999842  1
  F  F6  1  0.196476  0.452701  0.027618  1
  F  F7  1  0.814214  0.952457  0.011377  1
  F  F8  1  0.542935  0.986584  0.250117  1
  F  F9  1  0.931904  0.226845  0.251031  1
  F  F10  1  0.448040  0.526186  0.249421  1
  F  F11  1  0.089706  0.716142  0.248824  1
  F  F12  1  0.196170  0.452568  0.469078  1
  F  F13  1  0.814468  0.952288  0.489073  1
  F  F14  1  0.651946  0.260191  0.498523  1
  F  F15  1  0.326915  0.746021  0.498823  1
  F  F16  1  0.200286  0.047704  0.529211  1
  F  F17  1  0.810043  0.550067  0.529530  1
  F  F18  1  0.894430  0.274228  0.751377  1
  F  F19  1  0.554763  0.483856  0.750493  1
  F  F20  1  0.090869  0.787557  0.749045  1
  F  F21  1  0.450669  0.959881  0.749727  1
  F  F22  1  0.200313  0.047639  0.969822  1
  F  F23  1  0.809568  0.549773  0.974234  1
