# generated using pymatgen
data_TbY2Cd(Mo2O7)2
_symmetry_space_group_name_H-M   'P 1'
_cell_length_a   7.40773594
_cell_length_b   7.39763494
_cell_length_c   7.39763308
_cell_angle_alpha   59.73143510
_cell_angle_beta   59.79262158
_cell_angle_gamma   59.79262032
_symmetry_Int_Tables_number   1
_chemical_formula_structural   TbY2Cd(Mo2O7)2
_chemical_formula_sum   'Tb1 Y2 Cd1 Mo4 O14'
_cell_volume   285.17013155
_cell_formula_units_Z   1
loop_
 _symmetry_equiv_pos_site_id
 _symmetry_equiv_pos_as_xyz
  1  'x, y, z'
loop_
 _atom_site_type_symbol
 _atom_site_label
 _atom_site_symmetry_multiplicity
 _atom_site_fract_x
 _atom_site_fract_y
 _atom_site_fract_z
 _atom_site_occupancy
  Tb  Tb0  1  0.625000  0.125000  0.125000  1
  Y  Y1  1  0.125000  0.625000  0.125000  1
  Y  Y2  1  0.125000  0.125000  0.625000  1
  Cd  Cd3  1  0.125000  0.125000  0.125000  1
  Mo  Mo4  1  0.625000  0.625000  0.625000  1
  Mo  Mo5  1  0.125000  0.625000  0.625000  1
  Mo  Mo6  1  0.625000  0.125000  0.625000  1
  Mo  Mo7  1  0.625000  0.625000  0.125000  1
  O  O8  1  0.248753  0.250525  0.250525  1
  O  O9  1  0.001247  0.999475  0.999475  1
  O  O10  1  0.541000  0.952225  0.540962  1
  O  O11  1  0.291654  0.691033  0.291669  1
  O  O12  1  0.541000  0.540962  0.952225  1
  O  O13  1  0.952207  0.541027  0.541027  1
  O  O14  1  0.558913  0.958214  0.958214  1
  O  O15  1  0.958346  0.958331  0.558967  1
  O  O16  1  0.958346  0.558967  0.958331  1
  O  O17  1  0.691087  0.291786  0.291786  1
  O  O18  1  0.297793  0.708973  0.708973  1
  O  O19  1  0.709000  0.709038  0.297775  1
  O  O20  1  0.291654  0.291669  0.691033  1
  O  O21  1  0.709000  0.297775  0.709038  1
