# generated using pymatgen
data_NaYSnI6
_symmetry_space_group_name_H-M   'P 1'
_cell_length_a   8.68987063
_cell_length_b   8.68986593
_cell_length_c   8.68979557
_cell_angle_alpha   54.11036764
_cell_angle_beta   54.11044712
_cell_angle_gamma   54.10948511
_symmetry_Int_Tables_number   1
_chemical_formula_structural   NaYSnI6
_chemical_formula_sum   'Na1 Y1 Sn1 I6'
_cell_volume   400.19459439
_cell_formula_units_Z   1
loop_
 _symmetry_equiv_pos_site_id
 _symmetry_equiv_pos_as_xyz
  1  'x, y, z'
loop_
 _atom_site_type_symbol
 _atom_site_label
 _atom_site_symmetry_multiplicity
 _atom_site_fract_x
 _atom_site_fract_y
 _atom_site_fract_z
 _atom_site_occupancy
  Na  Na0  1  0.669960  0.669955  0.669963  1
  Y  Y1  1  0.999788  0.999786  0.999788  1
  Sn  Sn2  1  0.331263  0.331262  0.331262  1
  I  I3  1  0.235326  0.605735  0.918622  1
  I  I4  1  0.605738  0.918619  0.235324  1
  I  I5  1  0.918627  0.235333  0.605728  1
  I  I6  1  0.758924  0.389179  0.091206  1
  I  I7  1  0.389178  0.091203  0.758927  1
  I  I8  1  0.091199  0.758929  0.389180  1
