# generated using pymatgen
data_Pr2Dy9In9Ru4
_symmetry_space_group_name_H-M   'P 1'
_cell_length_a   13.07043479
_cell_length_b   13.06241718
_cell_length_c   3.76949600
_cell_angle_alpha   90.00000000
_cell_angle_beta   90.00000000
_cell_angle_gamma   112.45885768
_symmetry_Int_Tables_number   1
_chemical_formula_structural   Pr2Dy9In9Ru4
_chemical_formula_sum   'Pr2 Dy9 In9 Ru4'
_cell_volume   594.75932510
_cell_formula_units_Z   1
loop_
 _symmetry_equiv_pos_site_id
 _symmetry_equiv_pos_as_xyz
  1  'x, y, z'
loop_
 _atom_site_type_symbol
 _atom_site_label
 _atom_site_symmetry_multiplicity
 _atom_site_fract_x
 _atom_site_fract_y
 _atom_site_fract_z
 _atom_site_occupancy
  Pr  Pr0  1  0.338482  0.661504  0.500000  1
  Pr  Pr1  1  0.661518  0.338496  0.500000  1
  Dy  Dy2  1  0.500000  0.500000  0.500000  1
  Dy  Dy3  1  0.812499  0.812319  0.500000  1
  Dy  Dy4  1  0.187501  0.187681  0.500000  1
  Dy  Dy5  1  0.583578  0.917435  0.500000  1
  Dy  Dy6  1  0.416422  0.082565  0.500000  1
  Dy  Dy7  1  0.917462  0.583749  0.500000  1
  Dy  Dy8  1  0.082538  0.416251  0.500000  1
  Dy  Dy9  1  0.124417  0.875327  0.500000  1
  Dy  Dy10  1  0.875583  0.124673  0.500000  1
  In  In11  1  0.340210  0.871979  0.000000  1
  In  In12  1  0.659790  0.128021  0.000000  1
  In  In13  1  0.871957  0.340162  0.000000  1
  In  In14  1  0.128043  0.659838  0.000000  1
  In  In15  1  0.578642  0.720563  0.000000  1
  In  In16  1  0.421358  0.279437  0.000000  1
  In  In17  1  0.720585  0.578671  0.000000  1
  In  In18  1  0.279415  0.421329  0.000000  1
  In  In19  1  0.000000  0.000000  0.000000  1
  Ru  Ru20  1  0.753036  0.947355  0.000000  1
  Ru  Ru21  1  0.246964  0.052645  0.000000  1
  Ru  Ru22  1  0.947412  0.753103  0.000000  1
  Ru  Ru23  1  0.052588  0.246897  0.000000  1
