# generated using pymatgen
data_Y16In3AgRh4
_symmetry_space_group_name_H-M   'P 1'
_cell_length_a   9.68890810
_cell_length_b   9.68890805
_cell_length_c   9.67308148
_cell_angle_alpha   59.94585472
_cell_angle_beta   59.94585675
_cell_angle_gamma   59.99999946
_symmetry_Int_Tables_number   1
_chemical_formula_structural   Y16In3AgRh4
_chemical_formula_sum   'Y16 In3 Ag1 Rh4'
_cell_volume   641.56935282
_cell_formula_units_Z   1
loop_
 _symmetry_equiv_pos_site_id
 _symmetry_equiv_pos_as_xyz
  1  'x, y, z'
loop_
 _atom_site_type_symbol
 _atom_site_label
 _atom_site_symmetry_multiplicity
 _atom_site_fract_x
 _atom_site_fract_y
 _atom_site_fract_z
 _atom_site_occupancy
  Y  Y0  1  0.688695  0.310840  0.311770  1
  Y  Y1  1  0.688695  0.688695  0.311770  1
  Y  Y2  1  0.310840  0.688695  0.311770  1
  Y  Y3  1  0.936412  0.936412  0.559462  1
  Y  Y4  1  0.149167  0.149167  0.552500  1
  Y  Y5  1  0.567713  0.936412  0.559462  1
  Y  Y6  1  0.149484  0.149484  0.148530  1
  Y  Y7  1  0.310334  0.310334  0.689559  1
  Y  Y8  1  0.936412  0.567713  0.559462  1
  Y  Y9  1  0.563017  0.563017  0.936325  1
  Y  Y10  1  0.563017  0.937640  0.936325  1
  Y  Y11  1  0.937640  0.563017  0.936325  1
  Y  Y12  1  0.149484  0.552502  0.148530  1
  Y  Y13  1  0.310334  0.689773  0.689559  1
  Y  Y14  1  0.689773  0.310334  0.689559  1
  Y  Y15  1  0.552502  0.149484  0.148530  1
  In  In16  1  0.246542  0.917012  0.919434  1
  In  In17  1  0.917012  0.246542  0.919434  1
  In  In18  1  0.917012  0.917012  0.919434  1
  Ag  Ag19  1  0.916749  0.916749  0.249754  1
  Rh  Rh20  1  0.357397  0.357397  0.357491  1
  Rh  Rh21  1  0.927716  0.357397  0.357491  1
  Rh  Rh22  1  0.356657  0.356657  0.930031  1
  Rh  Rh23  1  0.357397  0.927716  0.357491  1
