# generated using pymatgen
data_Pr3AlPt3Au2
_symmetry_space_group_name_H-M   'P 1'
_cell_length_a   7.68087708
_cell_length_b   7.44884084
_cell_length_c   3.99031100
_cell_angle_alpha   90.00000000
_cell_angle_beta   90.00000000
_cell_angle_gamma   119.00562256
_symmetry_Int_Tables_number   1
_chemical_formula_structural   Pr3AlPt3Au2
_chemical_formula_sum   'Pr3 Al1 Pt3 Au2'
_cell_volume   199.66497467
_cell_formula_units_Z   1
loop_
 _symmetry_equiv_pos_site_id
 _symmetry_equiv_pos_as_xyz
  1  'x, y, z'
loop_
 _atom_site_type_symbol
 _atom_site_label
 _atom_site_symmetry_multiplicity
 _atom_site_fract_x
 _atom_site_fract_y
 _atom_site_fract_z
 _atom_site_occupancy
  Pr  Pr0  1  0.409618  0.396488  0.500000  1
  Pr  Pr1  1  0.590382  0.986870  0.500000  1
  Pr  Pr2  1  0.000000  0.618990  0.500000  1
  Al  Al3  1  0.000000  0.251381  0.000000  1
  Pt  Pt4  1  0.696230  0.326892  0.000000  1
  Pt  Pt5  1  0.303770  0.630662  0.000000  1
  Pt  Pt6  1  0.000000  0.045760  0.500000  1
  Au  Au7  1  0.737022  0.739989  0.000000  1
  Au  Au8  1  0.262978  0.002967  0.000000  1
