# generated using pymatgen
data_LiTb12Nd4Cd3Pt4
_symmetry_space_group_name_H-M   'P 1'
_cell_length_a   9.78663204
_cell_length_b   9.76855930
_cell_length_c   9.76855812
_cell_angle_alpha   60.24970519
_cell_angle_beta   60.12354566
_cell_angle_gamma   60.12354769
_symmetry_Int_Tables_number   1
_chemical_formula_structural   LiTb12Nd4Cd3Pt4
_chemical_formula_sum   'Li1 Tb12 Nd4 Cd3 Pt4'
_cell_volume   662.83231165
_cell_formula_units_Z   1
loop_
 _symmetry_equiv_pos_site_id
 _symmetry_equiv_pos_as_xyz
  1  'x, y, z'
loop_
 _atom_site_type_symbol
 _atom_site_label
 _atom_site_symmetry_multiplicity
 _atom_site_fract_x
 _atom_site_fract_y
 _atom_site_fract_z
 _atom_site_occupancy
  Li  Li0  1  0.572566  0.571283  0.571283  1
  Tb  Tb1  1  0.351331  0.350137  0.350137  1
  Tb  Tb2  1  0.350423  0.351089  0.948158  1
  Tb  Tb3  1  0.350423  0.948158  0.351089  1
  Tb  Tb4  1  0.946581  0.351429  0.351429  1
  Tb  Tb5  1  0.811199  0.190853  0.190853  1
  Tb  Tb6  1  0.185714  0.813515  0.813515  1
  Tb  Tb7  1  0.191433  0.810966  0.190676  1
  Tb  Tb8  1  0.813506  0.185491  0.812982  1
  Tb  Tb9  1  0.191433  0.190676  0.810966  1
  Tb  Tb10  1  0.813506  0.812982  0.185491  1
  Tb  Tb11  1  0.941741  0.560076  0.560076  1
  Tb  Tb12  1  0.559390  0.939949  0.939949  1
  Nd  Nd13  1  0.564701  0.935130  0.565134  1
  Nd  Nd14  1  0.936331  0.562641  0.936092  1
  Nd  Nd15  1  0.564701  0.565134  0.935130  1
  Nd  Nd16  1  0.936331  0.936092  0.562641  1
  Cd  Cd17  1  0.580359  0.584088  0.257181  1
  Cd  Cd18  1  0.580359  0.257181  0.584088  1
  Cd  Cd19  1  0.257278  0.581100  0.581100  1
  Pt  Pt20  1  0.144830  0.143694  0.143694  1
  Pt  Pt21  1  0.142453  0.145395  0.570731  1
  Pt  Pt22  1  0.142453  0.570731  0.145395  1
  Pt  Pt23  1  0.570959  0.142210  0.142210  1
