# generated using pymatgen
data_LaTb3DyRu2
_symmetry_space_group_name_H-M   'P 1'
_cell_length_a   8.66728751
_cell_length_b   8.66728743
_cell_length_c   7.27614861
_cell_angle_alpha   83.54049323
_cell_angle_beta   83.54049528
_cell_angle_gamma   43.69955825
_symmetry_Int_Tables_number   1
_chemical_formula_structural   LaTb3DyRu2
_chemical_formula_sum   'La2 Tb6 Dy2 Ru4'
_cell_volume   374.84759096
_cell_formula_units_Z   2
loop_
 _symmetry_equiv_pos_site_id
 _symmetry_equiv_pos_as_xyz
  1  'x, y, z'
loop_
 _atom_site_type_symbol
 _atom_site_label
 _atom_site_symmetry_multiplicity
 _atom_site_fract_x
 _atom_site_fract_y
 _atom_site_fract_z
 _atom_site_occupancy
  La  La0  1  0.984004  0.206670  0.087286  1
  La  La1  1  0.793330  0.015996  0.412714  1
  Tb  Tb2  1  0.208695  0.978779  0.585782  1
  Tb  Tb3  1  0.021221  0.791305  0.914218  1
  Tb  Tb4  1  0.204019  0.363681  0.315901  1
  Tb  Tb5  1  0.636319  0.795981  0.184099  1
  Tb  Tb6  1  0.789355  0.640895  0.687736  1
  Tb  Tb7  1  0.359105  0.210645  0.812264  1
  Dy  Dy8  1  0.574133  0.425867  0.750000  1
  Dy  Dy9  1  0.426167  0.573833  0.250000  1
  Ru  Ru10  1  0.176334  0.604275  0.574170  1
  Ru  Ru11  1  0.395725  0.823666  0.925830  1
  Ru  Ru12  1  0.827946  0.396352  0.421407  1
  Ru  Ru13  1  0.603648  0.172054  0.078593  1
