# generated using pymatgen
data_LaPr3ZnSi7
_symmetry_space_group_name_H-M   'P 1'
_cell_length_a   4.25550000
_cell_length_b   4.28463600
_cell_length_c   13.97984500
_cell_angle_alpha   90.00000000
_cell_angle_beta   90.00000000
_cell_angle_gamma   90.00000000
_symmetry_Int_Tables_number   1
_chemical_formula_structural   LaPr3ZnSi7
_chemical_formula_sum   'La1 Pr3 Zn1 Si7'
_cell_volume   254.89826745
_cell_formula_units_Z   1
loop_
 _symmetry_equiv_pos_site_id
 _symmetry_equiv_pos_as_xyz
  1  'x, y, z'
loop_
 _atom_site_type_symbol
 _atom_site_label
 _atom_site_symmetry_multiplicity
 _atom_site_fract_x
 _atom_site_fract_y
 _atom_site_fract_z
 _atom_site_occupancy
  La  La0  1  0.250000  0.000000  0.374857  1
  Pr  Pr1  1  0.750000  0.500000  0.880933  1
  Pr  Pr2  1  0.250000  0.500000  0.126389  1
  Pr  Pr3  1  0.750000  0.000000  0.619152  1
  Zn  Zn4  1  0.250000  0.000000  0.789358  1
  Si  Si5  1  0.750000  0.500000  0.289960  1
  Si  Si6  1  0.750000  0.000000  0.209591  1
  Si  Si7  1  0.250000  0.500000  0.708967  1
  Si  Si8  1  0.750000  0.500000  0.457858  1
  Si  Si9  1  0.250000  0.000000  0.960271  1
  Si  Si10  1  0.750000  0.000000  0.042044  1
  Si  Si11  1  0.250000  0.500000  0.540620  1
