# generated using pymatgen
data_TbYbY6(B6Ru)4
_symmetry_space_group_name_H-M   'P 1'
_cell_length_a   3.66558100
_cell_length_b   9.15724629
_cell_length_c   11.54148855
_cell_angle_alpha   89.91295333
_cell_angle_beta   90.00000000
_cell_angle_gamma   90.00000000
_symmetry_Int_Tables_number   1
_chemical_formula_structural   TbYbY6(B6Ru)4
_chemical_formula_sum   'Tb1 Yb1 Y6 B24 Ru4'
_cell_volume   387.40840560
_cell_formula_units_Z   1
loop_
 _symmetry_equiv_pos_site_id
 _symmetry_equiv_pos_as_xyz
  1  'x, y, z'
loop_
 _atom_site_type_symbol
 _atom_site_label
 _atom_site_symmetry_multiplicity
 _atom_site_fract_x
 _atom_site_fract_y
 _atom_site_fract_z
 _atom_site_occupancy
  Tb  Tb0  1  0.000000  0.324289  0.415228  1
  Yb  Yb1  1  0.000000  0.676564  0.586118  1
  Y  Y2  1  0.000000  0.822112  0.085241  1
  Y  Y3  1  0.000000  0.177437  0.913758  1
  Y  Y4  1  0.000000  0.941594  0.371926  1
  Y  Y5  1  0.000000  0.056284  0.628946  1
  Y  Y6  1  0.000000  0.443523  0.128085  1
  Y  Y7  1  0.000000  0.557425  0.870172  1
  B  B8  1  0.500000  0.554527  0.432675  1
  B  B9  1  0.500000  0.446272  0.567769  1
  B  B10  1  0.500000  0.053995  0.067547  1
  B  B11  1  0.500000  0.946595  0.933078  1
  B  B12  1  0.500000  0.747248  0.419076  1
  B  B13  1  0.500000  0.252417  0.581269  1
  B  B14  1  0.500000  0.247757  0.080778  1
  B  B15  1  0.500000  0.752829  0.918899  1
  B  B16  1  0.500000  0.789665  0.265877  1
  B  B17  1  0.500000  0.209328  0.734039  1
  B  B18  1  0.500000  0.289880  0.233956  1
  B  B19  1  0.500000  0.710658  0.765835  1
  B  B20  1  0.500000  0.631243  0.185077  1
  B  B21  1  0.500000  0.368511  0.813893  1
  B  B22  1  0.500000  0.131068  0.314647  1
  B  B23  1  0.500000  0.868675  0.685901  1
  B  B24  1  0.500000  0.983393  0.212421  1
  B  B25  1  0.500000  0.016375  0.788254  1
  B  B26  1  0.500000  0.483905  0.287765  1
  B  B27  1  0.500000  0.516379  0.711725  1
  B  B28  1  0.500000  0.607799  0.029349  1
  B  B29  1  0.500000  0.392196  0.969921  1
  B  B30  1  0.500000  0.105306  0.470900  1
  B  B31  1  0.500000  0.895177  0.529128  1
  Ru  Ru32  1  0.000000  0.637652  0.320210  1
  Ru  Ru33  1  0.000000  0.361102  0.679371  1
  Ru  Ru34  1  0.000000  0.137319  0.178893  1
  Ru  Ru35  1  0.000000  0.863502  0.822274  1
