# generated using pymatgen
data_SrTb4Dy2FeBr12
_symmetry_space_group_name_H-M   'P 1'
_cell_length_a   9.34619117
_cell_length_b   9.11332779
_cell_length_c   9.31186796
_cell_angle_alpha   105.65508804
_cell_angle_beta   106.78856487
_cell_angle_gamma   105.43714696
_symmetry_Int_Tables_number   1
_chemical_formula_structural   SrTb4Dy2FeBr12
_chemical_formula_sum   'Sr1 Tb4 Dy2 Fe1 Br12'
_cell_volume   678.31028840
_cell_formula_units_Z   1
loop_
 _symmetry_equiv_pos_site_id
 _symmetry_equiv_pos_as_xyz
  1  'x, y, z'
loop_
 _atom_site_type_symbol
 _atom_site_label
 _atom_site_symmetry_multiplicity
 _atom_site_fract_x
 _atom_site_fract_y
 _atom_site_fract_z
 _atom_site_occupancy
  Sr  Sr0  1  0.502336  0.500825  0.496002  1
  Tb  Tb1  1  0.087846  0.278372  0.017441  1
  Tb  Tb2  1  0.308141  0.013057  0.103644  1
  Tb  Tb3  1  0.019874  0.101346  0.310017  1
  Tb  Tb4  1  0.980141  0.899206  0.691618  1
  Dy  Dy5  1  0.691325  0.985493  0.897803  1
  Dy  Dy6  1  0.909670  0.721605  0.982978  1
  Fe  Fe7  1  0.999503  0.000709  0.000462  1
  Br  Br8  1  0.212711  0.676163  0.074034  1
  Br  Br9  1  0.436337  0.354849  0.135017  1
  Br  Br10  1  0.679625  0.077000  0.217848  1
  Br  Br11  1  0.928573  0.780035  0.317397  1
  Br  Br12  1  0.141915  0.444113  0.360829  1
  Br  Br13  1  0.365102  0.140274  0.450413  1
  Br  Br14  1  0.636168  0.863944  0.551826  1
  Br  Br15  1  0.861806  0.557012  0.642131  1
  Br  Br16  1  0.073598  0.219843  0.683473  1
  Br  Br17  1  0.320763  0.923053  0.783173  1
  Br  Br18  1  0.562835  0.642542  0.858096  1
  Br  Br19  1  0.781731  0.320559  0.925797  1
