# generated using pymatgen
data_Rb2EuMn3F12
_symmetry_space_group_name_H-M   'P 1'
_cell_length_a   7.49944627
_cell_length_b   7.85063821
_cell_length_c   10.48160085
_cell_angle_alpha   90.17809540
_cell_angle_beta   87.64171999
_cell_angle_gamma   87.27893830
_symmetry_Int_Tables_number   1
_chemical_formula_structural   Rb2EuMn3F12
_chemical_formula_sum   'Rb4 Eu2 Mn6 F24'
_cell_volume   615.88307193
_cell_formula_units_Z   2
loop_
 _symmetry_equiv_pos_site_id
 _symmetry_equiv_pos_as_xyz
  1  'x, y, z'
loop_
 _atom_site_type_symbol
 _atom_site_label
 _atom_site_symmetry_multiplicity
 _atom_site_fract_x
 _atom_site_fract_y
 _atom_site_fract_z
 _atom_site_occupancy
  Rb  Rb0  1  0.548622  0.758455  0.599058  1
  Rb  Rb1  1  0.451378  0.241545  0.400942  1
  Rb  Rb2  1  0.024491  0.266119  0.149226  1
  Rb  Rb3  1  0.975509  0.733881  0.850774  1
  Eu  Eu4  1  0.722713  0.229897  0.745138  1
  Eu  Eu5  1  0.277287  0.770103  0.254862  1
  Mn  Mn6  1  0.809661  0.740186  0.210188  1
  Mn  Mn7  1  0.190339  0.259814  0.789812  1
  Mn  Mn8  1  0.000000  0.500000  0.500000  1
  Mn  Mn9  1  0.000000  0.000000  0.500000  1
  Mn  Mn10  1  0.500000  0.000000  0.000000  1
  Mn  Mn11  1  0.500000  0.500000  0.000000  1
  F  F12  1  0.038753  0.700869  0.117038  1
  F  F13  1  0.961247  0.299131  0.882962  1
  F  F14  1  0.584596  0.766752  0.305650  1
  F  F15  1  0.415404  0.233248  0.694350  1
  F  F16  1  0.754087  0.435191  0.587049  1
  F  F17  1  0.245913  0.564809  0.412951  1
  F  F18  1  0.726726  0.070289  0.551659  1
  F  F19  1  0.273274  0.929711  0.448341  1
  F  F20  1  0.654692  0.959367  0.826180  1
  F  F21  1  0.345308  0.040633  0.173820  1
  F  F22  1  0.616999  0.525786  0.837472  1
  F  F23  1  0.383001  0.474214  0.162528  1
  F  F24  1  0.595893  0.243873  0.972877  1
  F  F25  1  0.404107  0.756127  0.027123  1
  F  F26  1  0.284273  0.448555  0.918362  1
  F  F27  1  0.715727  0.551445  0.081638  1
  F  F28  1  0.261843  0.078261  0.902932  1
  F  F29  1  0.738157  0.921739  0.097068  1
  F  F30  1  0.026466  0.088639  0.692810  1
  F  F31  1  0.973534  0.911361  0.307190  1
  F  F32  1  0.950521  0.750061  0.568439  1
  F  F33  1  0.049479  0.249939  0.431561  1
  F  F34  1  0.117778  0.441281  0.676759  1
  F  F35  1  0.882222  0.558719  0.323241  1
