# generated using pymatgen
data_TbDy2Cr(Co4P3)2
_symmetry_space_group_name_H-M   'P 1'
_cell_length_a   3.68858300
_cell_length_b   10.54020600
_cell_length_c   12.20102800
_cell_angle_alpha   90.00000000
_cell_angle_beta   90.00000000
_cell_angle_gamma   90.00000000
_symmetry_Int_Tables_number   1
_chemical_formula_structural   TbDy2Cr(Co4P3)2
_chemical_formula_sum   'Tb2 Dy4 Cr2 Co16 P12'
_cell_volume   474.35674797
_cell_formula_units_Z   2
loop_
 _symmetry_equiv_pos_site_id
 _symmetry_equiv_pos_as_xyz
  1  'x, y, z'
loop_
 _atom_site_type_symbol
 _atom_site_label
 _atom_site_symmetry_multiplicity
 _atom_site_fract_x
 _atom_site_fract_y
 _atom_site_fract_z
 _atom_site_occupancy
  Tb  Tb0  1  0.000000  0.500000  0.523043  1
  Tb  Tb1  1  0.500000  0.000000  0.476957  1
  Dy  Dy2  1  0.500000  0.817795  0.204698  1
  Dy  Dy3  1  0.500000  0.182205  0.204698  1
  Dy  Dy4  1  0.000000  0.682205  0.795302  1
  Dy  Dy5  1  0.000000  0.317795  0.795302  1
  Cr  Cr6  1  0.500000  0.500000  0.156070  1
  Cr  Cr7  1  0.000000  0.000000  0.843930  1
  Co  Co8  1  0.500000  0.500000  0.702798  1
  Co  Co9  1  0.000000  0.000000  0.297202  1
  Co  Co10  1  0.000000  0.500000  0.987023  1
  Co  Co11  1  0.500000  0.000000  0.012977  1
  Co  Co12  1  0.500000  0.332646  0.992804  1
  Co  Co13  1  0.500000  0.667354  0.992804  1
  Co  Co14  1  0.000000  0.167354  0.007196  1
  Co  Co15  1  0.000000  0.832646  0.007196  1
  Co  Co16  1  0.500000  0.296150  0.430700  1
  Co  Co17  1  0.500000  0.703850  0.430700  1
  Co  Co18  1  0.000000  0.203850  0.569300  1
  Co  Co19  1  0.000000  0.796150  0.569300  1
  Co  Co20  1  0.500000  0.879517  0.708857  1
  Co  Co21  1  0.500000  0.120483  0.708857  1
  Co  Co22  1  0.000000  0.620483  0.291143  1
  Co  Co23  1  0.000000  0.379517  0.291143  1
  P  P24  1  0.500000  0.500000  0.882501  1
  P  P25  1  0.000000  0.000000  0.117499  1
  P  P26  1  0.500000  0.500000  0.344713  1
  P  P27  1  0.000000  0.000000  0.655287  1
  P  P28  1  0.500000  0.310851  0.616130  1
  P  P29  1  0.500000  0.689149  0.616130  1
  P  P30  1  0.000000  0.189149  0.383870  1
  P  P31  1  0.000000  0.810851  0.383870  1
  P  P32  1  0.500000  0.847571  0.892266  1
  P  P33  1  0.500000  0.152429  0.892266  1
  P  P34  1  0.000000  0.652429  0.107734  1
  P  P35  1  0.000000  0.347571  0.107734  1
