# generated using pymatgen
data_Y6Ho4Si5Sn
_symmetry_space_group_name_H-M   'P 1'
_cell_length_a   8.51347600
_cell_length_b   8.54068370
_cell_length_c   6.38440600
_cell_angle_alpha   90.00000000
_cell_angle_beta   90.00000000
_cell_angle_gamma   119.89468284
_symmetry_Int_Tables_number   1
_chemical_formula_structural   Y6Ho4Si5Sn
_chemical_formula_sum   'Y6 Ho4 Si5 Sn1'
_cell_volume   402.44876474
_cell_formula_units_Z   1
loop_
 _symmetry_equiv_pos_site_id
 _symmetry_equiv_pos_as_xyz
  1  'x, y, z'
loop_
 _atom_site_type_symbol
 _atom_site_label
 _atom_site_symmetry_multiplicity
 _atom_site_fract_x
 _atom_site_fract_y
 _atom_site_fract_z
 _atom_site_occupancy
  Y  Y0  1  0.989742  0.748825  0.750000  1
  Y  Y1  1  0.998758  0.242922  0.250000  1
  Y  Y2  1  0.755836  0.757078  0.250000  1
  Y  Y3  1  0.764728  0.000000  0.750000  1
  Y  Y4  1  0.240919  0.251175  0.750000  1
  Y  Y5  1  0.241575  0.000000  0.250000  1
  Ho  Ho6  1  0.331534  0.658061  0.496963  1
  Ho  Ho7  1  0.673474  0.341939  0.003037  1
  Ho  Ho8  1  0.673474  0.341939  0.496963  1
  Ho  Ho9  1  0.331534  0.658061  0.003037  1
  Si  Si10  1  0.393869  0.392592  0.250000  1
  Si  Si11  1  0.001276  0.607408  0.250000  1
  Si  Si12  1  0.998691  0.394584  0.750000  1
  Si  Si13  1  0.604108  0.605416  0.750000  1
  Si  Si14  1  0.605302  0.000000  0.250000  1
  Sn  Sn15  1  0.395179  0.000000  0.750000  1
