# generated using pymatgen
data_Er9Th(FeBi2)2
_symmetry_space_group_name_H-M   'P 1'
_cell_length_a   7.98123200
_cell_length_b   8.79528699
_cell_length_c   12.35253489
_cell_angle_alpha   89.65954715
_cell_angle_beta   90.00000000
_cell_angle_gamma   90.00000000
_symmetry_Int_Tables_number   1
_chemical_formula_structural   Er9Th(FeBi2)2
_chemical_formula_sum   'Er18 Th2 Fe4 Bi8'
_cell_volume   867.09837467
_cell_formula_units_Z   2
loop_
 _symmetry_equiv_pos_site_id
 _symmetry_equiv_pos_as_xyz
  1  'x, y, z'
loop_
 _atom_site_type_symbol
 _atom_site_label
 _atom_site_symmetry_multiplicity
 _atom_site_fract_x
 _atom_site_fract_y
 _atom_site_fract_z
 _atom_site_occupancy
  Er  Er0  1  0.158134  0.748381  0.201856  1
  Er  Er1  1  0.658134  0.251619  0.298144  1
  Er  Er2  1  0.843361  0.250013  0.799529  1
  Er  Er3  1  0.343361  0.749987  0.700471  1
  Er  Er4  1  0.443456  0.750399  0.997490  1
  Er  Er5  1  0.943456  0.249601  0.502510  1
  Er  Er6  1  0.550541  0.252026  0.002256  1
  Er  Er7  1  0.050541  0.747974  0.497744  1
  Er  Er8  1  0.621918  0.749715  0.307924  1
  Er  Er9  1  0.121918  0.250285  0.192076  1
  Er  Er10  1  0.384079  0.254403  0.690858  1
  Er  Er11  1  0.884079  0.745597  0.809142  1
  Er  Er12  1  0.170909  0.459219  0.937483  1
  Er  Er13  1  0.670909  0.540781  0.562517  1
  Er  Er14  1  0.180576  0.041185  0.933360  1
  Er  Er15  1  0.680576  0.958815  0.566640  1
  Er  Er16  1  0.826704  0.538642  0.062679  1
  Er  Er17  1  0.326704  0.461358  0.437321  1
  Th  Th18  1  0.832344  0.969228  0.057082  1
  Th  Th19  1  0.332344  0.030772  0.442918  1
  Fe  Fe20  1  0.423632  0.764862  0.485427  1
  Fe  Fe21  1  0.923632  0.235138  0.014573  1
  Fe  Fe22  1  0.566153  0.245926  0.508073  1
  Fe  Fe23  1  0.066153  0.754074  0.991927  1
  Bi  Bi24  1  0.926923  0.989542  0.327424  1
  Bi  Bi25  1  0.426923  0.010458  0.172576  1
  Bi  Bi26  1  0.069530  0.489462  0.672934  1
  Bi  Bi27  1  0.569530  0.510538  0.827066  1
  Bi  Bi28  1  0.070598  0.009675  0.674726  1
  Bi  Bi29  1  0.570598  0.990325  0.825274  1
  Bi  Bi30  1  0.931141  0.508475  0.326418  1
  Bi  Bi31  1  0.431141  0.491525  0.173582  1
