# generated using pymatgen
data_Ac5Th3Sb20
_symmetry_space_group_name_H-M   'P 1'
_cell_length_a   4.36034900
_cell_length_b   13.92438734
_cell_length_c   15.51787526
_cell_angle_alpha   79.81573943
_cell_angle_beta   90.00000000
_cell_angle_gamma   90.00000000
_symmetry_Int_Tables_number   1
_chemical_formula_structural   Ac5Th3Sb20
_chemical_formula_sum   'Ac5 Th3 Sb20'
_cell_volume   927.32608233
_cell_formula_units_Z   1
loop_
 _symmetry_equiv_pos_site_id
 _symmetry_equiv_pos_as_xyz
  1  'x, y, z'
loop_
 _atom_site_type_symbol
 _atom_site_label
 _atom_site_symmetry_multiplicity
 _atom_site_fract_x
 _atom_site_fract_y
 _atom_site_fract_z
 _atom_site_occupancy
  Ac  Ac0  1  0.750000  0.330010  0.138627  1
  Ac  Ac1  1  0.250000  0.946173  0.364535  1
  Ac  Ac2  1  0.250000  0.669711  0.860835  1
  Ac  Ac3  1  0.250000  0.669049  0.573550  1
  Ac  Ac4  1  0.750000  0.056045  0.635892  1
  Th  Th5  1  0.750000  0.332040  0.426698  1
  Th  Th6  1  0.250000  0.393776  0.763214  1
  Th  Th7  1  0.750000  0.603680  0.235028  1
  Sb  Sb8  1  0.750000  0.863719  0.820898  1
  Sb  Sb9  1  0.250000  0.863874  0.682299  1
  Sb  Sb10  1  0.250000  0.156385  0.472087  1
  Sb  Sb11  1  0.750000  0.290982  0.922409  1
  Sb  Sb12  1  0.250000  0.149278  0.778501  1
  Sb  Sb13  1  0.750000  0.564419  0.447007  1
  Sb  Sb14  1  0.750000  0.141274  0.318988  1
  Sb  Sb15  1  0.250000  0.705473  0.344292  1
  Sb  Sb16  1  0.750000  0.293607  0.649975  1
  Sb  Sb17  1  0.750000  0.848722  0.222814  1
  Sb  Sb18  1  0.250000  0.421159  0.967642  1
  Sb  Sb19  1  0.250000  0.428283  0.547315  1
  Sb  Sb20  1  0.750000  0.567679  0.737172  1
  Sb  Sb21  1  0.250000  0.423962  0.272532  1
  Sb  Sb22  1  0.750000  0.858777  0.527410  1
  Sb  Sb23  1  0.750000  0.041502  0.890758  1
  Sb  Sb24  1  0.250000  0.706510  0.076582  1
  Sb  Sb25  1  0.250000  0.959434  0.111636  1
  Sb  Sb26  1  0.250000  0.137996  0.180481  1
  Sb  Sb27  1  0.750000  0.576478  0.030831  1
