# generated using pymatgen
data_Be(SiMo2)5
_symmetry_space_group_name_H-M   'P 1'
_cell_length_a   4.90584667
_cell_length_b   7.24897017
_cell_length_c   7.24897009
_cell_angle_alpha   96.57494252
_cell_angle_beta   109.77834155
_cell_angle_gamma   70.22165035
_symmetry_Int_Tables_number   1
_chemical_formula_structural   Be(SiMo2)5
_chemical_formula_sum   'Be1 Si5 Mo10'
_cell_volume   228.27265537
_cell_formula_units_Z   1
loop_
 _symmetry_equiv_pos_site_id
 _symmetry_equiv_pos_as_xyz
  1  'x, y, z'
loop_
 _atom_site_type_symbol
 _atom_site_label
 _atom_site_symmetry_multiplicity
 _atom_site_fract_x
 _atom_site_fract_y
 _atom_site_fract_z
 _atom_site_occupancy
  Be  Be0  1  0.250000  0.000000  0.000000  1
  Si  Si1  1  0.332023  0.500000  0.164045  1
  Si  Si2  1  0.667977  0.500000  0.835955  1
  Si  Si3  1  0.832023  0.835955  0.500000  1
  Si  Si4  1  0.167977  0.164045  0.500000  1
  Si  Si5  1  0.750000  0.000000  0.000000  1
  Mo  Mo6  1  0.421901  0.853203  0.701968  1
  Mo  Mo7  1  0.573136  0.146797  0.298032  1
  Mo  Mo8  1  0.926864  0.298032  0.146797  1
  Mo  Mo9  1  0.078099  0.701968  0.853203  1
  Mo  Mo10  1  0.719932  0.701968  0.146797  1
  Mo  Mo11  1  0.275104  0.298032  0.853203  1
  Mo  Mo12  1  0.780068  0.146797  0.701968  1
  Mo  Mo13  1  0.224896  0.853203  0.298032  1
  Mo  Mo14  1  0.250000  0.500000  0.500000  1
  Mo  Mo15  1  0.750000  0.500000  0.500000  1
