# generated using pymatgen
data_Tb8Sc12Ga15As
_symmetry_space_group_name_H-M   'P 1'
_cell_length_a   7.28644975
_cell_length_b   7.56631945
_cell_length_c   14.47465058
_cell_angle_alpha   90.03856354
_cell_angle_beta   89.93843390
_cell_angle_gamma   89.98799852
_symmetry_Int_Tables_number   1
_chemical_formula_structural   Tb8Sc12Ga15As
_chemical_formula_sum   'Tb8 Sc12 Ga15 As1'
_cell_volume   798.01007976
_cell_formula_units_Z   1
loop_
 _symmetry_equiv_pos_site_id
 _symmetry_equiv_pos_as_xyz
  1  'x, y, z'
loop_
 _atom_site_type_symbol
 _atom_site_label
 _atom_site_symmetry_multiplicity
 _atom_site_fract_x
 _atom_site_fract_y
 _atom_site_fract_z
 _atom_site_occupancy
  Tb  Tb0  1  0.011069  0.178987  0.095698  1
  Tb  Tb1  1  0.989964  0.822242  0.903991  1
  Tb  Tb2  1  0.491152  0.677251  0.904562  1
  Tb  Tb3  1  0.988344  0.820745  0.594774  1
  Tb  Tb4  1  0.510150  0.322884  0.095332  1
  Tb  Tb5  1  0.008859  0.181280  0.405167  1
  Tb  Tb6  1  0.510065  0.315175  0.405080  1
  Tb  Tb7  1  0.492315  0.677372  0.594802  1
  Sc  Sc8  1  0.168108  0.502780  0.750829  1
  Sc  Sc9  1  0.835226  0.498311  0.249371  1
  Sc  Sc10  1  0.333603  0.003349  0.250284  1
  Sc  Sc11  1  0.665698  0.998615  0.749885  1
  Sc  Sc12  1  0.330162  0.170794  0.623754  1
  Sc  Sc13  1  0.666124  0.834449  0.375070  1
  Sc  Sc14  1  0.167615  0.671169  0.377141  1
  Sc  Sc15  1  0.669485  0.826582  0.124408  1
  Sc  Sc16  1  0.834323  0.328230  0.623932  1
  Sc  Sc17  1  0.330596  0.172200  0.875477  1
  Sc  Sc18  1  0.832447  0.326885  0.875574  1
  Sc  Sc19  1  0.169180  0.671976  0.124495  1
  Ga  Ga20  1  0.034387  0.117413  0.748217  1
  Ga  Ga21  1  0.966715  0.881626  0.250478  1
  Ga  Ga22  1  0.466786  0.617663  0.253050  1
  Ga  Ga23  1  0.535612  0.379085  0.749044  1
  Ga  Ga24  1  0.287734  0.870376  0.748942  1
  Ga  Ga25  1  0.713828  0.128207  0.249700  1
  Ga  Ga26  1  0.212701  0.373061  0.251718  1
  Ga  Ga27  1  0.788319  0.626761  0.748491  1
  Ga  Ga28  1  0.826087  0.538691  0.457197  1
  Ga  Ga29  1  0.336060  0.963925  0.460574  1
  Ga  Ga30  1  0.839741  0.535806  0.040079  1
  Ga  Ga31  1  0.661298  0.037324  0.541650  1
  Ga  Ga32  1  0.161018  0.464821  0.959235  1
  Ga  Ga33  1  0.660616  0.036171  0.959393  1
  Ga  Ga34  1  0.340270  0.963215  0.040784  1
  As  As35  1  0.164344  0.464580  0.541821  1
