# generated using pymatgen
data_Nd12Si11Ag
_symmetry_space_group_name_H-M   'P 1'
_cell_length_a   4.00952000
_cell_length_b   5.90056228
_cell_length_c   24.57272000
_cell_angle_alpha   82.67048970
_cell_angle_beta   90.00000000
_cell_angle_gamma   90.00000000
_symmetry_Int_Tables_number   1
_chemical_formula_structural   Nd12Si11Ag
_chemical_formula_sum   'Nd12 Si11 Ag1'
_cell_volume   576.60148818
_cell_formula_units_Z   1
loop_
 _symmetry_equiv_pos_site_id
 _symmetry_equiv_pos_as_xyz
  1  'x, y, z'
loop_
 _atom_site_type_symbol
 _atom_site_label
 _atom_site_symmetry_multiplicity
 _atom_site_fract_x
 _atom_site_fract_y
 _atom_site_fract_z
 _atom_site_occupancy
  Nd  Nd0  1  0.750000  0.362702  0.057895  1
  Nd  Nd1  1  0.250000  0.659231  0.939526  1
  Nd  Nd2  1  0.750000  0.528728  0.226790  1
  Nd  Nd3  1  0.250000  0.470292  0.772988  1
  Nd  Nd4  1  0.750000  0.167180  0.393735  1
  Nd  Nd5  1  0.250000  0.825689  0.606932  1
  Nd  Nd6  1  0.750000  0.350364  0.559660  1
  Nd  Nd7  1  0.250000  0.643344  0.440275  1
  Nd  Nd8  1  0.750000  0.995140  0.726633  1
  Nd  Nd9  1  0.250000  0.996080  0.274861  1
  Nd  Nd10  1  0.750000  0.170514  0.892587  1
  Nd  Nd11  1  0.250000  0.844198  0.105903  1
  Si  Si12  1  0.750000  0.885372  0.010875  1
  Si  Si13  1  0.250000  0.140510  0.987559  1
  Si  Si14  1  0.750000  0.030085  0.181385  1
  Si  Si15  1  0.250000  0.948577  0.821465  1
  Si  Si16  1  0.750000  0.696372  0.345634  1
  Si  Si17  1  0.250000  0.295893  0.654880  1
  Si  Si18  1  0.750000  0.869991  0.511803  1
  Si  Si19  1  0.250000  0.124723  0.488365  1
  Si  Si20  1  0.750000  0.526090  0.678108  1
  Si  Si21  1  0.250000  0.467220  0.322222  1
  Si  Si22  1  0.750000  0.692308  0.844432  1
  Ag  Ag23  1  0.250000  0.309397  0.155482  1
