# generated using pymatgen
data_Tm20GaBi9Te2
_symmetry_space_group_name_H-M   'P 1'
_cell_length_a   8.08079752
_cell_length_b   9.36118900
_cell_length_c   11.83848300
_cell_angle_alpha   90.00000000
_cell_angle_beta   89.69898439
_cell_angle_gamma   90.00000000
_symmetry_Int_Tables_number   1
_chemical_formula_structural   Tm20GaBi9Te2
_chemical_formula_sum   'Tm20 Ga1 Bi9 Te2'
_cell_volume   895.52002092
_cell_formula_units_Z   1
loop_
 _symmetry_equiv_pos_site_id
 _symmetry_equiv_pos_as_xyz
  1  'x, y, z'
loop_
 _atom_site_type_symbol
 _atom_site_label
 _atom_site_symmetry_multiplicity
 _atom_site_fract_x
 _atom_site_fract_y
 _atom_site_fract_z
 _atom_site_occupancy
  Tm  Tm0  1  0.035518  0.250000  0.509512  1
  Tm  Tm1  1  0.978192  0.750000  0.488819  1
  Tm  Tm2  1  0.473125  0.750000  0.012088  1
  Tm  Tm3  1  0.524263  0.250000  0.990015  1
  Tm  Tm4  1  0.355441  0.250000  0.293512  1
  Tm  Tm5  1  0.646965  0.750000  0.714844  1
  Tm  Tm6  1  0.147218  0.750000  0.783935  1
  Tm  Tm7  1  0.851241  0.250000  0.216620  1
  Tm  Tm8  1  0.193499  0.250000  0.776063  1
  Tm  Tm9  1  0.817887  0.750000  0.215241  1
  Tm  Tm10  1  0.318546  0.750000  0.285531  1
  Tm  Tm11  1  0.671738  0.250000  0.709094  1
  Tm  Tm12  1  0.191698  0.062953  0.060117  1
  Tm  Tm13  1  0.809286  0.932549  0.941213  1
  Tm  Tm14  1  0.310809  0.945961  0.558709  1
  Tm  Tm15  1  0.809286  0.567451  0.941213  1
  Tm  Tm16  1  0.682955  0.069647  0.445407  1
  Tm  Tm17  1  0.191698  0.437047  0.060117  1
  Tm  Tm18  1  0.682955  0.430353  0.445407  1
  Tm  Tm19  1  0.310809  0.554039  0.558709  1
  Ga  Ga20  1  0.405317  0.250000  0.539004  1
  Bi  Bi21  1  0.906750  0.250000  0.954204  1
  Bi  Bi22  1  0.064210  0.001356  0.322815  1
  Bi  Bi23  1  0.933318  0.997795  0.674655  1
  Bi  Bi24  1  0.433889  0.994374  0.827022  1
  Bi  Bi25  1  0.933318  0.502205  0.674655  1
  Bi  Bi26  1  0.566309  0.003580  0.175709  1
  Bi  Bi27  1  0.064210  0.498644  0.322815  1
  Bi  Bi28  1  0.566309  0.496420  0.175709  1
  Bi  Bi29  1  0.433889  0.505626  0.827022  1
  Te  Te30  1  0.595452  0.750000  0.460183  1
  Te  Te31  1  0.093897  0.750000  0.040033  1
