# generated using pymatgen
data_Er6GaSi5(Ir5Rh)2
_symmetry_space_group_name_H-M   'P 1'
_cell_length_a   5.53821877
_cell_length_b   5.53821729
_cell_length_c   15.29050152
_cell_angle_alpha   89.97418890
_cell_angle_beta   90.02580913
_cell_angle_gamma   119.88838313
_symmetry_Int_Tables_number   1
_chemical_formula_structural   Er6GaSi5(Ir5Rh)2
_chemical_formula_sum   'Er6 Ga1 Si5 Ir10 Rh2'
_cell_volume   406.61160116
_cell_formula_units_Z   1
loop_
 _symmetry_equiv_pos_site_id
 _symmetry_equiv_pos_as_xyz
  1  'x, y, z'
loop_
 _atom_site_type_symbol
 _atom_site_label
 _atom_site_symmetry_multiplicity
 _atom_site_fract_x
 _atom_site_fract_y
 _atom_site_fract_z
 _atom_site_occupancy
  Er  Er0  1  0.333909  0.666091  0.539333  1
  Er  Er1  1  0.666091  0.333909  0.460667  1
  Er  Er2  1  0.666953  0.333047  0.039331  1
  Er  Er3  1  0.333047  0.666953  0.960669  1
  Er  Er4  1  0.333426  0.666574  0.750501  1
  Er  Er5  1  0.666574  0.333426  0.249499  1
  Ga  Ga6  1  0.000000  0.000000  0.000000  1
  Si  Si7  1  0.999689  0.000311  0.252478  1
  Si  Si8  1  0.000311  0.999689  0.747522  1
  Si  Si9  1  0.333512  0.666488  0.252679  1
  Si  Si10  1  0.666488  0.333512  0.747321  1
  Si  Si11  1  0.000000  0.000000  0.500000  1
  Ir  Ir12  1  0.168119  0.336745  0.133549  1
  Ir  Ir13  1  0.831881  0.663255  0.866451  1
  Ir  Ir14  1  0.663255  0.831881  0.133549  1
  Ir  Ir15  1  0.832151  0.665381  0.628476  1
  Ir  Ir16  1  0.336745  0.168119  0.866451  1
  Ir  Ir17  1  0.167849  0.334619  0.371524  1
  Ir  Ir18  1  0.167970  0.832030  0.134415  1
  Ir  Ir19  1  0.334619  0.167849  0.628476  1
  Ir  Ir20  1  0.832030  0.167970  0.865585  1
  Ir  Ir21  1  0.665381  0.832151  0.371524  1
  Rh  Rh22  1  0.832263  0.167737  0.628692  1
  Rh  Rh23  1  0.167737  0.832263  0.371308  1
