# generated using pymatgen
data_Nb4CrFe2Os5
_symmetry_space_group_name_H-M   'P 1'
_cell_length_a   4.99367708
_cell_length_b   4.99367602
_cell_length_c   8.30293800
_cell_angle_alpha   90.00000000
_cell_angle_beta   90.00000000
_cell_angle_gamma   119.03192271
_symmetry_Int_Tables_number   1
_chemical_formula_structural   Nb4CrFe2Os5
_chemical_formula_sum   'Nb4 Cr1 Fe2 Os5'
_cell_volume   181.03296193
_cell_formula_units_Z   1
loop_
 _symmetry_equiv_pos_site_id
 _symmetry_equiv_pos_as_xyz
  1  'x, y, z'
loop_
 _atom_site_type_symbol
 _atom_site_label
 _atom_site_symmetry_multiplicity
 _atom_site_fract_x
 _atom_site_fract_y
 _atom_site_fract_z
 _atom_site_occupancy
  Nb  Nb0  1  0.668853  0.331147  0.678758  1
  Nb  Nb1  1  0.333959  0.666041  0.813205  1
  Nb  Nb2  1  0.333959  0.666041  0.186795  1
  Nb  Nb3  1  0.668853  0.331147  0.321242  1
  Cr  Cr4  1  0.827134  0.172866  0.000000  1
  Fe  Fe5  1  0.650386  0.817305  0.500000  1
  Fe  Fe6  1  0.182695  0.349614  0.500000  1
  Os  Os7  1  0.175900  0.824100  0.500000  1
  Os  Os8  1  0.345383  0.168313  0.000000  1
  Os  Os9  1  0.831687  0.654617  0.000000  1
  Os  Os10  1  0.990570  0.009430  0.256343  1
  Os  Os11  1  0.990570  0.009430  0.743657  1
