# generated using pymatgen
data_Ag2Bi2Ru3RhO14
_symmetry_space_group_name_H-M   'P 1'
_cell_length_a   7.24433155
_cell_length_b   7.16804173
_cell_length_c   7.24433195
_cell_angle_alpha   60.65220595
_cell_angle_beta   61.21643488
_cell_angle_gamma   60.65221800
_symmetry_Int_Tables_number   1
_chemical_formula_structural   Ag2Bi2Ru3RhO14
_chemical_formula_sum   'Ag2 Bi2 Ru3 Rh1 O14'
_cell_volume   271.02328139
_cell_formula_units_Z   1
loop_
 _symmetry_equiv_pos_site_id
 _symmetry_equiv_pos_as_xyz
  1  'x, y, z'
loop_
 _atom_site_type_symbol
 _atom_site_label
 _atom_site_symmetry_multiplicity
 _atom_site_fract_x
 _atom_site_fract_y
 _atom_site_fract_z
 _atom_site_occupancy
  Ag  Ag0  1  0.125000  0.125000  0.125000  1
  Ag  Ag1  1  0.125000  0.625000  0.125000  1
  Bi  Bi2  1  0.625000  0.125000  0.125000  1
  Bi  Bi3  1  0.125000  0.125000  0.625000  1
  Ru  Ru4  1  0.625000  0.625000  0.125000  1
  Ru  Ru5  1  0.125000  0.625000  0.625000  1
  Ru  Ru6  1  0.625000  0.125000  0.625000  1
  Rh  Rh7  1  0.625000  0.625000  0.625000  1
  O  O8  1  0.240118  0.259525  0.240118  1
  O  O9  1  0.315285  0.685822  0.315285  1
  O  O10  1  0.945109  0.951074  0.561035  1
  O  O11  1  0.541392  0.959737  0.541392  1
  O  O12  1  0.693309  0.710368  0.296874  1
  O  O13  1  0.953126  0.539632  0.556691  1
  O  O14  1  0.708608  0.290263  0.708608  1
  O  O15  1  0.304891  0.298926  0.688965  1
  O  O16  1  0.688965  0.298926  0.304891  1
  O  O17  1  0.296874  0.710368  0.693309  1
  O  O18  1  0.934715  0.564178  0.934715  1
  O  O19  1  0.556691  0.539632  0.953126  1
  O  O20  1  0.009882  0.990475  0.009882  1
  O  O21  1  0.561035  0.951074  0.945109  1
