# generated using pymatgen
data_Tb4Dy4Re3B24Ir
_symmetry_space_group_name_H-M   'P 1'
_cell_length_a   3.68669900
_cell_length_b   9.18919316
_cell_length_c   11.57891800
_cell_angle_alpha   90.13595699
_cell_angle_beta   90.00000000
_cell_angle_gamma   90.00000000
_symmetry_Int_Tables_number   1
_chemical_formula_structural   Tb4Dy4Re3B24Ir
_chemical_formula_sum   'Tb4 Dy4 Re3 B24 Ir1'
_cell_volume   392.26703937
_cell_formula_units_Z   1
loop_
 _symmetry_equiv_pos_site_id
 _symmetry_equiv_pos_as_xyz
  1  'x, y, z'
loop_
 _atom_site_type_symbol
 _atom_site_label
 _atom_site_symmetry_multiplicity
 _atom_site_fract_x
 _atom_site_fract_y
 _atom_site_fract_z
 _atom_site_occupancy
  Tb  Tb0  1  0.000000  0.318445  0.415524  1
  Tb  Tb1  1  0.000000  0.678328  0.591183  1
  Tb  Tb2  1  0.000000  0.827218  0.081495  1
  Tb  Tb3  1  0.000000  0.177426  0.912497  1
  Dy  Dy4  1  0.000000  0.943562  0.370202  1
  Dy  Dy5  1  0.000000  0.056155  0.628922  1
  Dy  Dy6  1  0.000000  0.440743  0.128507  1
  Dy  Dy7  1  0.000000  0.557118  0.871647  1
  Re  Re8  1  0.000000  0.362937  0.677787  1
  Re  Re9  1  0.000000  0.138121  0.179951  1
  Re  Re10  1  0.000000  0.862106  0.820939  1
  B  B11  1  0.500000  0.553584  0.433399  1
  B  B12  1  0.500000  0.446720  0.567119  1
  B  B13  1  0.500000  0.053505  0.066873  1
  B  B14  1  0.500000  0.947322  0.932281  1
  B  B15  1  0.500000  0.748479  0.419683  1
  B  B16  1  0.500000  0.251161  0.581394  1
  B  B17  1  0.500000  0.248503  0.081636  1
  B  B18  1  0.500000  0.752489  0.918559  1
  B  B19  1  0.500000  0.790402  0.265514  1
  B  B20  1  0.500000  0.209211  0.733772  1
  B  B21  1  0.500000  0.290795  0.234753  1
  B  B22  1  0.500000  0.708902  0.766254  1
  B  B23  1  0.500000  0.631406  0.184730  1
  B  B24  1  0.500000  0.369627  0.813799  1
  B  B25  1  0.500000  0.130525  0.314478  1
  B  B26  1  0.500000  0.868610  0.685765  1
  B  B27  1  0.500000  0.983291  0.211980  1
  B  B28  1  0.500000  0.017192  0.786826  1
  B  B29  1  0.500000  0.482944  0.287874  1
  B  B30  1  0.500000  0.517937  0.712583  1
  B  B31  1  0.500000  0.604073  0.029598  1
  B  B32  1  0.500000  0.397151  0.971844  1
  B  B33  1  0.500000  0.102046  0.470906  1
  B  B34  1  0.500000  0.894733  0.528395  1
  Ir  Ir35  1  0.000000  0.637234  0.321332  1
