# generated using pymatgen
data_Tm4HgPd11
_symmetry_space_group_name_H-M   'P 1'
_cell_length_a   4.14266900
_cell_length_b   5.81787060
_cell_length_c   11.65225000
_cell_angle_alpha   88.83258777
_cell_angle_beta   90.00000000
_cell_angle_gamma   90.00000000
_symmetry_Int_Tables_number   1
_chemical_formula_structural   Tm4HgPd11
_chemical_formula_sum   'Tm4 Hg1 Pd11'
_cell_volume   280.77855275
_cell_formula_units_Z   1
loop_
 _symmetry_equiv_pos_site_id
 _symmetry_equiv_pos_as_xyz
  1  'x, y, z'
loop_
 _atom_site_type_symbol
 _atom_site_label
 _atom_site_symmetry_multiplicity
 _atom_site_fract_x
 _atom_site_fract_y
 _atom_site_fract_z
 _atom_site_occupancy
  Tm  Tm0  1  0.500000  0.755191  0.377104  1
  Tm  Tm1  1  0.500000  0.725412  0.863417  1
  Tm  Tm2  1  0.500000  0.274588  0.136583  1
  Tm  Tm3  1  0.500000  0.244809  0.622896  1
  Hg  Hg4  1  0.000000  0.000000  0.000000  1
  Pd  Pd5  1  0.000000  0.011925  0.251538  1
  Pd  Pd6  1  0.000000  0.988075  0.748462  1
  Pd  Pd7  1  0.000000  0.500000  0.000000  1
  Pd  Pd8  1  0.000000  0.500000  0.500000  1
  Pd  Pd9  1  0.000000  0.513445  0.250943  1
  Pd  Pd10  1  0.000000  0.486555  0.749057  1
  Pd  Pd11  1  0.500000  0.254955  0.376374  1
  Pd  Pd12  1  0.500000  0.237468  0.876763  1
  Pd  Pd13  1  0.500000  0.762532  0.123237  1
  Pd  Pd14  1  0.500000  0.745045  0.623626  1
  Pd  Pd15  1  0.000000  0.000000  0.500000  1
