# generated using pymatgen
data_La7Tm13Si15Hg
_symmetry_space_group_name_H-M   'P 1'
_cell_length_a   7.79520909
_cell_length_b   7.74092858
_cell_length_c   14.39993047
_cell_angle_alpha   90.05025074
_cell_angle_beta   89.78962629
_cell_angle_gamma   90.21323864
_symmetry_Int_Tables_number   1
_chemical_formula_structural   La7Tm13Si15Hg
_chemical_formula_sum   'La7 Tm13 Si15 Hg1'
_cell_volume   868.91066377
_cell_formula_units_Z   1
loop_
 _symmetry_equiv_pos_site_id
 _symmetry_equiv_pos_as_xyz
  1  'x, y, z'
loop_
 _atom_site_type_symbol
 _atom_site_label
 _atom_site_symmetry_multiplicity
 _atom_site_fract_x
 _atom_site_fract_y
 _atom_site_fract_z
 _atom_site_occupancy
  La  La0  1  0.008214  0.348665  0.542141  1
  La  La1  1  0.645668  0.992230  0.960825  1
  La  La2  1  0.141495  0.511102  0.792878  1
  La  La3  1  0.849123  0.482917  0.284440  1
  La  La4  1  0.508806  0.142357  0.205243  1
  La  La5  1  0.490773  0.858822  0.711322  1
  La  La6  1  0.362644  0.013095  0.458391  1
  Tm  Tm7  1  0.365660  0.489992  0.373552  1
  Tm  Tm8  1  0.851311  0.013457  0.368640  1
  Tm  Tm9  1  0.995255  0.137718  0.122981  1
  Tm  Tm10  1  0.008711  0.861599  0.628694  1
  Tm  Tm11  1  0.643309  0.512029  0.878040  1
  Tm  Tm12  1  0.494230  0.356427  0.626771  1
  Tm  Tm13  1  0.510636  0.640184  0.122618  1
  Tm  Tm14  1  0.136288  0.992975  0.877325  1
  Tm  Tm15  1  0.998501  0.634464  0.043448  1
  Tm  Tm16  1  0.673877  0.684289  0.501757  1
  Tm  Tm17  1  0.816116  0.183591  0.751551  1
  Tm  Tm18  1  0.180565  0.814669  0.245620  1
  Tm  Tm19  1  0.316665  0.320747  0.999504  1
  Si  Si20  1  0.940662  0.294679  0.939164  1
  Si  Si21  1  0.710125  0.061345  0.563519  1
  Si  Si22  1  0.210873  0.439227  0.185556  1
  Si  Si23  1  0.786203  0.563641  0.688105  1
  Si  Si24  1  0.436694  0.214036  0.814786  1
  Si  Si25  1  0.564036  0.787280  0.310229  1
  Si  Si26  1  0.286280  0.932115  0.061852  1
  Si  Si27  1  0.846412  0.800797  0.809548  1
  Si  Si28  1  0.150932  0.203604  0.307003  1
  Si  Si29  1  0.801675  0.843650  0.184312  1
  Si  Si30  1  0.301365  0.646305  0.564628  1
  Si  Si31  1  0.710734  0.355545  0.060672  1
  Si  Si32  1  0.652031  0.298126  0.442181  1
  Si  Si33  1  0.342737  0.700909  0.943755  1
  Si  Si34  1  0.202997  0.152446  0.694295  1
  Hg  Hg35  1  0.058394  0.714968  0.434658  1
