# generated using pymatgen
data_Tm2AlB2IrRu4
_symmetry_space_group_name_H-M   'P 1'
_cell_length_a   9.55860495
_cell_length_b   9.54639595
_cell_length_c   3.07692300
_cell_angle_alpha   90.00000000
_cell_angle_beta   90.00000000
_cell_angle_gamma   89.90992818
_symmetry_Int_Tables_number   1
_chemical_formula_structural   Tm2AlB2IrRu4
_chemical_formula_sum   'Tm4 Al2 B4 Ir2 Ru8'
_cell_volume   280.76957712
_cell_formula_units_Z   2
loop_
 _symmetry_equiv_pos_site_id
 _symmetry_equiv_pos_as_xyz
  1  'x, y, z'
loop_
 _atom_site_type_symbol
 _atom_site_label
 _atom_site_symmetry_multiplicity
 _atom_site_fract_x
 _atom_site_fract_y
 _atom_site_fract_z
 _atom_site_occupancy
  Tm  Tm0  1  0.177725  0.675862  0.000000  1
  Tm  Tm1  1  0.324990  0.177442  0.000000  1
  Tm  Tm2  1  0.673052  0.823488  0.000000  1
  Tm  Tm3  1  0.826057  0.325901  0.000000  1
  Al  Al4  1  0.999290  0.000003  0.000000  1
  Al  Al5  1  0.500051  0.499090  0.000000  1
  B  B6  1  0.123336  0.376998  0.000000  1
  B  B7  1  0.376395  0.876252  0.000000  1
  B  B8  1  0.619946  0.123300  0.000000  1
  B  B9  1  0.875885  0.620129  0.000000  1
  Ir  Ir10  1  0.783913  0.068625  0.500000  1
  Ir  Ir11  1  0.930531  0.784403  0.500000  1
  Ru  Ru12  1  0.000816  0.501576  0.500000  1
  Ru  Ru13  1  0.069940  0.215800  0.500000  1
  Ru  Ru14  1  0.215968  0.932041  0.500000  1
  Ru  Ru15  1  0.283326  0.431157  0.500000  1
  Ru  Ru16  1  0.431685  0.716123  0.500000  1
  Ru  Ru17  1  0.498964  0.999882  0.500000  1
  Ru  Ru18  1  0.571365  0.282556  0.500000  1
  Ru  Ru19  1  0.716764  0.569371  0.500000  1
