# generated using pymatgen
data_Ba2SmGaO5
_symmetry_space_group_name_H-M   'P 1'
_cell_length_a   6.20050400
_cell_length_b   7.92948151
_cell_length_c   12.87344214
_cell_angle_alpha   91.69920463
_cell_angle_beta   90.00000000
_cell_angle_gamma   90.00000000
_symmetry_Int_Tables_number   1
_chemical_formula_structural   Ba2SmGaO5
_chemical_formula_sum   'Ba8 Sm4 Ga4 O20'
_cell_volume   632.66739718
_cell_formula_units_Z   4
loop_
 _symmetry_equiv_pos_site_id
 _symmetry_equiv_pos_as_xyz
  1  'x, y, z'
loop_
 _atom_site_type_symbol
 _atom_site_label
 _atom_site_symmetry_multiplicity
 _atom_site_fract_x
 _atom_site_fract_y
 _atom_site_fract_z
 _atom_site_occupancy
  Ba  Ba0  1  0.764252  0.481037  0.345102  1
  Ba  Ba1  1  0.735748  0.981037  0.845102  1
  Ba  Ba2  1  0.235748  0.518963  0.654898  1
  Ba  Ba3  1  0.264252  0.018963  0.154898  1
  Ba  Ba4  1  0.755902  0.992885  0.379631  1
  Ba  Ba5  1  0.744098  0.492885  0.879631  1
  Ba  Ba6  1  0.244098  0.007115  0.620369  1
  Ba  Ba7  1  0.255902  0.507115  0.120369  1
  Sm  Sm8  1  0.750314  0.268752  0.626170  1
  Sm  Sm9  1  0.749686  0.768752  0.126170  1
  Sm  Sm10  1  0.249686  0.731248  0.373830  1
  Sm  Sm11  1  0.250314  0.231248  0.873830  1
  Ga  Ga12  1  0.733909  0.743068  0.584000  1
  Ga  Ga13  1  0.766091  0.243068  0.084000  1
  Ga  Ga14  1  0.266091  0.256932  0.416000  1
  Ga  Ga15  1  0.233909  0.756932  0.916000  1
  O  O16  1  0.764106  0.969352  0.631344  1
  O  O17  1  0.735894  0.469352  0.131344  1
  O  O18  1  0.235894  0.030648  0.368656  1
  O  O19  1  0.264106  0.530648  0.868656  1
  O  O20  1  0.726033  0.070426  0.177285  1
  O  O21  1  0.773967  0.570426  0.677285  1
  O  O22  1  0.273967  0.929574  0.822715  1
  O  O23  1  0.226033  0.429574  0.322715  1
  O  O24  1  0.550963  0.745094  0.275414  1
  O  O25  1  0.949037  0.245094  0.775414  1
  O  O26  1  0.449037  0.254906  0.724586  1
  O  O27  1  0.050963  0.754906  0.224586  1
  O  O28  1  0.559420  0.221242  0.976873  1
  O  O29  1  0.940580  0.721242  0.476873  1
  O  O30  1  0.440580  0.778758  0.023127  1
  O  O31  1  0.059420  0.278758  0.523127  1
  O  O32  1  0.046301  0.231194  0.027331  1
  O  O33  1  0.453699  0.731194  0.527331  1
  O  O34  1  0.953699  0.768806  0.972669  1
  O  O35  1  0.546301  0.268806  0.472669  1
