# generated using pymatgen
data_Gd2CrReN6
_symmetry_space_group_name_H-M   'P 1'
_cell_length_a   7.16524198
_cell_length_b   7.13523036
_cell_length_c   6.00431157
_cell_angle_alpha   76.76947069
_cell_angle_beta   77.07648977
_cell_angle_gamma   85.12214960
_symmetry_Int_Tables_number   1
_chemical_formula_structural   Gd2CrReN6
_chemical_formula_sum   'Gd4 Cr2 Re2 N12'
_cell_volume   291.07156853
_cell_formula_units_Z   2
loop_
 _symmetry_equiv_pos_site_id
 _symmetry_equiv_pos_as_xyz
  1  'x, y, z'
loop_
 _atom_site_type_symbol
 _atom_site_label
 _atom_site_symmetry_multiplicity
 _atom_site_fract_x
 _atom_site_fract_y
 _atom_site_fract_z
 _atom_site_occupancy
  Gd  Gd0  1  0.323007  0.674160  0.754082  1
  Gd  Gd1  1  0.676993  0.325840  0.245918  1
  Gd  Gd2  1  0.088832  0.904269  0.257373  1
  Gd  Gd3  1  0.911168  0.095731  0.742627  1
  Cr  Cr4  1  0.808478  0.617251  0.745518  1
  Cr  Cr5  1  0.191522  0.382749  0.254482  1
  Re  Re6  1  0.379774  0.202562  0.755047  1
  Re  Re7  1  0.620226  0.797438  0.244953  1
  N  N8  1  0.996801  0.770726  0.658729  1
  N  N9  1  0.869767  0.390681  0.852908  1
  N  N10  1  0.775013  0.004154  0.152628  1
  N  N11  1  0.130233  0.609319  0.147092  1
  N  N12  1  0.003199  0.229274  0.341271  1
  N  N13  1  0.224987  0.995846  0.847372  1
  N  N14  1  0.618723  0.125456  0.641085  1
  N  N15  1  0.623763  0.671540  0.001513  1
  N  N16  1  0.376237  0.328460  0.998487  1
  N  N17  1  0.381277  0.874544  0.358915  1
  N  N18  1  0.675366  0.621762  0.503007  1
  N  N19  1  0.324634  0.378238  0.496993  1
