# generated using pymatgen
data_Dy7ErSe12
_symmetry_space_group_name_H-M   'P 1'
_cell_length_a   7.09447033
_cell_length_b   7.09942478
_cell_length_c   12.93770331
_cell_angle_alpha   100.69524917
_cell_angle_beta   100.67738560
_cell_angle_gamma   108.92458869
_symmetry_Int_Tables_number   1
_chemical_formula_structural   Dy7ErSe12
_chemical_formula_sum   'Dy7 Er1 Se12'
_cell_volume   584.19558012
_cell_formula_units_Z   1
loop_
 _symmetry_equiv_pos_site_id
 _symmetry_equiv_pos_as_xyz
  1  'x, y, z'
loop_
 _atom_site_type_symbol
 _atom_site_label
 _atom_site_symmetry_multiplicity
 _atom_site_fract_x
 _atom_site_fract_y
 _atom_site_fract_z
 _atom_site_occupancy
  Dy  Dy0  1  0.372133  0.622134  0.244235  1
  Dy  Dy1  1  0.877738  0.127748  0.255516  1
  Dy  Dy2  1  0.458892  0.208903  0.417812  1
  Dy  Dy3  1  0.541089  0.791074  0.582125  1
  Dy  Dy4  1  0.122295  0.872283  0.744554  1
  Dy  Dy5  1  0.627885  0.377878  0.755781  1
  Dy  Dy6  1  0.709004  0.958995  0.918032  1
  Er  Er7  1  0.291200  0.041234  0.082445  1
  Se  Se8  1  0.040074  0.281900  0.088001  1
  Se  Se9  1  0.547824  0.806252  0.087935  1
  Se  Se10  1  0.615808  0.365762  0.249283  1
  Se  Se11  1  0.133476  0.883469  0.249234  1
  Se  Se12  1  0.217007  0.461100  0.411898  1
  Se  Se13  1  0.694779  0.950868  0.411959  1
  Se  Se14  1  0.305290  0.049179  0.588059  1
  Se  Se15  1  0.782957  0.538867  0.588120  1
  Se  Se16  1  0.866951  0.117029  0.750009  1
  Se  Se17  1  0.383022  0.632975  0.749962  1
  Se  Se18  1  0.450306  0.194327  0.912563  1
  Se  Se19  1  0.962277  0.718028  0.912486  1
