# generated using pymatgen
data_Er4ScIr3
_symmetry_space_group_name_H-M   'P 1'
_cell_length_a   10.71150900
_cell_length_b   10.71150900
_cell_length_c   6.24415000
_cell_angle_alpha   90.00000000
_cell_angle_beta   90.00000000
_cell_angle_gamma   90.00000000
_symmetry_Int_Tables_number   1
_chemical_formula_structural   Er4ScIr3
_chemical_formula_sum   'Er16 Sc4 Ir12'
_cell_volume   716.43144852
_cell_formula_units_Z   4
loop_
 _symmetry_equiv_pos_site_id
 _symmetry_equiv_pos_as_xyz
  1  'x, y, z'
loop_
 _atom_site_type_symbol
 _atom_site_label
 _atom_site_symmetry_multiplicity
 _atom_site_fract_x
 _atom_site_fract_y
 _atom_site_fract_z
 _atom_site_occupancy
  Er  Er0  1  0.288399  0.086420  0.376992  1
  Er  Er1  1  0.288399  0.913580  0.876992  1
  Er  Er2  1  0.711601  0.086420  0.876992  1
  Er  Er3  1  0.711601  0.913580  0.376992  1
  Er  Er4  1  0.586420  0.788399  0.876992  1
  Er  Er5  1  0.586420  0.211601  0.376992  1
  Er  Er6  1  0.413580  0.788399  0.376992  1
  Er  Er7  1  0.413580  0.211601  0.876992  1
  Er  Er8  1  0.211601  0.413580  0.623008  1
  Er  Er9  1  0.211601  0.586420  0.123008  1
  Er  Er10  1  0.788399  0.413580  0.123008  1
  Er  Er11  1  0.788399  0.586420  0.623008  1
  Er  Er12  1  0.913580  0.711601  0.123008  1
  Er  Er13  1  0.913580  0.288399  0.623008  1
  Er  Er14  1  0.086420  0.711601  0.623008  1
  Er  Er15  1  0.086420  0.288399  0.123008  1
  Sc  Sc16  1  0.000000  0.000000  0.500000  1
  Sc  Sc17  1  0.000000  0.000000  0.000000  1
  Sc  Sc18  1  0.500000  0.500000  0.000000  1
  Sc  Sc19  1  0.500000  0.500000  0.500000  1
  Ir  Ir20  1  0.851796  0.148204  0.250000  1
  Ir  Ir21  1  0.851796  0.851796  0.750000  1
  Ir  Ir22  1  0.148204  0.148204  0.750000  1
  Ir  Ir23  1  0.148204  0.851796  0.250000  1
  Ir  Ir24  1  0.648204  0.351796  0.750000  1
  Ir  Ir25  1  0.648204  0.648204  0.250000  1
  Ir  Ir26  1  0.351796  0.351796  0.250000  1
  Ir  Ir27  1  0.351796  0.648204  0.750000  1
  Ir  Ir28  1  0.500000  0.000000  0.122322  1
  Ir  Ir29  1  0.500000  0.000000  0.622322  1
  Ir  Ir30  1  0.000000  0.500000  0.877678  1
  Ir  Ir31  1  0.000000  0.500000  0.377678  1
