# generated using pymatgen
data_TaNb2Co4B7
_symmetry_space_group_name_H-M   'P 1'
_cell_length_a   9.31987034
_cell_length_b   9.31987062
_cell_length_c   8.89284900
_cell_angle_alpha   90.00000000
_cell_angle_beta   90.00000000
_cell_angle_gamma   160.09887083
_symmetry_Int_Tables_number   1
_chemical_formula_structural   TaNb2Co4B7
_chemical_formula_sum   'Ta2 Nb4 Co8 B14'
_cell_volume   262.93462168
_cell_formula_units_Z   2
loop_
 _symmetry_equiv_pos_site_id
 _symmetry_equiv_pos_as_xyz
  1  'x, y, z'
loop_
 _atom_site_type_symbol
 _atom_site_label
 _atom_site_symmetry_multiplicity
 _atom_site_fract_x
 _atom_site_fract_y
 _atom_site_fract_z
 _atom_site_occupancy
  Ta  Ta0  1  0.698709  0.301291  0.250000  1
  Ta  Ta1  1  0.301291  0.698709  0.750000  1
  Nb  Nb2  1  0.580616  0.419384  0.555507  1
  Nb  Nb3  1  0.419384  0.580616  0.444493  1
  Nb  Nb4  1  0.419384  0.580616  0.055507  1
  Nb  Nb5  1  0.580616  0.419384  0.944493  1
  Co  Co6  1  0.542668  0.457332  0.250000  1
  Co  Co7  1  0.457332  0.542668  0.750000  1
  Co  Co8  1  0.842952  0.157048  0.250000  1
  Co  Co9  1  0.157048  0.842952  0.750000  1
  Co  Co10  1  0.800940  0.199060  0.507679  1
  Co  Co11  1  0.199060  0.800940  0.492321  1
  Co  Co12  1  0.199060  0.800940  0.007679  1
  Co  Co13  1  0.800940  0.199060  0.992321  1
  B  B14  1  0.955605  0.044395  0.250000  1
  B  B15  1  0.044395  0.955605  0.750000  1
  B  B16  1  0.890281  0.109719  0.648427  1
  B  B17  1  0.109719  0.890281  0.351573  1
  B  B18  1  0.109719  0.890281  0.148427  1
  B  B19  1  0.890281  0.109719  0.851573  1
  B  B20  1  0.710040  0.289960  0.644418  1
  B  B21  1  0.289960  0.710040  0.355582  1
  B  B22  1  0.289960  0.710040  0.144418  1
  B  B23  1  0.710040  0.289960  0.855582  1
  B  B24  1  0.984449  0.015551  0.593170  1
  B  B25  1  0.015551  0.984449  0.406830  1
  B  B26  1  0.015551  0.984449  0.093170  1
  B  B27  1  0.984449  0.015551  0.906830  1
