# generated using pymatgen
data_K5Au(ClO)2
_symmetry_space_group_name_H-M   'P 1'
_cell_length_a   5.35813000
_cell_length_b   7.18213900
_cell_length_c   13.81489200
_cell_angle_alpha   90.00000000
_cell_angle_beta   90.00000000
_cell_angle_gamma   90.00000000
_symmetry_Int_Tables_number   1
_chemical_formula_structural   K5Au(ClO)2
_chemical_formula_sum   'K10 Au2 Cl4 O4'
_cell_volume   531.63620164
_cell_formula_units_Z   2
loop_
 _symmetry_equiv_pos_site_id
 _symmetry_equiv_pos_as_xyz
  1  'x, y, z'
loop_
 _atom_site_type_symbol
 _atom_site_label
 _atom_site_symmetry_multiplicity
 _atom_site_fract_x
 _atom_site_fract_y
 _atom_site_fract_z
 _atom_site_occupancy
  K  K0  1  0.500000  0.311216  0.607749  1
  K  K1  1  0.500000  0.188784  0.107749  1
  K  K2  1  0.000000  0.618382  0.731249  1
  K  K3  1  0.000000  0.500000  0.000000  1
  K  K4  1  0.500000  0.688784  0.392251  1
  K  K5  1  0.500000  0.811216  0.892251  1
  K  K6  1  0.000000  0.881618  0.231249  1
  K  K7  1  0.000000  0.381618  0.268751  1
  K  K8  1  0.000000  0.118382  0.768751  1
  K  K9  1  0.000000  0.000000  0.500000  1
  Au  Au10  1  0.000000  0.500000  0.500000  1
  Au  Au11  1  0.000000  0.000000  0.000000  1
  Cl  Cl12  1  0.500000  0.625921  0.153550  1
  Cl  Cl13  1  0.500000  0.374079  0.846450  1
  Cl  Cl14  1  0.500000  0.125921  0.346450  1
  Cl  Cl15  1  0.500000  0.874079  0.653550  1
  O  O16  1  0.000000  0.685103  0.388060  1
  O  O17  1  0.000000  0.814897  0.888060  1
  O  O18  1  0.000000  0.185103  0.111940  1
  O  O19  1  0.000000  0.314897  0.611940  1
