# generated using pymatgen
data_Ta2V2GeP
_symmetry_space_group_name_H-M   'P 1'
_cell_length_a   3.42577800
_cell_length_b   6.55865750
_cell_length_c   7.85542291
_cell_angle_alpha   89.92124561
_cell_angle_beta   90.00000000
_cell_angle_gamma   90.00000000
_symmetry_Int_Tables_number   1
_chemical_formula_structural   Ta2V2GeP
_chemical_formula_sum   'Ta4 V4 Ge2 P2'
_cell_volume   176.49943895
_cell_formula_units_Z   2
loop_
 _symmetry_equiv_pos_site_id
 _symmetry_equiv_pos_as_xyz
  1  'x, y, z'
loop_
 _atom_site_type_symbol
 _atom_site_label
 _atom_site_symmetry_multiplicity
 _atom_site_fract_x
 _atom_site_fract_y
 _atom_site_fract_z
 _atom_site_occupancy
  Ta  Ta0  1  0.250000  0.554050  0.172385  1
  Ta  Ta1  1  0.750000  0.445950  0.827615  1
  Ta  Ta2  1  0.750000  0.974196  0.659939  1
  Ta  Ta3  1  0.250000  0.025804  0.340061  1
  V  V4  1  0.250000  0.629352  0.553211  1
  V  V5  1  0.750000  0.370648  0.446789  1
  V  V6  1  0.750000  0.864808  0.065881  1
  V  V7  1  0.250000  0.135192  0.934119  1
  Ge  Ge8  1  0.250000  0.755467  0.856283  1
  Ge  Ge9  1  0.750000  0.244533  0.143717  1
  P  P10  1  0.750000  0.739512  0.363958  1
  P  P11  1  0.250000  0.260488  0.636042  1
