# generated using pymatgen
data_Er4Al4PdPtRh2
_symmetry_space_group_name_H-M   'P 1'
_cell_length_a   4.30288500
_cell_length_b   6.83063233
_cell_length_c   7.86518837
_cell_angle_alpha   89.96468891
_cell_angle_beta   90.00000000
_cell_angle_gamma   90.00000000
_symmetry_Int_Tables_number   1
_chemical_formula_structural   Er4Al4PdPtRh2
_chemical_formula_sum   'Er4 Al4 Pd1 Pt1 Rh2'
_cell_volume   231.16905319
_cell_formula_units_Z   1
loop_
 _symmetry_equiv_pos_site_id
 _symmetry_equiv_pos_as_xyz
  1  'x, y, z'
loop_
 _atom_site_type_symbol
 _atom_site_label
 _atom_site_symmetry_multiplicity
 _atom_site_fract_x
 _atom_site_fract_y
 _atom_site_fract_z
 _atom_site_occupancy
  Er  Er0  1  0.250000  0.032660  0.323259  1
  Er  Er1  1  0.250000  0.536953  0.178253  1
  Er  Er2  1  0.750000  0.969957  0.680344  1
  Er  Er3  1  0.750000  0.470928  0.818533  1
  Al  Al4  1  0.250000  0.137283  0.936409  1
  Al  Al5  1  0.250000  0.637903  0.562919  1
  Al  Al6  1  0.750000  0.857725  0.060233  1
  Al  Al7  1  0.750000  0.359992  0.441113  1
  Pd  Pd8  1  0.750000  0.231832  0.121802  1
  Pt  Pt9  1  0.750000  0.732440  0.377114  1
  Rh  Rh10  1  0.250000  0.266203  0.619229  1
  Rh  Rh11  1  0.250000  0.766123  0.880794  1
