# generated using pymatgen
data_Ho3InTc4F28
_symmetry_space_group_name_H-M   'P 1'
_cell_length_a   5.54859497
_cell_length_b   8.81322565
_cell_length_c   11.94042826
_cell_angle_alpha   62.88530744
_cell_angle_beta   90.21267343
_cell_angle_gamma   90.00118172
_symmetry_Int_Tables_number   1
_chemical_formula_structural   Ho3InTc4F28
_chemical_formula_sum   'Ho3 In1 Tc4 F28'
_cell_volume   519.72174699
_cell_formula_units_Z   1
loop_
 _symmetry_equiv_pos_site_id
 _symmetry_equiv_pos_as_xyz
  1  'x, y, z'
loop_
 _atom_site_type_symbol
 _atom_site_label
 _atom_site_symmetry_multiplicity
 _atom_site_fract_x
 _atom_site_fract_y
 _atom_site_fract_z
 _atom_site_occupancy
  Ho  Ho0  1  0.257809  0.183218  0.735338  1
  Ho  Ho1  1  0.240725  0.186756  0.235096  1
  Ho  Ho2  1  0.740941  0.812958  0.264892  1
  In  In3  1  0.761875  0.812719  0.764247  1
  Tc  Tc4  1  0.757675  0.276367  0.955183  1
  Tc  Tc5  1  0.260364  0.727890  0.546277  1
  Tc  Tc6  1  0.240754  0.727600  0.040592  1
  Tc  Tc7  1  0.742721  0.271511  0.457740  1
  F  F8  1  0.442630  0.702668  0.916908  1
  F  F9  1  0.945924  0.292341  0.584357  1
  F  F10  1  0.555912  0.295918  0.081843  1
  F  F11  1  0.056873  0.706430  0.420351  1
  F  F12  1  0.445697  0.275431  0.547062  1
  F  F13  1  0.938980  0.723288  0.952389  1
  F  F14  1  0.554303  0.723273  0.455678  1
  F  F15  1  0.055353  0.278816  0.044848  1
  F  F16  1  0.774903  0.527581  0.855999  1
  F  F17  1  0.275612  0.478476  0.642584  1
  F  F18  1  0.223324  0.479063  0.140496  1
  F  F19  1  0.725728  0.521383  0.359875  1
  F  F20  1  0.755577  0.028525  0.051372  1
  F  F21  1  0.257452  0.975774  0.448763  1
  F  F22  1  0.244128  0.976185  0.945152  1
  F  F23  1  0.744426  0.023892  0.550646  1
  F  F24  1  0.971714  0.727484  0.642681  1
  F  F25  1  0.472541  0.272457  0.858957  1
  F  F26  1  0.028240  0.272837  0.360901  1
  F  F27  1  0.525907  0.728275  0.138199  1
  F  F28  1  0.044893  0.747845  0.171547  1
  F  F29  1  0.546549  0.254063  0.326301  1
  F  F30  1  0.954095  0.255061  0.825595  1
  F  F31  1  0.460661  0.747447  0.677734  1
  F  F32  1  0.417333  0.970080  0.231808  1
  F  F33  1  0.917501  0.029866  0.268015  1
  F  F34  1  0.584339  0.021175  0.768232  1
  F  F35  1  0.076537  0.965345  0.732343  1
