# generated using pymatgen
data_Dy8Ta11Si16Ag
_symmetry_space_group_name_H-M   'P 1'
_cell_length_a   7.04814057
_cell_length_b   7.04814070
_cell_length_c   12.99105107
_cell_angle_alpha   89.77563988
_cell_angle_beta   90.22436102
_cell_angle_gamma   89.70381268
_symmetry_Int_Tables_number   1
_chemical_formula_structural   Dy8Ta11Si16Ag
_chemical_formula_sum   'Dy8 Ta11 Si16 Ag1'
_cell_volume   645.32860383
_cell_formula_units_Z   1
loop_
 _symmetry_equiv_pos_site_id
 _symmetry_equiv_pos_as_xyz
  1  'x, y, z'
loop_
 _atom_site_type_symbol
 _atom_site_label
 _atom_site_symmetry_multiplicity
 _atom_site_fract_x
 _atom_site_fract_y
 _atom_site_fract_z
 _atom_site_occupancy
  Dy  Dy0  1  0.997810  0.658552  0.032638  1
  Dy  Dy1  1  0.998923  0.344155  0.532134  1
  Dy  Dy2  1  0.658552  0.997810  0.967362  1
  Dy  Dy3  1  0.159072  0.503389  0.782703  1
  Dy  Dy4  1  0.841535  0.496875  0.283654  1
  Dy  Dy5  1  0.503389  0.159072  0.217297  1
  Dy  Dy6  1  0.496875  0.841535  0.716346  1
  Dy  Dy7  1  0.344155  0.998923  0.467866  1
  Ta  Ta8  1  0.347263  0.502452  0.376980  1
  Ta  Ta9  1  0.849985  0.991841  0.375930  1
  Ta  Ta10  1  0.008142  0.152490  0.126749  1
  Ta  Ta11  1  0.991841  0.849985  0.624070  1
  Ta  Ta12  1  0.502452  0.347263  0.623020  1
  Ta  Ta13  1  0.152490  0.008142  0.873251  1
  Ta  Ta14  1  0.829005  0.172951  0.750034  1
  Ta  Ta15  1  0.172951  0.829005  0.249966  1
  Ta  Ta16  1  0.328618  0.328618  0.000000  1
  Ta  Ta17  1  0.494692  0.651162  0.123559  1
  Ta  Ta18  1  0.651162  0.494692  0.876441  1
  Si  Si19  1  0.058756  0.710450  0.434936  1
  Si  Si20  1  0.954794  0.294630  0.936554  1
  Si  Si21  1  0.710450  0.058756  0.565064  1
  Si  Si22  1  0.206318  0.455641  0.187258  1
  Si  Si23  1  0.794034  0.544119  0.689790  1
  Si  Si24  1  0.455641  0.206318  0.812742  1
  Si  Si25  1  0.544119  0.794034  0.310210  1
  Si  Si26  1  0.294630  0.954794  0.063446  1
  Si  Si27  1  0.798330  0.863980  0.183116  1
  Si  Si28  1  0.282008  0.629398  0.571189  1
  Si  Si29  1  0.705117  0.365065  0.068282  1
  Si  Si30  1  0.629398  0.282008  0.428811  1
  Si  Si31  1  0.365065  0.705117  0.931718  1
  Si  Si32  1  0.134659  0.203002  0.318837  1
  Si  Si33  1  0.203002  0.134659  0.681163  1
  Si  Si34  1  0.863980  0.798330  0.816884  1
  Ag  Ag35  1  0.670786  0.670786  0.500000  1
