# generated using pymatgen
data_Li3Tb3CdSn4
_symmetry_space_group_name_H-M   'P 1'
_cell_length_a   4.61280820
_cell_length_b   7.28617067
_cell_length_c   8.72689064
_cell_angle_alpha   115.12728188
_cell_angle_beta   105.32460022
_cell_angle_gamma   90.00000096
_symmetry_Int_Tables_number   1
_chemical_formula_structural   Li3Tb3CdSn4
_chemical_formula_sum   'Li3 Tb3 Cd1 Sn4'
_cell_volume   253.98549295
_cell_formula_units_Z   1
loop_
 _symmetry_equiv_pos_site_id
 _symmetry_equiv_pos_as_xyz
  1  'x, y, z'
loop_
 _atom_site_type_symbol
 _atom_site_label
 _atom_site_symmetry_multiplicity
 _atom_site_fract_x
 _atom_site_fract_y
 _atom_site_fract_z
 _atom_site_occupancy
  Li  Li0  1  0.329595  0.009177  0.659187  1
  Li  Li1  1  0.670077  0.979054  0.340156  1
  Li  Li2  1  0.323011  0.631443  0.646021  1
  Tb  Tb3  1  0.876108  0.373840  0.752214  1
  Tb  Tb4  1  0.124530  0.640596  0.249060  1
  Tb  Tb5  1  0.002472  0.002991  0.004943  1
  Cd  Cd6  1  0.675169  0.368458  0.350338  1
  Sn  Sn7  1  0.219335  0.191506  0.438670  1
  Sn  Sn8  1  0.786936  0.801707  0.573874  1
  Sn  Sn9  1  0.495228  0.300229  0.990456  1
  Sn  Sn10  1  0.497539  0.700998  0.995079  1
