# generated using pymatgen
data_Nd19Er(GaBi2)4
_symmetry_space_group_name_H-M   'P 1'
_cell_length_a   8.34954284
_cell_length_b   9.53904000
_cell_length_c   12.58836692
_cell_angle_alpha   90.00000000
_cell_angle_beta   89.66442448
_cell_angle_gamma   90.00000000
_symmetry_Int_Tables_number   1
_chemical_formula_structural   Nd19Er(GaBi2)4
_chemical_formula_sum   'Nd19 Er1 Ga4 Bi8'
_cell_volume   1002.60371944
_cell_formula_units_Z   1
loop_
 _symmetry_equiv_pos_site_id
 _symmetry_equiv_pos_as_xyz
  1  'x, y, z'
loop_
 _atom_site_type_symbol
 _atom_site_label
 _atom_site_symmetry_multiplicity
 _atom_site_fract_x
 _atom_site_fract_y
 _atom_site_fract_z
 _atom_site_occupancy
  Nd  Nd0  1  0.668972  0.750000  0.714413  1
  Nd  Nd1  1  0.329868  0.250000  0.285252  1
  Nd  Nd2  1  0.169374  0.250000  0.783239  1
  Nd  Nd3  1  0.829359  0.750000  0.216712  1
  Nd  Nd4  1  0.143020  0.750000  0.791096  1
  Nd  Nd5  1  0.857131  0.250000  0.208145  1
  Nd  Nd6  1  0.643731  0.250000  0.706526  1
  Nd  Nd7  1  0.357321  0.750000  0.295055  1
  Nd  Nd8  1  0.537177  0.750000  0.001497  1
  Nd  Nd9  1  0.462135  0.250000  0.998640  1
  Nd  Nd10  1  0.037305  0.250000  0.498561  1
  Nd  Nd11  1  0.817952  0.449851  0.935966  1
  Nd  Nd12  1  0.181992  0.550726  0.064101  1
  Nd  Nd13  1  0.317675  0.551647  0.562934  1
  Nd  Nd14  1  0.181992  0.949274  0.064101  1
  Nd  Nd15  1  0.683296  0.450786  0.436966  1
  Nd  Nd16  1  0.817952  0.050149  0.935966  1
  Nd  Nd17  1  0.683296  0.049214  0.436966  1
  Nd  Nd18  1  0.317675  0.948353  0.562934  1
  Er  Er19  1  0.959249  0.750000  0.501252  1
  Ga  Ga20  1  0.911426  0.750000  0.975241  1
  Ga  Ga21  1  0.089435  0.250000  0.025205  1
  Ga  Ga22  1  0.410020  0.250000  0.524849  1
  Ga  Ga23  1  0.595998  0.750000  0.474836  1
  Bi  Bi24  1  0.934330  0.006000  0.671481  1
  Bi  Bi25  1  0.064421  0.987790  0.328372  1
  Bi  Bi26  1  0.433589  0.990919  0.825075  1
  Bi  Bi27  1  0.064421  0.512210  0.328372  1
  Bi  Bi28  1  0.565985  0.008943  0.174845  1
  Bi  Bi29  1  0.934330  0.494000  0.671481  1
  Bi  Bi30  1  0.565985  0.491057  0.174845  1
  Bi  Bi31  1  0.433589  0.509081  0.825075  1
