# generated using pymatgen
data_Er16Sc4IrRh11
_symmetry_space_group_name_H-M   'P 1'
_cell_length_a   10.69584343
_cell_length_b   10.69584343
_cell_length_c   6.23650818
_cell_angle_alpha   90.01958297
_cell_angle_beta   90.01958297
_cell_angle_gamma   89.92534559
_symmetry_Int_Tables_number   1
_chemical_formula_structural   Er16Sc4IrRh11
_chemical_formula_sum   'Er16 Sc4 Ir1 Rh11'
_cell_volume   713.46249895
_cell_formula_units_Z   1
loop_
 _symmetry_equiv_pos_site_id
 _symmetry_equiv_pos_as_xyz
  1  'x, y, z'
loop_
 _atom_site_type_symbol
 _atom_site_label
 _atom_site_symmetry_multiplicity
 _atom_site_fract_x
 _atom_site_fract_y
 _atom_site_fract_z
 _atom_site_occupancy
  Er  Er0  1  0.287837  0.086441  0.377177  1
  Er  Er1  1  0.288057  0.912328  0.876766  1
  Er  Er2  1  0.712226  0.086183  0.876922  1
  Er  Er3  1  0.712115  0.913384  0.377189  1
  Er  Er4  1  0.585101  0.787298  0.876804  1
  Er  Er5  1  0.586303  0.212348  0.377464  1
  Er  Er6  1  0.413620  0.787253  0.377603  1
  Er  Er7  1  0.413486  0.212175  0.877051  1
  Er  Er8  1  0.212702  0.414899  0.623196  1
  Er  Er9  1  0.212747  0.586380  0.122397  1
  Er  Er10  1  0.787652  0.413697  0.122536  1
  Er  Er11  1  0.787825  0.586514  0.622949  1
  Er  Er12  1  0.913559  0.712163  0.122823  1
  Er  Er13  1  0.913817  0.287774  0.623078  1
  Er  Er14  1  0.087672  0.711943  0.623234  1
  Er  Er15  1  0.086616  0.287885  0.122811  1
  Sc  Sc16  1  0.999922  0.999974  0.500126  1
  Sc  Sc17  1  0.000026  0.000078  0.999874  1
  Sc  Sc18  1  0.499602  0.500482  0.999426  1
  Sc  Sc19  1  0.499518  0.500398  0.500574  1
  Ir  Ir20  1  0.351029  0.648971  0.750000  1
  Rh  Rh21  1  0.850973  0.149027  0.250000  1
  Rh  Rh22  1  0.850948  0.850881  0.749949  1
  Rh  Rh23  1  0.149119  0.149052  0.750051  1
  Rh  Rh24  1  0.148564  0.851436  0.250000  1
  Rh  Rh25  1  0.649062  0.350938  0.750000  1
  Rh  Rh26  1  0.649865  0.649052  0.250233  1
  Rh  Rh27  1  0.350948  0.350135  0.249767  1
  Rh  Rh28  1  0.500088  0.000583  0.122140  1
  Rh  Rh29  1  0.500146  0.000562  0.621815  1
  Rh  Rh30  1  0.999438  0.499854  0.878185  1
  Rh  Rh31  1  0.999417  0.499912  0.377860  1
