# generated using pymatgen
data_TbYbAl7Si2Ir3
_symmetry_space_group_name_H-M   'P 1'
_cell_length_a   7.50415590
_cell_length_b   7.48210568
_cell_length_c   9.44185891
_cell_angle_alpha   89.95515191
_cell_angle_beta   90.02569017
_cell_angle_gamma   119.83654838
_symmetry_Int_Tables_number   1
_chemical_formula_structural   TbYbAl7Si2Ir3
_chemical_formula_sum   'Tb2 Yb2 Al14 Si4 Ir6'
_cell_volume   459.86106423
_cell_formula_units_Z   2
loop_
 _symmetry_equiv_pos_site_id
 _symmetry_equiv_pos_as_xyz
  1  'x, y, z'
loop_
 _atom_site_type_symbol
 _atom_site_label
 _atom_site_symmetry_multiplicity
 _atom_site_fract_x
 _atom_site_fract_y
 _atom_site_fract_z
 _atom_site_occupancy
  Tb  Tb0  1  0.000540  0.669119  0.249903  1
  Tb  Tb1  1  0.005540  0.340949  0.754170  1
  Yb  Yb2  1  0.669889  0.000961  0.249958  1
  Yb  Yb3  1  0.319659  0.991000  0.745334  1
  Al  Al4  1  0.130695  0.127057  0.250115  1
  Al  Al5  1  0.871957  0.871663  0.750036  1
  Al  Al6  1  0.000238  0.327699  0.427833  1
  Al  Al7  1  0.668380  0.999849  0.575987  1
  Al  Al8  1  0.661910  0.997383  0.923866  1
  Al  Al9  1  0.340836  0.004856  0.070483  1
  Al  Al10  1  0.333184  0.333672  0.557946  1
  Al  Al11  1  0.663310  0.668435  0.441562  1
  Al  Al12  1  0.662618  0.668155  0.058325  1
  Al  Al13  1  0.337011  0.332204  0.942249  1
  Al  Al14  1  0.338166  0.546860  0.250318  1
  Al  Al15  1  0.659369  0.450545  0.751307  1
  Al  Al16  1  0.548693  0.344716  0.249772  1
  Al  Al17  1  0.455573  0.659473  0.748883  1
  Si  Si18  1  0.000870  0.326622  0.076634  1
  Si  Si19  1  0.997723  0.672625  0.931028  1
  Si  Si20  1  0.991965  0.660451  0.568863  1
  Si  Si21  1  0.341308  0.007443  0.424819  1
  Ir  Ir22  1  0.689815  0.338689  0.002102  1
  Ir  Ir23  1  0.310266  0.661420  0.998570  1
  Ir  Ir24  1  0.318056  0.677314  0.499736  1
  Ir  Ir25  1  0.673534  0.330102  0.500025  1
  Ir  Ir26  1  0.001153  0.999550  0.000557  1
  Ir  Ir27  1  0.007743  0.991186  0.499617  1
