# generated using pymatgen
data_Zr6Zn22AuSe
_symmetry_space_group_name_H-M   'P 1'
_cell_length_a   8.81591641
_cell_length_b   8.81576191
_cell_length_c   8.81555900
_cell_angle_alpha   60.00198291
_cell_angle_beta   60.00018107
_cell_angle_gamma   59.99837546
_symmetry_Int_Tables_number   1
_chemical_formula_structural   Zr6Zn22AuSe
_chemical_formula_sum   'Zr6 Zn22 Au1 Se1'
_cell_volume   484.46671535
_cell_formula_units_Z   1
loop_
 _symmetry_equiv_pos_site_id
 _symmetry_equiv_pos_as_xyz
  1  'x, y, z'
loop_
 _atom_site_type_symbol
 _atom_site_label
 _atom_site_symmetry_multiplicity
 _atom_site_fract_x
 _atom_site_fract_y
 _atom_site_fract_z
 _atom_site_occupancy
  Zr  Zr0  1  0.713175  0.286820  0.286832  1
  Zr  Zr1  1  0.286825  0.713180  0.713168  1
  Zr  Zr2  1  0.286826  0.713178  0.286825  1
  Zr  Zr3  1  0.713174  0.286822  0.713175  1
  Zr  Zr4  1  0.286832  0.286831  0.713169  1
  Zr  Zr5  1  0.713168  0.713169  0.286831  1
  Zn  Zn6  1  0.124895  0.124884  0.124906  1
  Zn  Zn7  1  0.875105  0.875116  0.875094  1
  Zn  Zn8  1  0.124883  0.124896  0.625314  1
  Zn  Zn9  1  0.124907  0.625314  0.124895  1
  Zn  Zn10  1  0.875117  0.875104  0.374686  1
  Zn  Zn11  1  0.875093  0.374686  0.875105  1
  Zn  Zn12  1  0.625315  0.124903  0.124887  1
  Zn  Zn13  1  0.374685  0.875097  0.875113  1
  Zn  Zn14  1  0.500000  0.000000  0.000000  1
  Zn  Zn15  1  0.000000  0.500000  0.500000  1
  Zn  Zn16  1  0.000000  0.500000  0.000000  1
  Zn  Zn17  1  0.500000  0.000000  0.500000  1
  Zn  Zn18  1  0.000000  0.000000  0.500000  1
  Zn  Zn19  1  0.500000  0.500000  0.000000  1
  Zn  Zn20  1  0.334504  0.334509  0.334535  1
  Zn  Zn21  1  0.665496  0.665491  0.665465  1
  Zn  Zn22  1  0.334509  0.334507  0.996448  1
  Zn  Zn23  1  0.334536  0.996448  0.334507  1
  Zn  Zn24  1  0.665491  0.665493  0.003552  1
  Zn  Zn25  1  0.665464  0.003552  0.665493  1
  Zn  Zn26  1  0.996450  0.334535  0.334511  1
  Zn  Zn27  1  0.003550  0.665465  0.665489  1
  Au  Au28  1  0.000000  0.000000  0.000000  1
  Se  Se29  1  0.500000  0.500000  0.500000  1
