# generated using pymatgen
data_LiLa3FeC6
_symmetry_space_group_name_H-M   'P 1'
_cell_length_a   8.56397600
_cell_length_b   8.56397583
_cell_length_c   5.36837700
_cell_angle_alpha   90.00000000
_cell_angle_beta   90.00000000
_cell_angle_gamma   120.00000169
_symmetry_Int_Tables_number   1
_chemical_formula_structural   LiLa3FeC6
_chemical_formula_sum   'Li2 La6 Fe2 C12'
_cell_volume   340.97654492
_cell_formula_units_Z   2
loop_
 _symmetry_equiv_pos_site_id
 _symmetry_equiv_pos_as_xyz
  1  'x, y, z'
loop_
 _atom_site_type_symbol
 _atom_site_label
 _atom_site_symmetry_multiplicity
 _atom_site_fract_x
 _atom_site_fract_y
 _atom_site_fract_z
 _atom_site_occupancy
  Li  Li0  1  0.000000  0.000000  0.500000  1
  Li  Li1  1  0.000000  0.000000  0.000000  1
  La  La2  1  0.615981  0.678425  0.750000  1
  La  La3  1  0.937556  0.615981  0.250000  1
  La  La4  1  0.678425  0.062444  0.250000  1
  La  La5  1  0.321575  0.937556  0.750000  1
  La  La6  1  0.062444  0.384019  0.750000  1
  La  La7  1  0.384019  0.321575  0.250000  1
  Fe  Fe8  1  0.666667  0.333333  0.750000  1
  Fe  Fe9  1  0.333333  0.666667  0.250000  1
  C  C10  1  0.974743  0.734448  0.750000  1
  C  C11  1  0.240295  0.974743  0.250000  1
  C  C12  1  0.734448  0.759705  0.250000  1
  C  C13  1  0.265552  0.240295  0.750000  1
  C  C14  1  0.759705  0.025257  0.750000  1
  C  C15  1  0.025257  0.265552  0.250000  1
  C  C16  1  0.850618  0.560440  0.750000  1
  C  C17  1  0.290176  0.850618  0.250000  1
  C  C18  1  0.560440  0.709824  0.250000  1
  C  C19  1  0.439560  0.290176  0.750000  1
  C  C20  1  0.149382  0.439560  0.250000  1
  C  C21  1  0.709824  0.149382  0.750000  1
