# generated using pymatgen
data_ErTm2(Co3P2)3
_symmetry_space_group_name_H-M   'P 1'
_cell_length_a   3.67247600
_cell_length_b   10.46869100
_cell_length_c   12.10760000
_cell_angle_alpha   90.00000000
_cell_angle_beta   90.00000000
_cell_angle_gamma   90.00000000
_symmetry_Int_Tables_number   1
_chemical_formula_structural   ErTm2(Co3P2)3
_chemical_formula_sum   'Er2 Tm4 Co18 P12'
_cell_volume   465.48898876
_cell_formula_units_Z   2
loop_
 _symmetry_equiv_pos_site_id
 _symmetry_equiv_pos_as_xyz
  1  'x, y, z'
loop_
 _atom_site_type_symbol
 _atom_site_label
 _atom_site_symmetry_multiplicity
 _atom_site_fract_x
 _atom_site_fract_y
 _atom_site_fract_z
 _atom_site_occupancy
  Er  Er0  1  0.750000  0.250000  0.477735  1
  Er  Er1  1  0.250000  0.750000  0.522265  1
  Tm  Tm2  1  0.250000  0.932429  0.794007  1
  Tm  Tm3  1  0.250000  0.567571  0.794007  1
  Tm  Tm4  1  0.750000  0.067571  0.205993  1
  Tm  Tm5  1  0.750000  0.432429  0.205993  1
  Co  Co6  1  0.250000  0.250000  0.841173  1
  Co  Co7  1  0.750000  0.750000  0.158827  1
  Co  Co8  1  0.250000  0.250000  0.297029  1
  Co  Co9  1  0.750000  0.750000  0.702971  1
  Co  Co10  1  0.750000  0.250000  0.014424  1
  Co  Co11  1  0.250000  0.750000  0.985576  1
  Co  Co12  1  0.250000  0.416778  0.005866  1
  Co  Co13  1  0.250000  0.083222  0.005866  1
  Co  Co14  1  0.750000  0.583222  0.994134  1
  Co  Co15  1  0.750000  0.916778  0.994134  1
  Co  Co16  1  0.250000  0.452793  0.569432  1
  Co  Co17  1  0.250000  0.047207  0.569432  1
  Co  Co18  1  0.750000  0.547207  0.430568  1
  Co  Co19  1  0.750000  0.952793  0.430568  1
  Co  Co20  1  0.250000  0.871491  0.290318  1
  Co  Co21  1  0.250000  0.628509  0.290318  1
  Co  Co22  1  0.750000  0.128509  0.709682  1
  Co  Co23  1  0.750000  0.371491  0.709682  1
  P  P24  1  0.250000  0.250000  0.118614  1
  P  P25  1  0.750000  0.750000  0.881386  1
  P  P26  1  0.250000  0.250000  0.655614  1
  P  P27  1  0.750000  0.750000  0.344386  1
  P  P28  1  0.250000  0.438308  0.383336  1
  P  P29  1  0.250000  0.061692  0.383336  1
  P  P30  1  0.750000  0.561692  0.616664  1
  P  P31  1  0.750000  0.938308  0.616664  1
  P  P32  1  0.250000  0.902876  0.107290  1
  P  P33  1  0.250000  0.597124  0.107290  1
  P  P34  1  0.750000  0.097124  0.892710  1
  P  P35  1  0.750000  0.402876  0.892710  1
