# generated using pymatgen
data_La8Yb5Ho7Si16
_symmetry_space_group_name_H-M   'P 1'
_cell_length_a   7.53723803
_cell_length_b   7.91244383
_cell_length_c   15.02654101
_cell_angle_alpha   89.95217960
_cell_angle_beta   90.13121563
_cell_angle_gamma   90.13146327
_symmetry_Int_Tables_number   1
_chemical_formula_structural   La8Yb5Ho7Si16
_chemical_formula_sum   'La8 Yb5 Ho7 Si16'
_cell_volume   896.14742277
_cell_formula_units_Z   1
loop_
 _symmetry_equiv_pos_site_id
 _symmetry_equiv_pos_as_xyz
  1  'x, y, z'
loop_
 _atom_site_type_symbol
 _atom_site_label
 _atom_site_symmetry_multiplicity
 _atom_site_fract_x
 _atom_site_fract_y
 _atom_site_fract_z
 _atom_site_occupancy
  La  La0  1  0.975484  0.819494  0.099482  1
  La  La1  1  0.475156  0.679704  0.400849  1
  La  La2  1  0.524962  0.319691  0.900539  1
  La  La3  1  0.024716  0.180332  0.598273  1
  La  La4  1  0.024833  0.180629  0.900523  1
  La  La5  1  0.524940  0.319393  0.599026  1
  La  La6  1  0.474643  0.681173  0.099298  1
  La  La7  1  0.974940  0.819440  0.400217  1
  Yb  Yb8  1  0.651910  0.988966  0.250450  1
  Yb  Yb9  1  0.151812  0.510969  0.250140  1
  Yb  Yb10  1  0.846932  0.492284  0.751142  1
  Yb  Yb11  1  0.351411  0.008568  0.751031  1
  Yb  Yb12  1  0.680262  0.819970  0.878433  1
  Ho  Ho13  1  0.178036  0.681810  0.622657  1
  Ho  Ho14  1  0.820047  0.319652  0.123573  1
  Ho  Ho15  1  0.320576  0.180748  0.376991  1
  Ho  Ho16  1  0.320990  0.180453  0.124338  1
  Ho  Ho17  1  0.820694  0.319107  0.376678  1
  Ho  Ho18  1  0.179136  0.679916  0.876310  1
  Ho  Ho19  1  0.679253  0.818689  0.622553  1
  Si  Si20  1  0.764500  0.607625  0.250071  1
  Si  Si21  1  0.263265  0.892717  0.250243  1
  Si  Si22  1  0.739441  0.112085  0.747427  1
  Si  Si23  1  0.235111  0.391669  0.748940  1
  Si  Si24  1  0.029909  0.112537  0.249980  1
  Si  Si25  1  0.530064  0.388561  0.250167  1
  Si  Si26  1  0.466427  0.607422  0.748201  1
  Si  Si27  1  0.972057  0.889985  0.747243  1
  Si  Si28  1  0.860780  0.526073  0.964337  1
  Si  Si29  1  0.354570  0.968002  0.535591  1
  Si  Si30  1  0.641014  0.034536  0.038978  1
  Si  Si31  1  0.146046  0.467776  0.464425  1
  Si  Si32  1  0.147551  0.466631  0.036210  1
  Si  Si33  1  0.646268  0.031740  0.464233  1
  Si  Si34  1  0.348760  0.968556  0.966430  1
  Si  Si35  1  0.853507  0.533094  0.535022  1
