# generated using pymatgen
data_LiTb2Ho2CoBi2
_symmetry_space_group_name_H-M   'P 1'
_cell_length_a   8.02386800
_cell_length_b   8.82044400
_cell_length_c   11.89091700
_cell_angle_alpha   90.00000000
_cell_angle_beta   90.00000000
_cell_angle_gamma   90.00000000
_symmetry_Int_Tables_number   1
_chemical_formula_structural   LiTb2Ho2CoBi2
_chemical_formula_sum   'Li4 Tb8 Ho8 Co4 Bi8'
_cell_volume   841.56869150
_cell_formula_units_Z   4
loop_
 _symmetry_equiv_pos_site_id
 _symmetry_equiv_pos_as_xyz
  1  'x, y, z'
loop_
 _atom_site_type_symbol
 _atom_site_label
 _atom_site_symmetry_multiplicity
 _atom_site_fract_x
 _atom_site_fract_y
 _atom_site_fract_z
 _atom_site_occupancy
  Li  Li0  1  0.040899  0.750000  0.495543  1
  Li  Li1  1  0.959101  0.250000  0.504457  1
  Li  Li2  1  0.540899  0.250000  0.004457  1
  Li  Li3  1  0.459101  0.750000  0.995543  1
  Tb  Tb4  1  0.360878  0.750000  0.692059  1
  Tb  Tb5  1  0.639122  0.250000  0.307941  1
  Tb  Tb6  1  0.860878  0.250000  0.807941  1
  Tb  Tb7  1  0.139122  0.750000  0.192059  1
  Tb  Tb8  1  0.881474  0.750000  0.811507  1
  Tb  Tb9  1  0.118526  0.250000  0.188493  1
  Tb  Tb10  1  0.381474  0.250000  0.688493  1
  Tb  Tb11  1  0.618526  0.750000  0.311507  1
  Ho  Ho12  1  0.691999  0.516502  0.563591  1
  Ho  Ho13  1  0.308001  0.483498  0.436409  1
  Ho  Ho14  1  0.191999  0.483498  0.936409  1
  Ho  Ho15  1  0.308001  0.016502  0.436409  1
  Ho  Ho16  1  0.808001  0.516502  0.063591  1
  Ho  Ho17  1  0.691999  0.983498  0.563591  1
  Ho  Ho18  1  0.808001  0.983498  0.063591  1
  Ho  Ho19  1  0.191999  0.016502  0.936409  1
  Co  Co20  1  0.023674  0.750000  0.996218  1
  Co  Co21  1  0.976326  0.250000  0.003782  1
  Co  Co22  1  0.523674  0.250000  0.503782  1
  Co  Co23  1  0.476326  0.750000  0.496218  1
  Bi  Bi24  1  0.574811  0.506172  0.834236  1
  Bi  Bi25  1  0.425189  0.493828  0.165764  1
  Bi  Bi26  1  0.074811  0.493828  0.665764  1
  Bi  Bi27  1  0.425189  0.006172  0.165764  1
  Bi  Bi28  1  0.925189  0.506172  0.334236  1
  Bi  Bi29  1  0.574811  0.993828  0.834236  1
  Bi  Bi30  1  0.925189  0.993828  0.334236  1
  Bi  Bi31  1  0.074811  0.006172  0.665764  1
