# generated using pymatgen
data_Mo2IrOs4Pt
_symmetry_space_group_name_H-M   'P 1'
_cell_length_a   5.56687200
_cell_length_b   5.54535914
_cell_length_c   4.42763900
_cell_angle_alpha   90.00000000
_cell_angle_beta   90.00000000
_cell_angle_gamma   120.12842580
_symmetry_Int_Tables_number   1
_chemical_formula_structural   Mo2IrOs4Pt
_chemical_formula_sum   'Mo2 Ir1 Os4 Pt1'
_cell_volume   118.21709194
_cell_formula_units_Z   1
loop_
 _symmetry_equiv_pos_site_id
 _symmetry_equiv_pos_as_xyz
  1  'x, y, z'
loop_
 _atom_site_type_symbol
 _atom_site_label
 _atom_site_symmetry_multiplicity
 _atom_site_fract_x
 _atom_site_fract_y
 _atom_site_fract_z
 _atom_site_occupancy
  Mo  Mo0  1  0.336987  0.673974  0.250000  1
  Mo  Mo1  1  0.660900  0.321799  0.750000  1
  Ir  Ir2  1  0.166261  0.332520  0.750000  1
  Os  Os3  1  0.171974  0.841237  0.750000  1
  Os  Os4  1  0.669263  0.841237  0.750000  1
  Os  Os5  1  0.332709  0.161315  0.250000  1
  Os  Os6  1  0.828604  0.161315  0.250000  1
  Pt  Pt7  1  0.833300  0.666603  0.250000  1
