# generated using pymatgen
data_Y3Cd3SnGeAu
_symmetry_space_group_name_H-M   'P 1'
_cell_length_a   7.45593400
_cell_length_b   7.45593378
_cell_length_c   4.41471200
_cell_angle_alpha   90.00000000
_cell_angle_beta   90.00000000
_cell_angle_gamma   120.00000097
_symmetry_Int_Tables_number   1
_chemical_formula_structural   Y3Cd3SnGeAu
_chemical_formula_sum   'Y3 Cd3 Sn1 Ge1 Au1'
_cell_volume   212.53825064
_cell_formula_units_Z   1
loop_
 _symmetry_equiv_pos_site_id
 _symmetry_equiv_pos_as_xyz
  1  'x, y, z'
loop_
 _atom_site_type_symbol
 _atom_site_label
 _atom_site_symmetry_multiplicity
 _atom_site_fract_x
 _atom_site_fract_y
 _atom_site_fract_z
 _atom_site_occupancy
  Y  Y0  1  0.592688  0.010762  0.000000  1
  Y  Y1  1  0.989238  0.581926  0.000000  1
  Y  Y2  1  0.418074  0.407312  0.000000  1
  Cd  Cd3  1  0.248889  0.005954  0.500000  1
  Cd  Cd4  1  0.994046  0.242935  0.500000  1
  Cd  Cd5  1  0.757065  0.751111  0.500000  1
  Sn  Sn6  1  0.333333  0.666667  0.500000  1
  Ge  Ge7  1  0.666667  0.333333  0.500000  1
  Au  Au8  1  0.000000  0.000000  0.000000  1
