# generated using pymatgen
data_Tb4GaTc3Os4
_symmetry_space_group_name_H-M   'P 1'
_cell_length_a   5.36003800
_cell_length_b   5.27479716
_cell_length_c   8.95990100
_cell_angle_alpha   90.00000000
_cell_angle_beta   90.00000000
_cell_angle_gamma   120.94065722
_symmetry_Int_Tables_number   1
_chemical_formula_structural   Tb4GaTc3Os4
_chemical_formula_sum   'Tb4 Ga1 Tc3 Os4'
_cell_volume   217.27631905
_cell_formula_units_Z   1
loop_
 _symmetry_equiv_pos_site_id
 _symmetry_equiv_pos_as_xyz
  1  'x, y, z'
loop_
 _atom_site_type_symbol
 _atom_site_label
 _atom_site_symmetry_multiplicity
 _atom_site_fract_x
 _atom_site_fract_y
 _atom_site_fract_z
 _atom_site_occupancy
  Tb  Tb0  1  0.333901  0.665659  0.436552  1
  Tb  Tb1  1  0.669362  0.337438  0.561626  1
  Tb  Tb2  1  0.669362  0.337438  0.938374  1
  Tb  Tb3  1  0.333901  0.665659  0.063448  1
  Ga  Ga4  1  0.657800  0.828714  0.750000  1
  Tc  Tc5  1  0.824944  0.654933  0.250000  1
  Tc  Tc6  1  0.333007  0.165710  0.250000  1
  Tc  Tc7  1  0.160385  0.335080  0.750000  1
  Os  Os8  1  0.014062  0.009398  0.500885  1
  Os  Os9  1  0.014062  0.009398  0.999115  1
  Os  Os10  1  0.825535  0.169849  0.250000  1
  Os  Os11  1  0.163682  0.820723  0.750000  1
