# generated using pymatgen
data_Nb12Al5Au3N4
_symmetry_space_group_name_H-M   'P 1'
_cell_length_a   7.10568568
_cell_length_b   7.10568568
_cell_length_c   7.10568568
_cell_angle_alpha   90.14685257
_cell_angle_beta   90.14685257
_cell_angle_gamma   90.14685257
_symmetry_Int_Tables_number   1
_chemical_formula_structural   Nb12Al5Au3N4
_chemical_formula_sum   'Nb12 Al5 Au3 N4'
_cell_volume   358.76799351
_cell_formula_units_Z   1
loop_
 _symmetry_equiv_pos_site_id
 _symmetry_equiv_pos_as_xyz
  1  'x, y, z'
loop_
 _atom_site_type_symbol
 _atom_site_label
 _atom_site_symmetry_multiplicity
 _atom_site_fract_x
 _atom_site_fract_y
 _atom_site_fract_z
 _atom_site_occupancy
  Nb  Nb0  1  0.785324  0.954599  0.383498  1
  Nb  Nb1  1  0.711232  0.038796  0.870306  1
  Nb  Nb2  1  0.211848  0.454631  0.126689  1
  Nb  Nb3  1  0.291833  0.545811  0.624160  1
  Nb  Nb4  1  0.954599  0.383498  0.785324  1
  Nb  Nb5  1  0.038796  0.870306  0.711232  1
  Nb  Nb6  1  0.454631  0.126689  0.211848  1
  Nb  Nb7  1  0.545811  0.624160  0.291833  1
  Nb  Nb8  1  0.383498  0.785324  0.954599  1
  Nb  Nb9  1  0.870306  0.711232  0.038796  1
  Nb  Nb10  1  0.126689  0.211848  0.454631  1
  Nb  Nb11  1  0.624160  0.291833  0.545811  1
  Al  Al12  1  0.676763  0.676763  0.676763  1
  Al  Al13  1  0.571372  0.424952  0.931128  1
  Al  Al14  1  0.424952  0.931128  0.571372  1
  Al  Al15  1  0.931128  0.571372  0.424952  1
  Al  Al16  1  0.070946  0.070946  0.070946  1
  Au  Au17  1  0.179096  0.820710  0.317159  1
  Au  Au18  1  0.317159  0.179096  0.820710  1
  Au  Au19  1  0.820710  0.317159  0.179096  1
  N  N20  1  0.880633  0.127168  0.623981  1
  N  N21  1  0.623981  0.880633  0.127168  1
  N  N22  1  0.127168  0.623981  0.880633  1
  N  N23  1  0.377364  0.377364  0.377364  1
