# generated using pymatgen
data_Lu4NpGaRu6
_symmetry_space_group_name_H-M   'P 1'
_cell_length_a   5.60930600
_cell_length_b   5.60930730
_cell_length_c   7.98149600
_cell_angle_alpha   90.00000000
_cell_angle_beta   90.00000000
_cell_angle_gamma   119.99999231
_symmetry_Int_Tables_number   1
_chemical_formula_structural   Lu4NpGaRu6
_chemical_formula_sum   'Lu4 Np1 Ga1 Ru6'
_cell_volume   217.48701441
_cell_formula_units_Z   1
loop_
 _symmetry_equiv_pos_site_id
 _symmetry_equiv_pos_as_xyz
  1  'x, y, z'
loop_
 _atom_site_type_symbol
 _atom_site_label
 _atom_site_symmetry_multiplicity
 _atom_site_fract_x
 _atom_site_fract_y
 _atom_site_fract_z
 _atom_site_occupancy
  Lu  Lu0  1  0.333333  0.666667  0.432119  1
  Lu  Lu1  1  0.666667  0.333333  0.567881  1
  Lu  Lu2  1  0.666667  0.333333  0.948050  1
  Lu  Lu3  1  0.333333  0.666667  0.051950  1
  Np  Np4  1  0.000000  0.000000  0.500000  1
  Ga  Ga5  1  0.000000  0.000000  0.000000  1
  Ru  Ru6  1  0.168834  0.337669  0.741604  1
  Ru  Ru7  1  0.168834  0.831166  0.741604  1
  Ru  Ru8  1  0.337669  0.168834  0.258396  1
  Ru  Ru9  1  0.831166  0.662331  0.258396  1
  Ru  Ru10  1  0.662331  0.831166  0.741604  1
  Ru  Ru11  1  0.831166  0.168834  0.258396  1
