# generated using pymatgen
data_Sc(TaS2)3
_symmetry_space_group_name_H-M   'P 1'
_cell_length_a   5.78670600
_cell_length_b   5.78670615
_cell_length_c   13.10514100
_cell_angle_alpha   90.00000000
_cell_angle_beta   90.00000000
_cell_angle_gamma   120.00001056
_symmetry_Int_Tables_number   1
_chemical_formula_structural   Sc(TaS2)3
_chemical_formula_sum   'Sc2 Ta6 S12'
_cell_volume   380.04509451
_cell_formula_units_Z   2
loop_
 _symmetry_equiv_pos_site_id
 _symmetry_equiv_pos_as_xyz
  1  'x, y, z'
loop_
 _atom_site_type_symbol
 _atom_site_label
 _atom_site_symmetry_multiplicity
 _atom_site_fract_x
 _atom_site_fract_y
 _atom_site_fract_z
 _atom_site_occupancy
  Sc  Sc0  1  0.666667  0.333333  0.750000  1
  Sc  Sc1  1  0.333333  0.666667  0.250000  1
  Ta  Ta2  1  0.333333  0.666667  0.500401  1
  Ta  Ta3  1  0.666667  0.333333  0.000401  1
  Ta  Ta4  1  0.666667  0.333333  0.499599  1
  Ta  Ta5  1  0.333333  0.666667  0.999599  1
  Ta  Ta6  1  0.000000  0.000000  0.500000  1
  Ta  Ta7  1  0.000000  0.000000  0.000000  1
  S  S8  1  0.332768  0.330648  0.120703  1
  S  S9  1  0.669352  0.002119  0.120703  1
  S  S10  1  0.997881  0.667232  0.120703  1
  S  S11  1  0.002119  0.332768  0.620703  1
  S  S12  1  0.667232  0.997881  0.879297  1
  S  S13  1  0.667232  0.669352  0.620703  1
  S  S14  1  0.330648  0.997881  0.620703  1
  S  S15  1  0.669352  0.667232  0.379297  1
  S  S16  1  0.332768  0.002119  0.379297  1
  S  S17  1  0.330648  0.332768  0.879297  1
  S  S18  1  0.002119  0.669352  0.879297  1
  S  S19  1  0.997881  0.330648  0.379297  1
