# generated using pymatgen
data_Sr3Cu4Ni9C2
_symmetry_space_group_name_H-M   'P 1'
_cell_length_a   5.19811301
_cell_length_b   5.19809464
_cell_length_c   10.64718400
_cell_angle_alpha   89.99875136
_cell_angle_beta   90.00251931
_cell_angle_gamma   120.00011051
_symmetry_Int_Tables_number   1
_chemical_formula_structural   Sr3Cu4Ni9C2
_chemical_formula_sum   'Sr3 Cu4 Ni9 C2'
_cell_volume   249.14650929
_cell_formula_units_Z   1
loop_
 _symmetry_equiv_pos_site_id
 _symmetry_equiv_pos_as_xyz
  1  'x, y, z'
loop_
 _atom_site_type_symbol
 _atom_site_label
 _atom_site_symmetry_multiplicity
 _atom_site_fract_x
 _atom_site_fract_y
 _atom_site_fract_z
 _atom_site_occupancy
  Sr  Sr0  1  0.000001  0.000000  0.999946  1
  Sr  Sr1  1  0.999992  0.000000  0.329884  1
  Sr  Sr2  1  0.999996  0.000000  0.670174  1
  Cu  Cu3  1  0.333278  0.666573  0.312838  1
  Cu  Cu4  1  0.666705  0.333427  0.312838  1
  Cu  Cu5  1  0.666667  0.333351  0.687169  1
  Cu  Cu6  1  0.333317  0.666649  0.687169  1
  Ni  Ni7  1  0.500011  0.000000  0.500006  1
  Ni  Ni8  1  0.499969  0.499981  0.500012  1
  Ni  Ni9  1  0.999989  0.500019  0.500012  1
  Ni  Ni10  1  0.500014  0.000000  0.119179  1
  Ni  Ni11  1  0.500018  0.500001  0.119086  1
  Ni  Ni12  1  0.000018  0.499999  0.119086  1
  Ni  Ni13  1  0.499981  0.000000  0.880881  1
  Ni  Ni14  1  0.499976  0.499998  0.880803  1
  Ni  Ni15  1  0.999979  0.500002  0.880803  1
  C  C16  1  0.333362  0.666733  0.000053  1
  C  C17  1  0.666629  0.333267  0.000053  1
