# generated using pymatgen
data_Lu3Sc17Bi12
_symmetry_space_group_name_H-M   'P 1'
_cell_length_a   7.82962209
_cell_length_b   9.03641500
_cell_length_c   11.46700014
_cell_angle_alpha   90.00000000
_cell_angle_beta   89.99966633
_cell_angle_gamma   90.00000000
_symmetry_Int_Tables_number   1
_chemical_formula_structural   Lu3Sc17Bi12
_chemical_formula_sum   'Lu3 Sc17 Bi12'
_cell_volume   811.30991949
_cell_formula_units_Z   1
loop_
 _symmetry_equiv_pos_site_id
 _symmetry_equiv_pos_as_xyz
  1  'x, y, z'
loop_
 _atom_site_type_symbol
 _atom_site_label
 _atom_site_symmetry_multiplicity
 _atom_site_fract_x
 _atom_site_fract_y
 _atom_site_fract_z
 _atom_site_occupancy
  Lu  Lu0  1  0.815447  0.250000  0.282176  1
  Lu  Lu1  1  0.684985  0.750000  0.782059  1
  Lu  Lu2  1  0.184166  0.750000  0.717647  1
  Sc  Sc3  1  0.348824  0.750000  0.220407  1
  Sc  Sc4  1  0.851349  0.750000  0.278438  1
  Sc  Sc5  1  0.650061  0.250000  0.781607  1
  Sc  Sc6  1  0.150431  0.250000  0.720015  1
  Sc  Sc7  1  0.694528  0.566747  0.061637  1
  Sc  Sc8  1  0.192436  0.932879  0.438041  1
  Sc  Sc9  1  0.306566  0.067344  0.939279  1
  Sc  Sc10  1  0.807345  0.431975  0.561166  1
  Sc  Sc11  1  0.306566  0.432656  0.939279  1
  Sc  Sc12  1  0.807345  0.068025  0.561166  1
  Sc  Sc13  1  0.694528  0.933253  0.061637  1
  Sc  Sc14  1  0.192436  0.567121  0.438041  1
  Sc  Sc15  1  0.481400  0.250000  0.486937  1
  Sc  Sc16  1  0.980566  0.250000  0.012616  1
  Sc  Sc17  1  0.517543  0.750000  0.510769  1
  Sc  Sc18  1  0.019378  0.750000  0.989522  1
  Sc  Sc19  1  0.314175  0.250000  0.217298  1
  Bi  Bi20  1  0.403431  0.750000  0.965229  1
  Bi  Bi21  1  0.901507  0.750000  0.534235  1
  Bi  Bi22  1  0.593119  0.250000  0.038283  1
  Bi  Bi23  1  0.098630  0.250000  0.463734  1
  Bi  Bi24  1  0.561871  0.993534  0.325548  1
  Bi  Bi25  1  0.068641  0.505386  0.173388  1
  Bi  Bi26  1  0.435732  0.491691  0.672445  1
  Bi  Bi27  1  0.935375  0.008459  0.828009  1
  Bi  Bi28  1  0.435732  0.008309  0.672445  1
  Bi  Bi29  1  0.935375  0.491541  0.828009  1
  Bi  Bi30  1  0.561871  0.506466  0.325548  1
  Bi  Bi31  1  0.068641  0.994614  0.173388  1
