# generated using pymatgen
data_Sr2Cd3Sn
_symmetry_space_group_name_H-M   'P 1'
_cell_length_a   6.46896407
_cell_length_b   6.50049928
_cell_length_c   6.50049930
_cell_angle_alpha   134.34639603
_cell_angle_beta   103.35347670
_cell_angle_gamma   94.10100967
_symmetry_Int_Tables_number   1
_chemical_formula_structural   Sr2Cd3Sn
_chemical_formula_sum   'Sr2 Cd3 Sn1'
_cell_volume   179.22216091
_cell_formula_units_Z   1
loop_
 _symmetry_equiv_pos_site_id
 _symmetry_equiv_pos_as_xyz
  1  'x, y, z'
loop_
 _atom_site_type_symbol
 _atom_site_label
 _atom_site_symmetry_multiplicity
 _atom_site_fract_x
 _atom_site_fract_y
 _atom_site_fract_z
 _atom_site_occupancy
  Sr  Sr0  1  0.790250  0.540137  0.250113  1
  Sr  Sr1  1  0.206003  0.459191  0.746812  1
  Cd  Cd2  1  0.382884  0.833137  0.549745  1
  Cd  Cd3  1  0.788671  0.840711  0.947960  1
  Cd  Cd4  1  0.220365  0.166212  0.054153  1
  Sn  Sn5  1  0.611827  0.160612  0.451217  1
