# generated using pymatgen
data_Dy3BeCo9SiB4
_symmetry_space_group_name_H-M   'P 1'
_cell_length_a   5.06548600
_cell_length_b   5.06548465
_cell_length_c   9.37551300
_cell_angle_alpha   90.00000000
_cell_angle_beta   90.00000000
_cell_angle_gamma   120.00000881
_symmetry_Int_Tables_number   1
_chemical_formula_structural   Dy3BeCo9SiB4
_chemical_formula_sum   'Dy3 Be1 Co9 Si1 B4'
_cell_volume   208.33764780
_cell_formula_units_Z   1
loop_
 _symmetry_equiv_pos_site_id
 _symmetry_equiv_pos_as_xyz
  1  'x, y, z'
loop_
 _atom_site_type_symbol
 _atom_site_label
 _atom_site_symmetry_multiplicity
 _atom_site_fract_x
 _atom_site_fract_y
 _atom_site_fract_z
 _atom_site_occupancy
  Dy  Dy0  1  0.000000  0.000000  0.661804  1
  Dy  Dy1  1  0.000000  0.000000  0.338196  1
  Dy  Dy2  1  0.000000  0.000000  0.000000  1
  Be  Be3  1  0.666667  0.333333  0.000000  1
  Co  Co4  1  0.499718  0.500282  0.500000  1
  Co  Co5  1  0.000563  0.500282  0.500000  1
  Co  Co6  1  0.500803  0.001606  0.193820  1
  Co  Co7  1  0.500803  0.499197  0.193820  1
  Co  Co8  1  0.998394  0.499197  0.193820  1
  Co  Co9  1  0.500803  0.001606  0.806180  1
  Co  Co10  1  0.500803  0.499197  0.806180  1
  Co  Co11  1  0.998394  0.499197  0.806180  1
  Co  Co12  1  0.499718  0.999437  0.500000  1
  Si  Si13  1  0.333333  0.666667  0.000000  1
  B  B14  1  0.333333  0.666667  0.656508  1
  B  B15  1  0.666667  0.333333  0.655565  1
  B  B16  1  0.666667  0.333333  0.344435  1
  B  B17  1  0.333333  0.666667  0.343492  1
