# generated using pymatgen
data_NaScSi14PtRh5
_symmetry_space_group_name_H-M   'P 1'
_cell_length_a   7.97340879
_cell_length_b   7.97223410
_cell_length_c   7.93850728
_cell_angle_alpha   57.17513335
_cell_angle_beta   57.15056290
_cell_angle_gamma   57.04080361
_symmetry_Int_Tables_number   1
_chemical_formula_structural   NaScSi14PtRh5
_chemical_formula_sum   'Na1 Sc1 Si14 Pt1 Rh5'
_cell_volume   333.15504983
_cell_formula_units_Z   1
loop_
 _symmetry_equiv_pos_site_id
 _symmetry_equiv_pos_as_xyz
  1  'x, y, z'
loop_
 _atom_site_type_symbol
 _atom_site_label
 _atom_site_symmetry_multiplicity
 _atom_site_fract_x
 _atom_site_fract_y
 _atom_site_fract_z
 _atom_site_occupancy
  Na  Na0  1  0.999648  0.999833  0.000468  1
  Sc  Sc1  1  0.501548  0.500688  0.498508  1
  Si  Si2  1  0.744124  0.755285  0.749915  1
  Si  Si3  1  0.250348  0.249782  0.250174  1
  Si  Si4  1  0.852580  0.066347  0.674094  1
  Si  Si5  1  0.674706  0.850974  0.067202  1
  Si  Si6  1  0.067107  0.677860  0.853629  1
  Si  Si7  1  0.650902  0.826710  0.432700  1
  Si  Si8  1  0.433439  0.649297  0.827435  1
  Si  Si9  1  0.823888  0.432495  0.648903  1
  Si  Si10  1  0.173704  0.568982  0.343901  1
  Si  Si11  1  0.566389  0.349985  0.172758  1
  Si  Si12  1  0.353549  0.168406  0.564797  1
  Si  Si13  1  0.931227  0.324474  0.154242  1
  Si  Si14  1  0.330106  0.144213  0.935373  1
  Si  Si15  1  0.148147  0.934052  0.325503  1
  Pt  Pt16  1  0.072734  0.434842  0.745943  1
  Rh  Rh17  1  0.254394  0.924774  0.567079  1
  Rh  Rh18  1  0.566849  0.254336  0.924757  1
  Rh  Rh19  1  0.925741  0.566325  0.254230  1
  Rh  Rh20  1  0.432968  0.745373  0.075546  1
  Rh  Rh21  1  0.745902  0.074968  0.432840  1
