# generated using pymatgen
data_Ac7Th(InSi2)4
_symmetry_space_group_name_H-M   'P 1'
_cell_length_a   4.51283000
_cell_length_b   7.97962842
_cell_length_c   15.25276400
_cell_angle_alpha   90.69403903
_cell_angle_beta   90.00000000
_cell_angle_gamma   90.00000000
_symmetry_Int_Tables_number   1
_chemical_formula_structural   Ac7Th(InSi2)4
_chemical_formula_sum   'Ac7 Th1 In4 Si8'
_cell_volume   549.22251177
_cell_formula_units_Z   1
loop_
 _symmetry_equiv_pos_site_id
 _symmetry_equiv_pos_as_xyz
  1  'x, y, z'
loop_
 _atom_site_type_symbol
 _atom_site_label
 _atom_site_symmetry_multiplicity
 _atom_site_fract_x
 _atom_site_fract_y
 _atom_site_fract_z
 _atom_site_occupancy
  Ac  Ac0  1  0.500000  0.743003  0.032907  1
  Ac  Ac1  1  0.500000  0.245297  0.960893  1
  Ac  Ac2  1  0.500000  0.253420  0.469228  1
  Ac  Ac3  1  0.500000  0.756577  0.536282  1
  Ac  Ac4  1  0.500000  0.620226  0.284917  1
  Ac  Ac5  1  0.500000  0.385207  0.720016  1
  Ac  Ac6  1  0.500000  0.119964  0.213847  1
  Th  Th7  1  0.500000  0.882642  0.783544  1
  In  In8  1  0.000000  0.942415  0.374178  1
  In  In9  1  0.000000  0.053978  0.631166  1
  In  In10  1  0.000000  0.439237  0.124911  1
  In  In11  1  0.000000  0.574779  0.872300  1
  Si  Si12  1  0.000000  0.553127  0.427254  1
  Si  Si13  1  0.000000  0.461053  0.579479  1
  Si  Si14  1  0.000000  0.041966  0.069452  1
  Si  Si15  1  0.000000  0.932459  0.918316  1
  Si  Si16  1  0.000000  0.828544  0.181782  1
  Si  Si17  1  0.000000  0.150094  0.811653  1
  Si  Si18  1  0.000000  0.328211  0.319921  1
  Si  Si19  1  0.000000  0.687802  0.687957  1
