# generated using pymatgen
data_Tb9YSn5Bi
_symmetry_space_group_name_H-M   'P 1'
_cell_length_a   9.05490903
_cell_length_b   9.04948470
_cell_length_c   6.55399100
_cell_angle_alpha   90.00000000
_cell_angle_beta   90.00000000
_cell_angle_gamma   120.04856167
_symmetry_Int_Tables_number   1
_chemical_formula_structural   Tb9YSn5Bi
_chemical_formula_sum   'Tb9 Y1 Sn5 Bi1'
_cell_volume   464.87017982
_cell_formula_units_Z   1
loop_
 _symmetry_equiv_pos_site_id
 _symmetry_equiv_pos_as_xyz
  1  'x, y, z'
loop_
 _atom_site_type_symbol
 _atom_site_label
 _atom_site_symmetry_multiplicity
 _atom_site_fract_x
 _atom_site_fract_y
 _atom_site_fract_z
 _atom_site_occupancy
  Tb  Tb0  1  0.760842  0.760821  0.250000  1
  Tb  Tb1  1  0.999738  0.240155  0.250000  1
  Tb  Tb2  1  0.761556  0.005042  0.750000  1
  Tb  Tb3  1  0.330363  0.667308  0.499473  1
  Tb  Tb4  1  0.667296  0.330340  0.499480  1
  Tb  Tb5  1  0.004995  0.761604  0.750000  1
  Tb  Tb6  1  0.330363  0.667308  0.000527  1
  Tb  Tb7  1  0.236858  0.236897  0.750000  1
  Tb  Tb8  1  0.667296  0.330340  0.000520  1
  Y  Y9  1  0.240154  0.999682  0.250000  1
  Sn  Sn10  1  0.395065  0.000353  0.750000  1
  Sn  Sn11  1  0.605631  0.998903  0.250000  1
  Sn  Sn12  1  0.000416  0.395060  0.750000  1
  Sn  Sn13  1  0.393675  0.393604  0.250000  1
  Sn  Sn14  1  0.999006  0.605862  0.250000  1
  Bi  Bi15  1  0.606747  0.606721  0.750000  1
