# generated using pymatgen
data_Pr5InSnRu3
_symmetry_space_group_name_H-M   'P 1'
_cell_length_a   8.78428692
_cell_length_b   8.78428669
_cell_length_c   8.77498575
_cell_angle_alpha   109.47399094
_cell_angle_beta   109.47292677
_cell_angle_gamma   109.50965388
_symmetry_Int_Tables_number   1
_chemical_formula_structural   Pr5InSnRu3
_chemical_formula_sum   'Pr10 In2 Sn2 Ru6'
_cell_volume   520.96350398
_cell_formula_units_Z   2
loop_
 _symmetry_equiv_pos_site_id
 _symmetry_equiv_pos_as_xyz
  1  'x, y, z'
loop_
 _atom_site_type_symbol
 _atom_site_label
 _atom_site_symmetry_multiplicity
 _atom_site_fract_x
 _atom_site_fract_y
 _atom_site_fract_z
 _atom_site_occupancy
  Pr  Pr0  1  0.250778  0.686957  0.434007  1
  Pr  Pr1  1  0.752950  0.816772  0.065993  1
  Pr  Pr2  1  0.433792  0.248037  0.683746  1
  Pr  Pr3  1  0.683336  0.433336  0.250000  1
  Pr  Pr4  1  0.064291  0.750046  0.816254  1
  Pr  Pr5  1  0.813759  0.063759  0.750000  1
  Pr  Pr6  1  0.210583  0.211425  0.210561  1
  Pr  Pr7  1  0.500865  0.000023  0.289439  1
  Pr  Pr8  1  0.291632  0.500020  0.999145  1
  Pr  Pr9  1  0.000875  0.292486  0.500855  1
  In  In10  1  0.907724  0.499057  0.999918  1
  In  In11  1  0.999140  0.907807  0.500082  1
  Sn  Sn12  1  0.594890  0.594867  0.595634  1
  Sn  Sn13  1  0.499232  0.999256  0.904366  1
  Ru  Ru14  1  0.252643  0.130376  0.884098  1
  Ru  Ru15  1  0.746278  0.368545  0.615902  1
  Ru  Ru16  1  0.876975  0.246366  0.131436  1
  Ru  Ru17  1  0.133439  0.883438  0.250000  1
  Ru  Ru18  1  0.614931  0.745540  0.368564  1
  Ru  Ru19  1  0.371885  0.621885  0.750000  1
