# generated using pymatgen
data_Ho4As6Ir2Rh5
_symmetry_space_group_name_H-M   'P 1'
_cell_length_a   7.28176153
_cell_length_b   7.28530115
_cell_length_c   7.28176029
_cell_angle_alpha   109.44518807
_cell_angle_beta   109.50362277
_cell_angle_gamma   109.44518548
_symmetry_Int_Tables_number   1
_chemical_formula_structural   Ho4As6Ir2Rh5
_chemical_formula_sum   'Ho4 As6 Ir2 Rh5'
_cell_volume   297.44295985
_cell_formula_units_Z   1
loop_
 _symmetry_equiv_pos_site_id
 _symmetry_equiv_pos_as_xyz
  1  'x, y, z'
loop_
 _atom_site_type_symbol
 _atom_site_label
 _atom_site_symmetry_multiplicity
 _atom_site_fract_x
 _atom_site_fract_y
 _atom_site_fract_z
 _atom_site_occupancy
  Ho  Ho0  1  0.500003  0.500000  0.499997  1
  Ho  Ho1  1  0.000003  0.500000  0.999997  1
  Ho  Ho2  1  0.499978  0.000000  0.000059  1
  Ho  Ho3  1  0.999941  0.000000  0.500022  1
  As  As4  1  0.681220  0.000000  0.681962  1
  As  As5  1  0.681384  0.681051  0.999667  1
  As  As6  1  0.318723  0.318266  0.999543  1
  As  As7  1  0.000457  0.681734  0.681277  1
  As  As8  1  0.000333  0.318949  0.318616  1
  As  As9  1  0.318038  0.000000  0.318780  1
  Ir  Ir10  1  0.500369  0.749991  0.249622  1
  Ir  Ir11  1  0.750378  0.250009  0.499631  1
  Rh  Rh12  1  0.249698  0.749318  0.499620  1
  Rh  Rh13  1  0.249586  0.500000  0.750414  1
  Rh  Rh14  1  0.999923  0.000000  0.000077  1
  Rh  Rh15  1  0.500380  0.250682  0.750302  1
  Rh  Rh16  1  0.749586  0.500000  0.250414  1
