# generated using pymatgen
data_Ca4TbNd15Sn16
_symmetry_space_group_name_H-M   'P 1'
_cell_length_a   8.12266696
_cell_length_b   8.51403784
_cell_length_c   16.21406600
_cell_angle_alpha   90.14659703
_cell_angle_beta   89.83678864
_cell_angle_gamma   90.04830499
_symmetry_Int_Tables_number   1
_chemical_formula_structural   Ca4TbNd15Sn16
_chemical_formula_sum   'Ca4 Tb1 Nd15 Sn16'
_cell_volume   1121.30258688
_cell_formula_units_Z   1
loop_
 _symmetry_equiv_pos_site_id
 _symmetry_equiv_pos_as_xyz
  1  'x, y, z'
loop_
 _atom_site_type_symbol
 _atom_site_label
 _atom_site_symmetry_multiplicity
 _atom_site_fract_x
 _atom_site_fract_y
 _atom_site_fract_z
 _atom_site_occupancy
  Ca  Ca0  1  0.169269  0.494469  0.749992  1
  Ca  Ca1  1  0.669920  0.005380  0.750033  1
  Ca  Ca2  1  0.830995  0.504758  0.250254  1
  Ca  Ca3  1  0.331124  0.993590  0.249482  1
  Tb  Tb4  1  0.336421  0.828779  0.874211  1
  Nd  Nd5  1  0.840193  0.671481  0.625542  1
  Nd  Nd6  1  0.658277  0.171125  0.375556  1
  Nd  Nd7  1  0.162173  0.327474  0.122586  1
  Nd  Nd8  1  0.662956  0.171158  0.123326  1
  Nd  Nd9  1  0.159252  0.328146  0.375584  1
  Nd  Nd10  1  0.341957  0.829126  0.625372  1
  Nd  Nd11  1  0.839151  0.673404  0.876258  1
  Nd  Nd12  1  0.494622  0.319583  0.904145  1
  Nd  Nd13  1  0.996252  0.182239  0.597407  1
  Nd  Nd14  1  0.505256  0.683371  0.404274  1
  Nd  Nd15  1  0.006157  0.815019  0.095694  1
  Nd  Nd16  1  0.504307  0.681049  0.094629  1
  Nd  Nd17  1  0.004730  0.818314  0.404116  1
  Nd  Nd18  1  0.495195  0.317011  0.597232  1
  Nd  Nd19  1  0.993848  0.183673  0.903678  1
  Sn  Sn20  1  0.322518  0.034618  0.034384  1
  Sn  Sn21  1  0.819641  0.462079  0.463790  1
  Sn  Sn22  1  0.683724  0.961280  0.536589  1
  Sn  Sn23  1  0.181988  0.541040  0.961469  1
  Sn  Sn24  1  0.668239  0.962475  0.960540  1
  Sn  Sn25  1  0.180522  0.538463  0.537156  1
  Sn  Sn26  1  0.317942  0.039102  0.464337  1
  Sn  Sn27  1  0.822324  0.462662  0.036702  1
  Sn  Sn28  1  0.535435  0.607690  0.752006  1
  Sn  Sn29  1  0.038860  0.895442  0.752426  1
  Sn  Sn30  1  0.462930  0.395044  0.249735  1
  Sn  Sn31  1  0.963401  0.103258  0.249477  1
  Sn  Sn32  1  0.299731  0.139316  0.752063  1
  Sn  Sn33  1  0.797051  0.360373  0.751437  1
  Sn  Sn34  1  0.701896  0.858198  0.249329  1
  Sn  Sn35  1  0.201747  0.639816  0.249189  1
