# generated using pymatgen
data_PrSmAl20Os3Rh
_symmetry_space_group_name_H-M   'P 1'
_cell_length_a   6.88094302
_cell_length_b   6.88929119
_cell_length_c   9.19645811
_cell_angle_alpha   90.25243593
_cell_angle_beta   90.08821236
_cell_angle_gamma   96.71869331
_symmetry_Int_Tables_number   1
_chemical_formula_structural   PrSmAl20Os3Rh
_chemical_formula_sum   'Pr1 Sm1 Al20 Os3 Rh1'
_cell_volume   432.95739601
_cell_formula_units_Z   1
loop_
 _symmetry_equiv_pos_site_id
 _symmetry_equiv_pos_as_xyz
  1  'x, y, z'
loop_
 _atom_site_type_symbol
 _atom_site_label
 _atom_site_symmetry_multiplicity
 _atom_site_fract_x
 _atom_site_fract_y
 _atom_site_fract_z
 _atom_site_occupancy
  Pr  Pr0  1  0.126858  0.874873  0.250351  1
  Sm  Sm1  1  0.871491  0.126292  0.749907  1
  Al  Al2  1  0.620536  0.376450  0.552263  1
  Al  Al3  1  0.380257  0.622885  0.448674  1
  Al  Al4  1  0.378064  0.622607  0.049106  1
  Al  Al5  1  0.622651  0.376708  0.949956  1
  Al  Al6  1  0.226318  0.226252  0.500300  1
  Al  Al7  1  0.773366  0.774118  0.501363  1
  Al  Al8  1  0.775311  0.775913  0.998424  1
  Al  Al9  1  0.224446  0.224340  0.999965  1
  Al  Al10  1  0.841088  0.159420  0.100934  1
  Al  Al11  1  0.158005  0.841448  0.897978  1
  Al  Al12  1  0.159668  0.841515  0.604123  1
  Al  Al13  1  0.839539  0.159554  0.396937  1
  Al  Al14  1  0.856401  0.586829  0.750133  1
  Al  Al15  1  0.143307  0.411404  0.249781  1
  Al  Al16  1  0.411759  0.142727  0.750451  1
  Al  Al17  1  0.589893  0.857543  0.249548  1
  Al  Al18  1  0.221284  0.482171  0.752377  1
  Al  Al19  1  0.777751  0.516669  0.247524  1
  Al  Al20  1  0.517704  0.781352  0.749382  1
  Al  Al21  1  0.483455  0.219568  0.250599  1
  Os  Os22  1  0.999810  0.499419  0.999321  1
  Os  Os23  1  0.500557  0.000167  0.999279  1
  Os  Os24  1  0.500592  0.000169  0.500718  1
  Rh  Rh25  1  0.999888  0.499608  0.500603  1
