# generated using pymatgen
data_HoTm4InPd4
_symmetry_space_group_name_H-M   'P 1'
_cell_length_a   7.78057500
_cell_length_b   7.78057500
_cell_length_c   3.68660900
_cell_angle_alpha   90.00000000
_cell_angle_beta   90.00000000
_cell_angle_gamma   90.00000000
_symmetry_Int_Tables_number   1
_chemical_formula_structural   HoTm4InPd4
_chemical_formula_sum   'Ho1 Tm4 In1 Pd4'
_cell_volume   223.17752951
_cell_formula_units_Z   1
loop_
 _symmetry_equiv_pos_site_id
 _symmetry_equiv_pos_as_xyz
  1  'x, y, z'
loop_
 _atom_site_type_symbol
 _atom_site_label
 _atom_site_symmetry_multiplicity
 _atom_site_fract_x
 _atom_site_fract_y
 _atom_site_fract_z
 _atom_site_occupancy
  Ho  Ho0  1  0.000000  0.000000  0.000000  1
  Tm  Tm1  1  0.356518  0.817167  0.500000  1
  Tm  Tm2  1  0.817167  0.643482  0.500000  1
  Tm  Tm3  1  0.182833  0.356518  0.500000  1
  Tm  Tm4  1  0.643482  0.182833  0.500000  1
  In  In5  1  0.500000  0.500000  0.000000  1
  Pd  Pd6  1  0.358668  0.122947  0.000000  1
  Pd  Pd7  1  0.877053  0.358668  0.000000  1
  Pd  Pd8  1  0.122947  0.641332  0.000000  1
  Pd  Pd9  1  0.641332  0.877053  0.000000  1
