# generated using pymatgen
data_Pr8EuRh6
_symmetry_space_group_name_H-M   'P 1'
_cell_length_a   7.67600446
_cell_length_b   7.67600554
_cell_length_c   7.67600589
_cell_angle_alpha   71.43786252
_cell_angle_beta   71.43787169
_cell_angle_gamma   71.43785754
_symmetry_Int_Tables_number   1
_chemical_formula_structural   Pr8EuRh6
_chemical_formula_sum   'Pr8 Eu1 Rh6'
_cell_volume   394.41927668
_cell_formula_units_Z   1
loop_
 _symmetry_equiv_pos_site_id
 _symmetry_equiv_pos_as_xyz
  1  'x, y, z'
loop_
 _atom_site_type_symbol
 _atom_site_label
 _atom_site_symmetry_multiplicity
 _atom_site_fract_x
 _atom_site_fract_y
 _atom_site_fract_z
 _atom_site_occupancy
  Pr  Pr0  1  0.798127  0.798127  0.798127  1
  Pr  Pr1  1  0.201873  0.201873  0.201873  1
  Pr  Pr2  1  0.162175  0.389587  0.667290  1
  Pr  Pr3  1  0.667290  0.162175  0.389587  1
  Pr  Pr4  1  0.389587  0.667290  0.162175  1
  Pr  Pr5  1  0.837825  0.610413  0.332710  1
  Pr  Pr6  1  0.332710  0.837825  0.610413  1
  Pr  Pr7  1  0.610413  0.332710  0.837825  1
  Eu  Eu8  1  0.000000  0.000000  0.000000  1
  Rh  Rh9  1  0.956180  0.166034  0.585624  1
  Rh  Rh10  1  0.585624  0.956180  0.166034  1
  Rh  Rh11  1  0.166034  0.585624  0.956180  1
  Rh  Rh12  1  0.043820  0.833966  0.414376  1
  Rh  Rh13  1  0.414376  0.043820  0.833966  1
  Rh  Rh14  1  0.833966  0.414376  0.043820  1
