# generated using pymatgen
data_Ce20Si15P
_symmetry_space_group_name_H-M   'P 1'
_cell_length_a   7.67599555
_cell_length_b   7.66852389
_cell_length_c   14.86864600
_cell_angle_alpha   90.08561655
_cell_angle_beta   89.77622032
_cell_angle_gamma   90.05375559
_symmetry_Int_Tables_number   1
_chemical_formula_structural   Ce20Si15P
_chemical_formula_sum   'Ce20 Si15 P1'
_cell_volume   875.21333246
_cell_formula_units_Z   1
loop_
 _symmetry_equiv_pos_site_id
 _symmetry_equiv_pos_as_xyz
  1  'x, y, z'
loop_
 _atom_site_type_symbol
 _atom_site_label
 _atom_site_symmetry_multiplicity
 _atom_site_fract_x
 _atom_site_fract_y
 _atom_site_fract_z
 _atom_site_occupancy
  Ce  Ce0  1  0.366444  0.488464  0.374672  1
  Ce  Ce1  1  0.873504  0.006328  0.378693  1
  Ce  Ce2  1  0.985787  0.130523  0.123687  1
  Ce  Ce3  1  0.015700  0.869113  0.621186  1
  Ce  Ce4  1  0.630705  0.514433  0.873243  1
  Ce  Ce5  1  0.484477  0.368922  0.625310  1
  Ce  Ce6  1  0.513885  0.628843  0.126694  1
  Ce  Ce7  1  0.129831  0.985268  0.876725  1
  Ce  Ce8  1  0.990857  0.628395  0.048981  1
  Ce  Ce9  1  0.010141  0.374355  0.546519  1
  Ce  Ce10  1  0.628616  0.990342  0.951467  1
  Ce  Ce11  1  0.127284  0.509426  0.798416  1
  Ce  Ce12  1  0.874035  0.494005  0.300449  1
  Ce  Ce13  1  0.509324  0.129725  0.202495  1
  Ce  Ce14  1  0.492663  0.874152  0.700591  1
  Ce  Ce15  1  0.370607  0.007585  0.451535  1
  Ce  Ce16  1  0.694173  0.691970  0.499249  1
  Ce  Ce17  1  0.806757  0.194446  0.750112  1
  Ce  Ce18  1  0.191323  0.808226  0.252056  1
  Ce  Ce19  1  0.306488  0.307118  0.999910  1
  Si  Si20  1  0.926504  0.290887  0.938468  1
  Si  Si21  1  0.710183  0.074306  0.560791  1
  Si  Si22  1  0.208521  0.427148  0.190021  1
  Si  Si23  1  0.791563  0.573210  0.688036  1
  Si  Si24  1  0.425612  0.209996  0.810541  1
  Si  Si25  1  0.572175  0.791378  0.311350  1
  Si  Si26  1  0.291066  0.925450  0.062061  1
  Si  Si27  1  0.835401  0.805760  0.798993  1
  Si  Si28  1  0.163492  0.196124  0.302085  1
  Si  Si29  1  0.803988  0.835333  0.199624  1
  Si  Si30  1  0.309581  0.666451  0.552092  1
  Si  Si31  1  0.695305  0.334158  0.050246  1
  Si  Si32  1  0.664538  0.301717  0.447178  1
  Si  Si33  1  0.334711  0.694955  0.949199  1
  Si  Si34  1  0.192947  0.165826  0.699111  1
  P  P35  1  0.071819  0.705659  0.438214  1
