# generated using pymatgen
data_Tm2Mg3P12IrRu18
_symmetry_space_group_name_H-M   'P 1'
_cell_length_a   12.43167600
_cell_length_b   12.43167703
_cell_length_c   3.96930500
_cell_angle_alpha   90.00000000
_cell_angle_beta   90.00000000
_cell_angle_gamma   119.99999192
_symmetry_Int_Tables_number   1
_chemical_formula_structural   Tm2Mg3P12IrRu18
_chemical_formula_sum   'Tm2 Mg3 P12 Ir1 Ru18'
_cell_volume   531.25684657
_cell_formula_units_Z   1
loop_
 _symmetry_equiv_pos_site_id
 _symmetry_equiv_pos_as_xyz
  1  'x, y, z'
loop_
 _atom_site_type_symbol
 _atom_site_label
 _atom_site_symmetry_multiplicity
 _atom_site_fract_x
 _atom_site_fract_y
 _atom_site_fract_z
 _atom_site_occupancy
  Tm  Tm0  1  0.333333  0.666667  0.500000  1
  Tm  Tm1  1  0.666667  0.333333  0.500000  1
  Mg  Mg2  1  0.181506  0.181506  0.000000  1
  Mg  Mg3  1  0.818494  0.000000  0.000000  1
  Mg  Mg4  1  0.000000  0.818494  0.000000  1
  P  P5  1  0.303149  0.829540  0.000000  1
  P  P6  1  0.170460  0.473608  0.000000  1
  P  P7  1  0.526392  0.696851  0.000000  1
  P  P8  1  0.829540  0.303149  0.000000  1
  P  P9  1  0.473608  0.170460  0.000000  1
  P  P10  1  0.696851  0.526392  0.000000  1
  P  P11  1  0.379994  0.379994  0.500000  1
  P  P12  1  0.620006  0.000000  0.500000  1
  P  P13  1  0.000000  0.620006  0.500000  1
  P  P14  1  0.817957  0.817957  0.500000  1
  P  P15  1  0.182043  0.000000  0.500000  1
  P  P16  1  0.000000  0.182043  0.500000  1
  Ir  Ir17  1  0.000000  0.000000  0.500000  1
  Ru  Ru18  1  0.182018  0.811813  0.500000  1
  Ru  Ru19  1  0.188187  0.370205  0.500000  1
  Ru  Ru20  1  0.629795  0.817982  0.500000  1
  Ru  Ru21  1  0.811813  0.182018  0.500000  1
  Ru  Ru22  1  0.370205  0.188187  0.500000  1
  Ru  Ru23  1  0.817982  0.629795  0.500000  1
  Ru  Ru24  1  0.127097  0.631861  0.000000  1
  Ru  Ru25  1  0.368139  0.495236  0.000000  1
  Ru  Ru26  1  0.504764  0.872903  0.000000  1
  Ru  Ru27  1  0.631861  0.127097  0.000000  1
  Ru  Ru28  1  0.495236  0.368139  0.000000  1
  Ru  Ru29  1  0.872903  0.504764  0.000000  1
  Ru  Ru30  1  0.560576  0.560576  0.500000  1
  Ru  Ru31  1  0.439424  0.000000  0.500000  1
  Ru  Ru32  1  0.000000  0.439424  0.500000  1
  Ru  Ru33  1  0.724968  0.724968  0.000000  1
  Ru  Ru34  1  0.275032  0.000000  0.000000  1
  Ru  Ru35  1  0.000000  0.275032  0.000000  1
