# generated using pymatgen
data_Dy13Y7(Cd3Fe)2
_symmetry_space_group_name_H-M   'P 1'
_cell_length_a   9.59154103
_cell_length_b   9.59154150
_cell_length_c   9.78781200
_cell_angle_alpha   90.00000000
_cell_angle_beta   90.00000000
_cell_angle_gamma   119.99135118
_symmetry_Int_Tables_number   1
_chemical_formula_structural   Dy13Y7(Cd3Fe)2
_chemical_formula_sum   'Dy13 Y7 Cd6 Fe2'
_cell_volume   779.88558372
_cell_formula_units_Z   1
loop_
 _symmetry_equiv_pos_site_id
 _symmetry_equiv_pos_as_xyz
  1  'x, y, z'
loop_
 _atom_site_type_symbol
 _atom_site_label
 _atom_site_symmetry_multiplicity
 _atom_site_fract_x
 _atom_site_fract_y
 _atom_site_fract_z
 _atom_site_occupancy
  Dy  Dy0  1  0.541401  0.458599  0.250000  1
  Dy  Dy1  1  0.212416  0.787584  0.435746  1
  Dy  Dy2  1  0.212553  0.424808  0.435669  1
  Dy  Dy3  1  0.575192  0.787447  0.435669  1
  Dy  Dy4  1  0.787629  0.212371  0.564302  1
  Dy  Dy5  1  0.787495  0.575175  0.564153  1
  Dy  Dy6  1  0.424825  0.212505  0.564153  1
  Dy  Dy7  1  0.787629  0.212371  0.935698  1
  Dy  Dy8  1  0.787495  0.575175  0.935847  1
  Dy  Dy9  1  0.424825  0.212505  0.935847  1
  Dy  Dy10  1  0.212416  0.787584  0.064254  1
  Dy  Dy11  1  0.212553  0.424808  0.064331  1
  Dy  Dy12  1  0.575192  0.787447  0.064331  1
  Y  Y13  1  0.000047  0.999953  0.500072  1
  Y  Y14  1  0.000047  0.999953  0.999928  1
  Y  Y15  1  0.541518  0.083129  0.250000  1
  Y  Y16  1  0.916871  0.458482  0.250000  1
  Y  Y17  1  0.458567  0.541433  0.750000  1
  Y  Y18  1  0.458521  0.917105  0.750000  1
  Y  Y19  1  0.082895  0.541479  0.750000  1
  Cd  Cd20  1  0.885306  0.114694  0.250000  1
  Cd  Cd21  1  0.885133  0.770475  0.250000  1
  Cd  Cd22  1  0.229525  0.114867  0.250000  1
  Cd  Cd23  1  0.114698  0.885302  0.750000  1
  Cd  Cd24  1  0.114670  0.229392  0.750000  1
  Cd  Cd25  1  0.770608  0.885330  0.750000  1
  Fe  Fe26  1  0.333336  0.666664  0.250000  1
  Fe  Fe27  1  0.666637  0.333363  0.750000  1
