# generated using pymatgen
data_K6LuTlF12
_symmetry_space_group_name_H-M   'P 1'
_cell_length_a   6.58773806
_cell_length_b   6.36876121
_cell_length_c   11.08653300
_cell_angle_alpha   55.27089138
_cell_angle_beta   90.00764496
_cell_angle_gamma   89.98503109
_symmetry_Int_Tables_number   1
_chemical_formula_structural   K6LuTlF12
_chemical_formula_sum   'K6 Lu1 Tl1 F12'
_cell_volume   382.28041944
_cell_formula_units_Z   1
loop_
 _symmetry_equiv_pos_site_id
 _symmetry_equiv_pos_as_xyz
  1  'x, y, z'
loop_
 _atom_site_type_symbol
 _atom_site_label
 _atom_site_symmetry_multiplicity
 _atom_site_fract_x
 _atom_site_fract_y
 _atom_site_fract_z
 _atom_site_occupancy
  K  K0  1  0.500000  0.500000  0.000000  1
  K  K1  1  0.000000  0.500000  0.500000  1
  K  K2  1  0.050282  0.731745  0.756031  1
  K  K3  1  0.949718  0.268255  0.243969  1
  K  K4  1  0.551025  0.266483  0.748308  1
  K  K5  1  0.448975  0.733517  0.251692  1
  Lu  Lu6  1  0.000000  0.000000  0.000000  1
  Tl  Tl7  1  0.500000  0.000000  0.500000  1
  F  F8  1  0.776622  0.761532  0.568775  1
  F  F9  1  0.223378  0.238468  0.431225  1
  F  F10  1  0.267252  0.230401  0.934541  1
  F  F11  1  0.732748  0.769599  0.065459  1
  F  F12  1  0.444352  0.884845  0.726564  1
  F  F13  1  0.555648  0.115155  0.273436  1
  F  F14  1  0.947747  0.113000  0.780651  1
  F  F15  1  0.052253  0.887000  0.219349  1
  F  F16  1  0.323739  0.666312  0.551001  1
  F  F17  1  0.676261  0.333688  0.448999  1
  F  F18  1  0.826525  0.321124  0.952318  1
  F  F19  1  0.173475  0.678876  0.047682  1
