# generated using pymatgen
data_Dy8Y4TlZnCo4
_symmetry_space_group_name_H-M   'P 1'
_cell_length_a   8.38875270
_cell_length_b   8.38875290
_cell_length_c   8.38875200
_cell_angle_alpha   109.62532444
_cell_angle_beta   111.44422630
_cell_angle_gamma   107.36973503
_symmetry_Int_Tables_number   1
_chemical_formula_structural   Dy8Y4TlZnCo4
_chemical_formula_sum   'Dy8 Y4 Tl1 Zn1 Co4'
_cell_volume   453.85803760
_cell_formula_units_Z   1
loop_
 _symmetry_equiv_pos_site_id
 _symmetry_equiv_pos_as_xyz
  1  'x, y, z'
loop_
 _atom_site_type_symbol
 _atom_site_label
 _atom_site_symmetry_multiplicity
 _atom_site_fract_x
 _atom_site_fract_y
 _atom_site_fract_z
 _atom_site_occupancy
  Dy  Dy0  1  0.289030  0.184473  0.473502  1
  Dy  Dy1  1  0.710970  0.815527  0.526498  1
  Dy  Dy2  1  0.289030  0.815527  0.104559  1
  Dy  Dy3  1  0.710970  0.184473  0.895441  1
  Dy  Dy4  1  0.620072  0.315288  0.304784  1
  Dy  Dy5  1  0.379928  0.684712  0.695216  1
  Dy  Dy6  1  0.010505  0.315288  0.695216  1
  Dy  Dy7  1  0.989495  0.684712  0.304784  1
  Y  Y8  1  0.221904  0.425280  0.203375  1
  Y  Y9  1  0.778096  0.574720  0.796625  1
  Y  Y10  1  0.221904  0.018529  0.796625  1
  Y  Y11  1  0.778096  0.981471  0.203375  1
  Tl  Tl12  1  0.500000  0.500000  0.000000  1
  Zn  Zn13  1  0.000000  0.000000  0.000000  1
  Co  Co14  1  0.000000  0.380528  0.380528  1
  Co  Co15  1  0.000000  0.619472  0.619472  1
  Co  Co16  1  0.388446  0.888446  0.500000  1
  Co  Co17  1  0.611554  0.111554  0.500000  1
