# generated using pymatgen
data_Sr6NpSbO12
_symmetry_space_group_name_H-M   'P 1'
_cell_length_a   7.01785505
_cell_length_b   7.01785475
_cell_length_c   7.01785574
_cell_angle_alpha   92.25179925
_cell_angle_beta   92.25180914
_cell_angle_gamma   92.25180054
_symmetry_Int_Tables_number   1
_chemical_formula_structural   Sr6NpSbO12
_chemical_formula_sum   'Sr6 Np1 Sb1 O12'
_cell_volume   344.80908814
_cell_formula_units_Z   1
loop_
 _symmetry_equiv_pos_site_id
 _symmetry_equiv_pos_as_xyz
  1  'x, y, z'
loop_
 _atom_site_type_symbol
 _atom_site_label
 _atom_site_symmetry_multiplicity
 _atom_site_fract_x
 _atom_site_fract_y
 _atom_site_fract_z
 _atom_site_occupancy
  Sr  Sr0  1  0.069111  0.264758  0.559549  1
  Sr  Sr1  1  0.440451  0.930889  0.735242  1
  Sr  Sr2  1  0.735242  0.440451  0.930889  1
  Sr  Sr3  1  0.264758  0.559549  0.069111  1
  Sr  Sr4  1  0.559549  0.069111  0.264758  1
  Sr  Sr5  1  0.930889  0.735242  0.440451  1
  Np  Np6  1  0.000000  0.000000  0.000000  1
  Sb  Sb7  1  0.500000  0.500000  0.500000  1
  O  O8  1  0.060739  0.276935  0.940064  1
  O  O9  1  0.059936  0.939261  0.723065  1
  O  O10  1  0.452669  0.579070  0.777679  1
  O  O11  1  0.723065  0.059936  0.939261  1
  O  O12  1  0.222321  0.547331  0.420930  1
  O  O13  1  0.420930  0.222321  0.547331  1
  O  O14  1  0.579070  0.777679  0.452669  1
  O  O15  1  0.777679  0.452669  0.579070  1
  O  O16  1  0.276935  0.940064  0.060739  1
  O  O17  1  0.547331  0.420930  0.222321  1
  O  O18  1  0.940064  0.060739  0.276935  1
  O  O19  1  0.939261  0.723065  0.059936  1
