# generated using pymatgen
data_Al3V6NiN2
_symmetry_space_group_name_H-M   'P 1'
_cell_length_a   6.57677108
_cell_length_b   6.57513217
_cell_length_c   6.58041100
_cell_angle_alpha   90.00000000
_cell_angle_beta   90.00000000
_cell_angle_gamma   90.14730718
_symmetry_Int_Tables_number   1
_chemical_formula_structural   Al3V6NiN2
_chemical_formula_sum   'Al6 V12 Ni2 N4'
_cell_volume   284.55668797
_cell_formula_units_Z   2
loop_
 _symmetry_equiv_pos_site_id
 _symmetry_equiv_pos_as_xyz
  1  'x, y, z'
loop_
 _atom_site_type_symbol
 _atom_site_label
 _atom_site_symmetry_multiplicity
 _atom_site_fract_x
 _atom_site_fract_y
 _atom_site_fract_z
 _atom_site_occupancy
  Al  Al0  1  0.823517  0.320818  0.176728  1
  Al  Al1  1  0.676483  0.679182  0.676728  1
  Al  Al2  1  0.556275  0.415655  0.923431  1
  Al  Al3  1  0.414027  0.936474  0.569803  1
  Al  Al4  1  0.943725  0.584345  0.423431  1
  Al  Al5  1  0.085973  0.063526  0.069803  1
  V  V6  1  0.790137  0.960171  0.376382  1
  V  V7  1  0.709863  0.039829  0.876382  1
  V  V8  1  0.208866  0.459358  0.127775  1
  V  V9  1  0.291134  0.540642  0.627775  1
  V  V10  1  0.960748  0.377471  0.789680  1
  V  V11  1  0.040197  0.871084  0.709517  1
  V  V12  1  0.459803  0.128916  0.209517  1
  V  V13  1  0.539252  0.622529  0.289680  1
  V  V14  1  0.377528  0.789495  0.959837  1
  V  V15  1  0.872118  0.709731  0.039895  1
  V  V16  1  0.122472  0.210505  0.459837  1
  V  V17  1  0.627882  0.290269  0.539895  1
  Ni  Ni18  1  0.183180  0.825383  0.318872  1
  Ni  Ni19  1  0.316820  0.174617  0.818872  1
  N  N20  1  0.878229  0.122193  0.628083  1
  N  N21  1  0.621771  0.877807  0.128083  1
  N  N22  1  0.126361  0.625286  0.879996  1
  N  N23  1  0.373639  0.374714  0.379996  1
