# generated using pymatgen
data_Ho4Er15Lu(CoSb2)4
_symmetry_space_group_name_H-M   'P 1'
_cell_length_a   7.80387148
_cell_length_b   8.72161922
_cell_length_c   12.08511172
_cell_angle_alpha   90.01777488
_cell_angle_beta   89.96464014
_cell_angle_gamma   89.98099555
_symmetry_Int_Tables_number   1
_chemical_formula_structural   Ho4Er15Lu(CoSb2)4
_chemical_formula_sum   'Ho4 Er15 Lu1 Co4 Sb8'
_cell_volume   822.54141232
_cell_formula_units_Z   1
loop_
 _symmetry_equiv_pos_site_id
 _symmetry_equiv_pos_as_xyz
  1  'x, y, z'
loop_
 _atom_site_type_symbol
 _atom_site_label
 _atom_site_symmetry_multiplicity
 _atom_site_fract_x
 _atom_site_fract_y
 _atom_site_fract_z
 _atom_site_occupancy
  Ho  Ho0  1  0.622686  0.749985  0.307409  1
  Ho  Ho1  1  0.122379  0.249879  0.192445  1
  Ho  Ho2  1  0.377353  0.249988  0.692591  1
  Ho  Ho3  1  0.877208  0.750178  0.807603  1
  Er  Er4  1  0.156627  0.750113  0.204060  1
  Er  Er5  1  0.656953  0.249945  0.295809  1
  Er  Er6  1  0.843130  0.249946  0.795970  1
  Er  Er7  1  0.343115  0.750010  0.704083  1
  Er  Er8  1  0.451853  0.750123  0.997999  1
  Er  Er9  1  0.951788  0.249999  0.502027  1
  Er  Er10  1  0.548525  0.249795  0.002036  1
  Er  Er11  1  0.048278  0.750015  0.497987  1
  Er  Er12  1  0.322928  0.036947  0.434347  1
  Er  Er13  1  0.177059  0.463128  0.934405  1
  Er  Er14  1  0.677042  0.537091  0.565637  1
  Er  Er15  1  0.176688  0.036874  0.934511  1
  Er  Er16  1  0.677046  0.962941  0.565666  1
  Er  Er17  1  0.823032  0.537104  0.065648  1
  Er  Er18  1  0.322941  0.463061  0.434340  1
  Lu  Lu19  1  0.824179  0.963001  0.065429  1
  Co  Co20  1  0.431596  0.749993  0.490574  1
  Co  Co21  1  0.931330  0.249712  0.009441  1
  Co  Co22  1  0.568388  0.249993  0.509424  1
  Co  Co23  1  0.067840  0.750347  0.990740  1
  Sb  Sb24  1  0.930437  0.991517  0.327216  1
  Sb  Sb25  1  0.430868  0.008371  0.172548  1
  Sb  Sb26  1  0.069435  0.491535  0.672692  1
  Sb  Sb27  1  0.569443  0.508470  0.827358  1
  Sb  Sb28  1  0.069450  0.008426  0.672672  1
  Sb  Sb29  1  0.569329  0.991518  0.827338  1
  Sb  Sb30  1  0.930528  0.508455  0.327344  1
  Sb  Sb31  1  0.430543  0.491538  0.172650  1
