# generated using pymatgen
data_LiDy2Co8P6Os
_symmetry_space_group_name_H-M   'P 1'
_cell_length_a   3.69744300
_cell_length_b   10.33529400
_cell_length_c   11.80960700
_cell_angle_alpha   90.00000000
_cell_angle_beta   90.00000000
_cell_angle_gamma   90.00000000
_symmetry_Int_Tables_number   1
_chemical_formula_structural   LiDy2Co8P6Os
_chemical_formula_sum   'Li2 Dy4 Co16 P12 Os2'
_cell_volume   451.29421679
_cell_formula_units_Z   2
loop_
 _symmetry_equiv_pos_site_id
 _symmetry_equiv_pos_as_xyz
  1  'x, y, z'
loop_
 _atom_site_type_symbol
 _atom_site_label
 _atom_site_symmetry_multiplicity
 _atom_site_fract_x
 _atom_site_fract_y
 _atom_site_fract_z
 _atom_site_occupancy
  Li  Li0  1  0.750000  0.297115  0.009202  1
  Li  Li1  1  0.750000  0.202885  0.509202  1
  Dy  Dy2  1  0.250000  0.581152  0.702290  1
  Dy  Dy3  1  0.250000  0.918848  0.202290  1
  Dy  Dy4  1  0.750000  0.415399  0.295736  1
  Dy  Dy5  1  0.750000  0.084601  0.795736  1
  Co  Co6  1  0.250000  0.408827  0.486326  1
  Co  Co7  1  0.250000  0.091173  0.986326  1
  Co  Co8  1  0.750000  0.594989  0.510416  1
  Co  Co9  1  0.750000  0.905011  0.010416  1
  Co  Co10  1  0.250000  0.217507  0.175660  1
  Co  Co11  1  0.250000  0.282493  0.675660  1
  Co  Co12  1  0.750000  0.776681  0.823727  1
  Co  Co13  1  0.750000  0.723319  0.323727  1
  Co  Co14  1  0.250000  0.884954  0.702309  1
  Co  Co15  1  0.250000  0.615046  0.202309  1
  Co  Co16  1  0.750000  0.116021  0.301368  1
  Co  Co17  1  0.750000  0.383979  0.801368  1
  Co  Co18  1  0.250000  0.465347  0.934378  1
  Co  Co19  1  0.250000  0.034653  0.434378  1
  Co  Co20  1  0.750000  0.536095  0.069446  1
  Co  Co21  1  0.750000  0.963905  0.569446  1
  P  P22  1  0.250000  0.417692  0.115296  1
  P  P23  1  0.250000  0.082308  0.615296  1
  P  P24  1  0.750000  0.576909  0.887202  1
  P  P25  1  0.750000  0.923091  0.387202  1
  P  P26  1  0.250000  0.271380  0.863435  1
  P  P27  1  0.250000  0.228620  0.363435  1
  P  P28  1  0.750000  0.731009  0.133495  1
  P  P29  1  0.750000  0.768991  0.633495  1
  P  P30  1  0.250000  0.595587  0.391215  1
  P  P31  1  0.250000  0.904413  0.891215  1
  P  P32  1  0.750000  0.398198  0.606984  1
  P  P33  1  0.750000  0.101802  0.106984  1
  Os  Os34  1  0.250000  0.711405  0.991515  1
  Os  Os35  1  0.250000  0.788595  0.491515  1
