# generated using pymatgen
data_TbGdCo2I
_symmetry_space_group_name_H-M   'P 1'
_cell_length_a   3.99054700
_cell_length_b   3.99054805
_cell_length_c   14.91200800
_cell_angle_alpha   90.00000000
_cell_angle_beta   90.00000000
_cell_angle_gamma   119.99999959
_symmetry_Int_Tables_number   1
_chemical_formula_structural   TbGdCo2I
_chemical_formula_sum   'Tb2 Gd2 Co4 I2'
_cell_volume   205.65143114
_cell_formula_units_Z   2
loop_
 _symmetry_equiv_pos_site_id
 _symmetry_equiv_pos_as_xyz
  1  'x, y, z'
loop_
 _atom_site_type_symbol
 _atom_site_label
 _atom_site_symmetry_multiplicity
 _atom_site_fract_x
 _atom_site_fract_y
 _atom_site_fract_z
 _atom_site_occupancy
  Tb  Tb0  1  0.000000  0.000000  0.105271  1
  Tb  Tb1  1  0.000000  0.000000  0.894729  1
  Gd  Gd2  1  0.000000  0.000000  0.607833  1
  Gd  Gd3  1  0.000000  0.000000  0.392167  1
  Co  Co4  1  0.333333  0.666667  0.501685  1
  Co  Co5  1  0.666667  0.333333  0.498315  1
  Co  Co6  1  0.666667  0.333333  0.001056  1
  Co  Co7  1  0.333333  0.666667  0.998944  1
  I  I8  1  0.333333  0.666667  0.250540  1
  I  I9  1  0.666667  0.333333  0.749460  1
