# generated using pymatgen
data_Dy2TmLu3Co2
_symmetry_space_group_name_H-M   'P 1'
_cell_length_a   6.14942090
_cell_length_b   6.88778400
_cell_length_c   9.22002149
_cell_angle_alpha   90.00000000
_cell_angle_beta   90.21452858
_cell_angle_gamma   90.00000000
_symmetry_Int_Tables_number   1
_chemical_formula_structural   Dy2TmLu3Co2
_chemical_formula_sum   'Dy4 Tm2 Lu6 Co4'
_cell_volume   390.51941305
_cell_formula_units_Z   2
loop_
 _symmetry_equiv_pos_site_id
 _symmetry_equiv_pos_as_xyz
  1  'x, y, z'
loop_
 _atom_site_type_symbol
 _atom_site_label
 _atom_site_symmetry_multiplicity
 _atom_site_fract_x
 _atom_site_fract_y
 _atom_site_fract_z
 _atom_site_occupancy
  Dy  Dy0  1  0.862103  0.541125  0.250782  1
  Dy  Dy1  1  0.637897  0.041125  0.249218  1
  Dy  Dy2  1  0.134713  0.458884  0.749879  1
  Dy  Dy3  1  0.365287  0.958884  0.750121  1
  Tm  Tm4  1  0.322820  0.674829  0.067349  1
  Tm  Tm5  1  0.177180  0.174829  0.432651  1
  Lu  Lu6  1  0.675048  0.325073  0.568069  1
  Lu  Lu7  1  0.824952  0.825073  0.931931  1
  Lu  Lu8  1  0.674991  0.325244  0.932629  1
  Lu  Lu9  1  0.825009  0.825244  0.567371  1
  Lu  Lu10  1  0.325591  0.674512  0.433900  1
  Lu  Lu11  1  0.174409  0.174512  0.066100  1
  Co  Co12  1  0.049297  0.887236  0.250343  1
  Co  Co13  1  0.450703  0.387236  0.249657  1
  Co  Co14  1  0.949846  0.113095  0.752503  1
  Co  Co15  1  0.550154  0.613095  0.747497  1
