# generated using pymatgen
data_LiThGe2Rh
_symmetry_space_group_name_H-M   'P 1'
_cell_length_a   6.06466466
_cell_length_b   6.06466485
_cell_length_c   6.06466428
_cell_angle_alpha   139.54873092
_cell_angle_beta   139.54873592
_cell_angle_gamma   58.53913273
_symmetry_Int_Tables_number   1
_chemical_formula_structural   LiThGe2Rh
_chemical_formula_sum   'Li1 Th1 Ge2 Rh1'
_cell_volume   93.02609170
_cell_formula_units_Z   1
loop_
 _symmetry_equiv_pos_site_id
 _symmetry_equiv_pos_as_xyz
  1  'x, y, z'
loop_
 _atom_site_type_symbol
 _atom_site_label
 _atom_site_symmetry_multiplicity
 _atom_site_fract_x
 _atom_site_fract_y
 _atom_site_fract_z
 _atom_site_occupancy
  Li  Li0  1  0.250000  0.750000  0.500000  1
  Th  Th1  1  0.000000  0.000000  0.000000  1
  Ge  Ge2  1  0.619949  0.619949  0.000000  1
  Ge  Ge3  1  0.380051  0.380051  0.000000  1
  Rh  Rh4  1  0.750000  0.250000  0.500000  1
