# generated using pymatgen
data_Li3NdDy4(P3Ir4)4
_symmetry_space_group_name_H-M   'P 1'
_cell_length_a   12.72379603
_cell_length_b   12.72520046
_cell_length_c   3.98460600
_cell_angle_alpha   90.00000000
_cell_angle_beta   90.00000000
_cell_angle_gamma   120.00365077
_symmetry_Int_Tables_number   1
_chemical_formula_structural   Li3NdDy4(P3Ir4)4
_chemical_formula_sum   'Li3 Nd1 Dy4 P12 Ir16'
_cell_volume   558.70347083
_cell_formula_units_Z   1
loop_
 _symmetry_equiv_pos_site_id
 _symmetry_equiv_pos_as_xyz
  1  'x, y, z'
loop_
 _atom_site_type_symbol
 _atom_site_label
 _atom_site_symmetry_multiplicity
 _atom_site_fract_x
 _atom_site_fract_y
 _atom_site_fract_z
 _atom_site_occupancy
  Li  Li0  1  0.000000  0.440754  0.500000  1
  Li  Li1  1  0.558023  0.558217  0.500000  1
  Li  Li2  1  0.441977  0.000195  0.500000  1
  Nd  Nd3  1  0.000000  0.809406  0.000000  1
  Dy  Dy4  1  0.333249  0.666511  0.500000  1
  Dy  Dy5  1  0.666751  0.333261  0.500000  1
  Dy  Dy6  1  0.191506  0.191653  0.000000  1
  Dy  Dy7  1  0.808494  0.000147  0.000000  1
  P  P8  1  0.000000  0.627357  0.500000  1
  P  P9  1  0.370435  0.370351  0.500000  1
  P  P10  1  0.629565  0.999916  0.500000  1
  P  P11  1  0.515703  0.687533  0.000000  1
  P  P12  1  0.312484  0.828885  0.000000  1
  P  P13  1  0.171306  0.483247  0.000000  1
  P  P14  1  0.484297  0.171830  0.000000  1
  P  P15  1  0.687516  0.516400  0.000000  1
  P  P16  1  0.828694  0.311941  0.000000  1
  P  P17  1  0.000000  0.180394  0.500000  1
  P  P18  1  0.818646  0.820303  0.500000  1
  P  P19  1  0.181354  0.001657  0.500000  1
  Ir  Ir20  1  0.509352  0.868274  0.000000  1
  Ir  Ir21  1  0.131902  0.640610  0.000000  1
  Ir  Ir22  1  0.358839  0.490398  0.000000  1
  Ir  Ir23  1  0.490648  0.358921  0.000000  1
  Ir  Ir24  1  0.868098  0.508707  0.000000  1
  Ir  Ir25  1  0.641161  0.131558  0.000000  1
  Ir  Ir26  1  0.000000  0.280312  0.000000  1
  Ir  Ir27  1  0.717721  0.719318  0.000000  1
  Ir  Ir28  1  0.282279  0.001597  0.000000  1
  Ir  Ir29  1  0.626562  0.807670  0.500000  1
  Ir  Ir30  1  0.196806  0.820513  0.500000  1
  Ir  Ir31  1  0.180382  0.373025  0.500000  1
  Ir  Ir32  1  0.373438  0.181108  0.500000  1
  Ir  Ir33  1  0.803194  0.623707  0.500000  1
  Ir  Ir34  1  0.819618  0.192642  0.500000  1
  Ir  Ir35  1  0.000000  0.001681  0.500000  1
