# generated using pymatgen
data_Ho11TmInCo4Rh
_symmetry_space_group_name_H-M   'P 1'
_cell_length_a   8.25900182
_cell_length_b   8.25824600
_cell_length_c   8.25900193
_cell_angle_alpha   110.87214623
_cell_angle_beta   110.70566176
_cell_angle_gamma   106.87041024
_symmetry_Int_Tables_number   1
_chemical_formula_structural   Ho11TmInCo4Rh
_chemical_formula_sum   'Ho11 Tm1 In1 Co4 Rh1'
_cell_volume   432.94464277
_cell_formula_units_Z   1
loop_
 _symmetry_equiv_pos_site_id
 _symmetry_equiv_pos_as_xyz
  1  'x, y, z'
loop_
 _atom_site_type_symbol
 _atom_site_label
 _atom_site_symmetry_multiplicity
 _atom_site_fract_x
 _atom_site_fract_y
 _atom_site_fract_z
 _atom_site_occupancy
  Ho  Ho0  1  0.685631  0.380268  0.694638  1
  Ho  Ho1  1  0.314247  0.008508  0.694262  1
  Ho  Ho2  1  0.685211  0.990453  0.305241  1
  Ho  Ho3  1  0.185899  0.290631  0.475799  1
  Ho  Ho4  1  0.813733  0.709667  0.523763  1
  Ho  Ho5  1  0.185904  0.709667  0.895935  1
  Ho  Ho6  1  0.814832  0.290631  0.104731  1
  Ho  Ho7  1  0.408682  0.214562  0.194763  1
  Ho  Ho8  1  0.590819  0.785595  0.804581  1
  Ho  Ho9  1  0.019798  0.214562  0.805880  1
  Ho  Ho10  1  0.981014  0.785595  0.194775  1
  Tm  Tm11  1  0.314799  0.621153  0.306353  1
  In  In12  1  0.499797  0.500068  0.000272  1
  Co  Co13  1  0.112169  0.611869  0.499700  1
  Co  Co14  1  0.888288  0.388350  0.500063  1
  Co  Co15  1  0.378829  0.999264  0.378892  1
  Co  Co16  1  0.620373  0.999264  0.620435  1
  Rh  Rh17  1  0.999976  0.999893  0.999917  1
