# generated using pymatgen
data_YbHo3Sn6Rh7
_symmetry_space_group_name_H-M   'P 1'
_cell_length_a   7.59666351
_cell_length_b   7.59536633
_cell_length_c   7.59536600
_cell_angle_alpha   109.46776599
_cell_angle_beta   109.47468320
_cell_angle_gamma   109.47467663
_symmetry_Int_Tables_number   1
_chemical_formula_structural   YbHo3Sn6Rh7
_chemical_formula_sum   'Yb1 Ho3 Sn6 Rh7'
_cell_volume   337.34933743
_cell_formula_units_Z   1
loop_
 _symmetry_equiv_pos_site_id
 _symmetry_equiv_pos_as_xyz
  1  'x, y, z'
loop_
 _atom_site_type_symbol
 _atom_site_label
 _atom_site_symmetry_multiplicity
 _atom_site_fract_x
 _atom_site_fract_y
 _atom_site_fract_z
 _atom_site_occupancy
  Yb  Yb0  1  0.500000  0.000000  0.000000  1
  Ho  Ho1  1  0.000000  0.000000  0.500000  1
  Ho  Ho2  1  0.000000  0.500000  0.000000  1
  Ho  Ho3  1  0.500000  0.500000  0.500000  1
  Sn  Sn4  1  0.682770  0.686405  0.000000  1
  Sn  Sn5  1  0.317230  0.000000  0.313595  1
  Sn  Sn6  1  0.996365  0.313595  0.313595  1
  Sn  Sn7  1  0.317230  0.313595  0.000000  1
  Sn  Sn8  1  0.682770  0.000000  0.686405  1
  Sn  Sn9  1  0.003635  0.686405  0.686405  1
  Rh  Rh10  1  0.751654  0.251654  0.503308  1
  Rh  Rh11  1  0.751654  0.503308  0.251654  1
  Rh  Rh12  1  0.500000  0.251654  0.748346  1
  Rh  Rh13  1  0.248346  0.496692  0.748346  1
  Rh  Rh14  1  0.248346  0.748346  0.496692  1
  Rh  Rh15  1  0.500000  0.748346  0.251654  1
  Rh  Rh16  1  0.000000  0.000000  0.000000  1
