# generated using pymatgen
data_Ho4ErBiPd2
_symmetry_space_group_name_H-M   'P 1'
_cell_length_a   8.78868879
_cell_length_b   8.78868866
_cell_length_c   8.78868794
_cell_angle_alpha   127.51009802
_cell_angle_beta   127.51009879
_cell_angle_gamma   77.42000542
_symmetry_Int_Tables_number   1
_chemical_formula_structural   Ho4ErBiPd2
_chemical_formula_sum   'Ho8 Er2 Bi2 Pd4'
_cell_volume   414.34496353
_cell_formula_units_Z   2
loop_
 _symmetry_equiv_pos_site_id
 _symmetry_equiv_pos_as_xyz
  1  'x, y, z'
loop_
 _atom_site_type_symbol
 _atom_site_label
 _atom_site_symmetry_multiplicity
 _atom_site_fract_x
 _atom_site_fract_y
 _atom_site_fract_z
 _atom_site_occupancy
  Ho  Ho0  1  0.795778  0.295778  0.811272  1
  Ho  Ho1  1  0.204222  0.704222  0.188728  1
  Ho  Ho2  1  0.484506  0.984506  0.188728  1
  Ho  Ho3  1  0.295778  0.484506  0.500000  1
  Ho  Ho4  1  0.015494  0.204222  0.500000  1
  Ho  Ho5  1  0.515494  0.015494  0.811272  1
  Ho  Ho6  1  0.704222  0.515494  0.500000  1
  Ho  Ho7  1  0.984506  0.795778  0.500000  1
  Er  Er8  1  0.000000  0.000000  0.000000  1
  Er  Er9  1  0.500000  0.500000  0.000000  1
  Bi  Bi10  1  0.250000  0.250000  0.000000  1
  Bi  Bi11  1  0.750000  0.750000  0.000000  1
  Pd  Pd12  1  0.136391  0.636391  0.772782  1
  Pd  Pd13  1  0.863609  0.363609  0.227218  1
  Pd  Pd14  1  0.636391  0.863609  0.500000  1
  Pd  Pd15  1  0.363609  0.136391  0.500000  1
