# generated using pymatgen
data_CsMnV2Se3
_symmetry_space_group_name_H-M   'P 1'
_cell_length_a   9.48332300
_cell_length_b   9.54116353
_cell_length_c   4.31469100
_cell_angle_alpha   90.00000000
_cell_angle_beta   90.00000000
_cell_angle_gamma   117.73993560
_symmetry_Int_Tables_number   1
_chemical_formula_structural   CsMnV2Se3
_chemical_formula_sum   'Cs2 Mn2 V4 Se6'
_cell_volume   345.53250854
_cell_formula_units_Z   2
loop_
 _symmetry_equiv_pos_site_id
 _symmetry_equiv_pos_as_xyz
  1  'x, y, z'
loop_
 _atom_site_type_symbol
 _atom_site_label
 _atom_site_symmetry_multiplicity
 _atom_site_fract_x
 _atom_site_fract_y
 _atom_site_fract_z
 _atom_site_occupancy
  Cs  Cs0  1  0.332637  0.662474  0.250000  1
  Cs  Cs1  1  0.667363  0.337526  0.750000  1
  Mn  Mn2  1  0.136941  0.160729  0.250000  1
  Mn  Mn3  1  0.863059  0.839271  0.750000  1
  V  V4  1  0.835063  0.972176  0.250000  1
  V  V5  1  0.019910  0.859656  0.250000  1
  V  V6  1  0.980090  0.140344  0.750000  1
  V  V7  1  0.164937  0.027824  0.750000  1
  Se  Se8  1  0.951906  0.272896  0.250000  1
  Se  Se9  1  0.048094  0.727104  0.750000  1
  Se  Se10  1  0.725090  0.675889  0.250000  1
  Se  Se11  1  0.319781  0.046215  0.250000  1
  Se  Se12  1  0.680219  0.953785  0.750000  1
  Se  Se13  1  0.274910  0.324111  0.750000  1
