# generated using pymatgen
data_Ho5In4HgIr
_symmetry_space_group_name_H-M   'P 1'
_cell_length_a   3.64337300
_cell_length_b   8.23483918
_cell_length_c   18.45961212
_cell_angle_alpha   89.86327183
_cell_angle_beta   90.00000000
_cell_angle_gamma   90.00000000
_symmetry_Int_Tables_number   1
_chemical_formula_structural   Ho5In4HgIr
_chemical_formula_sum   'Ho10 In8 Hg2 Ir2'
_cell_volume   553.83461049
_cell_formula_units_Z   2
loop_
 _symmetry_equiv_pos_site_id
 _symmetry_equiv_pos_as_xyz
  1  'x, y, z'
loop_
 _atom_site_type_symbol
 _atom_site_label
 _atom_site_symmetry_multiplicity
 _atom_site_fract_x
 _atom_site_fract_y
 _atom_site_fract_z
 _atom_site_occupancy
  Ho  Ho0  1  0.000000  0.123679  0.423245  1
  Ho  Ho1  1  0.000000  0.876321  0.576755  1
  Ho  Ho2  1  0.000000  0.385266  0.914556  1
  Ho  Ho3  1  0.000000  0.614734  0.085444  1
  Ho  Ho4  1  0.000000  0.267721  0.213705  1
  Ho  Ho5  1  0.000000  0.732279  0.786295  1
  Ho  Ho6  1  0.000000  0.286865  0.723598  1
  Ho  Ho7  1  0.000000  0.713135  0.276402  1
  Ho  Ho8  1  0.000000  0.000000  0.000000  1
  Ho  Ho9  1  0.000000  0.500000  0.500000  1
  In  In10  1  0.500000  0.421598  0.352593  1
  In  In11  1  0.500000  0.578402  0.647407  1
  In  In12  1  0.500000  0.081074  0.854304  1
  In  In13  1  0.500000  0.918926  0.145696  1
  In  In14  1  0.500000  0.293969  0.065314  1
  In  In15  1  0.500000  0.706031  0.934686  1
  In  In16  1  0.500000  0.211513  0.568329  1
  In  In17  1  0.500000  0.788487  0.431671  1
  Hg  Hg18  1  0.500000  0.025882  0.300870  1
  Hg  Hg19  1  0.500000  0.974118  0.699130  1
  Ir  Ir20  1  0.500000  0.475284  0.805272  1
  Ir  Ir21  1  0.500000  0.524716  0.194728  1
