# generated using pymatgen
data_LiDy7(Ge4Mo3)4
_symmetry_space_group_name_H-M   'P 1'
_cell_length_a   6.88156235
_cell_length_b   7.04700713
_cell_length_c   13.15378572
_cell_angle_alpha   90.00344419
_cell_angle_beta   89.92071985
_cell_angle_gamma   89.87401306
_symmetry_Int_Tables_number   1
_chemical_formula_structural   LiDy7(Ge4Mo3)4
_chemical_formula_sum   'Li1 Dy7 Ge16 Mo12'
_cell_volume   637.88304222
_cell_formula_units_Z   1
loop_
 _symmetry_equiv_pos_site_id
 _symmetry_equiv_pos_as_xyz
  1  'x, y, z'
loop_
 _atom_site_type_symbol
 _atom_site_label
 _atom_site_symmetry_multiplicity
 _atom_site_fract_x
 _atom_site_fract_y
 _atom_site_fract_z
 _atom_site_occupancy
  Li  Li0  1  0.970838  0.825446  0.588912  1
  Dy  Dy1  1  0.490759  0.672032  0.592437  1
  Dy  Dy2  1  0.992096  0.828656  0.908313  1
  Dy  Dy3  1  0.511825  0.329134  0.092232  1
  Dy  Dy4  1  0.009148  0.166829  0.413689  1
  Dy  Dy5  1  0.509600  0.329248  0.411401  1
  Dy  Dy6  1  0.011791  0.170407  0.092414  1
  Dy  Dy7  1  0.489665  0.673002  0.903810  1
  Ge  Ge8  1  0.671266  0.951922  0.455661  1
  Ge  Ge9  1  0.171939  0.548420  0.046635  1
  Ge  Ge10  1  0.330474  0.048945  0.952084  1
  Ge  Ge11  1  0.834908  0.463280  0.549578  1
  Ge  Ge12  1  0.319548  0.037679  0.549554  1
  Ge  Ge13  1  0.829111  0.451692  0.952812  1
  Ge  Ge14  1  0.671847  0.951592  0.047090  1
  Ge  Ge15  1  0.166624  0.552176  0.454442  1
  Ge  Ge16  1  0.470368  0.369924  0.750314  1
  Ge  Ge17  1  0.972881  0.125333  0.746372  1
  Ge  Ge18  1  0.529788  0.630077  0.250482  1
  Ge  Ge19  1  0.030668  0.867447  0.251792  1
  Ge  Ge20  1  0.700791  0.855403  0.744473  1
  Ge  Ge21  1  0.177949  0.655810  0.740843  1
  Ge  Ge22  1  0.311100  0.145700  0.251798  1
  Ge  Ge23  1  0.813026  0.352924  0.252428  1
  Mo  Mo24  1  0.667805  0.159102  0.626085  1
  Mo  Mo25  1  0.168636  0.346462  0.871685  1
  Mo  Mo26  1  0.332584  0.845756  0.127583  1
  Mo  Mo27  1  0.828078  0.655148  0.373065  1
  Mo  Mo28  1  0.334117  0.844612  0.373159  1
  Mo  Mo29  1  0.830876  0.653490  0.127534  1
  Mo  Mo30  1  0.671735  0.153530  0.871051  1
  Mo  Mo31  1  0.171015  0.341683  0.628184  1
  Mo  Mo32  1  0.836070  0.490055  0.750838  1
  Mo  Mo33  1  0.337992  0.007348  0.750410  1
  Mo  Mo34  1  0.166479  0.506715  0.250353  1
  Mo  Mo35  1  0.666604  0.993024  0.250488  1
