# generated using pymatgen
data_La2ThSn3IrPt2
_symmetry_space_group_name_H-M   'P 1'
_cell_length_a   7.66608300
_cell_length_b   7.66181620
_cell_length_c   4.20556400
_cell_angle_alpha   90.00000000
_cell_angle_beta   90.00000000
_cell_angle_gamma   120.01842786
_symmetry_Int_Tables_number   1
_chemical_formula_structural   La2ThSn3IrPt2
_chemical_formula_sum   'La2 Th1 Sn3 Ir1 Pt2'
_cell_volume   213.88456744
_cell_formula_units_Z   1
loop_
 _symmetry_equiv_pos_site_id
 _symmetry_equiv_pos_as_xyz
  1  'x, y, z'
loop_
 _atom_site_type_symbol
 _atom_site_label
 _atom_site_symmetry_multiplicity
 _atom_site_fract_x
 _atom_site_fract_y
 _atom_site_fract_z
 _atom_site_occupancy
  La  La0  1  0.000131  0.588177  0.000000  1
  La  La1  1  0.411954  0.411823  0.000000  1
  Th  Th2  1  0.589025  0.000000  0.000000  1
  Sn  Sn3  1  0.241236  0.000000  0.500000  1
  Sn  Sn4  1  0.004103  0.250576  0.500000  1
  Sn  Sn5  1  0.753527  0.749424  0.500000  1
  Ir  Ir6  1  0.987079  0.000000  0.000000  1
  Pt  Pt7  1  0.347990  0.683035  0.500000  1
  Pt  Pt8  1  0.664954  0.316965  0.500000  1
