# generated using pymatgen
data_K8Sn3Bi4Pb
_symmetry_space_group_name_H-M   'P 1'
_cell_length_a   6.67966782
_cell_length_b   6.88936600
_cell_length_c   13.72706139
_cell_angle_alpha   90.00000000
_cell_angle_beta   89.43172484
_cell_angle_gamma   90.00000000
_symmetry_Int_Tables_number   1
_chemical_formula_structural   K8Sn3Bi4Pb
_chemical_formula_sum   'K8 Sn3 Bi4 Pb1'
_cell_volume   631.67012525
_cell_formula_units_Z   1
loop_
 _symmetry_equiv_pos_site_id
 _symmetry_equiv_pos_as_xyz
  1  'x, y, z'
loop_
 _atom_site_type_symbol
 _atom_site_label
 _atom_site_symmetry_multiplicity
 _atom_site_fract_x
 _atom_site_fract_y
 _atom_site_fract_z
 _atom_site_occupancy
  K  K0  1  0.750696  0.387426  0.667397  1
  K  K1  1  0.246764  0.608232  0.333821  1
  K  K2  1  0.753236  0.608232  0.166179  1
  K  K3  1  0.249379  0.159830  0.510456  1
  K  K4  1  0.248027  0.841749  0.007181  1
  K  K5  1  0.751973  0.841749  0.492819  1
  K  K6  1  0.750621  0.159830  0.989544  1
  K  K7  1  0.249304  0.387426  0.832603  1
  Sn  Sn8  1  0.000000  0.096842  0.250000  1
  Sn  Sn9  1  0.000000  0.904620  0.750000  1
  Sn  Sn10  1  0.500000  0.902727  0.750000  1
  Bi  Bi11  1  0.243236  0.342818  0.104421  1
  Bi  Bi12  1  0.251937  0.660594  0.606625  1
  Bi  Bi13  1  0.748063  0.660594  0.893375  1
  Bi  Bi14  1  0.756764  0.342818  0.395579  1
  Pb  Pb15  1  0.500000  0.094512  0.250000  1
