# generated using pymatgen
data_Pr7SiI12
_symmetry_space_group_name_H-M   'P 1'
_cell_length_a   10.07393439
_cell_length_b   10.07393510
_cell_length_c   10.07393536
_cell_angle_alpha   107.79522674
_cell_angle_beta   107.79523442
_cell_angle_gamma   107.79522728
_symmetry_Int_Tables_number   1
_chemical_formula_structural   Pr7SiI12
_chemical_formula_sum   'Pr7 Si1 I12'
_cell_volume   832.25827713
_cell_formula_units_Z   1
loop_
 _symmetry_equiv_pos_site_id
 _symmetry_equiv_pos_as_xyz
  1  'x, y, z'
loop_
 _atom_site_type_symbol
 _atom_site_label
 _atom_site_symmetry_multiplicity
 _atom_site_fract_x
 _atom_site_fract_y
 _atom_site_fract_z
 _atom_site_occupancy
  Pr  Pr0  1  0.811628  0.532815  0.604286  1
  Pr  Pr1  1  0.532815  0.604286  0.811628  1
  Pr  Pr2  1  0.188372  0.467185  0.395714  1
  Pr  Pr3  1  0.467185  0.395714  0.188372  1
  Pr  Pr4  1  0.000000  0.000000  0.000000  1
  Pr  Pr5  1  0.604286  0.811628  0.532815  1
  Pr  Pr6  1  0.395714  0.188372  0.467185  1
  Si  Si7  1  0.500000  0.500000  0.500000  1
  I  I8  1  0.729362  0.185853  0.575721  1
  I  I9  1  0.968798  0.888349  0.654479  1
  I  I10  1  0.575721  0.729362  0.185853  1
  I  I11  1  0.111651  0.345521  0.031202  1
  I  I12  1  0.654479  0.968798  0.888349  1
  I  I13  1  0.888349  0.654479  0.968798  1
  I  I14  1  0.031202  0.111651  0.345521  1
  I  I15  1  0.814147  0.424279  0.270638  1
  I  I16  1  0.345521  0.031202  0.111651  1
  I  I17  1  0.270638  0.814147  0.424279  1
  I  I18  1  0.185853  0.575721  0.729362  1
  I  I19  1  0.424279  0.270638  0.814147  1
