# generated using pymatgen
data_Yb5(AlAs3)2
_symmetry_space_group_name_H-M   'P 1'
_cell_length_a   4.13685200
_cell_length_b   6.89177900
_cell_length_c   21.79135100
_cell_angle_alpha   90.00000000
_cell_angle_beta   90.00000000
_cell_angle_gamma   90.00000000
_symmetry_Int_Tables_number   1
_chemical_formula_structural   Yb5(AlAs3)2
_chemical_formula_sum   'Yb10 Al4 As12'
_cell_volume   621.27729500
_cell_formula_units_Z   2
loop_
 _symmetry_equiv_pos_site_id
 _symmetry_equiv_pos_as_xyz
  1  'x, y, z'
loop_
 _atom_site_type_symbol
 _atom_site_label
 _atom_site_symmetry_multiplicity
 _atom_site_fract_x
 _atom_site_fract_y
 _atom_site_fract_z
 _atom_site_occupancy
  Yb  Yb0  1  0.000000  0.443109  0.909925  1
  Yb  Yb1  1  0.000000  0.266371  0.749686  1
  Yb  Yb2  1  0.000000  0.766371  0.750314  1
  Yb  Yb3  1  0.000000  0.556891  0.090075  1
  Yb  Yb4  1  0.000000  0.943109  0.590075  1
  Yb  Yb5  1  0.000000  0.000000  0.000000  1
  Yb  Yb6  1  0.000000  0.733629  0.250314  1
  Yb  Yb7  1  0.000000  0.056891  0.409925  1
  Yb  Yb8  1  0.000000  0.500000  0.500000  1
  Yb  Yb9  1  0.000000  0.233629  0.249686  1
  Al  Al10  1  0.500000  0.812976  0.877382  1
  Al  Al11  1  0.500000  0.187024  0.122618  1
  Al  Al12  1  0.500000  0.687024  0.377382  1
  Al  Al13  1  0.500000  0.312976  0.622618  1
  As  As14  1  0.500000  0.816734  0.491756  1
  As  As15  1  0.000000  0.484038  0.365639  1
  As  As16  1  0.000000  0.984038  0.134361  1
  As  As17  1  0.500000  0.520417  0.812040  1
  As  As18  1  0.500000  0.479583  0.187960  1
  As  As19  1  0.000000  0.015962  0.865639  1
  As  As20  1  0.000000  0.515962  0.634361  1
  As  As21  1  0.500000  0.979583  0.312040  1
  As  As22  1  0.500000  0.183266  0.508244  1
  As  As23  1  0.500000  0.020417  0.687960  1
  As  As24  1  0.500000  0.316734  0.008244  1
  As  As25  1  0.500000  0.683266  0.991756  1
