# generated using pymatgen
data_Tb5InPd4
_symmetry_space_group_name_H-M   'P 1'
_cell_length_a   7.89500200
_cell_length_b   7.89500200
_cell_length_c   3.77130300
_cell_angle_alpha   90.00000000
_cell_angle_beta   90.00000000
_cell_angle_gamma   90.00000000
_symmetry_Int_Tables_number   1
_chemical_formula_structural   Tb5InPd4
_chemical_formula_sum   'Tb5 In1 Pd4'
_cell_volume   235.06930067
_cell_formula_units_Z   1
loop_
 _symmetry_equiv_pos_site_id
 _symmetry_equiv_pos_as_xyz
  1  'x, y, z'
loop_
 _atom_site_type_symbol
 _atom_site_label
 _atom_site_symmetry_multiplicity
 _atom_site_fract_x
 _atom_site_fract_y
 _atom_site_fract_z
 _atom_site_occupancy
  Tb  Tb0  1  0.500000  0.500000  0.000000  1
  Tb  Tb1  1  0.682850  0.142429  0.500000  1
  Tb  Tb2  1  0.317150  0.857571  0.500000  1
  Tb  Tb3  1  0.142429  0.317150  0.500000  1
  Tb  Tb4  1  0.857571  0.682850  0.500000  1
  In  In5  1  0.000000  0.000000  0.000000  1
  Pd  Pd6  1  0.142383  0.621368  0.000000  1
  Pd  Pd7  1  0.857617  0.378632  0.000000  1
  Pd  Pd8  1  0.621368  0.857617  0.000000  1
  Pd  Pd9  1  0.378632  0.142383  0.000000  1
