# generated using pymatgen
data_Ac3Nd(ZnGe)4
_symmetry_space_group_name_H-M   'P 1'
_cell_length_a   4.34554200
_cell_length_b   4.34554220
_cell_length_c   18.12823100
_cell_angle_alpha   90.00000000
_cell_angle_beta   90.00000000
_cell_angle_gamma   119.99999845
_symmetry_Int_Tables_number   1
_chemical_formula_structural   Ac3Nd(ZnGe)4
_chemical_formula_sum   'Ac3 Nd1 Zn4 Ge4'
_cell_volume   296.46538229
_cell_formula_units_Z   1
loop_
 _symmetry_equiv_pos_site_id
 _symmetry_equiv_pos_as_xyz
  1  'x, y, z'
loop_
 _atom_site_type_symbol
 _atom_site_label
 _atom_site_symmetry_multiplicity
 _atom_site_fract_x
 _atom_site_fract_y
 _atom_site_fract_z
 _atom_site_occupancy
  Ac  Ac0  1  0.000000  0.000000  0.255845  1
  Ac  Ac1  1  0.000000  0.000000  0.744155  1
  Ac  Ac2  1  0.000000  0.000000  0.000000  1
  Nd  Nd3  1  0.000000  0.000000  0.500000  1
  Zn  Zn4  1  0.333333  0.666667  0.133869  1
  Zn  Zn5  1  0.666667  0.333333  0.866131  1
  Zn  Zn6  1  0.666667  0.333333  0.622345  1
  Zn  Zn7  1  0.333333  0.666667  0.377655  1
  Ge  Ge8  1  0.333333  0.666667  0.610708  1
  Ge  Ge9  1  0.666667  0.333333  0.389292  1
  Ge  Ge10  1  0.666667  0.333333  0.124146  1
  Ge  Ge11  1  0.333333  0.666667  0.875854  1
