# generated using pymatgen
data_ScTcF7
_symmetry_space_group_name_H-M   'P 1'
_cell_length_a   5.42493600
_cell_length_b   8.56566183
_cell_length_c   11.58530256
_cell_angle_alpha   63.67197942
_cell_angle_beta   90.00000000
_cell_angle_gamma   90.00000000
_symmetry_Int_Tables_number   1
_chemical_formula_structural   ScTcF7
_chemical_formula_sum   'Sc4 Tc4 F28'
_cell_volume   482.50476726
_cell_formula_units_Z   4
loop_
 _symmetry_equiv_pos_site_id
 _symmetry_equiv_pos_as_xyz
  1  'x, y, z'
loop_
 _atom_site_type_symbol
 _atom_site_label
 _atom_site_symmetry_multiplicity
 _atom_site_fract_x
 _atom_site_fract_y
 _atom_site_fract_z
 _atom_site_occupancy
  Sc  Sc0  1  0.259732  0.818800  0.264194  1
  Sc  Sc1  1  0.740268  0.181200  0.735806  1
  Sc  Sc2  1  0.759732  0.181200  0.235806  1
  Sc  Sc3  1  0.240268  0.818800  0.764194  1
  Tc  Tc4  1  0.762265  0.728060  0.044585  1
  Tc  Tc5  1  0.237735  0.271940  0.955415  1
  Tc  Tc6  1  0.262265  0.271940  0.455415  1
  Tc  Tc7  1  0.737735  0.728060  0.544585  1
  F  F8  1  0.950191  0.702608  0.418981  1
  F  F9  1  0.049809  0.297392  0.581019  1
  F  F10  1  0.450191  0.297392  0.081019  1
  F  F11  1  0.549809  0.702608  0.918981  1
  F  F12  1  0.478682  0.730788  0.149256  1
  F  F13  1  0.521318  0.269212  0.850744  1
  F  F14  1  0.978682  0.269212  0.350744  1
  F  F15  1  0.021318  0.730788  0.649256  1
  F  F16  1  0.970419  0.749525  0.178162  1
  F  F17  1  0.029581  0.250475  0.821838  1
  F  F18  1  0.470419  0.250475  0.321838  1
  F  F19  1  0.529581  0.749525  0.678162  1
  F  F20  1  0.780637  0.474234  0.143440  1
  F  F21  1  0.219363  0.525766  0.856560  1
  F  F22  1  0.280637  0.525766  0.356560  1
  F  F23  1  0.719363  0.474234  0.643440  1
  F  F24  1  0.935974  0.270418  0.052225  1
  F  F25  1  0.064026  0.729582  0.947775  1
  F  F26  1  0.435974  0.729582  0.447775  1
  F  F27  1  0.564026  0.270418  0.552225  1
  F  F28  1  0.745384  0.980715  0.446705  1
  F  F29  1  0.254616  0.019285  0.553295  1
  F  F30  1  0.245384  0.019285  0.053295  1
  F  F31  1  0.754616  0.980715  0.946705  1
  F  F32  1  0.570304  0.978974  0.233296  1
  F  F33  1  0.429696  0.021026  0.766704  1
  F  F34  1  0.070304  0.021026  0.266704  1
  F  F35  1  0.929696  0.978974  0.733296  1
