# generated using pymatgen
data_Ti8Al15Os2Pd4Rh
_symmetry_space_group_name_H-M   'P 1'
_cell_length_a   8.67869311
_cell_length_b   8.70481563
_cell_length_c   8.67869308
_cell_angle_alpha   119.95525712
_cell_angle_beta   119.71001132
_cell_angle_gamma   90.20353876
_symmetry_Int_Tables_number   1
_chemical_formula_structural   Ti8Al15Os2Pd4Rh
_chemical_formula_sum   'Ti8 Al15 Os2 Pd4 Rh1'
_cell_volume   465.12651892
_cell_formula_units_Z   1
loop_
 _symmetry_equiv_pos_site_id
 _symmetry_equiv_pos_as_xyz
  1  'x, y, z'
loop_
 _atom_site_type_symbol
 _atom_site_label
 _atom_site_symmetry_multiplicity
 _atom_site_fract_x
 _atom_site_fract_y
 _atom_site_fract_z
 _atom_site_occupancy
  Ti  Ti0  1  0.788654  0.286243  0.076422  1
  Ti  Ti1  1  0.209821  0.286243  0.497588  1
  Ti  Ti2  1  0.209918  0.716985  0.507066  1
  Ti  Ti3  1  0.221128  0.720930  0.928939  1
  Ti  Ti4  1  0.791991  0.720930  0.499802  1
  Ti  Ti5  1  0.785701  0.277197  0.491496  1
  Ti  Ti6  1  0.373375  0.114867  0.741492  1
  Ti  Ti7  1  0.381926  0.641707  0.259781  1
  Al  Al8  1  0.997821  0.499845  0.502025  1
  Al  Al9  1  0.155096  0.348074  0.192977  1
  Al  Al10  1  0.154303  0.966846  0.812544  1
  Al  Al11  1  0.153066  0.346870  0.807305  1
  Al  Al12  1  0.539563  0.346870  0.193803  1
  Al  Al13  1  0.847753  0.650898  0.803146  1
  Al  Al14  1  0.842264  0.030319  0.188056  1
  Al  Al15  1  0.844772  0.655299  0.189868  1
  Al  Al16  1  0.465430  0.655299  0.810525  1
  Al  Al17  1  0.383172  0.119206  0.257952  1
  Al  Al18  1  0.861254  0.119206  0.736033  1
  Al  Al19  1  0.622926  0.880103  0.257177  1
  Al  Al20  1  0.619491  0.359682  0.740192  1
  Al  Al21  1  0.617564  0.881085  0.743941  1
  Al  Al22  1  0.137143  0.881085  0.263521  1
  Os  Os23  1  0.001824  0.999747  0.502860  1
  Os  Os24  1  0.496887  0.999747  0.997923  1
  Pd  Pd25  1  0.499399  0.496685  0.997285  1
  Pd  Pd26  1  0.500253  0.499820  0.500910  1
  Pd  Pd27  1  0.998912  0.499820  0.999567  1
  Pd  Pd28  1  0.999344  0.999773  0.000429  1
  Rh  Rh29  1  0.499243  0.998619  0.499376  1
