# generated using pymatgen
data_NdLuPa2(Al3Rh)6
_symmetry_space_group_name_H-M   'P 1'
_cell_length_a   7.60323846
_cell_length_b   7.60962424
_cell_length_c   9.39352300
_cell_angle_alpha   90.00000000
_cell_angle_beta   90.00000000
_cell_angle_gamma   119.56152808
_symmetry_Int_Tables_number   1
_chemical_formula_structural   NdLuPa2(Al3Rh)6
_chemical_formula_sum   'Nd1 Lu1 Pa2 Al18 Rh6'
_cell_volume   472.74060829
_cell_formula_units_Z   1
loop_
 _symmetry_equiv_pos_site_id
 _symmetry_equiv_pos_as_xyz
  1  'x, y, z'
loop_
 _atom_site_type_symbol
 _atom_site_label
 _atom_site_symmetry_multiplicity
 _atom_site_fract_x
 _atom_site_fract_y
 _atom_site_fract_z
 _atom_site_occupancy
  Nd  Nd0  1  0.669585  0.993291  0.250000  1
  Lu  Lu1  1  0.328094  0.006405  0.750000  1
  Pa  Pa2  1  0.997478  0.671407  0.250000  1
  Pa  Pa3  1  0.002230  0.327930  0.750000  1
  Al  Al4  1  0.132661  0.127002  0.250000  1
  Al  Al5  1  0.870799  0.873470  0.750000  1
  Al  Al6  1  0.002419  0.333956  0.075176  1
  Al  Al7  1  0.001213  0.668471  0.921031  1
  Al  Al8  1  0.001213  0.668471  0.578969  1
  Al  Al9  1  0.336149  0.002888  0.428405  1
  Al  Al10  1  0.002419  0.333956  0.424824  1
  Al  Al11  1  0.660326  0.997226  0.578771  1
  Al  Al12  1  0.660326  0.997226  0.921229  1
  Al  Al13  1  0.336149  0.002888  0.071595  1
  Al  Al14  1  0.334650  0.332535  0.555091  1
  Al  Al15  1  0.665606  0.665608  0.451807  1
  Al  Al16  1  0.665606  0.665608  0.048193  1
  Al  Al17  1  0.334650  0.332535  0.944909  1
  Al  Al18  1  0.338592  0.546342  0.250000  1
  Al  Al19  1  0.659413  0.449676  0.750000  1
  Al  Al20  1  0.549930  0.343911  0.250000  1
  Al  Al21  1  0.447876  0.657186  0.750000  1
  Rh  Rh22  1  0.675020  0.329894  0.998493  1
  Rh  Rh23  1  0.324481  0.670385  0.999141  1
  Rh  Rh24  1  0.324481  0.670385  0.500859  1
  Rh  Rh25  1  0.675020  0.329894  0.501507  1
  Rh  Rh26  1  0.001808  0.000726  0.998118  1
  Rh  Rh27  1  0.001808  0.000726  0.501882  1
