# generated using pymatgen
data_DyLu3(Hf4Pb5)2
_symmetry_space_group_name_H-M   'P 1'
_cell_length_a   6.03247964
_cell_length_b   9.13205182
_cell_length_c   11.30104156
_cell_angle_alpha   113.88066555
_cell_angle_beta   105.47984043
_cell_angle_gamma   90.00000130
_symmetry_Int_Tables_number   1
_chemical_formula_structural   DyLu3(Hf4Pb5)2
_chemical_formula_sum   'Dy1 Lu3 Hf8 Pb10'
_cell_volume   544.47497772
_cell_formula_units_Z   1
loop_
 _symmetry_equiv_pos_site_id
 _symmetry_equiv_pos_as_xyz
  1  'x, y, z'
loop_
 _atom_site_type_symbol
 _atom_site_label
 _atom_site_symmetry_multiplicity
 _atom_site_fract_x
 _atom_site_fract_y
 _atom_site_fract_z
 _atom_site_occupancy
  Dy  Dy0  1  0.143814  0.253642  0.287629  1
  Lu  Lu1  1  0.856106  0.746518  0.712212  1
  Lu  Lu2  1  0.643977  0.033862  0.287953  1
  Lu  Lu3  1  0.356146  0.965745  0.712293  1
  Hf  Hf4  1  0.562167  0.312134  0.624393  1
  Hf  Hf5  1  0.437903  0.687587  0.375766  1
  Hf  Hf6  1  0.937862  0.687587  0.375766  1
  Hf  Hf7  1  0.062227  0.312134  0.624393  1
  Hf  Hf8  1  0.434003  0.671646  0.868006  1
  Hf  Hf9  1  0.565867  0.328633  0.131735  1
  Hf  Hf10  1  0.934216  0.196240  0.868431  1
  Hf  Hf11  1  0.066012  0.803867  0.132024  1
  Pb  Pb12  1  0.288971  0.591440  0.577941  1
  Pb  Pb13  1  0.711376  0.409661  0.422752  1
  Pb  Pb14  1  0.788666  0.986710  0.577332  1
  Pb  Pb15  1  0.211614  0.012176  0.423228  1
  Pb  Pb16  1  0.250003  0.999494  0.999509  1
  Pb  Pb17  1  0.749506  0.999494  0.999509  1
  Pb  Pb18  1  0.066767  0.462356  0.133534  1
  Pb  Pb19  1  0.932834  0.539176  0.865668  1
  Pb  Pb20  1  0.567149  0.673412  0.134298  1
  Pb  Pb21  1  0.432815  0.326487  0.865629  1
