# generated using pymatgen
data_Tm12FeTc3
_symmetry_space_group_name_H-M   'P 1'
_cell_length_a   6.17238187
_cell_length_b   7.29508832
_cell_length_c   8.99456200
_cell_angle_alpha   90.00000000
_cell_angle_beta   90.00000000
_cell_angle_gamma   89.89310326
_symmetry_Int_Tables_number   1
_chemical_formula_structural   Tm12FeTc3
_chemical_formula_sum   'Tm12 Fe1 Tc3'
_cell_volume   405.00707006
_cell_formula_units_Z   1
loop_
 _symmetry_equiv_pos_site_id
 _symmetry_equiv_pos_as_xyz
  1  'x, y, z'
loop_
 _atom_site_type_symbol
 _atom_site_label
 _atom_site_symmetry_multiplicity
 _atom_site_fract_x
 _atom_site_fract_y
 _atom_site_fract_z
 _atom_site_occupancy
  Tm  Tm0  1  0.635642  0.041196  0.250000  1
  Tm  Tm1  1  0.374515  0.960369  0.750000  1
  Tm  Tm2  1  0.126964  0.459720  0.750000  1
  Tm  Tm3  1  0.877399  0.547334  0.250000  1
  Tm  Tm4  1  0.159535  0.170716  0.065029  1
  Tm  Tm5  1  0.837823  0.823706  0.938743  1
  Tm  Tm6  1  0.658569  0.324082  0.939453  1
  Tm  Tm7  1  0.837823  0.823706  0.561257  1
  Tm  Tm8  1  0.337431  0.679029  0.063501  1
  Tm  Tm9  1  0.159535  0.170716  0.434971  1
  Tm  Tm10  1  0.337431  0.679029  0.436499  1
  Tm  Tm11  1  0.658569  0.324082  0.560547  1
  Fe  Fe12  1  0.036291  0.882075  0.250000  1
  Tc  Tc13  1  0.461567  0.385091  0.250000  1
  Tc  Tc14  1  0.541930  0.615053  0.750000  1
  Tc  Tc15  1  0.958973  0.114096  0.750000  1
