# generated using pymatgen
data_La4HgRu
_symmetry_space_group_name_H-M   'P 1'
_cell_length_a   10.04892893
_cell_length_b   10.04892945
_cell_length_c   10.04893000
_cell_angle_alpha   60.00000476
_cell_angle_beta   60.00000305
_cell_angle_gamma   60.00000375
_symmetry_Int_Tables_number   1
_chemical_formula_structural   La4HgRu
_chemical_formula_sum   'La16 Hg4 Ru4'
_cell_volume   717.53721860
_cell_formula_units_Z   4
loop_
 _symmetry_equiv_pos_site_id
 _symmetry_equiv_pos_as_xyz
  1  'x, y, z'
loop_
 _atom_site_type_symbol
 _atom_site_label
 _atom_site_symmetry_multiplicity
 _atom_site_fract_x
 _atom_site_fract_y
 _atom_site_fract_z
 _atom_site_occupancy
  La  La0  1  0.597224  0.597224  0.597224  1
  La  La1  1  0.597224  0.597224  0.208328  1
  La  La2  1  0.597224  0.208328  0.597224  1
  La  La3  1  0.208328  0.597224  0.597224  1
  La  La4  1  0.060846  0.439154  0.439154  1
  La  La5  1  0.439154  0.060846  0.060846  1
  La  La6  1  0.439154  0.060846  0.439154  1
  La  La7  1  0.060846  0.439154  0.060846  1
  La  La8  1  0.439154  0.439154  0.060846  1
  La  La9  1  0.060846  0.060846  0.439154  1
  La  La10  1  0.190614  0.809386  0.809386  1
  La  La11  1  0.809386  0.190614  0.190614  1
  La  La12  1  0.809386  0.190614  0.809386  1
  La  La13  1  0.190614  0.809386  0.190614  1
  La  La14  1  0.809386  0.809386  0.190614  1
  La  La15  1  0.190614  0.190614  0.809386  1
  Hg  Hg16  1  0.832321  0.832321  0.832321  1
  Hg  Hg17  1  0.832321  0.832321  0.503036  1
  Hg  Hg18  1  0.832321  0.503036  0.832321  1
  Hg  Hg19  1  0.503036  0.832321  0.832321  1
  Ru  Ru20  1  0.387379  0.387379  0.387379  1
  Ru  Ru21  1  0.387379  0.387379  0.837862  1
  Ru  Ru22  1  0.387379  0.837862  0.387379  1
  Ru  Ru23  1  0.837862  0.387379  0.387379  1
