# generated using pymatgen
data_CsPu(SO4)2
_symmetry_space_group_name_H-M   'P 1'
_cell_length_a   5.35721446
_cell_length_b   5.37522173
_cell_length_c   9.21343502
_cell_angle_alpha   90.68043929
_cell_angle_beta   89.32612621
_cell_angle_gamma   120.29649294
_symmetry_Int_Tables_number   1
_chemical_formula_structural   CsPu(SO4)2
_chemical_formula_sum   'Cs1 Pu1 S2 O8'
_cell_volume   229.05617646
_cell_formula_units_Z   1
loop_
 _symmetry_equiv_pos_site_id
 _symmetry_equiv_pos_as_xyz
  1  'x, y, z'
loop_
 _atom_site_type_symbol
 _atom_site_label
 _atom_site_symmetry_multiplicity
 _atom_site_fract_x
 _atom_site_fract_y
 _atom_site_fract_z
 _atom_site_occupancy
  Cs  Cs0  1  0.000000  0.000000  0.500000  1
  Pu  Pu1  1  0.000000  0.000000  0.000000  1
  S  S2  1  0.333909  0.665886  0.216730  1
  S  S3  1  0.666089  0.334113  0.783270  1
  O  O4  1  0.098349  0.380554  0.160001  1
  O  O5  1  0.618030  0.712962  0.158536  1
  O  O6  1  0.285832  0.897629  0.158882  1
  O  O7  1  0.333336  0.667651  0.375318  1
  O  O8  1  0.666662  0.332348  0.624682  1
  O  O9  1  0.714167  0.102370  0.841118  1
  O  O10  1  0.381970  0.287037  0.841464  1
  O  O11  1  0.901650  0.619445  0.839999  1
