# generated using pymatgen
data_Y4B20PtRh
_symmetry_space_group_name_H-M   'P 1'
_cell_length_a   4.17378700
_cell_length_b   5.69551724
_cell_length_c   11.36973734
_cell_angle_alpha   90.19459241
_cell_angle_beta   90.00000000
_cell_angle_gamma   90.00000000
_symmetry_Int_Tables_number   1
_chemical_formula_structural   Y4B20PtRh
_chemical_formula_sum   'Y4 B20 Pt1 Rh1'
_cell_volume   270.27842523
_cell_formula_units_Z   1
loop_
 _symmetry_equiv_pos_site_id
 _symmetry_equiv_pos_as_xyz
  1  'x, y, z'
loop_
 _atom_site_type_symbol
 _atom_site_label
 _atom_site_symmetry_multiplicity
 _atom_site_fract_x
 _atom_site_fract_y
 _atom_site_fract_z
 _atom_site_occupancy
  Y  Y0  1  0.500000  0.197621  0.365594  1
  Y  Y1  1  0.500000  0.802379  0.634406  1
  Y  Y2  1  0.500000  0.311123  0.857108  1
  Y  Y3  1  0.500000  0.688877  0.142892  1
  B  B4  1  0.000000  0.383675  0.043628  1
  B  B5  1  0.000000  0.616325  0.956372  1
  B  B6  1  0.000000  0.118489  0.542680  1
  B  B7  1  0.000000  0.881511  0.457320  1
  B  B8  1  0.000000  0.363273  0.198028  1
  B  B9  1  0.000000  0.636727  0.801972  1
  B  B10  1  0.000000  0.137840  0.697153  1
  B  B11  1  0.000000  0.862160  0.302847  1
  B  B12  1  0.000000  0.055370  0.194283  1
  B  B13  1  0.000000  0.944630  0.805717  1
  B  B14  1  0.000000  0.445105  0.692181  1
  B  B15  1  0.000000  0.554895  0.307819  1
  B  B16  1  0.302499  0.221299  0.121458  1
  B  B17  1  0.697501  0.778701  0.878542  1
  B  B18  1  0.302499  0.778701  0.878542  1
  B  B19  1  0.698465  0.280221  0.618370  1
  B  B20  1  0.697501  0.221299  0.121458  1
  B  B21  1  0.301535  0.719779  0.381630  1
  B  B22  1  0.698465  0.719779  0.381630  1
  B  B23  1  0.301535  0.280221  0.618370  1
  Pt  Pt24  1  0.000000  0.000000  0.000000  1
  Rh  Rh25  1  0.000000  0.500000  0.500000  1
