# generated using pymatgen
data_Yb4Ni3Sn4Rh
_symmetry_space_group_name_H-M   'P 1'
_cell_length_a   4.43004300
_cell_length_b   7.13478715
_cell_length_c   7.80697630
_cell_angle_alpha   89.72980639
_cell_angle_beta   90.00000000
_cell_angle_gamma   90.00000000
_symmetry_Int_Tables_number   1
_chemical_formula_structural   Yb4Ni3Sn4Rh
_chemical_formula_sum   'Yb4 Ni3 Sn4 Rh1'
_cell_volume   246.75558748
_cell_formula_units_Z   1
loop_
 _symmetry_equiv_pos_site_id
 _symmetry_equiv_pos_as_xyz
  1  'x, y, z'
loop_
 _atom_site_type_symbol
 _atom_site_label
 _atom_site_symmetry_multiplicity
 _atom_site_fract_x
 _atom_site_fract_y
 _atom_site_fract_z
 _atom_site_occupancy
  Yb  Yb0  1  0.250000  0.975839  0.818614  1
  Yb  Yb1  1  0.750000  0.026217  0.178500  1
  Yb  Yb2  1  0.250000  0.472586  0.682621  1
  Yb  Yb3  1  0.750000  0.531280  0.320881  1
  Ni  Ni4  1  0.250000  0.209844  0.385254  1
  Ni  Ni5  1  0.750000  0.786318  0.614042  1
  Ni  Ni6  1  0.250000  0.715493  0.115374  1
  Sn  Sn7  1  0.250000  0.837701  0.430434  1
  Sn  Sn8  1  0.750000  0.663507  0.930802  1
  Sn  Sn9  1  0.250000  0.344839  0.078643  1
  Sn  Sn10  1  0.750000  0.158106  0.560102  1
  Rh  Rh11  1  0.750000  0.278270  0.884733  1
