# generated using pymatgen
data_Tm3Lu3TiMn5O18
_symmetry_space_group_name_H-M   'P 1'
_cell_length_a   6.11972639
_cell_length_b   6.11154312
_cell_length_c   11.58890108
_cell_angle_alpha   90.24324872
_cell_angle_beta   89.53157634
_cell_angle_gamma   120.03760251
_symmetry_Int_Tables_number   1
_chemical_formula_structural   Tm3Lu3TiMn5O18
_chemical_formula_sum   'Tm3 Lu3 Ti1 Mn5 O18'
_cell_volume   375.21187120
_cell_formula_units_Z   1
loop_
 _symmetry_equiv_pos_site_id
 _symmetry_equiv_pos_as_xyz
  1  'x, y, z'
loop_
 _atom_site_type_symbol
 _atom_site_label
 _atom_site_symmetry_multiplicity
 _atom_site_fract_x
 _atom_site_fract_y
 _atom_site_fract_z
 _atom_site_occupancy
  Tm  Tm0  1  0.665923  0.335512  0.229061  1
  Tm  Tm1  1  0.334666  0.666912  0.735200  1
  Tm  Tm2  1  0.668214  0.333378  0.735279  1
  Lu  Lu3  1  0.329986  0.664665  0.228923  1
  Lu  Lu4  1  0.002595  0.999736  0.777004  1
  Lu  Lu5  1  0.999074  0.999782  0.273050  1
  Ti  Ti6  1  0.665681  0.999777  0.500588  1
  Mn  Mn7  1  0.667599  0.668771  0.001266  1
  Mn  Mn8  1  0.000320  0.331829  0.001224  1
  Mn  Mn9  1  0.000548  0.667584  0.499719  1
  Mn  Mn10  1  0.332319  0.332886  0.499791  1
  Mn  Mn11  1  0.331627  0.999359  0.001358  1
  O  O12  1  0.667158  0.333723  0.024088  1
  O  O13  1  0.358304  0.690920  0.522176  1
  O  O14  1  0.665662  0.308071  0.521646  1
  O  O15  1  0.333389  0.666338  0.024212  1
  O  O16  1  0.000623  0.999954  0.973016  1
  O  O17  1  0.975396  0.000853  0.473898  1
  O  O18  1  0.359965  0.000079  0.836703  1
  O  O19  1  0.355344  0.357693  0.331423  1
  O  O20  1  0.001921  0.644472  0.330735  1
  O  O21  1  0.000954  0.360152  0.837142  1
  O  O22  1  0.640477  0.639819  0.837162  1
  O  O23  1  0.634412  0.997811  0.333868  1
  O  O24  1  0.302606  0.997957  0.165760  1
  O  O25  1  0.308110  0.307697  0.668751  1
  O  O26  1  0.000307  0.692137  0.669347  1
  O  O27  1  0.000947  0.303698  0.165877  1
  O  O28  1  0.694681  0.698329  0.165928  1
  O  O29  1  0.701188  0.000108  0.669803  1
