# generated using pymatgen
data_Nb6ZnGa4PdN2
_symmetry_space_group_name_H-M   'P 1'
_cell_length_a   8.33392139
_cell_length_b   8.33392184
_cell_length_c   8.32678700
_cell_angle_alpha   60.02832016
_cell_angle_beta   60.02831839
_cell_angle_gamma   60.06994739
_symmetry_Int_Tables_number   1
_chemical_formula_structural   Nb6ZnGa4PdN2
_chemical_formula_sum   'Nb12 Zn2 Ga8 Pd2 N4'
_cell_volume   409.33256462
_cell_formula_units_Z   2
loop_
 _symmetry_equiv_pos_site_id
 _symmetry_equiv_pos_as_xyz
  1  'x, y, z'
loop_
 _atom_site_type_symbol
 _atom_site_label
 _atom_site_symmetry_multiplicity
 _atom_site_fract_x
 _atom_site_fract_y
 _atom_site_fract_z
 _atom_site_occupancy
  Nb  Nb0  1  0.443436  0.443436  0.056564  1
  Nb  Nb1  1  0.057407  0.437350  0.070544  1
  Nb  Nb2  1  0.437350  0.057407  0.070544  1
  Nb  Nb3  1  0.072207  0.072207  0.427793  1
  Nb  Nb4  1  0.437350  0.057407  0.434698  1
  Nb  Nb5  1  0.057407  0.437350  0.434698  1
  Nb  Nb6  1  0.806564  0.806564  0.193436  1
  Nb  Nb7  1  0.192593  0.812650  0.179456  1
  Nb  Nb8  1  0.812650  0.192593  0.179456  1
  Nb  Nb9  1  0.177793  0.177793  0.822207  1
  Nb  Nb10  1  0.812650  0.192593  0.815302  1
  Nb  Nb11  1  0.192593  0.812650  0.815302  1
  Zn  Zn12  1  0.625000  0.625000  0.125000  1
  Zn  Zn13  1  0.625000  0.625000  0.625000  1
  Ga  Ga14  1  0.840398  0.840398  0.483880  1
  Ga  Ga15  1  0.838596  0.494178  0.833614  1
  Ga  Ga16  1  0.494178  0.838596  0.833614  1
  Ga  Ga17  1  0.840398  0.840398  0.835324  1
  Ga  Ga18  1  0.409602  0.409602  0.766120  1
  Ga  Ga19  1  0.411404  0.755822  0.416386  1
  Ga  Ga20  1  0.755822  0.411404  0.416386  1
  Ga  Ga21  1  0.409602  0.409602  0.414676  1
  Pd  Pd22  1  0.625000  0.125000  0.625000  1
  Pd  Pd23  1  0.125000  0.625000  0.625000  1
  N  N24  1  0.125000  0.125000  0.625000  1
  N  N25  1  0.125000  0.625000  0.125000  1
  N  N26  1  0.625000  0.125000  0.125000  1
  N  N27  1  0.125000  0.125000  0.125000  1
