# generated using pymatgen
data_ErTm3Tc3B8Os
_symmetry_space_group_name_H-M   'P 1'
_cell_length_a   5.89623724
_cell_length_b   5.25748500
_cell_length_c   6.39683635
_cell_angle_alpha   90.00000000
_cell_angle_beta   90.26855707
_cell_angle_gamma   90.00000000
_symmetry_Int_Tables_number   1
_chemical_formula_structural   ErTm3Tc3B8Os
_chemical_formula_sum   'Er1 Tm3 Tc3 B8 Os1'
_cell_volume   198.29577528
_cell_formula_units_Z   1
loop_
 _symmetry_equiv_pos_site_id
 _symmetry_equiv_pos_as_xyz
  1  'x, y, z'
loop_
 _atom_site_type_symbol
 _atom_site_label
 _atom_site_symmetry_multiplicity
 _atom_site_fract_x
 _atom_site_fract_y
 _atom_site_fract_z
 _atom_site_occupancy
  Er  Er0  1  0.014518  0.250000  0.337670  1
  Tm  Tm1  1  0.514173  0.250000  0.161888  1
  Tm  Tm2  1  0.984952  0.750000  0.664289  1
  Tm  Tm3  1  0.484661  0.750000  0.836009  1
  Tc  Tc4  1  0.181447  0.250000  0.814559  1
  Tc  Tc5  1  0.679084  0.250000  0.684320  1
  Tc  Tc6  1  0.819376  0.750000  0.185656  1
  B  B7  1  0.367462  0.077929  0.535248  1
  B  B8  1  0.868718  0.421698  0.964858  1
  B  B9  1  0.632747  0.579840  0.465232  1
  B  B10  1  0.133390  0.920911  0.035312  1
  B  B11  1  0.632747  0.920160  0.465232  1
  B  B12  1  0.133390  0.579089  0.035312  1
  B  B13  1  0.367462  0.422071  0.535248  1
  B  B14  1  0.868718  0.078302  0.964858  1
  Os  Os15  1  0.317152  0.750000  0.314310  1
