# generated using pymatgen
data_TbHo11ZnCo4Pb
_symmetry_space_group_name_H-M   'P 1'
_cell_length_a   8.28667554
_cell_length_b   8.31186027
_cell_length_c   8.31185996
_cell_angle_alpha   112.08644278
_cell_angle_beta   109.16693068
_cell_angle_gamma   107.31169963
_symmetry_Int_Tables_number   1
_chemical_formula_structural   TbHo11ZnCo4Pb
_chemical_formula_sum   'Tb1 Ho11 Zn1 Co4 Pb1'
_cell_volume   439.30212058
_cell_formula_units_Z   1
loop_
 _symmetry_equiv_pos_site_id
 _symmetry_equiv_pos_as_xyz
  1  'x, y, z'
loop_
 _atom_site_type_symbol
 _atom_site_label
 _atom_site_symmetry_multiplicity
 _atom_site_fract_x
 _atom_site_fract_y
 _atom_site_fract_z
 _atom_site_occupancy
  Tb  Tb0  1  0.972859  0.272509  0.700350  1
  Ho  Ho1  1  0.026007  0.727133  0.298873  1
  Ho  Ho2  1  0.675059  0.861627  0.185572  1
  Ho  Ho3  1  0.324328  0.510283  0.187494  1
  Ho  Ho4  1  0.324328  0.136835  0.814047  1
  Ho  Ho5  1  0.675059  0.489487  0.813432  1
  Ho  Ho6  1  0.570730  0.272018  0.298710  1
  Ho  Ho7  1  0.429856  0.729265  0.700591  1
  Ho  Ho8  1  0.180319  0.783534  0.963942  1
  Ho  Ho9  1  0.820442  0.782772  0.603363  1
  Ho  Ho10  1  0.180319  0.216378  0.396784  1
  Ho  Ho11  1  0.820442  0.217080  0.037670  1
  Zn  Zn12  1  0.000930  0.501215  0.499715  1
  Co  Co13  1  0.117771  0.114256  0.003515  1
  Co  Co14  1  0.883045  0.885057  0.997988  1
  Co  Co15  1  0.655734  0.499420  0.156313  1
  Co  Co16  1  0.344176  0.500628  0.843548  1
  Pb  Pb17  1  0.498596  0.000501  0.498095  1
