# generated using pymatgen
data_CaAcB4Ir5
_symmetry_space_group_name_H-M   'P 1'
_cell_length_a   7.63365611
_cell_length_b   6.36592437
_cell_length_c   5.77896526
_cell_angle_alpha   77.72024362
_cell_angle_beta   54.57241879
_cell_angle_gamma   47.70735321
_symmetry_Int_Tables_number   1
_chemical_formula_structural   CaAcB4Ir5
_chemical_formula_sum   'Ca1 Ac1 B4 Ir5'
_cell_volume   161.77656706
_cell_formula_units_Z   1
loop_
 _symmetry_equiv_pos_site_id
 _symmetry_equiv_pos_as_xyz
  1  'x, y, z'
loop_
 _atom_site_type_symbol
 _atom_site_label
 _atom_site_symmetry_multiplicity
 _atom_site_fract_x
 _atom_site_fract_y
 _atom_site_fract_z
 _atom_site_occupancy
  Ca  Ca0  1  0.147591  0.147591  0.852409  1
  Ac  Ac1  1  0.861932  0.861932  0.138068  1
  B  B2  1  0.788151  0.466781  0.533219  1
  B  B3  1  0.206338  0.531716  0.468284  1
  B  B4  1  0.531716  0.206338  0.793662  1
  B  B5  1  0.466781  0.788151  0.211849  1
  Ir  Ir6  1  0.502382  0.502382  0.497618  1
  Ir  Ir7  1  0.500312  0.500312  0.999688  1
  Ir  Ir8  1  0.000312  0.000312  0.499688  1
  Ir  Ir9  1  0.747242  0.747242  0.752758  1
  Ir  Ir10  1  0.247242  0.247242  0.252758  1
