# generated using pymatgen
data_ErTh(MgRh)2
_symmetry_space_group_name_H-M   'P 1'
_cell_length_a   4.03752700
_cell_length_b   7.19873429
_cell_length_c   8.81704987
_cell_angle_alpha   91.45509348
_cell_angle_beta   90.00000000
_cell_angle_gamma   90.00000000
_symmetry_Int_Tables_number   1
_chemical_formula_structural   ErTh(MgRh)2
_chemical_formula_sum   'Er2 Th2 Mg4 Rh4'
_cell_volume   256.18565803
_cell_formula_units_Z   2
loop_
 _symmetry_equiv_pos_site_id
 _symmetry_equiv_pos_as_xyz
  1  'x, y, z'
loop_
 _atom_site_type_symbol
 _atom_site_label
 _atom_site_symmetry_multiplicity
 _atom_site_fract_x
 _atom_site_fract_y
 _atom_site_fract_z
 _atom_site_occupancy
  Er  Er0  1  0.750000  0.962587  0.672349  1
  Er  Er1  1  0.250000  0.037413  0.327651  1
  Th  Th2  1  0.250000  0.537500  0.183952  1
  Th  Th3  1  0.750000  0.462500  0.816048  1
  Mg  Mg4  1  0.250000  0.642121  0.555987  1
  Mg  Mg5  1  0.750000  0.357879  0.444013  1
  Mg  Mg6  1  0.750000  0.875407  0.061365  1
  Mg  Mg7  1  0.250000  0.124593  0.938635  1
  Rh  Rh8  1  0.250000  0.733924  0.875134  1
  Rh  Rh9  1  0.750000  0.266076  0.124866  1
  Rh  Rh10  1  0.750000  0.750551  0.361772  1
  Rh  Rh11  1  0.250000  0.249449  0.638228  1
