# generated using pymatgen
data_NaDy6NiCl12
_symmetry_space_group_name_H-M   'P 1'
_cell_length_a   8.79789080
_cell_length_b   8.79617761
_cell_length_c   8.79591952
_cell_angle_alpha   106.69525017
_cell_angle_beta   106.68926852
_cell_angle_gamma   106.67703286
_symmetry_Int_Tables_number   1
_chemical_formula_structural   NaDy6NiCl12
_chemical_formula_sum   'Na1 Dy6 Ni1 Cl12'
_cell_volume   571.65937831
_cell_formula_units_Z   1
loop_
 _symmetry_equiv_pos_site_id
 _symmetry_equiv_pos_as_xyz
  1  'x, y, z'
loop_
 _atom_site_type_symbol
 _atom_site_label
 _atom_site_symmetry_multiplicity
 _atom_site_fract_x
 _atom_site_fract_y
 _atom_site_fract_z
 _atom_site_occupancy
  Na  Na0  1  0.500000  0.500000  0.500000  1
  Dy  Dy1  1  0.321619  0.115382  0.027131  1
  Dy  Dy2  1  0.027181  0.321490  0.115276  1
  Dy  Dy3  1  0.115231  0.027080  0.321312  1
  Dy  Dy4  1  0.884768  0.972920  0.678688  1
  Dy  Dy5  1  0.972819  0.678510  0.884723  1
  Dy  Dy6  1  0.678381  0.884618  0.972868  1
  Ni  Ni7  1  0.000000  0.000000  0.000000  1
  Cl  Cl8  1  0.679112  0.210925  0.071637  1
  Cl  Cl9  1  0.364015  0.449367  0.149724  1
  Cl  Cl10  1  0.071579  0.678961  0.210831  1
  Cl  Cl11  1  0.789219  0.928531  0.321031  1
  Cl  Cl12  1  0.449284  0.149816  0.364042  1
  Cl  Cl13  1  0.149780  0.364029  0.449283  1
  Cl  Cl14  1  0.850221  0.635971  0.550718  1
  Cl  Cl15  1  0.550716  0.850185  0.635958  1
  Cl  Cl16  1  0.210780  0.071469  0.678969  1
  Cl  Cl17  1  0.928421  0.321039  0.789168  1
  Cl  Cl18  1  0.635986  0.550634  0.850276  1
  Cl  Cl19  1  0.320888  0.789074  0.928363  1
