# generated using pymatgen
data_Ce2Nd3Dy(Al3Ru)8
_symmetry_space_group_name_H-M   'P 1'
_cell_length_a   8.85593454
_cell_length_b   8.90060554
_cell_length_c   9.63354100
_cell_angle_alpha   90.00000000
_cell_angle_beta   90.00000000
_cell_angle_gamma   120.06807410
_symmetry_Int_Tables_number   1
_chemical_formula_structural   Ce2Nd3Dy(Al3Ru)8
_chemical_formula_sum   'Ce2 Nd3 Dy1 Al24 Ru8'
_cell_volume   657.16165719
_cell_formula_units_Z   1
loop_
 _symmetry_equiv_pos_site_id
 _symmetry_equiv_pos_as_xyz
  1  'x, y, z'
loop_
 _atom_site_type_symbol
 _atom_site_label
 _atom_site_symmetry_multiplicity
 _atom_site_fract_x
 _atom_site_fract_y
 _atom_site_fract_z
 _atom_site_occupancy
  Ce  Ce0  1  0.803655  0.193675  0.750000  1
  Ce  Ce1  1  0.196112  0.389524  0.250000  1
  Nd  Nd2  1  0.190068  0.807013  0.250000  1
  Nd  Nd3  1  0.615237  0.804708  0.250000  1
  Nd  Nd4  1  0.384968  0.189894  0.750000  1
  Dy  Dy5  1  0.808730  0.614597  0.750000  1
  Al  Al6  1  0.334515  0.668718  0.490906  1
  Al  Al7  1  0.665931  0.335253  0.988874  1
  Al  Al8  1  0.665931  0.335253  0.511126  1
  Al  Al9  1  0.334515  0.668718  0.009094  1
  Al  Al10  1  0.161614  0.323937  0.577927  1
  Al  Al11  1  0.676032  0.836162  0.579855  1
  Al  Al12  1  0.159836  0.835792  0.578178  1
  Al  Al13  1  0.838631  0.162634  0.077405  1
  Al  Al14  1  0.838631  0.162634  0.422595  1
  Al  Al15  1  0.838298  0.675364  0.075122  1
  Al  Al16  1  0.324867  0.162193  0.078580  1
  Al  Al17  1  0.676032  0.836162  0.920145  1
  Al  Al18  1  0.161614  0.323937  0.922073  1
  Al  Al19  1  0.838298  0.675364  0.424878  1
  Al  Al20  1  0.002844  0.005071  0.250000  1
  Al  Al21  1  0.995640  0.998493  0.750000  1
  Al  Al22  1  0.563022  0.124582  0.250000  1
  Al  Al23  1  0.439728  0.561610  0.750000  1
  Al  Al24  1  0.123688  0.561615  0.750000  1
  Al  Al25  1  0.874291  0.435479  0.250000  1
  Al  Al26  1  0.563386  0.435642  0.250000  1
  Al  Al27  1  0.436512  0.871662  0.750000  1
  Al  Al28  1  0.159836  0.835792  0.921822  1
  Al  Al29  1  0.324867  0.162193  0.421420  1
  Ru  Ru30  1  0.000060  0.999606  0.500162  1
  Ru  Ru31  1  0.000060  0.999606  0.999838  1
  Ru  Ru32  1  0.502640  0.002887  0.503458  1
  Ru  Ru33  1  0.499301  0.500785  0.002113  1
  Ru  Ru34  1  0.999334  0.499889  0.998931  1
  Ru  Ru35  1  0.999334  0.499889  0.501069  1
  Ru  Ru36  1  0.499301  0.500785  0.497887  1
  Ru  Ru37  1  0.502640  0.002887  0.996542  1
