# generated using pymatgen
data_Pr3CdSnPt3Pb
_symmetry_space_group_name_H-M   'P 1'
_cell_length_a   7.80897535
_cell_length_b   7.85903416
_cell_length_c   4.07574600
_cell_angle_alpha   90.00000000
_cell_angle_beta   90.00000000
_cell_angle_gamma   119.78643134
_symmetry_Int_Tables_number   1
_chemical_formula_structural   Pr3CdSnPt3Pb
_chemical_formula_sum   'Pr3 Cd1 Sn1 Pt3 Pb1'
_cell_volume   217.08588258
_cell_formula_units_Z   1
loop_
 _symmetry_equiv_pos_site_id
 _symmetry_equiv_pos_as_xyz
  1  'x, y, z'
loop_
 _atom_site_type_symbol
 _atom_site_label
 _atom_site_symmetry_multiplicity
 _atom_site_fract_x
 _atom_site_fract_y
 _atom_site_fract_z
 _atom_site_occupancy
  Pr  Pr0  1  0.584571  0.585156  0.000000  1
  Pr  Pr1  1  0.409588  0.004923  0.000000  1
  Pr  Pr2  1  0.003127  0.406331  0.000000  1
  Cd  Cd3  1  0.256646  0.256577  0.500000  1
  Sn  Sn4  1  0.748045  0.001187  0.500000  1
  Pt  Pt5  1  0.664147  0.323553  0.500000  1
  Pt  Pt6  1  0.989237  0.004983  0.000000  1
  Pt  Pt7  1  0.343592  0.669929  0.500000  1
  Pb  Pb8  1  0.001046  0.747362  0.500000  1
