# generated using pymatgen
data_NaDy5YCoBr12
_symmetry_space_group_name_H-M   'P 1'
_cell_length_a   9.25964756
_cell_length_b   9.15527371
_cell_length_c   9.13649499
_cell_angle_alpha   106.24516244
_cell_angle_beta   106.81479680
_cell_angle_gamma   107.22019584
_symmetry_Int_Tables_number   1
_chemical_formula_structural   NaDy5YCoBr12
_chemical_formula_sum   'Na1 Dy5 Y1 Co1 Br12'
_cell_volume   649.18573169
_cell_formula_units_Z   1
loop_
 _symmetry_equiv_pos_site_id
 _symmetry_equiv_pos_as_xyz
  1  'x, y, z'
loop_
 _atom_site_type_symbol
 _atom_site_label
 _atom_site_symmetry_multiplicity
 _atom_site_fract_x
 _atom_site_fract_y
 _atom_site_fract_z
 _atom_site_occupancy
  Na  Na0  1  0.499816  0.501389  0.497630  1
  Dy  Dy1  1  0.103544  0.303874  0.025994  1
  Dy  Dy2  1  0.318041  0.026565  0.109770  1
  Dy  Dy3  1  0.026689  0.102423  0.304314  1
  Dy  Dy4  1  0.973609  0.898375  0.696635  1
  Dy  Dy5  1  0.681260  0.970823  0.891451  1
  Y  Y6  1  0.895932  0.692715  0.973877  1
  Co  Co7  1  0.999848  0.999280  0.000537  1
  Br  Br8  1  0.218461  0.679485  0.075093  1
  Br  Br9  1  0.448018  0.365423  0.142648  1
  Br  Br10  1  0.682201  0.075073  0.220108  1
  Br  Br11  1  0.925692  0.781916  0.321215  1
  Br  Br12  1  0.143799  0.446674  0.364900  1
  Br  Br13  1  0.366950  0.146054  0.450287  1
  Br  Br14  1  0.634025  0.858122  0.551479  1
  Br  Br15  1  0.855100  0.553914  0.632292  1
  Br  Br16  1  0.075463  0.220710  0.681965  1
  Br  Br17  1  0.318922  0.927794  0.781612  1
  Br  Br18  1  0.550227  0.630935  0.854027  1
  Br  Br19  1  0.782408  0.318457  0.924171  1
