# generated using pymatgen
data_Cs4Mn3V(PS5)4
_symmetry_space_group_name_H-M   'P 1'
_cell_length_a   10.15286192
_cell_length_b   10.15286107
_cell_length_c   16.66560374
_cell_angle_alpha   59.14362773
_cell_angle_beta   59.14362990
_cell_angle_gamma   40.06278533
_symmetry_Int_Tables_number   1
_chemical_formula_structural   Cs4Mn3V(PS5)4
_chemical_formula_sum   'Cs4 Mn3 V1 P4 S20'
_cell_volume   926.39067913
_cell_formula_units_Z   1
loop_
 _symmetry_equiv_pos_site_id
 _symmetry_equiv_pos_as_xyz
  1  'x, y, z'
loop_
 _atom_site_type_symbol
 _atom_site_label
 _atom_site_symmetry_multiplicity
 _atom_site_fract_x
 _atom_site_fract_y
 _atom_site_fract_z
 _atom_site_occupancy
  Cs  Cs0  1  0.664816  0.663659  0.142788  1
  Cs  Cs1  1  0.693327  0.691798  0.650758  1
  Cs  Cs2  1  0.308202  0.306673  0.349242  1
  Cs  Cs3  1  0.336341  0.335184  0.857212  1
  Mn  Mn4  1  0.734723  0.265277  0.000000  1
  Mn  Mn5  1  0.265105  0.734895  0.000000  1
  Mn  Mn6  1  0.779634  0.220366  0.500000  1
  V  V7  1  0.192692  0.807308  0.500000  1
  P  P8  1  0.345211  0.339263  0.587779  1
  P  P9  1  0.071275  0.071315  0.094011  1
  P  P10  1  0.928685  0.928725  0.905989  1
  P  P11  1  0.660737  0.654789  0.412221  1
  S  S12  1  0.165348  0.164831  0.112631  1
  S  S13  1  0.612832  0.118364  0.640351  1
  S  S14  1  0.127165  0.605455  0.642128  1
  S  S15  1  0.966373  0.976677  0.420391  1
  S  S16  1  0.455843  0.440462  0.448543  1
  S  S17  1  0.102859  0.103037  0.951188  1
  S  S18  1  0.753873  0.240831  0.141783  1
  S  S19  1  0.240718  0.753931  0.141802  1
  S  S20  1  0.596493  0.596706  0.928661  1
  S  S21  1  0.229740  0.231699  0.606150  1
  S  S22  1  0.768301  0.770260  0.393850  1
  S  S23  1  0.403294  0.403507  0.071339  1
  S  S24  1  0.246069  0.759282  0.858198  1
  S  S25  1  0.759169  0.246127  0.858217  1
  S  S26  1  0.896963  0.897141  0.048812  1
  S  S27  1  0.559538  0.544157  0.551457  1
  S  S28  1  0.023323  0.033627  0.579609  1
  S  S29  1  0.881636  0.387168  0.359649  1
  S  S30  1  0.394545  0.872835  0.357872  1
  S  S31  1  0.835169  0.834652  0.887369  1
