# generated using pymatgen
data_Dy2YB7Os
_symmetry_space_group_name_H-M   'P 1'
_cell_length_a   8.07032075
_cell_length_b   8.07032076
_cell_length_c   9.33712200
_cell_angle_alpha   90.00000000
_cell_angle_beta   90.00000000
_cell_angle_gamma   154.78755878
_symmetry_Int_Tables_number   1
_chemical_formula_structural   Dy2YB7Os
_chemical_formula_sum   'Dy4 Y2 B14 Os2'
_cell_volume   259.04756087
_cell_formula_units_Z   2
loop_
 _symmetry_equiv_pos_site_id
 _symmetry_equiv_pos_as_xyz
  1  'x, y, z'
loop_
 _atom_site_type_symbol
 _atom_site_label
 _atom_site_symmetry_multiplicity
 _atom_site_fract_x
 _atom_site_fract_y
 _atom_site_fract_z
 _atom_site_occupancy
  Dy  Dy0  1  0.893937  0.106063  0.439722  1
  Dy  Dy1  1  0.106063  0.893937  0.560278  1
  Dy  Dy2  1  0.893937  0.106063  0.060278  1
  Dy  Dy3  1  0.106063  0.893937  0.939722  1
  Y  Y4  1  0.244192  0.755808  0.250000  1
  Y  Y5  1  0.755808  0.244192  0.750000  1
  B  B6  1  0.727199  0.272801  0.466086  1
  B  B7  1  0.272801  0.727199  0.533914  1
  B  B8  1  0.727199  0.272801  0.033914  1
  B  B9  1  0.272801  0.727199  0.966086  1
  B  B10  1  0.631655  0.368345  0.150571  1
  B  B11  1  0.368345  0.631655  0.849429  1
  B  B12  1  0.631655  0.368345  0.349429  1
  B  B13  1  0.368345  0.631655  0.650571  1
  B  B14  1  0.520827  0.479173  0.096288  1
  B  B15  1  0.479173  0.520827  0.903712  1
  B  B16  1  0.520827  0.479173  0.403712  1
  B  B17  1  0.479173  0.520827  0.596288  1
  B  B18  1  0.457103  0.542897  0.250000  1
  B  B19  1  0.542897  0.457103  0.750000  1
  Os  Os20  1  0.053915  0.946085  0.250000  1
  Os  Os21  1  0.946085  0.053915  0.750000  1
