# generated using pymatgen
data_CeY(Al3Ir)3
_symmetry_space_group_name_H-M   'P 1'
_cell_length_a   7.59894434
_cell_length_b   7.59877430
_cell_length_c   9.48671400
_cell_angle_alpha   90.00000000
_cell_angle_beta   90.00000000
_cell_angle_gamma   119.59032531
_symmetry_Int_Tables_number   1
_chemical_formula_structural   CeY(Al3Ir)3
_chemical_formula_sum   'Ce2 Y2 Al18 Ir6'
_cell_volume   476.34468205
_cell_formula_units_Z   2
loop_
 _symmetry_equiv_pos_site_id
 _symmetry_equiv_pos_as_xyz
  1  'x, y, z'
loop_
 _atom_site_type_symbol
 _atom_site_label
 _atom_site_symmetry_multiplicity
 _atom_site_fract_x
 _atom_site_fract_y
 _atom_site_fract_z
 _atom_site_occupancy
  Ce  Ce0  1  0.995430  0.669777  0.250000  1
  Ce  Ce1  1  0.004570  0.330223  0.750000  1
  Y  Y2  1  0.670877  0.995303  0.250000  1
  Y  Y3  1  0.329123  0.004697  0.750000  1
  Al  Al4  1  0.128988  0.128533  0.250000  1
  Al  Al5  1  0.871012  0.871467  0.750000  1
  Al  Al6  1  0.000974  0.333108  0.075445  1
  Al  Al7  1  0.999026  0.666892  0.924555  1
  Al  Al8  1  0.999026  0.666892  0.575445  1
  Al  Al9  1  0.336643  0.002272  0.425951  1
  Al  Al10  1  0.000974  0.333108  0.424555  1
  Al  Al11  1  0.663357  0.997728  0.574049  1
  Al  Al12  1  0.663357  0.997728  0.925951  1
  Al  Al13  1  0.336643  0.002272  0.074049  1
  Al  Al14  1  0.335017  0.333458  0.552156  1
  Al  Al15  1  0.664983  0.666542  0.447844  1
  Al  Al16  1  0.664983  0.666542  0.052156  1
  Al  Al17  1  0.335017  0.333458  0.947844  1
  Al  Al18  1  0.340968  0.548145  0.250000  1
  Al  Al19  1  0.659032  0.451855  0.750000  1
  Al  Al20  1  0.546312  0.339061  0.250000  1
  Al  Al21  1  0.453688  0.660939  0.750000  1
  Ir  Ir22  1  0.672419  0.328695  0.999924  1
  Ir  Ir23  1  0.327581  0.671305  0.000076  1
  Ir  Ir24  1  0.327581  0.671305  0.499924  1
  Ir  Ir25  1  0.672419  0.328695  0.500076  1
  Ir  Ir26  1  0.000000  0.000000  0.000000  1
  Ir  Ir27  1  0.000000  0.000000  0.500000  1
