# generated using pymatgen
data_Tb5Ho3Np4O24
_symmetry_space_group_name_H-M   'P 1'
_cell_length_a   5.54239222
_cell_length_b   7.84630599
_cell_length_c   11.84776686
_cell_angle_alpha   73.88265547
_cell_angle_beta   90.01900843
_cell_angle_gamma   90.03061388
_symmetry_Int_Tables_number   1
_chemical_formula_structural   Tb5Ho3Np4O24
_chemical_formula_sum   'Tb5 Ho3 Np4 O24'
_cell_volume   494.97644274
_cell_formula_units_Z   1
loop_
 _symmetry_equiv_pos_site_id
 _symmetry_equiv_pos_as_xyz
  1  'x, y, z'
loop_
 _atom_site_type_symbol
 _atom_site_label
 _atom_site_symmetry_multiplicity
 _atom_site_fract_x
 _atom_site_fract_y
 _atom_site_fract_z
 _atom_site_occupancy
  Tb  Tb0  1  0.744696  0.000362  0.750532  1
  Tb  Tb1  1  0.255332  0.000271  0.249525  1
  Tb  Tb2  1  0.186479  0.795396  0.579232  1
  Tb  Tb3  1  0.698461  0.499565  0.750499  1
  Tb  Tb4  1  0.301752  0.499856  0.249910  1
  Ho  Ho5  1  0.813643  0.794787  0.079575  1
  Ho  Ho6  1  0.186431  0.205272  0.920352  1
  Ho  Ho7  1  0.813214  0.205634  0.420225  1
  Np  Np8  1  0.255789  0.720006  0.887573  1
  Np  Np9  1  0.744595  0.719988  0.386530  1
  Np  Np10  1  0.255413  0.279883  0.612897  1
  Np  Np11  1  0.744501  0.279845  0.112882  1
  O  O12  1  0.046288  0.943579  0.897822  1
  O  O13  1  0.553384  0.847799  0.932989  1
  O  O14  1  0.953956  0.943857  0.397253  1
  O  O15  1  0.449439  0.799974  0.727894  1
  O  O16  1  0.448579  0.848419  0.430973  1
  O  O17  1  0.964930  0.714371  0.766880  1
  O  O18  1  0.552035  0.800086  0.226229  1
  O  O19  1  0.874055  0.625912  0.554588  1
  O  O20  1  0.386640  0.480361  0.884050  1
  O  O21  1  0.035165  0.714507  0.265929  1
  O  O22  1  0.388495  0.518410  0.616072  1
  O  O23  1  0.876707  0.372749  0.945311  1
  O  O24  1  0.123207  0.627015  0.054978  1
  O  O25  1  0.612815  0.480233  0.383679  1
  O  O26  1  0.965485  0.285724  0.734305  1
  O  O27  1  0.613147  0.519435  0.115979  1
  O  O28  1  0.123382  0.373111  0.445033  1
  O  O29  1  0.447975  0.199487  0.773456  1
  O  O30  1  0.034760  0.285445  0.233881  1
  O  O31  1  0.552675  0.151659  0.567451  1
  O  O32  1  0.551911  0.199849  0.273160  1
  O  O33  1  0.044258  0.058236  0.602607  1
  O  O34  1  0.446521  0.152481  0.067434  1
  O  O35  1  0.953886  0.056436  0.102316  1
