# generated using pymatgen
data_Sc8TaTc11Ge16
_symmetry_space_group_name_H-M   'P 1'
_cell_length_a   6.76997240
_cell_length_b   6.87285278
_cell_length_c   12.69347061
_cell_angle_alpha   89.81115353
_cell_angle_beta   89.97709401
_cell_angle_gamma   89.14300249
_symmetry_Int_Tables_number   1
_chemical_formula_structural   Sc8TaTc11Ge16
_chemical_formula_sum   'Sc8 Ta1 Tc11 Ge16'
_cell_volume   590.54548413
_cell_formula_units_Z   1
loop_
 _symmetry_equiv_pos_site_id
 _symmetry_equiv_pos_as_xyz
  1  'x, y, z'
loop_
 _atom_site_type_symbol
 _atom_site_label
 _atom_site_symmetry_multiplicity
 _atom_site_fract_x
 _atom_site_fract_y
 _atom_site_fract_z
 _atom_site_occupancy
  Sc  Sc0  1  0.486178  0.674595  0.587551  1
  Sc  Sc1  1  0.981750  0.818665  0.912840  1
  Sc  Sc2  1  0.517852  0.321771  0.087561  1
  Sc  Sc3  1  0.015735  0.175148  0.410234  1
  Sc  Sc4  1  0.514411  0.334250  0.409066  1
  Sc  Sc5  1  0.014352  0.163294  0.091392  1
  Sc  Sc6  1  0.491249  0.669590  0.910314  1
  Sc  Sc7  1  0.984300  0.832388  0.591806  1
  Ta  Ta8  1  0.174247  0.346654  0.627074  1
  Tc  Tc9  1  0.670158  0.146248  0.619030  1
  Tc  Tc10  1  0.205991  0.368589  0.881219  1
  Tc  Tc11  1  0.308084  0.862376  0.125870  1
  Tc  Tc12  1  0.799383  0.636196  0.372580  1
  Tc  Tc13  1  0.335090  0.852888  0.369015  1
  Tc  Tc14  1  0.830231  0.640583  0.126000  1
  Tc  Tc15  1  0.656869  0.142422  0.880102  1
  Tc  Tc16  1  0.839698  0.516642  0.751247  1
  Tc  Tc17  1  0.324622  0.998188  0.748582  1
  Tc  Tc18  1  0.170911  0.489244  0.249646  1
  Tc  Tc19  1  0.672687  0.008669  0.247384  1
  Ge  Ge20  1  0.679956  0.953061  0.449309  1
  Ge  Ge21  1  0.177399  0.549427  0.051312  1
  Ge  Ge22  1  0.315148  0.044577  0.950963  1
  Ge  Ge23  1  0.825589  0.452492  0.547886  1
  Ge  Ge24  1  0.328545  0.041303  0.542349  1
  Ge  Ge25  1  0.839928  0.439841  0.949729  1
  Ge  Ge26  1  0.665620  0.943798  0.049210  1
  Ge  Ge27  1  0.167384  0.557867  0.449518  1
  Ge  Ge28  1  0.490232  0.373629  0.747399  1
  Ge  Ge29  1  0.971304  0.139973  0.766116  1
  Ge  Ge30  1  0.518893  0.632721  0.239836  1
  Ge  Ge31  1  0.019272  0.858445  0.259612  1
  Ge  Ge32  1  0.683417  0.855453  0.749173  1
  Ge  Ge33  1  0.192130  0.660106  0.750224  1
  Ge  Ge34  1  0.316229  0.154503  0.250169  1
  Ge  Ge35  1  0.815158  0.344400  0.248684  1
