# generated using pymatgen
data_Sc8Ti8ReSi16Tc3
_symmetry_space_group_name_H-M   'P 1'
_cell_length_a   6.76748789
_cell_length_b   6.76748809
_cell_length_c   12.43787715
_cell_angle_alpha   89.99719714
_cell_angle_beta   89.99719528
_cell_angle_gamma   89.96940974
_symmetry_Int_Tables_number   1
_chemical_formula_structural   Sc8Ti8ReSi16Tc3
_chemical_formula_sum   'Sc8 Ti8 Re1 Si16 Tc3'
_cell_volume   569.64093090
_cell_formula_units_Z   1
loop_
 _symmetry_equiv_pos_site_id
 _symmetry_equiv_pos_as_xyz
  1  'x, y, z'
loop_
 _atom_site_type_symbol
 _atom_site_label
 _atom_site_symmetry_multiplicity
 _atom_site_fract_x
 _atom_site_fract_y
 _atom_site_fract_z
 _atom_site_occupancy
  Sc  Sc0  1  0.000593  0.662409  0.029548  1
  Sc  Sc1  1  0.999007  0.337563  0.529787  1
  Sc  Sc2  1  0.337591  0.999407  0.470452  1
  Sc  Sc3  1  0.162016  0.499260  0.779729  1
  Sc  Sc4  1  0.837880  0.500549  0.279617  1
  Sc  Sc5  1  0.499451  0.162120  0.220383  1
  Sc  Sc6  1  0.500740  0.837984  0.720271  1
  Sc  Sc7  1  0.662437  0.000993  0.970213  1
  Ti  Ti8  1  0.996193  0.850244  0.626200  1
  Ti  Ti9  1  0.003987  0.150271  0.126114  1
  Ti  Ti10  1  0.849729  0.996013  0.373886  1
  Ti  Ti11  1  0.349655  0.503929  0.375836  1
  Ti  Ti12  1  0.650762  0.495469  0.875713  1
  Ti  Ti13  1  0.504531  0.349238  0.624287  1
  Ti  Ti14  1  0.496071  0.650345  0.124164  1
  Ti  Ti15  1  0.149756  0.003807  0.873800  1
  Re  Re16  1  0.828392  0.171608  0.750000  1
  Si  Si17  1  0.044082  0.701973  0.433675  1
  Si  Si18  1  0.634998  0.295192  0.428964  1
  Si  Si19  1  0.365111  0.704784  0.929090  1
  Si  Si20  1  0.204606  0.135688  0.679022  1
  Si  Si21  1  0.295216  0.634889  0.570910  1
  Si  Si22  1  0.704808  0.365002  0.071036  1
  Si  Si23  1  0.795136  0.864812  0.179022  1
  Si  Si24  1  0.135188  0.204864  0.320978  1
  Si  Si25  1  0.956298  0.298231  0.933959  1
  Si  Si26  1  0.701769  0.043702  0.566041  1
  Si  Si27  1  0.201922  0.455924  0.183509  1
  Si  Si28  1  0.798366  0.544153  0.683474  1
  Si  Si29  1  0.455847  0.201634  0.816526  1
  Si  Si30  1  0.544076  0.798078  0.316491  1
  Si  Si31  1  0.298027  0.955918  0.066325  1
  Si  Si32  1  0.864312  0.795394  0.820978  1
  Tc  Tc33  1  0.671459  0.671422  0.500128  1
  Tc  Tc34  1  0.171408  0.828592  0.250000  1
  Tc  Tc35  1  0.328578  0.328541  0.999872  1
