# generated using pymatgen
data_Pr15Ho4LuSn16
_symmetry_space_group_name_H-M   'P 1'
_cell_length_a   8.24186628
_cell_length_b   8.39844035
_cell_length_c   15.89748800
_cell_angle_alpha   90.01548638
_cell_angle_beta   89.94888343
_cell_angle_gamma   90.05622867
_symmetry_Int_Tables_number   1
_chemical_formula_structural   Pr15Ho4LuSn16
_chemical_formula_sum   'Pr15 Ho4 Lu1 Sn16'
_cell_volume   1100.40438941
_cell_formula_units_Z   1
loop_
 _symmetry_equiv_pos_site_id
 _symmetry_equiv_pos_as_xyz
  1  'x, y, z'
loop_
 _atom_site_type_symbol
 _atom_site_label
 _atom_site_symmetry_multiplicity
 _atom_site_fract_x
 _atom_site_fract_y
 _atom_site_fract_z
 _atom_site_occupancy
  Pr  Pr0  1  0.863636  0.662016  0.622799  1
  Pr  Pr1  1  0.634900  0.161269  0.378744  1
  Pr  Pr2  1  0.138630  0.336919  0.118898  1
  Pr  Pr3  1  0.635063  0.163014  0.121676  1
  Pr  Pr4  1  0.135780  0.337331  0.378508  1
  Pr  Pr5  1  0.364500  0.837936  0.621526  1
  Pr  Pr6  1  0.865615  0.661884  0.879365  1
  Pr  Pr7  1  0.517074  0.318907  0.902076  1
  Pr  Pr8  1  0.018357  0.180505  0.598783  1
  Pr  Pr9  1  0.482966  0.681268  0.402203  1
  Pr  Pr10  1  0.983003  0.818724  0.097416  1
  Pr  Pr11  1  0.483854  0.682159  0.095743  1
  Pr  Pr12  1  0.983282  0.818818  0.401677  1
  Pr  Pr13  1  0.517421  0.319127  0.599650  1
  Pr  Pr14  1  0.015718  0.179663  0.902427  1
  Ho  Ho15  1  0.361499  0.838921  0.876004  1
  Ho  Ho16  1  0.196212  0.502753  0.751253  1
  Ho  Ho17  1  0.693856  0.997692  0.750952  1
  Ho  Ho18  1  0.805301  0.498303  0.249784  1
  Lu  Lu19  1  0.303391  0.001867  0.249362  1
  Sn  Sn20  1  0.297488  0.030947  0.040569  1
  Sn  Sn21  1  0.795408  0.464951  0.456212  1
  Sn  Sn22  1  0.706344  0.965240  0.544881  1
  Sn  Sn23  1  0.210239  0.541908  0.954762  1
  Sn  Sn24  1  0.693891  0.961325  0.955460  1
  Sn  Sn25  1  0.204808  0.534594  0.544789  1
  Sn  Sn26  1  0.294268  0.033712  0.454524  1
  Sn  Sn27  1  0.795997  0.464753  0.044610  1
  Sn  Sn28  1  0.557600  0.619562  0.752337  1
  Sn  Sn29  1  0.061995  0.885132  0.752226  1
  Sn  Sn30  1  0.439094  0.385884  0.249840  1
  Sn  Sn31  1  0.941041  0.115872  0.248986  1
  Sn  Sn32  1  0.322695  0.145592  0.752102  1
  Sn  Sn33  1  0.822508  0.351231  0.750972  1
  Sn  Sn34  1  0.678394  0.851926  0.249679  1
  Sn  Sn35  1  0.178171  0.648294  0.249203  1
