# generated using pymatgen
data_La5Nd5(GeC)4
_symmetry_space_group_name_H-M   'P 1'
_cell_length_a   8.18246650
_cell_length_b   12.85122092
_cell_length_c   4.25164500
_cell_angle_alpha   90.00000000
_cell_angle_beta   90.00000000
_cell_angle_gamma   90.21608662
_symmetry_Int_Tables_number   1
_chemical_formula_structural   La5Nd5(GeC)4
_chemical_formula_sum   'La5 Nd5 Ge4 C4'
_cell_volume   447.07720987
_cell_formula_units_Z   1
loop_
 _symmetry_equiv_pos_site_id
 _symmetry_equiv_pos_as_xyz
  1  'x, y, z'
loop_
 _atom_site_type_symbol
 _atom_site_label
 _atom_site_symmetry_multiplicity
 _atom_site_fract_x
 _atom_site_fract_y
 _atom_site_fract_z
 _atom_site_occupancy
  La  La0  1  0.825545  0.787050  0.000000  1
  La  La1  1  0.831443  0.062019  0.499998  1
  La  La2  1  0.330682  0.438543  0.499998  1
  La  La3  1  0.668959  0.560626  0.499998  1
  La  La4  1  0.169852  0.940109  0.499998  1
  Nd  Nd5  1  0.498742  0.000711  0.000000  1
  Nd  Nd6  1  0.173404  0.212264  0.000000  1
  Nd  Nd7  1  0.672427  0.288458  0.000000  1
  Nd  Nd8  1  0.001244  0.499111  0.000000  1
  Nd  Nd9  1  0.326710  0.711191  0.000000  1
  Ge  Ge10  1  0.450832  0.171449  0.499998  1
  Ge  Ge11  1  0.951582  0.328169  0.499998  1
  Ge  Ge12  1  0.052448  0.669064  0.499998  1
  Ge  Ge13  1  0.543227  0.829609  0.499998  1
  C  C14  1  0.040960  0.047659  0.000000  1
  C  C15  1  0.540152  0.453137  0.000000  1
  C  C16  1  0.461023  0.547119  0.000000  1
  C  C17  1  0.960770  0.953715  0.000000  1
