# generated using pymatgen
data_BaPuPdS3
_symmetry_space_group_name_H-M   'P 1'
_cell_length_a   7.07794985
_cell_length_b   7.07795025
_cell_length_c   10.21031029
_cell_angle_alpha   89.97376282
_cell_angle_beta   90.02623788
_cell_angle_gamma   146.20985546
_symmetry_Int_Tables_number   1
_chemical_formula_structural   BaPuPdS3
_chemical_formula_sum   'Ba2 Pu2 Pd2 S6'
_cell_volume   284.47748748
_cell_formula_units_Z   2
loop_
 _symmetry_equiv_pos_site_id
 _symmetry_equiv_pos_as_xyz
  1  'x, y, z'
loop_
 _atom_site_type_symbol
 _atom_site_label
 _atom_site_symmetry_multiplicity
 _atom_site_fract_x
 _atom_site_fract_y
 _atom_site_fract_z
 _atom_site_occupancy
  Ba  Ba0  1  0.245039  0.754963  0.249796  1
  Ba  Ba1  1  0.754963  0.245039  0.750204  1
  Pu  Pu2  1  0.500001  0.500001  0.000000  1
  Pu  Pu3  1  0.500001  0.500001  0.500000  1
  Pd  Pd4  1  0.969032  0.030970  0.249886  1
  Pd  Pd5  1  0.030970  0.969032  0.750114  1
  S  S6  1  0.869189  0.130812  0.050940  1
  S  S7  1  0.569537  0.430464  0.249987  1
  S  S8  1  0.869130  0.130871  0.448662  1
  S  S9  1  0.130871  0.869130  0.551337  1
  S  S10  1  0.430464  0.569537  0.750013  1
  S  S11  1  0.130812  0.869189  0.949060  1
