# generated using pymatgen
data_Ba12Fe4O19
_symmetry_space_group_name_H-M   'P 1'
_cell_length_a   7.91582601
_cell_length_b   7.91509634
_cell_length_c   10.51199060
_cell_angle_alpha   89.97237467
_cell_angle_beta   89.97194746
_cell_angle_gamma   97.46829651
_symmetry_Int_Tables_number   1
_chemical_formula_structural   Ba12Fe4O19
_chemical_formula_sum   'Ba12 Fe4 O19'
_cell_volume   653.03645611
_cell_formula_units_Z   1
loop_
 _symmetry_equiv_pos_site_id
 _symmetry_equiv_pos_as_xyz
  1  'x, y, z'
loop_
 _atom_site_type_symbol
 _atom_site_label
 _atom_site_symmetry_multiplicity
 _atom_site_fract_x
 _atom_site_fract_y
 _atom_site_fract_z
 _atom_site_occupancy
  Ba  Ba0  1  0.741047  0.258910  0.500000  1
  Ba  Ba1  1  0.263847  0.736203  0.999997  1
  Ba  Ba2  1  0.736153  0.263797  0.000003  1
  Ba  Ba3  1  0.258953  0.741090  0.500000  1
  Ba  Ba4  1  0.578116  0.578125  0.248060  1
  Ba  Ba5  1  0.071481  0.071470  0.762271  1
  Ba  Ba6  1  0.421884  0.421875  0.751940  1
  Ba  Ba7  1  0.928519  0.928530  0.237729  1
  Ba  Ba8  1  0.748701  0.748746  0.925806  1
  Ba  Ba9  1  0.260650  0.260603  0.425212  1
  Ba  Ba10  1  0.251299  0.251254  0.074194  1
  Ba  Ba11  1  0.739350  0.739397  0.574788  1
  Fe  Fe12  1  0.501474  0.001809  0.256551  1
  Fe  Fe13  1  0.998201  0.498538  0.743457  1
  Fe  Fe14  1  0.001799  0.501462  0.256543  1
  Fe  Fe15  1  0.498526  0.998191  0.743449  1
  O  O16  1  0.263324  0.962291  0.289987  1
  O  O17  1  0.760409  0.462629  0.763888  1
  O  O18  1  0.537383  0.239636  0.236113  1
  O  O19  1  0.037700  0.736643  0.710013  1
  O  O20  1  0.927196  0.634827  0.389343  1
  O  O21  1  0.420120  0.112130  0.885162  1
  O  O22  1  0.887901  0.579866  0.114876  1
  O  O23  1  0.365131  0.072811  0.610625  1
  O  O24  1  0.239591  0.537371  0.236112  1
  O  O25  1  0.736676  0.037709  0.710013  1
  O  O26  1  0.962300  0.263357  0.289987  1
  O  O27  1  0.462617  0.760364  0.763887  1
  O  O28  1  0.579880  0.887870  0.114838  1
  O  O29  1  0.072804  0.365173  0.610657  1
  O  O30  1  0.634869  0.927189  0.389375  1
  O  O31  1  0.112099  0.420134  0.885124  1
  O  O32  1  0.500000  0.500000  0.000000  1
  O  O33  1  0.000000  0.000000  0.000000  1
  O  O34  1  0.500000  0.500000  0.500000  1
