# generated using pymatgen
data_Dy2Y(SnPt)3
_symmetry_space_group_name_H-M   'P 1'
_cell_length_a   7.54844633
_cell_length_b   7.54844547
_cell_length_c   4.01287800
_cell_angle_alpha   90.00000000
_cell_angle_beta   90.00000000
_cell_angle_gamma   120.09004530
_symmetry_Int_Tables_number   1
_chemical_formula_structural   Dy2Y(SnPt)3
_chemical_formula_sum   'Dy2 Y1 Sn3 Pt3'
_cell_volume   197.83672156
_cell_formula_units_Z   1
loop_
 _symmetry_equiv_pos_site_id
 _symmetry_equiv_pos_as_xyz
  1  'x, y, z'
loop_
 _atom_site_type_symbol
 _atom_site_label
 _atom_site_symmetry_multiplicity
 _atom_site_fract_x
 _atom_site_fract_y
 _atom_site_fract_z
 _atom_site_occupancy
  Dy  Dy0  1  0.594373  0.999934  0.500000  1
  Dy  Dy1  1  0.999934  0.594373  0.500000  1
  Y  Y2  1  0.405376  0.405376  0.500000  1
  Sn  Sn3  1  0.741156  0.741156  0.000000  1
  Sn  Sn4  1  0.258873  0.999865  0.000000  1
  Sn  Sn5  1  0.999865  0.258873  0.000000  1
  Pt  Pt6  1  0.667432  0.333344  0.000000  1
  Pt  Pt7  1  0.333344  0.667432  0.000000  1
  Pt  Pt8  1  0.999648  0.999648  0.500000  1
