# generated using pymatgen
data_Be12Ir5Rh6Au
_symmetry_space_group_name_H-M   'P 1'
_cell_length_a   3.96834200
_cell_length_b   5.63028900
_cell_length_c   11.89324900
_cell_angle_alpha   90.00000000
_cell_angle_beta   89.99913328
_cell_angle_gamma   90.00000000
_symmetry_Int_Tables_number   1
_chemical_formula_structural   Be12Ir5Rh6Au
_chemical_formula_sum   'Be12 Ir5 Rh6 Au1'
_cell_volume   265.72981948
_cell_formula_units_Z   1
loop_
 _symmetry_equiv_pos_site_id
 _symmetry_equiv_pos_as_xyz
  1  'x, y, z'
loop_
 _atom_site_type_symbol
 _atom_site_label
 _atom_site_symmetry_multiplicity
 _atom_site_fract_x
 _atom_site_fract_y
 _atom_site_fract_z
 _atom_site_occupancy
  Be  Be0  1  0.500003  0.237883  0.007220  1
  Be  Be1  1  0.500003  0.762117  0.007220  1
  Be  Be2  1  0.000095  0.251387  0.167109  1
  Be  Be3  1  0.000095  0.748613  0.167109  1
  Be  Be4  1  0.500088  0.256114  0.333338  1
  Be  Be5  1  0.500088  0.743886  0.333338  1
  Be  Be6  1  0.000001  0.251387  0.499570  1
  Be  Be7  1  0.000001  0.748613  0.499570  1
  Be  Be8  1  0.499901  0.237874  0.659439  1
  Be  Be9  1  0.499901  0.762126  0.659439  1
  Be  Be10  1  0.999928  0.229286  0.833338  1
  Be  Be11  1  0.999928  0.770714  0.833338  1
  Ir  Ir12  1  0.000001  0.000000  0.001390  1
  Ir  Ir13  1  0.500064  0.500000  0.165617  1
  Ir  Ir14  1  0.000064  0.000000  0.333352  1
  Ir  Ir15  1  0.499998  0.500000  0.501070  1
  Ir  Ir16  1  0.999930  0.000000  0.665287  1
  Rh  Rh17  1  0.000001  0.500000  0.998098  1
  Rh  Rh18  1  0.500064  0.000000  0.170772  1
  Rh  Rh19  1  0.000055  0.500000  0.333334  1
  Rh  Rh20  1  0.499996  0.000000  0.495907  1
  Rh  Rh21  1  0.999936  0.500000  0.668543  1
  Rh  Rh22  1  0.499930  0.000000  0.833327  1
  Au  Au23  1  0.499938  0.500000  0.833275  1
