# generated using pymatgen
data_DyCoP2Ru
_symmetry_space_group_name_H-M   'P 1'
_cell_length_a   4.04665100
_cell_length_b   4.04665100
_cell_length_c   9.07012200
_cell_angle_alpha   90.00000000
_cell_angle_beta   90.00000000
_cell_angle_gamma   90.00000000
_symmetry_Int_Tables_number   1
_chemical_formula_structural   DyCoP2Ru
_chemical_formula_sum   'Dy2 Co2 P4 Ru2'
_cell_volume   148.52673354
_cell_formula_units_Z   2
loop_
 _symmetry_equiv_pos_site_id
 _symmetry_equiv_pos_as_xyz
  1  'x, y, z'
loop_
 _atom_site_type_symbol
 _atom_site_label
 _atom_site_symmetry_multiplicity
 _atom_site_fract_x
 _atom_site_fract_y
 _atom_site_fract_z
 _atom_site_occupancy
  Dy  Dy0  1  0.000000  0.500000  0.266443  1
  Dy  Dy1  1  0.500000  0.000000  0.733557  1
  Co  Co2  1  0.000000  0.500000  0.610961  1
  Co  Co3  1  0.500000  0.000000  0.389039  1
  P  P4  1  0.000000  0.000000  0.500000  1
  P  P5  1  0.500000  0.500000  0.500000  1
  P  P6  1  0.000000  0.500000  0.861910  1
  P  P7  1  0.500000  0.000000  0.138090  1
  Ru  Ru8  1  0.000000  0.000000  0.000000  1
  Ru  Ru9  1  0.500000  0.500000  0.000000  1
