# generated using pymatgen
data_EuHo5FeCo17P12
_symmetry_space_group_name_H-M   'P 1'
_cell_length_a   3.70964400
_cell_length_b   10.55251000
_cell_length_c   12.19697800
_cell_angle_alpha   90.00000000
_cell_angle_beta   90.00000000
_cell_angle_gamma   90.00000000
_symmetry_Int_Tables_number   1
_chemical_formula_structural   EuHo5FeCo17P12
_chemical_formula_sum   'Eu1 Ho5 Fe1 Co17 P12'
_cell_volume   477.46357658
_cell_formula_units_Z   1
loop_
 _symmetry_equiv_pos_site_id
 _symmetry_equiv_pos_as_xyz
  1  'x, y, z'
loop_
 _atom_site_type_symbol
 _atom_site_label
 _atom_site_symmetry_multiplicity
 _atom_site_fract_x
 _atom_site_fract_y
 _atom_site_fract_z
 _atom_site_occupancy
  Eu  Eu0  1  0.000000  0.500000  0.523319  1
  Ho  Ho1  1  0.500000  0.000000  0.477898  1
  Ho  Ho2  1  0.500000  0.817975  0.205107  1
  Ho  Ho3  1  0.500000  0.182025  0.205107  1
  Ho  Ho4  1  0.000000  0.682379  0.795658  1
  Ho  Ho5  1  0.000000  0.317621  0.795658  1
  Fe  Fe6  1  0.500000  0.500000  0.155276  1
  Co  Co7  1  0.000000  0.500000  0.986346  1
  Co  Co8  1  0.500000  0.000000  0.013958  1
  Co  Co9  1  0.500000  0.293033  0.430243  1
  Co  Co10  1  0.500000  0.706967  0.430243  1
  Co  Co11  1  0.000000  0.200248  0.570067  1
  Co  Co12  1  0.000000  0.799752  0.570067  1
  Co  Co13  1  0.500000  0.879979  0.710450  1
  Co  Co14  1  0.500000  0.120021  0.710450  1
  Co  Co15  1  0.000000  0.621789  0.289509  1
  Co  Co16  1  0.000000  0.378211  0.289509  1
  Co  Co17  1  0.500000  0.332613  0.993933  1
  Co  Co18  1  0.500000  0.667387  0.993933  1
  Co  Co19  1  0.000000  0.166395  0.005854  1
  Co  Co20  1  0.000000  0.833605  0.005854  1
  Co  Co21  1  0.000000  0.000000  0.841155  1
  Co  Co22  1  0.500000  0.500000  0.703844  1
  Co  Co23  1  0.000000  0.000000  0.297716  1
  P  P24  1  0.500000  0.306785  0.617402  1
  P  P25  1  0.500000  0.693215  0.617402  1
  P  P26  1  0.000000  0.189364  0.383743  1
  P  P27  1  0.000000  0.810636  0.383743  1
  P  P28  1  0.500000  0.500000  0.882831  1
  P  P29  1  0.000000  0.000000  0.117793  1
  P  P30  1  0.500000  0.847548  0.893312  1
  P  P31  1  0.500000  0.152452  0.893312  1
  P  P32  1  0.000000  0.653290  0.106500  1
  P  P33  1  0.000000  0.346710  0.106500  1
  P  P34  1  0.500000  0.500000  0.339503  1
  P  P35  1  0.000000  0.000000  0.656806  1
