# generated using pymatgen
data_Nd3Si6(Pd3Rh)5
_symmetry_space_group_name_H-M   'P 1'
_cell_length_a   8.72438142
_cell_length_b   8.75204552
_cell_length_c   8.78700300
_cell_angle_alpha   59.86779585
_cell_angle_beta   59.76227975
_cell_angle_gamma   59.64338198
_symmetry_Int_Tables_number   1
_chemical_formula_structural   Nd3Si6(Pd3Rh)5
_chemical_formula_sum   'Nd3 Si6 Pd15 Rh5'
_cell_volume   471.81504835
_cell_formula_units_Z   1
loop_
 _symmetry_equiv_pos_site_id
 _symmetry_equiv_pos_as_xyz
  1  'x, y, z'
loop_
 _atom_site_type_symbol
 _atom_site_label
 _atom_site_symmetry_multiplicity
 _atom_site_fract_x
 _atom_site_fract_y
 _atom_site_fract_z
 _atom_site_occupancy
  Nd  Nd0  1  0.258999  0.247850  0.246575  1
  Nd  Nd1  1  0.742709  0.744858  0.756217  1
  Nd  Nd2  1  0.999850  0.000108  0.000021  1
  Si  Si3  1  0.723717  0.276237  0.270821  1
  Si  Si4  1  0.278952  0.723999  0.723659  1
  Si  Si5  1  0.278952  0.723999  0.273390  1
  Si  Si6  1  0.723717  0.276237  0.729226  1
  Si  Si7  1  0.273489  0.273897  0.726308  1
  Si  Si8  1  0.721234  0.727156  0.275805  1
  Pd  Pd9  1  0.619496  0.151815  0.614345  1
  Pd  Pd10  1  0.849400  0.381273  0.384664  1
  Pd  Pd11  1  0.149190  0.617801  0.616505  1
  Pd  Pd12  1  0.342206  0.001928  0.001288  1
  Pd  Pd13  1  0.656391  0.999737  0.998746  1
  Pd  Pd14  1  0.000542  0.344862  0.654135  1
  Pd  Pd15  1  0.999343  0.657563  0.344232  1
  Pd  Pd16  1  0.000542  0.344862  0.000462  1
  Pd  Pd17  1  0.656391  0.999737  0.345125  1
  Pd  Pd18  1  0.999343  0.657563  0.998861  1
  Pd  Pd19  1  0.342206  0.001928  0.654578  1
  Pd  Pd20  1  0.999589  0.001222  0.344185  1
  Pd  Pd21  1  0.999589  0.001222  0.655004  1
  Pd  Pd22  1  0.655630  0.345327  0.999522  1
  Pd  Pd23  1  0.342185  0.656863  0.000475  1
  Rh  Rh24  1  0.383894  0.384556  0.388503  1
  Rh  Rh25  1  0.618416  0.613578  0.613157  1
  Rh  Rh26  1  0.383894  0.384556  0.843046  1
  Rh  Rh27  1  0.381716  0.845686  0.386298  1
  Rh  Rh28  1  0.618416  0.613578  0.154849  1
