# generated using pymatgen
data_Sr6Ca2MnNiO12
_symmetry_space_group_name_H-M   'P 1'
_cell_length_a   6.78525384
_cell_length_b   6.78525385
_cell_length_c   6.78525411
_cell_angle_alpha   91.40370920
_cell_angle_beta   91.40371325
_cell_angle_gamma   91.40370707
_symmetry_Int_Tables_number   1
_chemical_formula_structural   Sr6Ca2MnNiO12
_chemical_formula_sum   'Sr6 Ca2 Mn1 Ni1 O12'
_cell_volume   312.10493721
_cell_formula_units_Z   1
loop_
 _symmetry_equiv_pos_site_id
 _symmetry_equiv_pos_as_xyz
  1  'x, y, z'
loop_
 _atom_site_type_symbol
 _atom_site_label
 _atom_site_symmetry_multiplicity
 _atom_site_fract_x
 _atom_site_fract_y
 _atom_site_fract_z
 _atom_site_occupancy
  Sr  Sr0  1  0.884292  0.249512  0.617490  1
  Sr  Sr1  1  0.382510  0.115708  0.750488  1
  Sr  Sr2  1  0.750488  0.382510  0.115708  1
  Sr  Sr3  1  0.249512  0.617490  0.884292  1
  Sr  Sr4  1  0.617490  0.884292  0.249512  1
  Sr  Sr5  1  0.115708  0.750488  0.382510  1
  Ca  Ca6  1  0.751511  0.751511  0.751511  1
  Ca  Ca7  1  0.248489  0.248489  0.248489  1
  Mn  Mn8  1  0.500000  0.500000  0.500000  1
  Ni  Ni9  1  0.000000  0.000000  0.000000  1
  O  O10  1  0.921517  0.724484  0.050068  1
  O  O11  1  0.449931  0.776702  0.579157  1
  O  O12  1  0.050068  0.921517  0.724484  1
  O  O13  1  0.275516  0.949932  0.078483  1
  O  O14  1  0.949932  0.078483  0.275516  1
  O  O15  1  0.724484  0.050068  0.921517  1
  O  O16  1  0.579157  0.449931  0.776702  1
  O  O17  1  0.776702  0.579157  0.449931  1
  O  O18  1  0.420843  0.550069  0.223298  1
  O  O19  1  0.223298  0.420843  0.550069  1
  O  O20  1  0.550069  0.223298  0.420843  1
  O  O21  1  0.078483  0.275516  0.949932  1
