# generated using pymatgen
data_LuHf2(SiRu)3
_symmetry_space_group_name_H-M   'P 1'
_cell_length_a   7.67733106
_cell_length_b   7.67733096
_cell_length_c   7.67733075
_cell_angle_alpha   127.53493122
_cell_angle_beta   123.19214487
_cell_angle_gamma   80.98496947
_symmetry_Int_Tables_number   1
_chemical_formula_structural   LuHf2(SiRu)3
_chemical_formula_sum   'Lu2 Hf4 Si6 Ru6'
_cell_volume   289.42844971
_cell_formula_units_Z   2
loop_
 _symmetry_equiv_pos_site_id
 _symmetry_equiv_pos_as_xyz
  1  'x, y, z'
loop_
 _atom_site_type_symbol
 _atom_site_label
 _atom_site_symmetry_multiplicity
 _atom_site_fract_x
 _atom_site_fract_y
 _atom_site_fract_z
 _atom_site_occupancy
  Lu  Lu0  1  0.464942  0.688765  0.723824  1
  Lu  Lu1  1  0.535058  0.258882  0.223824  1
  Hf  Hf2  1  0.746121  0.832094  0.585973  1
  Hf  Hf3  1  0.253879  0.839852  0.085973  1
  Hf  Hf4  1  0.053008  0.257074  0.704064  1
  Hf  Hf5  1  0.946992  0.651056  0.204064  1
  Si  Si6  1  0.269162  0.263105  0.493942  1
  Si  Si7  1  0.730838  0.224779  0.993942  1
  Si  Si8  1  0.322885  0.590460  0.245962  1
  Si  Si9  1  0.677115  0.923078  0.267575  1
  Si  Si10  1  0.155502  0.923078  0.745962  1
  Si  Si11  1  0.844498  0.590460  0.767575  1
  Ru  Ru12  1  0.500000  0.499559  0.999559  1
  Ru  Ru13  1  0.000000  0.499559  0.499559  1
  Ru  Ru14  1  0.095491  0.251790  0.102601  1
  Ru  Ru15  1  0.904509  0.007110  0.156300  1
  Ru  Ru16  1  0.350810  0.007110  0.602601  1
  Ru  Ru17  1  0.649190  0.251790  0.656300  1
