# generated using pymatgen
data_Dy7Y(P7Ir8)2
_symmetry_space_group_name_H-M   'P 1'
_cell_length_a   3.94964100
_cell_length_b   12.67828338
_cell_length_c   13.11568361
_cell_angle_alpha   80.86620193
_cell_angle_beta   90.00000000
_cell_angle_gamma   90.00000000
_symmetry_Int_Tables_number   1
_chemical_formula_structural   Dy7Y(P7Ir8)2
_chemical_formula_sum   'Dy7 Y1 P14 Ir16'
_cell_volume   648.43596209
_cell_formula_units_Z   1
loop_
 _symmetry_equiv_pos_site_id
 _symmetry_equiv_pos_as_xyz
  1  'x, y, z'
loop_
 _atom_site_type_symbol
 _atom_site_label
 _atom_site_symmetry_multiplicity
 _atom_site_fract_x
 _atom_site_fract_y
 _atom_site_fract_z
 _atom_site_occupancy
  Dy  Dy0  1  0.750000  0.897732  0.210260  1
  Dy  Dy1  1  0.250000  0.279333  0.102059  1
  Dy  Dy2  1  0.750000  0.720625  0.897952  1
  Dy  Dy3  1  0.250000  0.520505  0.293880  1
  Dy  Dy4  1  0.750000  0.479526  0.706114  1
  Dy  Dy5  1  0.250000  0.209107  0.437868  1
  Dy  Dy6  1  0.750000  0.790852  0.562080  1
  Y  Y7  1  0.250000  0.102730  0.789851  1
  P  P8  1  0.250000  0.051756  0.100326  1
  P  P9  1  0.750000  0.948006  0.899721  1
  P  P10  1  0.250000  0.312349  0.688903  1
  P  P11  1  0.750000  0.687937  0.311017  1
  P  P12  1  0.250000  0.607715  0.567103  1
  P  P13  1  0.750000  0.392289  0.432869  1
  P  P14  1  0.250000  0.843526  0.717856  1
  P  P15  1  0.750000  0.156401  0.282138  1
  P  P16  1  0.750000  0.258071  0.920103  1
  P  P17  1  0.250000  0.741995  0.080073  1
  P  P18  1  0.750000  0.093363  0.587828  1
  P  P19  1  0.250000  0.906560  0.412007  1
  P  P20  1  0.750000  0.472377  0.129309  1
  P  P21  1  0.250000  0.527638  0.870715  1
  Ir  Ir22  1  0.250000  0.990878  0.576111  1
  Ir  Ir23  1  0.750000  0.009054  0.423822  1
  Ir  Ir24  1  0.250000  0.662837  0.731345  1
  Ir  Ir25  1  0.750000  0.337111  0.268647  1
  Ir  Ir26  1  0.250000  0.555322  0.044557  1
  Ir  Ir27  1  0.750000  0.444703  0.955447  1
  Ir  Ir28  1  0.250000  0.059623  0.272783  1
  Ir  Ir29  1  0.750000  0.940022  0.727179  1
  Ir  Ir30  1  0.250000  0.421808  0.523348  1
  Ir  Ir31  1  0.750000  0.578230  0.476584  1
  Ir  Ir32  1  0.250000  0.914980  0.997651  1
  Ir  Ir33  1  0.750000  0.084977  0.002513  1
  Ir  Ir34  1  0.250000  0.729038  0.395304  1
  Ir  Ir35  1  0.750000  0.270946  0.604667  1
  Ir  Ir36  1  0.250000  0.341772  0.857922  1
  Ir  Ir37  1  0.750000  0.658304  0.142090  1
