# generated using pymatgen
data_CeY3TiAl3Ir4
_symmetry_space_group_name_H-M   'P 1'
_cell_length_a   6.96541518
_cell_length_b   4.27697700
_cell_length_c   7.94997704
_cell_angle_alpha   90.00000000
_cell_angle_beta   90.62607675
_cell_angle_gamma   90.00000000
_symmetry_Int_Tables_number   1
_chemical_formula_structural   CeY3TiAl3Ir4
_chemical_formula_sum   'Ce1 Y3 Ti1 Al3 Ir4'
_cell_volume   236.82299478
_cell_formula_units_Z   1
loop_
 _symmetry_equiv_pos_site_id
 _symmetry_equiv_pos_as_xyz
  1  'x, y, z'
loop_
 _atom_site_type_symbol
 _atom_site_label
 _atom_site_symmetry_multiplicity
 _atom_site_fract_x
 _atom_site_fract_y
 _atom_site_fract_z
 _atom_site_occupancy
  Ce  Ce0  1  0.528233  0.750000  0.680898  1
  Y  Y1  1  0.967093  0.250000  0.175004  1
  Y  Y2  1  0.464208  0.250000  0.312838  1
  Y  Y3  1  0.033432  0.750000  0.826008  1
  Ti  Ti4  1  0.881729  0.250000  0.563188  1
  Al  Al5  1  0.354773  0.250000  0.940092  1
  Al  Al6  1  0.139557  0.750000  0.435517  1
  Al  Al7  1  0.638657  0.750000  0.064398  1
  Ir  Ir8  1  0.724696  0.250000  0.870857  1
  Ir  Ir9  1  0.233489  0.250000  0.619494  1
  Ir  Ir10  1  0.267443  0.750000  0.119755  1
  Ir  Ir11  1  0.766688  0.750000  0.391950  1
