# generated using pymatgen
data_Ba4Er3BrO8
_symmetry_space_group_name_H-M   'P 1'
_cell_length_a   4.36620100
_cell_length_b   4.36620100
_cell_length_c   17.09559600
_cell_angle_alpha   90.00000000
_cell_angle_beta   90.00000000
_cell_angle_gamma   90.00000000
_symmetry_Int_Tables_number   1
_chemical_formula_structural   Ba4Er3BrO8
_chemical_formula_sum   'Ba4 Er3 Br1 O8'
_cell_volume   325.90550446
_cell_formula_units_Z   1
loop_
 _symmetry_equiv_pos_site_id
 _symmetry_equiv_pos_as_xyz
  1  'x, y, z'
loop_
 _atom_site_type_symbol
 _atom_site_label
 _atom_site_symmetry_multiplicity
 _atom_site_fract_x
 _atom_site_fract_y
 _atom_site_fract_z
 _atom_site_occupancy
  Ba  Ba0  1  0.500000  0.500000  0.111103  1
  Ba  Ba1  1  0.500000  0.500000  0.888897  1
  Ba  Ba2  1  0.500000  0.500000  0.373745  1
  Ba  Ba3  1  0.500000  0.500000  0.626255  1
  Er  Er4  1  0.000000  0.000000  0.256562  1
  Er  Er5  1  0.000000  0.000000  0.743438  1
  Er  Er6  1  0.000000  0.000000  0.000000  1
  Br  Br7  1  0.000000  0.000000  0.500000  1
  O  O8  1  0.000000  0.500000  0.291167  1
  O  O9  1  0.000000  0.500000  0.708833  1
  O  O10  1  0.500000  0.000000  0.291167  1
  O  O11  1  0.500000  0.000000  0.708833  1
  O  O12  1  0.000000  0.000000  0.134772  1
  O  O13  1  0.000000  0.000000  0.865228  1
  O  O14  1  0.000000  0.500000  0.000000  1
  O  O15  1  0.500000  0.000000  0.000000  1
