# generated using pymatgen
data_YbHo2Er(B4Ru)4
_symmetry_space_group_name_H-M   'P 1'
_cell_length_a   3.54006600
_cell_length_b   5.94739331
_cell_length_c   11.49169325
_cell_angle_alpha   90.00803293
_cell_angle_beta   90.00000000
_cell_angle_gamma   90.00000000
_symmetry_Int_Tables_number   1
_chemical_formula_structural   YbHo2Er(B4Ru)4
_chemical_formula_sum   'Yb1 Ho2 Er1 B16 Ru4'
_cell_volume   241.94800176
_cell_formula_units_Z   1
loop_
 _symmetry_equiv_pos_site_id
 _symmetry_equiv_pos_as_xyz
  1  'x, y, z'
loop_
 _atom_site_type_symbol
 _atom_site_label
 _atom_site_symmetry_multiplicity
 _atom_site_fract_x
 _atom_site_fract_y
 _atom_site_fract_z
 _atom_site_occupancy
  Yb  Yb0  1  0.000000  0.129907  0.149611  1
  Ho  Ho1  1  0.000000  0.629092  0.348789  1
  Ho  Ho2  1  0.000000  0.371618  0.650062  1
  Er  Er3  1  0.000000  0.871375  0.850946  1
  B  B4  1  0.500000  0.788932  0.185143  1
  B  B5  1  0.500000  0.209921  0.814950  1
  B  B6  1  0.500000  0.288217  0.314084  1
  B  B7  1  0.500000  0.710791  0.686065  1
  B  B8  1  0.500000  0.864517  0.030086  1
  B  B9  1  0.500000  0.135767  0.969691  1
  B  B10  1  0.500000  0.364240  0.470056  1
  B  B11  1  0.500000  0.636075  0.530365  1
  B  B12  1  0.500000  0.888310  0.453155  1
  B  B13  1  0.500000  0.112339  0.547176  1
  B  B14  1  0.500000  0.386668  0.046772  1
  B  B15  1  0.500000  0.612233  0.953481  1
  B  B16  1  0.500000  0.975135  0.308170  1
  B  B17  1  0.500000  0.023833  0.692258  1
  B  B18  1  0.500000  0.475956  0.191285  1
  B  B19  1  0.500000  0.524791  0.808283  1
  Ru  Ru20  1  0.000000  0.639762  0.090852  1
  Ru  Ru21  1  0.000000  0.359983  0.907224  1
  Ru  Ru22  1  0.000000  0.141194  0.408698  1
  Ru  Ru23  1  0.000000  0.859345  0.592799  1
