# generated using pymatgen
data_Sm4BeCo3Br2
_symmetry_space_group_name_H-M   'P 1'
_cell_length_a   3.95452200
_cell_length_b   3.95452192
_cell_length_c   16.82164700
_cell_angle_alpha   90.00000000
_cell_angle_beta   90.00000000
_cell_angle_gamma   119.99998392
_symmetry_Int_Tables_number   1
_chemical_formula_structural   Sm4BeCo3Br2
_chemical_formula_sum   'Sm4 Be1 Co3 Br2'
_cell_volume   227.81756239
_cell_formula_units_Z   1
loop_
 _symmetry_equiv_pos_site_id
 _symmetry_equiv_pos_as_xyz
  1  'x, y, z'
loop_
 _atom_site_type_symbol
 _atom_site_label
 _atom_site_symmetry_multiplicity
 _atom_site_fract_x
 _atom_site_fract_y
 _atom_site_fract_z
 _atom_site_occupancy
  Sm  Sm0  1  0.000000  0.000000  0.108338  1
  Sm  Sm1  1  0.000000  0.000000  0.891331  1
  Sm  Sm2  1  0.000000  0.000000  0.606459  1
  Sm  Sm3  1  0.000000  0.000000  0.393877  1
  Be  Be4  1  0.333333  0.666667  0.500327  1
  Co  Co5  1  0.666667  0.333333  0.499330  1
  Co  Co6  1  0.666667  0.333333  0.001934  1
  Co  Co7  1  0.333333  0.666667  0.998113  1
  Br  Br8  1  0.333333  0.666667  0.249593  1
  Br  Br9  1  0.666667  0.333333  0.750700  1
