# generated using pymatgen
data_NaYb(U2S5)2
_symmetry_space_group_name_H-M   'P 1'
_cell_length_a   7.32250700
_cell_length_b   8.06082850
_cell_length_c   11.55774602
_cell_angle_alpha   89.60748373
_cell_angle_beta   90.00000000
_cell_angle_gamma   90.00000000
_symmetry_Int_Tables_number   1
_chemical_formula_structural   NaYb(U2S5)2
_chemical_formula_sum   'Na2 Yb2 U8 S20'
_cell_volume   682.18541854
_cell_formula_units_Z   2
loop_
 _symmetry_equiv_pos_site_id
 _symmetry_equiv_pos_as_xyz
  1  'x, y, z'
loop_
 _atom_site_type_symbol
 _atom_site_label
 _atom_site_symmetry_multiplicity
 _atom_site_fract_x
 _atom_site_fract_y
 _atom_site_fract_z
 _atom_site_occupancy
  Na  Na0  1  0.027773  0.002451  0.318808  1
  Na  Na1  1  0.527773  0.997549  0.181192  1
  Yb  Yb2  1  0.967762  0.996369  0.670667  1
  Yb  Yb3  1  0.467762  0.003631  0.829333  1
  U  U4  1  0.022659  0.499802  0.320434  1
  U  U5  1  0.522659  0.500198  0.179566  1
  U  U6  1  0.980264  0.500115  0.679803  1
  U  U7  1  0.480264  0.499885  0.820197  1
  U  U8  1  0.074205  0.748916  0.008438  1
  U  U9  1  0.574205  0.251084  0.491562  1
  U  U10  1  0.923976  0.246245  0.991800  1
  U  U11  1  0.423976  0.753755  0.508200  1
  S  S12  1  0.164161  0.451672  0.094971  1
  S  S13  1  0.664161  0.548328  0.405029  1
  S  S14  1  0.838374  0.544781  0.901509  1
  S  S15  1  0.338374  0.455219  0.598491  1
  S  S16  1  0.456681  0.722348  0.997412  1
  S  S17  1  0.956681  0.277652  0.502588  1
  S  S18  1  0.543595  0.274873  0.995320  1
  S  S19  1  0.043595  0.725127  0.504680  1
  S  S20  1  0.331736  0.281475  0.317046  1
  S  S21  1  0.831736  0.718525  0.182954  1
  S  S22  1  0.666319  0.732184  0.688625  1
  S  S23  1  0.166319  0.267816  0.811375  1
  S  S24  1  0.669635  0.958310  0.419413  1
  S  S25  1  0.169635  0.041690  0.080587  1
  S  S26  1  0.333824  0.043129  0.595161  1
  S  S27  1  0.833824  0.956871  0.904839  1
  S  S28  1  0.303685  0.729865  0.282645  1
  S  S29  1  0.803685  0.270135  0.217355  1
  S  S30  1  0.695352  0.258265  0.717744  1
  S  S31  1  0.195352  0.741735  0.782256  1
