# generated using pymatgen
data_Cs4Rb3TaIn3As5
_symmetry_space_group_name_H-M   'P 1'
_cell_length_a   8.81004294
_cell_length_b   9.75971396
_cell_length_c   14.94630644
_cell_angle_alpha   85.15679695
_cell_angle_beta   84.47059449
_cell_angle_gamma   87.20103172
_symmetry_Int_Tables_number   1
_chemical_formula_structural   Cs4Rb3TaIn3As5
_chemical_formula_sum   'Cs8 Rb6 Ta2 In6 As10'
_cell_volume   1273.51509830
_cell_formula_units_Z   2
loop_
 _symmetry_equiv_pos_site_id
 _symmetry_equiv_pos_as_xyz
  1  'x, y, z'
loop_
 _atom_site_type_symbol
 _atom_site_label
 _atom_site_symmetry_multiplicity
 _atom_site_fract_x
 _atom_site_fract_y
 _atom_site_fract_z
 _atom_site_occupancy
  Cs  Cs0  1  0.687848  0.079740  0.885325  1
  Cs  Cs1  1  0.312152  0.920260  0.114675  1
  Cs  Cs2  1  0.683459  0.661970  0.398007  1
  Cs  Cs3  1  0.316541  0.338030  0.601993  1
  Cs  Cs4  1  0.756196  0.989163  0.533242  1
  Cs  Cs5  1  0.243804  0.010837  0.466758  1
  Cs  Cs6  1  0.829362  0.368692  0.643094  1
  Cs  Cs7  1  0.170638  0.631308  0.356906  1
  Rb  Rb8  1  0.814402  0.812264  0.133077  1
  Rb  Rb9  1  0.185598  0.187736  0.866923  1
  Rb  Rb10  1  0.272261  0.256211  0.250470  1
  Rb  Rb11  1  0.727739  0.743789  0.749530  1
  Rb  Rb12  1  0.740455  0.498983  0.975745  1
  Rb  Rb13  1  0.259545  0.501017  0.024255  1
  Ta  Ta14  1  0.649364  0.393692  0.224904  1
  Ta  Ta15  1  0.350636  0.606308  0.775096  1
  In  In16  1  0.909245  0.275876  0.372718  1
  In  In17  1  0.090755  0.724124  0.627282  1
  In  In18  1  0.943392  0.187162  0.129853  1
  In  In19  1  0.056608  0.812838  0.870147  1
  In  In20  1  0.636115  0.048602  0.295441  1
  In  In21  1  0.363885  0.951398  0.704559  1
  As  As22  1  0.488056  0.595207  0.187396  1
  As  As23  1  0.511944  0.404793  0.812604  1
  As  As24  1  0.926378  0.452462  0.207859  1
  As  As25  1  0.073622  0.547538  0.792141  1
  As  As26  1  0.583848  0.297216  0.386778  1
  As  As27  1  0.416152  0.702784  0.613222  1
  As  As28  1  0.620223  0.201680  0.123809  1
  As  As29  1  0.379777  0.798320  0.876191  1
  As  As30  1  0.968215  0.005893  0.295809  1
  As  As31  1  0.031785  0.994107  0.704191  1
