# generated using pymatgen
data_AcNi6(BIr)6
_symmetry_space_group_name_H-M   'P 1'
_cell_length_a   6.34863310
_cell_length_b   6.34863371
_cell_length_c   6.34863371
_cell_angle_alpha   103.53437106
_cell_angle_beta   103.53437150
_cell_angle_gamma   103.53437053
_symmetry_Int_Tables_number   1
_chemical_formula_structural   AcNi6(BIr)6
_chemical_formula_sum   'Ac1 Ni6 B6 Ir6'
_cell_volume   230.30239090
_cell_formula_units_Z   1
loop_
 _symmetry_equiv_pos_site_id
 _symmetry_equiv_pos_as_xyz
  1  'x, y, z'
loop_
 _atom_site_type_symbol
 _atom_site_label
 _atom_site_symmetry_multiplicity
 _atom_site_fract_x
 _atom_site_fract_y
 _atom_site_fract_z
 _atom_site_occupancy
  Ac  Ac0  1  0.000000  0.000000  0.000000  1
  Ni  Ni1  1  0.798245  0.541960  0.541960  1
  Ni  Ni2  1  0.541960  0.541960  0.798245  1
  Ni  Ni3  1  0.541960  0.798245  0.541960  1
  Ni  Ni4  1  0.201755  0.458040  0.458040  1
  Ni  Ni5  1  0.458040  0.458040  0.201755  1
  Ni  Ni6  1  0.458040  0.201755  0.458040  1
  B  B7  1  0.352298  0.770007  0.770007  1
  B  B8  1  0.770007  0.770007  0.352298  1
  B  B9  1  0.770007  0.352298  0.770007  1
  B  B10  1  0.647702  0.229993  0.229993  1
  B  B11  1  0.229993  0.229993  0.647702  1
  B  B12  1  0.229993  0.647702  0.229993  1
  Ir  Ir13  1  0.861148  0.138852  0.500000  1
  Ir  Ir14  1  0.138852  0.500000  0.861148  1
  Ir  Ir15  1  0.500000  0.861148  0.138852  1
  Ir  Ir16  1  0.861148  0.500000  0.138852  1
  Ir  Ir17  1  0.500000  0.138852  0.861148  1
  Ir  Ir18  1  0.138852  0.861148  0.500000  1
