# generated using pymatgen
data_Ho4Lu12Cd4NiRu3
_symmetry_space_group_name_H-M   'P 1'
_cell_length_a   9.41416302
_cell_length_b   9.47566310
_cell_length_c   9.47566285
_cell_angle_alpha   59.96518844
_cell_angle_beta   59.69520900
_cell_angle_gamma   59.69521106
_symmetry_Int_Tables_number   1
_chemical_formula_structural   Ho4Lu12Cd4NiRu3
_chemical_formula_sum   'Ho4 Lu12 Cd4 Ni1 Ru3'
_cell_volume   594.78008118
_cell_formula_units_Z   1
loop_
 _symmetry_equiv_pos_site_id
 _symmetry_equiv_pos_as_xyz
  1  'x, y, z'
loop_
 _atom_site_type_symbol
 _atom_site_label
 _atom_site_symmetry_multiplicity
 _atom_site_fract_x
 _atom_site_fract_y
 _atom_site_fract_z
 _atom_site_occupancy
  Ho  Ho0  1  0.559296  0.937644  0.565240  1
  Ho  Ho1  1  0.938850  0.560608  0.939576  1
  Ho  Ho2  1  0.559296  0.565240  0.937644  1
  Ho  Ho3  1  0.938850  0.939576  0.560608  1
  Lu  Lu4  1  0.349997  0.346096  0.346096  1
  Lu  Lu5  1  0.351176  0.345051  0.957645  1
  Lu  Lu6  1  0.351176  0.957645  0.345051  1
  Lu  Lu7  1  0.959030  0.347157  0.347157  1
  Lu  Lu8  1  0.811841  0.187774  0.187774  1
  Lu  Lu9  1  0.186653  0.812713  0.812713  1
  Lu  Lu10  1  0.186980  0.812499  0.188101  1
  Lu  Lu11  1  0.811277  0.188202  0.812657  1
  Lu  Lu12  1  0.186980  0.188101  0.812499  1
  Lu  Lu13  1  0.811277  0.812657  0.188202  1
  Lu  Lu14  1  0.939078  0.560326  0.560326  1
  Lu  Lu15  1  0.558692  0.938368  0.938368  1
  Cd  Cd16  1  0.579887  0.580469  0.580469  1
  Cd  Cd17  1  0.578877  0.580958  0.259815  1
  Cd  Cd18  1  0.578877  0.259815  0.580958  1
  Cd  Cd19  1  0.257527  0.580485  0.580485  1
  Ni  Ni20  1  0.575879  0.141271  0.141271  1
  Ru  Ru21  1  0.142818  0.140593  0.140593  1
  Ru  Ru22  1  0.142842  0.140826  0.575928  1
  Ru  Ru23  1  0.142842  0.575928  0.140826  1
