# generated using pymatgen
data_Tb19HoRh12
_symmetry_space_group_name_H-M   'P 1'
_cell_length_a   10.93728702
_cell_length_b   10.94111542
_cell_length_c   6.42634400
_cell_angle_alpha   89.98476632
_cell_angle_beta   90.00369319
_cell_angle_gamma   90.00448363
_symmetry_Int_Tables_number   1
_chemical_formula_structural   Tb19HoRh12
_chemical_formula_sum   'Tb19 Ho1 Rh12'
_cell_volume   769.01561920
_cell_formula_units_Z   1
loop_
 _symmetry_equiv_pos_site_id
 _symmetry_equiv_pos_as_xyz
  1  'x, y, z'
loop_
 _atom_site_type_symbol
 _atom_site_label
 _atom_site_symmetry_multiplicity
 _atom_site_fract_x
 _atom_site_fract_y
 _atom_site_fract_z
 _atom_site_occupancy
  Tb  Tb0  1  0.290561  0.090603  0.383131  1
  Tb  Tb1  1  0.291314  0.910050  0.882983  1
  Tb  Tb2  1  0.708672  0.089858  0.883841  1
  Tb  Tb3  1  0.708797  0.909810  0.383081  1
  Tb  Tb4  1  0.590125  0.791204  0.883002  1
  Tb  Tb5  1  0.589915  0.208639  0.382945  1
  Tb  Tb6  1  0.409670  0.791648  0.383539  1
  Tb  Tb7  1  0.410003  0.208566  0.883428  1
  Tb  Tb8  1  0.208830  0.409741  0.617433  1
  Tb  Tb9  1  0.208720  0.589028  0.116738  1
  Tb  Tb10  1  0.791558  0.410403  0.116489  1
  Tb  Tb11  1  0.791375  0.589216  0.616065  1
  Tb  Tb12  1  0.910670  0.708507  0.116273  1
  Tb  Tb13  1  0.910740  0.290747  0.617349  1
  Tb  Tb14  1  0.090020  0.708272  0.616255  1
  Tb  Tb15  1  0.999930  0.999706  0.500898  1
  Tb  Tb16  1  0.000258  0.000281  0.001363  1
  Tb  Tb17  1  0.500109  0.499812  0.000050  1
  Tb  Tb18  1  0.499762  0.499925  0.499888  1
  Ho  Ho19  1  0.089014  0.291769  0.116656  1
  Rh  Rh20  1  0.847747  0.155077  0.249034  1
  Rh  Rh21  1  0.846265  0.846554  0.750186  1
  Rh  Rh22  1  0.153720  0.154084  0.750786  1
  Rh  Rh23  1  0.153758  0.846386  0.250410  1
  Rh  Rh24  1  0.653327  0.346273  0.749571  1
  Rh  Rh25  1  0.653942  0.653767  0.250245  1
  Rh  Rh26  1  0.344834  0.346519  0.248688  1
  Rh  Rh27  1  0.346490  0.653569  0.750091  1
  Rh  Rh28  1  0.499689  0.000358  0.131835  1
  Rh  Rh29  1  0.499943  0.000307  0.630901  1
  Rh  Rh30  1  0.000067  0.499837  0.868233  1
  Rh  Rh31  1  0.000174  0.499487  0.368615  1
