# generated using pymatgen
data_Sc5Sn3P
_symmetry_space_group_name_H-M   'P 1'
_cell_length_a   8.60202500
_cell_length_b   8.60202510
_cell_length_c   6.19000400
_cell_angle_alpha   90.00000000
_cell_angle_beta   90.00000000
_cell_angle_gamma   120.00000346
_symmetry_Int_Tables_number   1
_chemical_formula_structural   Sc5Sn3P
_chemical_formula_sum   'Sc10 Sn6 P2'
_cell_volume   396.66415070
_cell_formula_units_Z   2
loop_
 _symmetry_equiv_pos_site_id
 _symmetry_equiv_pos_as_xyz
  1  'x, y, z'
loop_
 _atom_site_type_symbol
 _atom_site_label
 _atom_site_symmetry_multiplicity
 _atom_site_fract_x
 _atom_site_fract_y
 _atom_site_fract_z
 _atom_site_occupancy
  Sc  Sc0  1  0.666666  0.333332  0.000000  1
  Sc  Sc1  1  0.333332  0.666666  0.000000  1
  Sc  Sc2  1  0.241882  0.000000  0.249998  1
  Sc  Sc3  1  0.000000  0.241882  0.249998  1
  Sc  Sc4  1  0.758117  0.758117  0.250002  1
  Sc  Sc5  1  0.666665  0.333333  0.500000  1
  Sc  Sc6  1  0.333333  0.666665  0.500000  1
  Sc  Sc7  1  0.758119  0.000000  0.750000  1
  Sc  Sc8  1  0.000000  0.758119  0.750000  1
  Sc  Sc9  1  0.241882  0.241882  0.750001  1
  Sn  Sn10  1  0.601280  0.000000  0.249998  1
  Sn  Sn11  1  0.000000  0.601280  0.249998  1
  Sn  Sn12  1  0.398718  0.398718  0.250002  1
  Sn  Sn13  1  0.398720  0.000000  0.750000  1
  Sn  Sn14  1  0.000000  0.398720  0.750000  1
  Sn  Sn15  1  0.601279  0.601279  0.750001  1
  P  P16  1  0.000000  0.000000  0.000000  1
  P  P17  1  0.000000  0.000000  0.500000  1
