# generated using pymatgen
data_Cs2Tb5Nd(CBr6)2
_symmetry_space_group_name_H-M   'P 1'
_cell_length_a   8.90885748
_cell_length_b   8.94695326
_cell_length_c   9.54179978
_cell_angle_alpha   70.88699860
_cell_angle_beta   84.96893108
_cell_angle_gamma   89.21181370
_symmetry_Int_Tables_number   1
_chemical_formula_structural   Cs2Tb5Nd(CBr6)2
_chemical_formula_sum   'Cs2 Tb5 Nd1 C2 Br12'
_cell_volume   715.76486697
_cell_formula_units_Z   1
loop_
 _symmetry_equiv_pos_site_id
 _symmetry_equiv_pos_as_xyz
  1  'x, y, z'
loop_
 _atom_site_type_symbol
 _atom_site_label
 _atom_site_symmetry_multiplicity
 _atom_site_fract_x
 _atom_site_fract_y
 _atom_site_fract_z
 _atom_site_occupancy
  Cs  Cs0  1  0.467161  0.364998  0.330395  1
  Cs  Cs1  1  0.532509  0.635153  0.669447  1
  Tb  Tb2  1  0.085332  0.257432  0.995144  1
  Tb  Tb3  1  0.743922  0.084805  0.000991  1
  Tb  Tb4  1  0.255882  0.913485  0.999061  1
  Tb  Tb5  1  0.973648  0.887554  0.323596  1
  Tb  Tb6  1  0.026716  0.114311  0.676222  1
  Nd  Nd7  1  0.914269  0.737798  0.004481  1
  C  C8  1  0.007509  0.030172  0.921033  1
  C  C9  1  0.994846  0.976742  0.078379  1
  Br  Br10  1  0.075125  0.195821  0.326634  1
  Br  Br11  1  0.925503  0.807395  0.666358  1
  Br  Br12  1  0.213403  0.591163  0.000484  1
  Br  Br13  1  0.796013  0.401912  0.998871  1
  Br  Br14  1  0.401483  0.198116  0.001661  1
  Br  Br15  1  0.589688  0.804824  0.998280  1
  Br  Br16  1  0.668962  0.001328  0.323295  1
  Br  Br17  1  0.330342  0.999075  0.676024  1
  Br  Br18  1  0.278313  0.777067  0.320525  1
  Br  Br19  1  0.721085  0.222237  0.680021  1
  Br  Br20  1  0.851014  0.590071  0.334068  1
  Br  Br21  1  0.147272  0.408541  0.675029  1
