# generated using pymatgen
data_Tb8Y8Cd4NiIr3
_symmetry_space_group_name_H-M   'P 1'
_cell_length_a   9.63466231
_cell_length_b   9.67950193
_cell_length_c   9.68948800
_cell_angle_alpha   59.96586670
_cell_angle_beta   59.81158179
_cell_angle_gamma   59.86448526
_symmetry_Int_Tables_number   1
_chemical_formula_structural   Tb8Y8Cd4NiIr3
_chemical_formula_sum   'Tb8 Y8 Cd4 Ni1 Ir3'
_cell_volume   637.22967727
_cell_formula_units_Z   1
loop_
 _symmetry_equiv_pos_site_id
 _symmetry_equiv_pos_as_xyz
  1  'x, y, z'
loop_
 _atom_site_type_symbol
 _atom_site_label
 _atom_site_symmetry_multiplicity
 _atom_site_fract_x
 _atom_site_fract_y
 _atom_site_fract_z
 _atom_site_occupancy
  Tb  Tb0  1  0.601759  0.597256  0.597028  1
  Tb  Tb1  1  0.601759  0.597256  0.203957  1
  Tb  Tb2  1  0.602908  0.202515  0.597288  1
  Tb  Tb3  1  0.201655  0.600259  0.599043  1
  Tb  Tb4  1  0.059059  0.438998  0.439828  1
  Tb  Tb5  1  0.438055  0.060257  0.060672  1
  Tb  Tb6  1  0.438055  0.060257  0.441014  1
  Tb  Tb7  1  0.059059  0.438998  0.062114  1
  Y  Y8  1  0.439366  0.440918  0.059857  1
  Y  Y9  1  0.058881  0.061578  0.439770  1
  Y  Y10  1  0.188507  0.811920  0.812214  1
  Y  Y11  1  0.811031  0.187053  0.185832  1
  Y  Y12  1  0.811031  0.187053  0.816085  1
  Y  Y13  1  0.188507  0.811920  0.187359  1
  Y  Y14  1  0.810976  0.815767  0.186628  1
  Y  Y15  1  0.188634  0.188248  0.811559  1
  Cd  Cd16  1  0.830160  0.831134  0.831192  1
  Cd  Cd17  1  0.830160  0.831134  0.507511  1
  Cd  Cd18  1  0.829927  0.506290  0.831891  1
  Cd  Cd19  1  0.506406  0.830638  0.831478  1
  Ni  Ni20  1  0.824401  0.393106  0.391248  1
  Ir  Ir21  1  0.392791  0.391791  0.392165  1
  Ir  Ir22  1  0.392791  0.391791  0.823254  1
  Ir  Ir23  1  0.394123  0.823860  0.391009  1
