# generated using pymatgen
data_Er4AlZn5Pt8
_symmetry_space_group_name_H-M   'P 1'
_cell_length_a   7.98024676
_cell_length_b   7.98024636
_cell_length_c   7.68202951
_cell_angle_alpha   89.79953479
_cell_angle_beta   90.20046713
_cell_angle_gamma   139.18413327
_symmetry_Int_Tables_number   1
_chemical_formula_structural   Er4AlZn5Pt8
_chemical_formula_sum   'Er4 Al1 Zn5 Pt8'
_cell_volume   319.76997373
_cell_formula_units_Z   1
loop_
 _symmetry_equiv_pos_site_id
 _symmetry_equiv_pos_as_xyz
  1  'x, y, z'
loop_
 _atom_site_type_symbol
 _atom_site_label
 _atom_site_symmetry_multiplicity
 _atom_site_fract_x
 _atom_site_fract_y
 _atom_site_fract_z
 _atom_site_occupancy
  Er  Er0  1  0.110868  0.889132  0.408288  1
  Er  Er1  1  0.889132  0.110868  0.591712  1
  Er  Er2  1  0.389226  0.610774  0.910430  1
  Er  Er3  1  0.610774  0.389226  0.089570  1
  Al  Al4  1  0.500000  0.500000  0.500000  1
  Zn  Zn5  1  0.000000  0.000000  0.000000  1
  Zn  Zn6  1  0.022133  0.477032  0.250378  1
  Zn  Zn7  1  0.477032  0.022133  0.749622  1
  Zn  Zn8  1  0.977867  0.522968  0.749622  1
  Zn  Zn9  1  0.522968  0.977867  0.250378  1
  Pt  Pt10  1  0.194701  0.304021  0.254138  1
  Pt  Pt11  1  0.304021  0.194701  0.745862  1
  Pt  Pt12  1  0.805299  0.695979  0.745862  1
  Pt  Pt13  1  0.695979  0.805299  0.254138  1
  Pt  Pt14  1  0.179101  0.820899  0.026939  1
  Pt  Pt15  1  0.820899  0.179101  0.973061  1
  Pt  Pt16  1  0.323190  0.676810  0.528512  1
  Pt  Pt17  1  0.676810  0.323190  0.471488  1
