# generated using pymatgen
data_Y7Ho9Cd3AgIr4
_symmetry_space_group_name_H-M   'P 1'
_cell_length_a   9.62031469
_cell_length_b   9.62031504
_cell_length_c   9.61968750
_cell_angle_alpha   59.86192338
_cell_angle_beta   59.86192061
_cell_angle_gamma   59.95417187
_symmetry_Int_Tables_number   1
_chemical_formula_structural   Y7Ho9Cd3AgIr4
_chemical_formula_sum   'Y7 Ho9 Cd3 Ag1 Ir4'
_cell_volume   628.00770788
_cell_formula_units_Z   1
loop_
 _symmetry_equiv_pos_site_id
 _symmetry_equiv_pos_as_xyz
  1  'x, y, z'
loop_
 _atom_site_type_symbol
 _atom_site_label
 _atom_site_symmetry_multiplicity
 _atom_site_fract_x
 _atom_site_fract_y
 _atom_site_fract_z
 _atom_site_occupancy
  Y  Y0  1  0.809838  0.809838  0.187289  1
  Y  Y1  1  0.937463  0.560473  0.561266  1
  Y  Y2  1  0.561011  0.937233  0.936896  1
  Y  Y3  1  0.560473  0.937463  0.561266  1
  Y  Y4  1  0.937233  0.561011  0.936896  1
  Y  Y5  1  0.560640  0.560640  0.937499  1
  Y  Y6  1  0.937152  0.937152  0.561384  1
  Ho  Ho7  1  0.348808  0.348808  0.349228  1
  Ho  Ho8  1  0.349447  0.349447  0.953548  1
  Ho  Ho9  1  0.349070  0.954166  0.349538  1
  Ho  Ho10  1  0.954166  0.349070  0.349538  1
  Ho  Ho11  1  0.809876  0.189523  0.189077  1
  Ho  Ho12  1  0.187554  0.809792  0.809893  1
  Ho  Ho13  1  0.189523  0.809876  0.189077  1
  Ho  Ho14  1  0.809792  0.187554  0.809893  1
  Ho  Ho15  1  0.189153  0.189153  0.810110  1
  Cd  Cd16  1  0.581378  0.581378  0.258995  1
  Cd  Cd17  1  0.581407  0.258919  0.581330  1
  Cd  Cd18  1  0.258919  0.581407  0.581330  1
  Ag  Ag19  1  0.582572  0.582572  0.582624  1
  Ir  Ir20  1  0.141481  0.141481  0.141750  1
  Ir  Ir21  1  0.142790  0.142790  0.576489  1
  Ir  Ir22  1  0.144970  0.575284  0.142545  1
  Ir  Ir23  1  0.575284  0.144970  0.142545  1
