# generated using pymatgen
data_Al(AsPd3)2
_symmetry_space_group_name_H-M   'P 1'
_cell_length_a   6.72254700
_cell_length_b   6.72268763
_cell_length_c   3.59137100
_cell_angle_alpha   90.00000000
_cell_angle_beta   90.00000000
_cell_angle_gamma   119.99932277
_symmetry_Int_Tables_number   1
_chemical_formula_structural   Al(AsPd3)2
_chemical_formula_sum   'Al1 As2 Pd6'
_cell_volume   140.56287981
_cell_formula_units_Z   1
loop_
 _symmetry_equiv_pos_site_id
 _symmetry_equiv_pos_as_xyz
  1  'x, y, z'
loop_
 _atom_site_type_symbol
 _atom_site_label
 _atom_site_symmetry_multiplicity
 _atom_site_fract_x
 _atom_site_fract_y
 _atom_site_fract_z
 _atom_site_occupancy
  Al  Al0  1  0.000001  0.999999  0.499999  1
  As  As1  1  0.333319  0.666650  0.000000  1
  As  As2  1  0.666669  0.333351  0.000000  1
  Pd  Pd3  1  0.610587  0.999999  0.499999  1
  Pd  Pd4  1  0.999965  0.610586  0.499999  1
  Pd  Pd5  1  0.389379  0.389415  0.499999  1
  Pd  Pd6  1  0.263553  0.999999  0.000000  1
  Pd  Pd7  1  0.999984  0.263544  0.000000  1
  Pd  Pd8  1  0.736440  0.736457  0.000000  1
