# generated using pymatgen
data_Ca6CeRh3
_symmetry_space_group_name_H-M   'P 1'
_cell_length_a   6.57278200
_cell_length_b   10.05214608
_cell_length_c   10.05214606
_cell_angle_alpha   120.01740312
_cell_angle_beta   90.00000000
_cell_angle_gamma   90.00000000
_symmetry_Int_Tables_number   1
_chemical_formula_structural   Ca6CeRh3
_chemical_formula_sum   'Ca12 Ce2 Rh6'
_cell_volume   575.07071806
_cell_formula_units_Z   2
loop_
 _symmetry_equiv_pos_site_id
 _symmetry_equiv_pos_as_xyz
  1  'x, y, z'
loop_
 _atom_site_type_symbol
 _atom_site_label
 _atom_site_symmetry_multiplicity
 _atom_site_fract_x
 _atom_site_fract_y
 _atom_site_fract_z
 _atom_site_occupancy
  Ca  Ca0  1  0.243812  0.124428  0.875572  1
  Ca  Ca1  1  0.243499  0.751359  0.875730  1
  Ca  Ca2  1  0.243499  0.124270  0.248641  1
  Ca  Ca3  1  0.743812  0.875572  0.124428  1
  Ca  Ca4  1  0.743499  0.248641  0.124270  1
  Ca  Ca5  1  0.743499  0.875730  0.751359  1
  Ca  Ca6  1  0.460024  0.538405  0.461595  1
  Ca  Ca7  1  0.460378  0.923150  0.461709  1
  Ca  Ca8  1  0.460378  0.538291  0.076850  1
  Ca  Ca9  1  0.960024  0.461595  0.538405  1
  Ca  Ca10  1  0.960378  0.076850  0.538291  1
  Ca  Ca11  1  0.960378  0.461709  0.923150  1
  Ce  Ce12  1  0.521241  0.333422  0.666578  1
  Ce  Ce13  1  0.021241  0.666578  0.333422  1
  Rh  Rh14  1  0.153490  0.800129  0.199871  1
  Rh  Rh15  1  0.153340  0.399391  0.199518  1
  Rh  Rh16  1  0.153340  0.800482  0.600609  1
  Rh  Rh17  1  0.653490  0.199871  0.800129  1
  Rh  Rh18  1  0.653340  0.600609  0.800482  1
  Rh  Rh19  1  0.653340  0.199518  0.399391  1
