# generated using pymatgen
data_SrLa3(BPd4)4
_symmetry_space_group_name_H-M   'P 1'
_cell_length_a   5.53350700
_cell_length_b   6.20570747
_cell_length_c   11.91000100
_cell_angle_alpha   90.08008570
_cell_angle_beta   90.00000000
_cell_angle_gamma   90.00000000
_symmetry_Int_Tables_number   1
_chemical_formula_structural   SrLa3(BPd4)4
_chemical_formula_sum   'Sr1 La3 B4 Pd16'
_cell_volume   408.98100412
_cell_formula_units_Z   1
loop_
 _symmetry_equiv_pos_site_id
 _symmetry_equiv_pos_as_xyz
  1  'x, y, z'
loop_
 _atom_site_type_symbol
 _atom_site_label
 _atom_site_symmetry_multiplicity
 _atom_site_fract_x
 _atom_site_fract_y
 _atom_site_fract_z
 _atom_site_occupancy
  Sr  Sr0  1  0.250000  0.189387  0.659463  1
  La  La1  1  0.750000  0.308810  0.156729  1
  La  La2  1  0.750000  0.809072  0.345115  1
  La  La3  1  0.250000  0.690936  0.842106  1
  B  B4  1  0.750000  0.400435  0.551725  1
  B  B5  1  0.750000  0.900400  0.949212  1
  B  B6  1  0.250000  0.598641  0.448387  1
  B  B7  1  0.250000  0.098538  0.051105  1
  Pd  Pd8  1  0.750000  0.387370  0.734208  1
  Pd  Pd9  1  0.750000  0.881561  0.766233  1
  Pd  Pd10  1  0.250000  0.616109  0.265384  1
  Pd  Pd11  1  0.250000  0.119632  0.233415  1
  Pd  Pd12  1  0.750000  0.058404  0.555232  1
  Pd  Pd13  1  0.750000  0.557945  0.944060  1
  Pd  Pd14  1  0.250000  0.938409  0.440178  1
  Pd  Pd15  1  0.250000  0.442510  0.056107  1
  Pd  Pd16  1  0.998702  0.161355  0.913705  1
  Pd  Pd17  1  0.500406  0.662059  0.587197  1
  Pd  Pd18  1  0.500526  0.838243  0.088874  1
  Pd  Pd19  1  0.999176  0.339263  0.410894  1
  Pd  Pd20  1  0.999474  0.838243  0.088874  1
  Pd  Pd21  1  0.500824  0.339263  0.410894  1
  Pd  Pd22  1  0.501298  0.161355  0.913705  1
  Pd  Pd23  1  0.999594  0.662059  0.587197  1
