# generated using pymatgen
data_Ir(O2F3)2
_symmetry_space_group_name_H-M   'P 1'
_cell_length_a   6.56921922
_cell_length_b   6.58396665
_cell_length_c   6.58111849
_cell_angle_alpha   119.93462692
_cell_angle_beta   119.75060064
_cell_angle_gamma   90.31236595
_symmetry_Int_Tables_number   1
_chemical_formula_structural   Ir(O2F3)2
_chemical_formula_sum   'Ir1 O4 F6'
_cell_volume   201.67900847
_cell_formula_units_Z   1
loop_
 _symmetry_equiv_pos_site_id
 _symmetry_equiv_pos_as_xyz
  1  'x, y, z'
loop_
 _atom_site_type_symbol
 _atom_site_label
 _atom_site_symmetry_multiplicity
 _atom_site_fract_x
 _atom_site_fract_y
 _atom_site_fract_z
 _atom_site_occupancy
  Ir  Ir0  1  0.005194  0.005215  0.999987  1
  O  O1  1  0.281124  0.689367  0.407689  1
  O  O2  1  0.281086  0.873412  0.591740  1
  O  O3  1  0.690086  0.282016  0.408046  1
  O  O4  1  0.874285  0.281953  0.592333  1
  F  F5  1  0.209416  0.208911  0.000414  1
  F  F6  1  0.209588  0.210159  0.405597  1
  F  F7  1  0.209618  0.804027  0.999423  1
  F  F8  1  0.800413  0.800952  0.999570  1
  F  F9  1  0.804217  0.803468  0.594457  1
  F  F10  1  0.804175  0.209720  0.000745  1
