# generated using pymatgen
data_K3In(BPt3)2
_symmetry_space_group_name_H-M   'P 1'
_cell_length_a   8.34704257
_cell_length_b   8.34704221
_cell_length_c   8.34704086
_cell_angle_alpha   40.51618271
_cell_angle_beta   40.51618332
_cell_angle_gamma   40.51618806
_symmetry_Int_Tables_number   1
_chemical_formula_structural   K3In(BPt3)2
_chemical_formula_sum   'K3 In1 B2 Pt6'
_cell_volume   221.38329527
_cell_formula_units_Z   1
loop_
 _symmetry_equiv_pos_site_id
 _symmetry_equiv_pos_as_xyz
  1  'x, y, z'
loop_
 _atom_site_type_symbol
 _atom_site_label
 _atom_site_symmetry_multiplicity
 _atom_site_fract_x
 _atom_site_fract_y
 _atom_site_fract_z
 _atom_site_occupancy
  K  K0  1  0.861033  0.861033  0.861033  1
  K  K1  1  0.138967  0.138967  0.138967  1
  K  K2  1  0.000000  0.000000  0.000000  1
  In  In3  1  0.500000  0.500000  0.500000  1
  B  B4  1  0.668604  0.668604  0.668604  1
  B  B5  1  0.331396  0.331396  0.331396  1
  Pt  Pt6  1  0.438274  0.935469  0.438274  1
  Pt  Pt7  1  0.438274  0.438274  0.935469  1
  Pt  Pt8  1  0.935469  0.438274  0.438274  1
  Pt  Pt9  1  0.561726  0.064531  0.561726  1
  Pt  Pt10  1  0.561726  0.561726  0.064531  1
  Pt  Pt11  1  0.064531  0.561726  0.561726  1
