# generated using pymatgen
data_DyPa2Ni3Bi4
_symmetry_space_group_name_H-M   'P 1'
_cell_length_a   8.35582379
_cell_length_b   8.35582399
_cell_length_c   8.35582262
_cell_angle_alpha   109.43801001
_cell_angle_beta   109.48783676
_cell_angle_gamma   109.48783034
_symmetry_Int_Tables_number   1
_chemical_formula_structural   DyPa2Ni3Bi4
_chemical_formula_sum   'Dy2 Pa4 Ni6 Bi8'
_cell_volume   449.10274966
_cell_formula_units_Z   2
loop_
 _symmetry_equiv_pos_site_id
 _symmetry_equiv_pos_as_xyz
  1  'x, y, z'
loop_
 _atom_site_type_symbol
 _atom_site_label
 _atom_site_symmetry_multiplicity
 _atom_site_fract_x
 _atom_site_fract_y
 _atom_site_fract_z
 _atom_site_occupancy
  Dy  Dy0  1  0.250000  0.125000  0.875000  1
  Dy  Dy1  1  0.750000  0.375000  0.625000  1
  Pa  Pa2  1  0.127682  0.877682  0.250000  1
  Pa  Pa3  1  0.372318  0.622318  0.750000  1
  Pa  Pa4  1  0.872318  0.250000  0.122318  1
  Pa  Pa5  1  0.627682  0.750000  0.377682  1
  Ni  Ni6  1  0.629803  0.379803  0.250000  1
  Ni  Ni7  1  0.870197  0.120197  0.750000  1
  Ni  Ni8  1  0.370197  0.250000  0.620197  1
  Ni  Ni9  1  0.129803  0.750000  0.879803  1
  Ni  Ni10  1  0.250000  0.625000  0.375000  1
  Ni  Ni11  1  0.750000  0.875000  0.125000  1
  Bi  Bi12  1  0.335505  0.333345  0.332144  1
  Bi  Bi13  1  0.164495  0.496639  0.997840  1
  Bi  Bi14  1  0.998799  0.166655  0.502160  1
  Bi  Bi15  1  0.835505  0.832144  0.833345  1
  Bi  Bi16  1  0.501201  0.003361  0.167856  1
  Bi  Bi17  1  0.664495  0.497840  0.996639  1
  Bi  Bi18  1  0.498799  0.002160  0.666655  1
  Bi  Bi19  1  0.001201  0.667856  0.503361  1
