# generated using pymatgen
data_Er16MgCd3NiRu3
_symmetry_space_group_name_H-M   'P 1'
_cell_length_a   9.54420435
_cell_length_b   9.60777246
_cell_length_c   9.60777262
_cell_angle_alpha   59.52887217
_cell_angle_beta   59.23580562
_cell_angle_gamma   59.23580626
_symmetry_Int_Tables_number   1
_chemical_formula_structural   Er16MgCd3NiRu3
_chemical_formula_sum   'Er16 Mg1 Cd3 Ni1 Ru3'
_cell_volume   613.51079260
_cell_formula_units_Z   1
loop_
 _symmetry_equiv_pos_site_id
 _symmetry_equiv_pos_as_xyz
  1  'x, y, z'
loop_
 _atom_site_type_symbol
 _atom_site_label
 _atom_site_symmetry_multiplicity
 _atom_site_fract_x
 _atom_site_fract_y
 _atom_site_fract_z
 _atom_site_occupancy
  Er  Er0  1  0.352259  0.347279  0.347279  1
  Er  Er1  1  0.350300  0.344620  0.963483  1
  Er  Er2  1  0.350300  0.963483  0.344620  1
  Er  Er3  1  0.963675  0.345036  0.345036  1
  Er  Er4  1  0.811137  0.188382  0.188382  1
  Er  Er5  1  0.182517  0.812702  0.812702  1
  Er  Er6  1  0.187829  0.810821  0.189429  1
  Er  Er7  1  0.810361  0.188286  0.811985  1
  Er  Er8  1  0.187829  0.189429  0.810821  1
  Er  Er9  1  0.810361  0.811985  0.188286  1
  Er  Er10  1  0.939464  0.559767  0.559767  1
  Er  Er11  1  0.559412  0.936387  0.936387  1
  Er  Er12  1  0.557567  0.938592  0.566983  1
  Er  Er13  1  0.938864  0.560384  0.937933  1
  Er  Er14  1  0.557567  0.566983  0.938592  1
  Er  Er15  1  0.938864  0.937933  0.560384  1
  Mg  Mg16  1  0.571897  0.575636  0.575636  1
  Cd  Cd17  1  0.580829  0.581278  0.255824  1
  Cd  Cd18  1  0.580829  0.255824  0.581278  1
  Cd  Cd19  1  0.254455  0.581469  0.581469  1
  Ni  Ni20  1  0.579636  0.143093  0.143093  1
  Ru  Ru21  1  0.143730  0.139250  0.139250  1
  Ru  Ru22  1  0.145158  0.142918  0.578462  1
  Ru  Ru23  1  0.145158  0.578462  0.142918  1
