# generated using pymatgen
data_Tb4Y12Hg4OsPt3
_symmetry_space_group_name_H-M   'P 1'
_cell_length_a   9.72640710
_cell_length_b   9.72640764
_cell_length_c   9.72640800
_cell_angle_alpha   59.72978594
_cell_angle_beta   59.72979093
_cell_angle_gamma   59.72978810
_symmetry_Int_Tables_number   1
_chemical_formula_structural   Tb4Y12Hg4OsPt3
_chemical_formula_sum   'Tb4 Y12 Hg4 Os1 Pt3'
_cell_volume   646.64965215
_cell_formula_units_Z   1
loop_
 _symmetry_equiv_pos_site_id
 _symmetry_equiv_pos_as_xyz
  1  'x, y, z'
loop_
 _atom_site_type_symbol
 _atom_site_label
 _atom_site_symmetry_multiplicity
 _atom_site_fract_x
 _atom_site_fract_y
 _atom_site_fract_z
 _atom_site_occupancy
  Tb  Tb0  1  0.353725  0.353725  0.353725  1
  Tb  Tb1  1  0.351225  0.351225  0.944348  1
  Tb  Tb2  1  0.351225  0.944348  0.351225  1
  Tb  Tb3  1  0.944348  0.351225  0.351225  1
  Y  Y4  1  0.814712  0.189077  0.189077  1
  Y  Y5  1  0.188500  0.809172  0.809172  1
  Y  Y6  1  0.189077  0.814712  0.189077  1
  Y  Y7  1  0.809172  0.188500  0.809172  1
  Y  Y8  1  0.189077  0.189077  0.814712  1
  Y  Y9  1  0.809172  0.809172  0.188500  1
  Y  Y10  1  0.937020  0.563844  0.563844  1
  Y  Y11  1  0.558284  0.937720  0.937720  1
  Y  Y12  1  0.563844  0.937020  0.563844  1
  Y  Y13  1  0.937720  0.558284  0.937720  1
  Y  Y14  1  0.563844  0.563844  0.937020  1
  Y  Y15  1  0.937720  0.937720  0.558284  1
  Hg  Hg16  1  0.584033  0.584033  0.584033  1
  Hg  Hg17  1  0.585777  0.585777  0.241478  1
  Hg  Hg18  1  0.585777  0.241478  0.585777  1
  Hg  Hg19  1  0.241478  0.585777  0.585777  1
  Os  Os20  1  0.143909  0.143909  0.143909  1
  Pt  Pt21  1  0.144571  0.144571  0.571222  1
  Pt  Pt22  1  0.144571  0.571222  0.144571  1
  Pt  Pt23  1  0.571222  0.144571  0.144571  1
