# generated using pymatgen
data_Tb16In4IrPtRh2
_symmetry_space_group_name_H-M   'P 1'
_cell_length_a   9.71051440
_cell_length_b   9.72436444
_cell_length_c   9.71051612
_cell_angle_alpha   60.13462295
_cell_angle_beta   60.14727390
_cell_angle_gamma   60.13461437
_symmetry_Int_Tables_number   1
_chemical_formula_structural   Tb16In4IrPtRh2
_chemical_formula_sum   'Tb16 In4 Ir1 Pt1 Rh2'
_cell_volume   650.42089563
_cell_formula_units_Z   1
loop_
 _symmetry_equiv_pos_site_id
 _symmetry_equiv_pos_as_xyz
  1  'x, y, z'
loop_
 _atom_site_type_symbol
 _atom_site_label
 _atom_site_symmetry_multiplicity
 _atom_site_fract_x
 _atom_site_fract_y
 _atom_site_fract_z
 _atom_site_occupancy
  Tb  Tb0  1  0.810052  0.810064  0.189983  1
  Tb  Tb1  1  0.809831  0.187243  0.809830  1
  Tb  Tb2  1  0.193821  0.187259  0.810270  1
  Tb  Tb3  1  0.650063  0.047653  0.650063  1
  Tb  Tb4  1  0.060176  0.061090  0.440229  1
  Tb  Tb5  1  0.436865  0.438392  0.061485  1
  Tb  Tb6  1  0.650032  0.653830  0.650032  1
  Tb  Tb7  1  0.810271  0.187258  0.193822  1
  Tb  Tb8  1  0.189983  0.810064  0.810052  1
  Tb  Tb9  1  0.051062  0.652065  0.647369  1
  Tb  Tb10  1  0.440229  0.061090  0.060177  1
  Tb  Tb11  1  0.436809  0.062441  0.436809  1
  Tb  Tb12  1  0.059878  0.441322  0.059878  1
  Tb  Tb13  1  0.647369  0.652064  0.051063  1
  Tb  Tb14  1  0.190129  0.810561  0.190131  1
  Tb  Tb15  1  0.061485  0.438391  0.436865  1
  In  In16  1  0.417532  0.416911  0.417533  1
  In  In17  1  0.418105  0.417139  0.747623  1
  In  In18  1  0.417576  0.748048  0.417574  1
  In  In19  1  0.747624  0.417138  0.418102  1
  Ir  Ir20  1  0.858064  0.856944  0.858064  1
  Pt  Pt21  1  0.858214  0.427440  0.858214  1
  Rh  Rh22  1  0.858873  0.857798  0.425954  1
  Rh  Rh23  1  0.425954  0.857797  0.858874  1
