# generated using pymatgen
data_Ce4Al12Pd
_symmetry_space_group_name_H-M   'P 1'
_cell_length_a   7.58781328
_cell_length_b   7.58781335
_cell_length_c   7.58781200
_cell_angle_alpha   109.47121971
_cell_angle_beta   109.47121989
_cell_angle_gamma   109.47121743
_symmetry_Int_Tables_number   1
_chemical_formula_structural   Ce4Al12Pd
_chemical_formula_sum   'Ce4 Al12 Pd1'
_cell_volume   336.30085537
_cell_formula_units_Z   1
loop_
 _symmetry_equiv_pos_site_id
 _symmetry_equiv_pos_as_xyz
  1  'x, y, z'
loop_
 _atom_site_type_symbol
 _atom_site_label
 _atom_site_symmetry_multiplicity
 _atom_site_fract_x
 _atom_site_fract_y
 _atom_site_fract_z
 _atom_site_occupancy
  Ce  Ce0  1  0.500000  0.500000  0.500000  1
  Ce  Ce1  1  0.000000  0.000000  0.500000  1
  Ce  Ce2  1  0.000000  0.500000  0.000000  1
  Ce  Ce3  1  0.500000  0.000000  0.000000  1
  Al  Al4  1  0.500000  0.750000  0.250000  1
  Al  Al5  1  0.500000  0.250000  0.750000  1
  Al  Al6  1  0.250000  0.500000  0.750000  1
  Al  Al7  1  0.750000  0.500000  0.250000  1
  Al  Al8  1  0.750000  0.250000  0.500000  1
  Al  Al9  1  0.250000  0.750000  0.500000  1
  Al  Al10  1  0.000000  0.294337  0.294337  1
  Al  Al11  1  0.000000  0.705663  0.705663  1
  Al  Al12  1  0.294337  0.000000  0.294337  1
  Al  Al13  1  0.705663  0.000000  0.705663  1
  Al  Al14  1  0.294337  0.294337  0.000000  1
  Al  Al15  1  0.705663  0.705663  0.000000  1
  Pd  Pd16  1  0.000000  0.000000  0.000000  1
