# generated using pymatgen
data_Ac8YNi6
_symmetry_space_group_name_H-M   'P 1'
_cell_length_a   7.81397661
_cell_length_b   7.81397647
_cell_length_c   7.81397750
_cell_angle_alpha   74.42788198
_cell_angle_beta   74.42788210
_cell_angle_gamma   74.42788985
_symmetry_Int_Tables_number   1
_chemical_formula_structural   Ac8YNi6
_chemical_formula_sum   'Ac8 Y1 Ni6'
_cell_volume   432.69597910
_cell_formula_units_Z   1
loop_
 _symmetry_equiv_pos_site_id
 _symmetry_equiv_pos_as_xyz
  1  'x, y, z'
loop_
 _atom_site_type_symbol
 _atom_site_label
 _atom_site_symmetry_multiplicity
 _atom_site_fract_x
 _atom_site_fract_y
 _atom_site_fract_z
 _atom_site_occupancy
  Ac  Ac0  1  0.293011  0.293011  0.293011  1
  Ac  Ac1  1  0.706989  0.706989  0.706989  1
  Ac  Ac2  1  0.817841  0.332409  0.128720  1
  Ac  Ac3  1  0.332409  0.128720  0.817841  1
  Ac  Ac4  1  0.128720  0.817841  0.332409  1
  Ac  Ac5  1  0.182159  0.667591  0.871280  1
  Ac  Ac6  1  0.667591  0.871280  0.182159  1
  Ac  Ac7  1  0.871280  0.182159  0.667591  1
  Y  Y8  1  0.500000  0.500000  0.500000  1
  Ni  Ni9  1  0.467888  0.626838  0.101654  1
  Ni  Ni10  1  0.626838  0.101654  0.467888  1
  Ni  Ni11  1  0.101654  0.467888  0.626838  1
  Ni  Ni12  1  0.532112  0.373162  0.898346  1
  Ni  Ni13  1  0.373162  0.898346  0.532112  1
  Ni  Ni14  1  0.898346  0.532112  0.373162  1
