# generated using pymatgen
data_YSc6Sn23Ru6
_symmetry_space_group_name_H-M   'P 1'
_cell_length_a   9.72829300
_cell_length_b   9.72829336
_cell_length_c   9.92362400
_cell_angle_alpha   90.00000000
_cell_angle_beta   90.00000000
_cell_angle_gamma   120.00000218
_symmetry_Int_Tables_number   1
_chemical_formula_structural   YSc6Sn23Ru6
_chemical_formula_sum   'Y1 Sc6 Sn23 Ru6'
_cell_volume   813.34391842
_cell_formula_units_Z   1
loop_
 _symmetry_equiv_pos_site_id
 _symmetry_equiv_pos_as_xyz
  1  'x, y, z'
loop_
 _atom_site_type_symbol
 _atom_site_label
 _atom_site_symmetry_multiplicity
 _atom_site_fract_x
 _atom_site_fract_y
 _atom_site_fract_z
 _atom_site_occupancy
  Y  Y0  1  0.000000  0.000000  0.000000  1
  Sc  Sc1  1  0.022232  0.511116  0.302225  1
  Sc  Sc2  1  0.488884  0.977768  0.302225  1
  Sc  Sc3  1  0.488884  0.511116  0.302225  1
  Sc  Sc4  1  0.977768  0.488884  0.697775  1
  Sc  Sc5  1  0.511116  0.022232  0.697775  1
  Sc  Sc6  1  0.511116  0.488884  0.697775  1
  Sn  Sn7  1  0.000000  0.000000  0.500000  1
  Sn  Sn8  1  0.122398  0.877602  0.277099  1
  Sn  Sn9  1  0.755202  0.877602  0.277099  1
  Sn  Sn10  1  0.122398  0.244798  0.277099  1
  Sn  Sn11  1  0.877602  0.122398  0.722901  1
  Sn  Sn12  1  0.244798  0.122398  0.722901  1
  Sn  Sn13  1  0.877602  0.755202  0.722901  1
  Sn  Sn14  1  0.350117  0.000000  0.000000  1
  Sn  Sn15  1  0.649883  0.649883  0.000000  1
  Sn  Sn16  1  0.000000  0.350117  0.000000  1
  Sn  Sn17  1  0.350117  0.350117  0.000000  1
  Sn  Sn18  1  0.000000  0.649883  0.000000  1
  Sn  Sn19  1  0.649883  0.000000  0.000000  1
  Sn  Sn20  1  0.777290  0.554581  0.465934  1
  Sn  Sn21  1  0.777290  0.222710  0.465934  1
  Sn  Sn22  1  0.445419  0.222710  0.465934  1
  Sn  Sn23  1  0.222710  0.445419  0.534066  1
  Sn  Sn24  1  0.222710  0.777290  0.534066  1
  Sn  Sn25  1  0.554581  0.777290  0.534066  1
  Sn  Sn26  1  0.666667  0.333333  0.174436  1
  Sn  Sn27  1  0.333333  0.666667  0.825564  1
  Sn  Sn28  1  0.666667  0.333333  0.856720  1
  Sn  Sn29  1  0.333333  0.666667  0.143280  1
  Ru  Ru30  1  0.171599  0.828401  0.795070  1
  Ru  Ru31  1  0.656801  0.828401  0.795070  1
  Ru  Ru32  1  0.171599  0.343199  0.795070  1
  Ru  Ru33  1  0.828401  0.171599  0.204930  1
  Ru  Ru34  1  0.343199  0.171599  0.204930  1
  Ru  Ru35  1  0.828401  0.656801  0.204930  1
