# generated using pymatgen
data_YLu(SiTc2)4
_symmetry_space_group_name_H-M   'P 1'
_cell_length_a   7.34290733
_cell_length_b   7.34290726
_cell_length_c   4.14048800
_cell_angle_alpha   90.00000000
_cell_angle_beta   90.00000000
_cell_angle_gamma   91.11312874
_symmetry_Int_Tables_number   1
_chemical_formula_structural   YLu(SiTc2)4
_chemical_formula_sum   'Y1 Lu1 Si4 Tc8'
_cell_volume   223.20589282
_cell_formula_units_Z   1
loop_
 _symmetry_equiv_pos_site_id
 _symmetry_equiv_pos_as_xyz
  1  'x, y, z'
loop_
 _atom_site_type_symbol
 _atom_site_label
 _atom_site_symmetry_multiplicity
 _atom_site_fract_x
 _atom_site_fract_y
 _atom_site_fract_z
 _atom_site_occupancy
  Y  Y0  1  0.000000  0.000000  0.500000  1
  Lu  Lu1  1  0.500000  0.500000  0.000000  1
  Si  Si2  1  0.210968  0.789032  0.000000  1
  Si  Si3  1  0.789032  0.210968  0.000000  1
  Si  Si4  1  0.706166  0.706166  0.500000  1
  Si  Si5  1  0.293834  0.293834  0.500000  1
  Tc  Tc6  1  0.651939  0.901967  0.000000  1
  Tc  Tc7  1  0.159723  0.590904  0.500000  1
  Tc  Tc8  1  0.098033  0.348061  0.000000  1
  Tc  Tc9  1  0.901967  0.651939  0.000000  1
  Tc  Tc10  1  0.409096  0.840277  0.500000  1
  Tc  Tc11  1  0.590904  0.159723  0.500000  1
  Tc  Tc12  1  0.348061  0.098033  0.000000  1
  Tc  Tc13  1  0.840277  0.409096  0.500000  1
