# generated using pymatgen
data_Na3Pu2F10
_symmetry_space_group_name_H-M   'P 1'
_cell_length_a   6.67834420
_cell_length_b   6.67834375
_cell_length_c   8.60529900
_cell_angle_alpha   50.42966194
_cell_angle_beta   50.42966511
_cell_angle_gamma   48.51855106
_symmetry_Int_Tables_number   1
_chemical_formula_structural   Na3Pu2F10
_chemical_formula_sum   'Na3 Pu2 F10'
_cell_volume   205.69644549
_cell_formula_units_Z   1
loop_
 _symmetry_equiv_pos_site_id
 _symmetry_equiv_pos_as_xyz
  1  'x, y, z'
loop_
 _atom_site_type_symbol
 _atom_site_label
 _atom_site_symmetry_multiplicity
 _atom_site_fract_x
 _atom_site_fract_y
 _atom_site_fract_z
 _atom_site_occupancy
  Na  Na0  1  0.112794  0.112794  0.589417  1
  Na  Na1  1  0.500000  0.500000  0.000000  1
  Na  Na2  1  0.887206  0.887206  0.410583  1
  Pu  Pu3  1  0.295847  0.295847  0.797178  1
  Pu  Pu4  1  0.704153  0.704153  0.202822  1
  F  F5  1  0.552798  0.044438  0.289160  1
  F  F6  1  0.955562  0.447202  0.710840  1
  F  F7  1  0.044438  0.552798  0.289160  1
  F  F8  1  0.353741  0.858969  0.103830  1
  F  F9  1  0.447202  0.955562  0.710840  1
  F  F10  1  0.737411  0.262589  0.500000  1
  F  F11  1  0.858969  0.353741  0.103830  1
  F  F12  1  0.141031  0.646259  0.896170  1
  F  F13  1  0.262589  0.737411  0.500000  1
  F  F14  1  0.646259  0.141031  0.896170  1
