# generated using pymatgen
data_LaNd2(InHg2)3
_symmetry_space_group_name_H-M   'P 1'
_cell_length_a   5.21661428
_cell_length_b   7.50333500
_cell_length_c   15.93082890
_cell_angle_alpha   90.00000000
_cell_angle_beta   89.96185225
_cell_angle_gamma   90.00000000
_symmetry_Int_Tables_number   1
_chemical_formula_structural   LaNd2(InHg2)3
_chemical_formula_sum   'La2 Nd4 In6 Hg12'
_cell_volume   623.56443883
_cell_formula_units_Z   2
loop_
 _symmetry_equiv_pos_site_id
 _symmetry_equiv_pos_as_xyz
  1  'x, y, z'
loop_
 _atom_site_type_symbol
 _atom_site_label
 _atom_site_symmetry_multiplicity
 _atom_site_fract_x
 _atom_site_fract_y
 _atom_site_fract_z
 _atom_site_occupancy
  La  La0  1  0.000413  0.000000  0.666405  1
  La  La1  1  0.499870  0.500000  0.833385  1
  Nd  Nd2  1  0.000204  0.000000  0.000066  1
  Nd  Nd3  1  0.499998  0.500000  0.167043  1
  Nd  Nd4  1  0.000060  0.000000  0.333264  1
  Nd  Nd5  1  0.500116  0.500000  0.499785  1
  In  In6  1  0.999767  0.500000  0.000777  1
  In  In7  1  0.500198  0.000000  0.166954  1
  In  In8  1  0.999986  0.500000  0.333030  1
  In  In9  1  0.500217  0.000000  0.499439  1
  In  In10  1  0.000259  0.500000  0.666472  1
  In  In11  1  0.499762  0.000000  0.833506  1
  Hg  Hg12  1  0.499901  0.250183  0.001193  1
  Hg  Hg13  1  0.499901  0.749816  0.001193  1
  Hg  Hg14  1  0.999957  0.248726  0.166575  1
  Hg  Hg15  1  0.999957  0.751275  0.166575  1
  Hg  Hg16  1  0.499839  0.251397  0.333380  1
  Hg  Hg17  1  0.499839  0.748602  0.333380  1
  Hg  Hg18  1  0.000084  0.249845  0.498794  1
  Hg  Hg19  1  0.000084  0.750155  0.498794  1
  Hg  Hg20  1  0.500057  0.253602  0.665411  1
  Hg  Hg21  1  0.500057  0.746397  0.665411  1
  Hg  Hg22  1  0.999733  0.246423  0.834583  1
  Hg  Hg23  1  0.999733  0.753578  0.834583  1
