# generated using pymatgen
data_Yb3LuNp2O12
_symmetry_space_group_name_H-M   'P 1'
_cell_length_a   5.45214400
_cell_length_b   7.80721032
_cell_length_c   11.69118320
_cell_angle_alpha   73.91415593
_cell_angle_beta   90.00000000
_cell_angle_gamma   90.00000000
_symmetry_Int_Tables_number   1
_chemical_formula_structural   Yb3LuNp2O12
_chemical_formula_sum   'Yb6 Lu2 Np4 O24'
_cell_volume   478.16324526
_cell_formula_units_Z   2
loop_
 _symmetry_equiv_pos_site_id
 _symmetry_equiv_pos_as_xyz
  1  'x, y, z'
loop_
 _atom_site_type_symbol
 _atom_site_label
 _atom_site_symmetry_multiplicity
 _atom_site_fract_x
 _atom_site_fract_y
 _atom_site_fract_z
 _atom_site_occupancy
  Yb  Yb0  1  0.812623  0.799569  0.581556  1
  Yb  Yb1  1  0.812623  0.200431  0.918444  1
  Yb  Yb2  1  0.691593  0.500000  0.250000  1
  Yb  Yb3  1  0.307596  0.500000  0.750000  1
  Yb  Yb4  1  0.744487  0.000000  0.250000  1
  Yb  Yb5  1  0.253788  0.000000  0.750000  1
  Lu  Lu6  1  0.183445  0.201861  0.419489  1
  Lu  Lu7  1  0.183445  0.798139  0.080511  1
  Np  Np8  1  0.252527  0.277446  0.115841  1
  Np  Np9  1  0.252527  0.722554  0.384159  1
  Np  Np10  1  0.746425  0.721832  0.887656  1
  Np  Np11  1  0.746425  0.278168  0.612344  1
  O  O12  1  0.445800  0.204174  0.272750  1
  O  O13  1  0.445800  0.795826  0.227250  1
  O  O14  1  0.550017  0.795108  0.735739  1
  O  O15  1  0.550017  0.204892  0.764261  1
  O  O16  1  0.051121  0.055880  0.103121  1
  O  O17  1  0.051121  0.944120  0.396879  1
  O  O18  1  0.960939  0.931115  0.902697  1
  O  O19  1  0.960939  0.068885  0.597303  1
  O  O20  1  0.979143  0.285767  0.233131  1
  O  O21  1  0.979143  0.714233  0.266869  1
  O  O22  1  0.017864  0.710036  0.771509  1
  O  O23  1  0.017864  0.289964  0.728491  1
  O  O24  1  0.879244  0.375649  0.444219  1
  O  O25  1  0.879244  0.624351  0.055781  1
  O  O26  1  0.133705  0.626676  0.549157  1
  O  O27  1  0.133705  0.373324  0.950843  1
  O  O28  1  0.620117  0.516000  0.609011  1
  O  O29  1  0.620117  0.484000  0.890989  1
  O  O30  1  0.369981  0.475884  0.386366  1
  O  O31  1  0.369981  0.524116  0.113634  1
  O  O32  1  0.465099  0.148887  0.557754  1
  O  O33  1  0.465099  0.851113  0.942246  1
  O  O34  1  0.533218  0.843104  0.432753  1
  O  O35  1  0.533218  0.156896  0.067247  1
