# generated using pymatgen
data_Er6U2GaPd24
_symmetry_space_group_name_H-M   'P 1'
_cell_length_a   8.33425900
_cell_length_b   8.33371132
_cell_length_c   8.33371100
_cell_angle_alpha   89.98417333
_cell_angle_beta   90.00000000
_cell_angle_gamma   90.00000000
_symmetry_Int_Tables_number   1
_chemical_formula_structural   Er6U2GaPd24
_chemical_formula_sum   'Er6 U2 Ga1 Pd24'
_cell_volume   578.82044683
_cell_formula_units_Z   1
loop_
 _symmetry_equiv_pos_site_id
 _symmetry_equiv_pos_as_xyz
  1  'x, y, z'
loop_
 _atom_site_type_symbol
 _atom_site_label
 _atom_site_symmetry_multiplicity
 _atom_site_fract_x
 _atom_site_fract_y
 _atom_site_fract_z
 _atom_site_occupancy
  Er  Er0  1  0.746363  0.252923  0.252923  1
  Er  Er1  1  0.746363  0.747077  0.747077  1
  Er  Er2  1  0.748676  0.747252  0.252748  1
  Er  Er3  1  0.748676  0.252748  0.747252  1
  Er  Er4  1  0.253144  0.748484  0.748484  1
  Er  Er5  1  0.253144  0.251516  0.251516  1
  U  U6  1  0.251394  0.252703  0.747297  1
  U  U7  1  0.251394  0.747297  0.252703  1
  Ga  Ga8  1  0.999276  0.000000  0.000000  1
  Pd  Pd9  1  0.498799  0.499147  0.747011  1
  Pd  Pd10  1  0.498799  0.252989  0.500853  1
  Pd  Pd11  1  0.253621  0.500000  0.500000  1
  Pd  Pd12  1  0.498799  0.500853  0.252989  1
  Pd  Pd13  1  0.498799  0.747011  0.499147  1
  Pd  Pd14  1  0.748068  0.500000  0.500000  1
  Pd  Pd15  1  0.999835  0.999312  0.709405  1
  Pd  Pd16  1  0.999835  0.290595  0.000688  1
  Pd  Pd17  1  0.290407  0.000000  0.000000  1
  Pd  Pd18  1  0.999835  0.000688  0.290595  1
  Pd  Pd19  1  0.999835  0.709405  0.999312  1
  Pd  Pd20  1  0.709733  0.000000  0.000000  1
  Pd  Pd21  1  0.003026  0.498623  0.740408  1
  Pd  Pd22  1  0.498164  0.259652  0.996861  1
  Pd  Pd23  1  0.260179  0.000000  0.500000  1
  Pd  Pd24  1  0.003026  0.259592  0.501377  1
  Pd  Pd25  1  0.498164  0.003139  0.740348  1
  Pd  Pd26  1  0.260179  0.500000  0.000000  1
  Pd  Pd27  1  0.003026  0.501377  0.259592  1
  Pd  Pd28  1  0.498164  0.740348  0.003139  1
  Pd  Pd29  1  0.003026  0.740408  0.498623  1
  Pd  Pd30  1  0.498164  0.996861  0.259652  1
  Pd  Pd31  1  0.740044  0.000000  0.500000  1
  Pd  Pd32  1  0.740044  0.500000  0.000000  1
