# generated using pymatgen
data_Y6Ho4(SnSb)3
_symmetry_space_group_name_H-M   'P 1'
_cell_length_a   6.39307200
_cell_length_b   8.99231632
_cell_length_c   8.99175001
_cell_angle_alpha   120.00201832
_cell_angle_beta   89.99927588
_cell_angle_gamma   90.00183726
_symmetry_Int_Tables_number   1
_chemical_formula_structural   Y6Ho4(SnSb)3
_chemical_formula_sum   'Y6 Ho4 Sn3 Sb3'
_cell_volume   447.65886954
_cell_formula_units_Z   1
loop_
 _symmetry_equiv_pos_site_id
 _symmetry_equiv_pos_as_xyz
  1  'x, y, z'
loop_
 _atom_site_type_symbol
 _atom_site_label
 _atom_site_symmetry_multiplicity
 _atom_site_fract_x
 _atom_site_fract_y
 _atom_site_fract_z
 _atom_site_occupancy
  Y  Y0  1  0.749999  0.241725  0.999995  1
  Y  Y1  1  0.750004  0.758298  0.758284  1
  Y  Y2  1  0.750005  0.000009  0.241715  1
  Y  Y3  1  0.250000  0.757369  0.000005  1
  Y  Y4  1  0.250000  0.242615  0.242620  1
  Y  Y5  1  0.250005  0.999994  0.757379  1
  Ho  Ho6  1  0.501040  0.333334  0.666668  1
  Ho  Ho7  1  0.501046  0.666667  0.333334  1
  Ho  Ho8  1  0.998956  0.666668  0.333337  1
  Ho  Ho9  1  0.998960  0.333331  0.666661  1
  Sn  Sn10  1  0.750010  0.606420  0.000005  1
  Sn  Sn11  1  0.749987  0.393596  0.393609  1
  Sn  Sn12  1  0.749993  0.999997  0.606388  1
  Sb  Sb13  1  0.249999  0.391657  0.000002  1
  Sb  Sb14  1  0.250000  0.608322  0.608322  1
  Sb  Sb15  1  0.250000  0.999995  0.391675  1
