# generated using pymatgen
data_La4CuSn5Pd
_symmetry_space_group_name_H-M   'P 1'
_cell_length_a   7.73657715
_cell_length_b   7.73657642
_cell_length_c   11.30941051
_cell_angle_alpha   52.60993722
_cell_angle_beta   52.60994252
_cell_angle_gamma   35.39253615
_symmetry_Int_Tables_number   1
_chemical_formula_structural   La4CuSn5Pd
_chemical_formula_sum   'La4 Cu1 Sn5 Pd1'
_cell_volume   302.09201232
_cell_formula_units_Z   1
loop_
 _symmetry_equiv_pos_site_id
 _symmetry_equiv_pos_as_xyz
  1  'x, y, z'
loop_
 _atom_site_type_symbol
 _atom_site_label
 _atom_site_symmetry_multiplicity
 _atom_site_fract_x
 _atom_site_fract_y
 _atom_site_fract_z
 _atom_site_occupancy
  La  La0  1  0.935061  0.935061  0.725337  1
  La  La1  1  0.063059  0.063059  0.279103  1
  La  La2  1  0.332680  0.332680  0.285938  1
  La  La3  1  0.666894  0.666894  0.713854  1
  Cu  Cu4  1  0.236428  0.236428  0.856476  1
  Sn  Sn5  1  0.644733  0.644733  0.022998  1
  Sn  Sn6  1  0.355580  0.355580  0.973455  1
  Sn  Sn7  1  0.621459  0.621459  0.453510  1
  Sn  Sn8  1  0.375947  0.375947  0.551208  1
  Sn  Sn9  1  0.002221  0.002221  0.999349  1
  Pd  Pd10  1  0.765939  0.765939  0.138773  1
