# generated using pymatgen
data_Ba12GeRh3I8
_symmetry_space_group_name_H-M   'P 1'
_cell_length_a   16.06594925
_cell_length_b   15.32848103
_cell_length_c   8.62622804
_cell_angle_alpha   78.82354272
_cell_angle_beta   69.39077947
_cell_angle_gamma   32.28447688
_symmetry_Int_Tables_number   1
_chemical_formula_structural   Ba12GeRh3I8
_chemical_formula_sum   'Ba12 Ge1 Rh3 I8'
_cell_volume   1038.93161542
_cell_formula_units_Z   1
loop_
 _symmetry_equiv_pos_site_id
 _symmetry_equiv_pos_as_xyz
  1  'x, y, z'
loop_
 _atom_site_type_symbol
 _atom_site_label
 _atom_site_symmetry_multiplicity
 _atom_site_fract_x
 _atom_site_fract_y
 _atom_site_fract_z
 _atom_site_occupancy
  Ba  Ba0  1  0.045964  0.449616  0.450784  1
  Ba  Ba1  1  0.807464  0.202591  0.193127  1
  Ba  Ba2  1  0.102339  0.578231  0.953492  1
  Ba  Ba3  1  0.886175  0.301374  0.652444  1
  Ba  Ba4  1  0.578231  0.102339  0.365939  1
  Ba  Ba5  1  0.161302  0.651108  0.305596  1
  Ba  Ba6  1  0.301374  0.886175  0.160006  1
  Ba  Ba7  1  0.363892  0.951906  0.589422  1
  Ba  Ba8  1  0.202591  0.807464  0.796819  1
  Ba  Ba9  1  0.449616  0.045964  0.053635  1
  Ba  Ba10  1  0.951906  0.363892  0.094780  1
  Ba  Ba11  1  0.651108  0.161302  0.881993  1
  Ge  Ge12  1  0.915395  0.915395  0.084605  1
  Rh  Rh13  1  0.334034  0.334034  0.165966  1
  Rh  Rh14  1  0.166056  0.166056  0.333944  1
  Rh  Rh15  1  0.084014  0.084014  0.915986  1
  I  I16  1  0.577912  0.577912  0.422088  1
  I  I17  1  0.672147  0.672147  0.827853  1
  I  I18  1  0.254075  0.254075  0.745925  1
  I  I19  1  0.422349  0.422349  0.577651  1
  I  I20  1  0.994639  0.994639  0.505361  1
  I  I21  1  0.745475  0.745475  0.254525  1
  I  I22  1  0.827095  0.827095  0.672905  1
  I  I23  1  0.504846  0.504846  0.995154  1
