# generated using pymatgen
data_Ho11Er8Tm(CoBi2)4
_symmetry_space_group_name_H-M   'P 1'
_cell_length_a   7.93549507
_cell_length_b   8.87661505
_cell_length_c   12.36822787
_cell_angle_alpha   90.00829020
_cell_angle_beta   90.00840140
_cell_angle_gamma   89.99123324
_symmetry_Int_Tables_number   1
_chemical_formula_structural   Ho11Er8Tm(CoBi2)4
_chemical_formula_sum   'Ho11 Er8 Tm1 Co4 Bi8'
_cell_volume   871.22208532
_cell_formula_units_Z   1
loop_
 _symmetry_equiv_pos_site_id
 _symmetry_equiv_pos_as_xyz
  1  'x, y, z'
loop_
 _atom_site_type_symbol
 _atom_site_label
 _atom_site_symmetry_multiplicity
 _atom_site_fract_x
 _atom_site_fract_y
 _atom_site_fract_z
 _atom_site_occupancy
  Ho  Ho0  1  0.652870  0.249986  0.300246  1
  Ho  Ho1  1  0.847017  0.249932  0.800123  1
  Ho  Ho2  1  0.152962  0.750027  0.199738  1
  Ho  Ho3  1  0.885522  0.750058  0.811696  1
  Ho  Ho4  1  0.115075  0.249896  0.188335  1
  Ho  Ho5  1  0.385002  0.250005  0.688445  1
  Ho  Ho6  1  0.615041  0.750015  0.311560  1
  Ho  Ho7  1  0.054032  0.750004  0.498067  1
  Ho  Ho8  1  0.946336  0.249983  0.502225  1
  Ho  Ho9  1  0.553450  0.249933  0.001962  1
  Ho  Ho10  1  0.446019  0.750098  0.997737  1
  Er  Er11  1  0.347387  0.750022  0.699337  1
  Er  Er12  1  0.674097  0.538519  0.563166  1
  Er  Er13  1  0.325671  0.461915  0.437155  1
  Er  Er14  1  0.174318  0.461817  0.937031  1
  Er  Er15  1  0.325660  0.038072  0.437145  1
  Er  Er16  1  0.825692  0.538127  0.062856  1
  Er  Er17  1  0.674091  0.961474  0.563174  1
  Er  Er18  1  0.825853  0.961870  0.062853  1
  Tm  Tm19  1  0.173801  0.038205  0.937132  1
  Co  Co20  1  0.065831  0.750163  0.992207  1
  Co  Co21  1  0.934405  0.249823  0.007702  1
  Co  Co22  1  0.565707  0.249993  0.507904  1
  Co  Co23  1  0.434117  0.750002  0.492313  1
  Bi  Bi24  1  0.570616  0.509870  0.826564  1
  Bi  Bi25  1  0.429022  0.490536  0.173158  1
  Bi  Bi26  1  0.071526  0.490750  0.673338  1
  Bi  Bi27  1  0.429071  0.009477  0.173153  1
  Bi  Bi28  1  0.928910  0.509539  0.326818  1
  Bi  Bi29  1  0.570439  0.990157  0.826621  1
  Bi  Bi30  1  0.928904  0.990472  0.326833  1
  Bi  Bi31  1  0.071558  0.009262  0.673406  1
