# generated using pymatgen
data_HoHf5(Be2Ir5)2
_symmetry_space_group_name_H-M   'P 1'
_cell_length_a   9.55086679
_cell_length_b   9.55086679
_cell_length_c   3.32036400
_cell_angle_alpha   90.00000000
_cell_angle_beta   90.00000000
_cell_angle_gamma   89.78516320
_symmetry_Int_Tables_number   1
_chemical_formula_structural   HoHf5(Be2Ir5)2
_chemical_formula_sum   'Ho1 Hf5 Be4 Ir10'
_cell_volume   302.87834163
_cell_formula_units_Z   1
loop_
 _symmetry_equiv_pos_site_id
 _symmetry_equiv_pos_as_xyz
  1  'x, y, z'
loop_
 _atom_site_type_symbol
 _atom_site_label
 _atom_site_symmetry_multiplicity
 _atom_site_fract_x
 _atom_site_fract_y
 _atom_site_fract_z
 _atom_site_occupancy
  Ho  Ho0  1  0.175257  0.675257  0.000000  1
  Hf  Hf1  1  0.324836  0.174431  0.000000  1
  Hf  Hf2  1  0.824605  0.324605  0.000000  1
  Hf  Hf3  1  0.500100  0.499529  0.000000  1
  Hf  Hf4  1  0.674431  0.824836  0.000000  1
  Hf  Hf5  1  0.999529  0.000100  0.000000  1
  Be  Be6  1  0.382710  0.882710  0.000000  1
  Be  Be7  1  0.118349  0.378319  0.000000  1
  Be  Be8  1  0.878319  0.618349  0.000000  1
  Be  Be9  1  0.619719  0.119719  0.000000  1
  Ir  Ir10  1  0.220803  0.937507  0.500000  1
  Ir  Ir11  1  0.920864  0.783959  0.500000  1
  Ir  Ir12  1  0.437507  0.720803  0.500000  1
  Ir  Ir13  1  0.573410  0.284092  0.500000  1
  Ir  Ir14  1  0.714793  0.570749  0.500000  1
  Ir  Ir15  1  0.283959  0.420864  0.500000  1
  Ir  Ir16  1  0.070749  0.214793  0.500000  1
  Ir  Ir17  1  0.993501  0.493501  0.500000  1
  Ir  Ir18  1  0.502466  0.002466  0.500000  1
  Ir  Ir19  1  0.784092  0.073410  0.500000  1
