# generated using pymatgen
data_Ti9Co10Pt
_symmetry_space_group_name_H-M   'P 1'
_cell_length_a   7.17935819
_cell_length_b   7.17935939
_cell_length_c   7.17935805
_cell_angle_alpha   100.62135363
_cell_angle_beta   100.62135143
_cell_angle_gamma   129.15088493
_symmetry_Int_Tables_number   1
_chemical_formula_structural   Ti9Co10Pt
_chemical_formula_sum   'Ti9 Co10 Pt1'
_cell_volume   259.17398668
_cell_formula_units_Z   1
loop_
 _symmetry_equiv_pos_site_id
 _symmetry_equiv_pos_as_xyz
  1  'x, y, z'
loop_
 _atom_site_type_symbol
 _atom_site_label
 _atom_site_symmetry_multiplicity
 _atom_site_fract_x
 _atom_site_fract_y
 _atom_site_fract_z
 _atom_site_occupancy
  Ti  Ti0  1  0.000000  0.000000  0.000000  1
  Ti  Ti1  1  0.226017  0.593533  0.819550  1
  Ti  Ti2  1  0.406467  0.226017  0.632486  1
  Ti  Ti3  1  0.593533  0.773983  0.367514  1
  Ti  Ti4  1  0.773983  0.406467  0.180450  1
  Ti  Ti5  1  0.308505  0.903465  0.211969  1
  Ti  Ti6  1  0.096535  0.308505  0.405041  1
  Ti  Ti7  1  0.903465  0.691495  0.594959  1
  Ti  Ti8  1  0.691495  0.096535  0.788031  1
  Co  Co9  1  0.750000  0.250000  0.500000  1
  Co  Co10  1  0.250000  0.750000  0.500000  1
  Co  Co11  1  0.326625  0.011519  0.895429  1
  Co  Co12  1  0.431196  0.326625  0.315105  1
  Co  Co13  1  0.011519  0.116090  0.684895  1
  Co  Co14  1  0.116090  0.431196  0.104571  1
  Co  Co15  1  0.673375  0.988481  0.104571  1
  Co  Co16  1  0.568804  0.673375  0.684895  1
  Co  Co17  1  0.988481  0.883910  0.315105  1
  Co  Co18  1  0.883910  0.568804  0.895429  1
  Pt  Pt19  1  0.500000  0.500000  0.000000  1
