# generated using pymatgen
data_Sr2Cu7Ni3
_symmetry_space_group_name_H-M   'P 1'
_cell_length_a   3.99121900
_cell_length_b   5.23029750
_cell_length_c   8.85449977
_cell_angle_alpha   90.33733020
_cell_angle_beta   90.00000000
_cell_angle_gamma   90.00000000
_symmetry_Int_Tables_number   1
_chemical_formula_structural   Sr2Cu7Ni3
_chemical_formula_sum   'Sr2 Cu7 Ni3'
_cell_volume   184.83680570
_cell_formula_units_Z   1
loop_
 _symmetry_equiv_pos_site_id
 _symmetry_equiv_pos_as_xyz
  1  'x, y, z'
loop_
 _atom_site_type_symbol
 _atom_site_label
 _atom_site_symmetry_multiplicity
 _atom_site_fract_x
 _atom_site_fract_y
 _atom_site_fract_z
 _atom_site_occupancy
  Sr  Sr0  1  0.000000  0.253015  0.752869  1
  Sr  Sr1  1  0.000000  0.746985  0.247131  1
  Cu  Cu2  1  0.000000  0.239329  0.088067  1
  Cu  Cu3  1  0.000000  0.750484  0.589273  1
  Cu  Cu4  1  0.000000  0.760671  0.911933  1
  Cu  Cu5  1  0.000000  0.249516  0.410727  1
  Cu  Cu6  1  0.500000  0.500000  0.500000  1
  Cu  Cu7  1  0.500000  0.500000  0.000000  1
  Cu  Cu8  1  0.500000  0.000000  0.500000  1
  Ni  Ni9  1  0.500000  0.754551  0.751005  1
  Ni  Ni10  1  0.500000  0.245449  0.248995  1
  Ni  Ni11  1  0.500000  0.000000  0.000000  1
