# generated using pymatgen
data_Nd6TaMoO14
_symmetry_space_group_name_H-M   'P 1'
_cell_length_a   6.67131199
_cell_length_b   6.67131180
_cell_length_c   7.74906907
_cell_angle_alpha   89.86478995
_cell_angle_beta   90.13521433
_cell_angle_gamma   109.55731108
_symmetry_Int_Tables_number   1
_chemical_formula_structural   Nd6TaMoO14
_chemical_formula_sum   'Nd6 Ta1 Mo1 O14'
_cell_volume   324.98452715
_cell_formula_units_Z   1
loop_
 _symmetry_equiv_pos_site_id
 _symmetry_equiv_pos_as_xyz
  1  'x, y, z'
loop_
 _atom_site_type_symbol
 _atom_site_label
 _atom_site_symmetry_multiplicity
 _atom_site_fract_x
 _atom_site_fract_y
 _atom_site_fract_z
 _atom_site_occupancy
  Nd  Nd0  1  0.500000  0.500000  0.500000  1
  Nd  Nd1  1  0.500000  0.500000  0.000000  1
  Nd  Nd2  1  0.999235  0.535819  0.249178  1
  Nd  Nd3  1  0.000765  0.464181  0.750822  1
  Nd  Nd4  1  0.535819  0.999235  0.750822  1
  Nd  Nd5  1  0.464181  0.000765  0.249178  1
  Ta  Ta6  1  0.000000  0.000000  0.000000  1
  Mo  Mo7  1  0.000000  0.000000  0.500000  1
  O  O8  1  0.939673  0.060327  0.751051  1
  O  O9  1  0.060327  0.939673  0.248949  1
  O  O10  1  0.365144  0.634856  0.250232  1
  O  O11  1  0.634856  0.365144  0.749768  1
  O  O12  1  0.370325  0.629675  0.749728  1
  O  O13  1  0.629675  0.370325  0.250272  1
  O  O14  1  0.314056  0.069202  0.970365  1
  O  O15  1  0.686210  0.928841  0.472259  1
  O  O16  1  0.313790  0.071159  0.527741  1
  O  O17  1  0.685944  0.930798  0.029635  1
  O  O18  1  0.071159  0.313790  0.472259  1
  O  O19  1  0.930798  0.685944  0.970365  1
  O  O20  1  0.928841  0.686210  0.527741  1
  O  O21  1  0.069202  0.314056  0.029635  1
