# generated using pymatgen
data_Nd3Th5(TcC2)4
_symmetry_space_group_name_H-M   'P 1'
_cell_length_a   5.37008300
_cell_length_b   6.66191539
_cell_length_c   10.10155674
_cell_angle_alpha   89.83639528
_cell_angle_beta   90.00000000
_cell_angle_gamma   90.00000000
_symmetry_Int_Tables_number   1
_chemical_formula_structural   Nd3Th5(TcC2)4
_chemical_formula_sum   'Nd3 Th5 Tc4 C8'
_cell_volume   361.38210848
_cell_formula_units_Z   1
loop_
 _symmetry_equiv_pos_site_id
 _symmetry_equiv_pos_as_xyz
  1  'x, y, z'
loop_
 _atom_site_type_symbol
 _atom_site_label
 _atom_site_symmetry_multiplicity
 _atom_site_fract_x
 _atom_site_fract_y
 _atom_site_fract_z
 _atom_site_occupancy
  Nd  Nd0  1  0.750000  0.689370  0.549014  1
  Nd  Nd1  1  0.250000  0.311312  0.450289  1
  Nd  Nd2  1  0.750000  0.190616  0.950285  1
  Th  Th3  1  0.250000  0.475618  0.779561  1
  Th  Th4  1  0.750000  0.023092  0.281399  1
  Th  Th5  1  0.250000  0.977949  0.719112  1
  Th  Th6  1  0.750000  0.520921  0.222541  1
  Th  Th7  1  0.250000  0.812383  0.048242  1
  Tc  Tc8  1  0.250000  0.273120  0.136861  1
  Tc  Tc9  1  0.750000  0.230093  0.638326  1
  Tc  Tc10  1  0.250000  0.771254  0.363025  1
  Tc  Tc11  1  0.750000  0.729599  0.861805  1
  C  C12  1  0.250000  0.683273  0.550302  1
  C  C13  1  0.750000  0.820078  0.053480  1
  C  C14  1  0.250000  0.172317  0.948783  1
  C  C15  1  0.750000  0.317158  0.449834  1
  C  C16  1  0.250000  0.034255  0.255732  1
  C  C17  1  0.750000  0.466828  0.756842  1
  C  C18  1  0.250000  0.534986  0.242156  1
  C  C19  1  0.750000  0.965779  0.742412  1
