# generated using pymatgen
data_Rb6Ho(AsBr6)3
_symmetry_space_group_name_H-M   'P 1'
_cell_length_a   7.78645300
_cell_length_b   7.78643554
_cell_length_c   19.51383400
_cell_angle_alpha   90.00072231
_cell_angle_beta   90.00091718
_cell_angle_gamma   119.99703431
_symmetry_Int_Tables_number   1
_chemical_formula_structural   Rb6Ho(AsBr6)3
_chemical_formula_sum   'Rb6 Ho1 As3 Br18'
_cell_volume   1024.62411988
_cell_formula_units_Z   1
loop_
 _symmetry_equiv_pos_site_id
 _symmetry_equiv_pos_as_xyz
  1  'x, y, z'
loop_
 _atom_site_type_symbol
 _atom_site_label
 _atom_site_symmetry_multiplicity
 _atom_site_fract_x
 _atom_site_fract_y
 _atom_site_fract_z
 _atom_site_occupancy
  Rb  Rb0  1  0.333322  0.666657  0.070332  1
  Rb  Rb1  1  0.666661  0.333332  0.929815  1
  Rb  Rb2  1  0.666666  0.333315  0.569553  1
  Rb  Rb3  1  0.333336  0.666658  0.412431  1
  Rb  Rb4  1  0.000004  0.999996  0.251123  1
  Rb  Rb5  1  0.999997  0.999996  0.766330  1
  Ho  Ho6  1  0.333322  0.666725  0.840955  1
  As  As7  1  0.333338  0.666633  0.648460  1
  As  As8  1  0.666662  0.333329  0.343402  1
  As  As9  1  0.666659  0.333331  0.158202  1
  Br  Br10  1  0.175307  0.350514  0.580811  1
  Br  Br11  1  0.825983  0.651953  0.414510  1
  Br  Br12  1  0.649459  0.824617  0.580821  1
  Br  Br13  1  0.824811  0.649660  0.088696  1
  Br  Br14  1  0.348044  0.174018  0.414509  1
  Br  Br15  1  0.165704  0.331396  0.918411  1
  Br  Br16  1  0.175330  0.824753  0.580800  1
  Br  Br17  1  0.350325  0.175168  0.088695  1
  Br  Br18  1  0.825987  0.174000  0.414515  1
  Br  Br19  1  0.668667  0.834409  0.918407  1
  Br  Br20  1  0.824815  0.175158  0.088696  1
  Br  Br21  1  0.165648  0.834356  0.918432  1
  Br  Br22  1  0.502171  0.004344  0.253064  1
  Br  Br23  1  0.497855  0.995750  0.747627  1
  Br  Br24  1  0.995650  0.497823  0.253066  1
  Br  Br25  1  0.004254  0.502141  0.747633  1
  Br  Br26  1  0.502169  0.497826  0.253062  1
  Br  Br27  1  0.497855  0.502143  0.747642  1
