# generated using pymatgen
data_LiCu(BrO3)3
_symmetry_space_group_name_H-M   'P 1'
_cell_length_a   7.42338689
_cell_length_b   7.99981823
_cell_length_c   7.99295957
_cell_angle_alpha   69.53210938
_cell_angle_beta   71.50502837
_cell_angle_gamma   79.10956151
_symmetry_Int_Tables_number   1
_chemical_formula_structural   LiCu(BrO3)3
_chemical_formula_sum   'Li2 Cu2 Br6 O18'
_cell_volume   420.10459859
_cell_formula_units_Z   2
loop_
 _symmetry_equiv_pos_site_id
 _symmetry_equiv_pos_as_xyz
  1  'x, y, z'
loop_
 _atom_site_type_symbol
 _atom_site_label
 _atom_site_symmetry_multiplicity
 _atom_site_fract_x
 _atom_site_fract_y
 _atom_site_fract_z
 _atom_site_occupancy
  Li  Li0  1  0.669492  0.719323  0.870119  1
  Li  Li1  1  0.330508  0.280677  0.129881  1
  Cu  Cu2  1  0.000000  0.000000  0.500000  1
  Cu  Cu3  1  0.000000  0.000000  0.000000  1
  Br  Br4  1  0.267240  0.227387  0.576824  1
  Br  Br5  1  0.732760  0.772613  0.423176  1
  Br  Br6  1  0.286926  0.770264  0.224727  1
  Br  Br7  1  0.258743  0.650744  0.807113  1
  Br  Br8  1  0.741257  0.349256  0.192887  1
  Br  Br9  1  0.713074  0.229736  0.775273  1
  O  O10  1  0.453609  0.761393  0.750538  1
  O  O11  1  0.477276  0.270196  0.841806  1
  O  O12  1  0.703817  0.557860  0.499101  1
  O  O13  1  0.772290  0.467112  0.966053  1
  O  O14  1  0.227710  0.532888  0.033947  1
  O  O15  1  0.522724  0.729804  0.158194  1
  O  O16  1  0.152004  0.204114  0.425836  1
  O  O17  1  0.847996  0.795886  0.574164  1
  O  O18  1  0.748740  0.135288  0.601648  1
  O  O19  1  0.249529  0.956731  0.044141  1
  O  O20  1  0.251260  0.864712  0.398352  1
  O  O21  1  0.924074  0.185920  0.194388  1
  O  O22  1  0.916654  0.789407  0.224677  1
  O  O23  1  0.083346  0.210593  0.775323  1
  O  O24  1  0.546391  0.238607  0.249462  1
  O  O25  1  0.750471  0.043269  0.955859  1
  O  O26  1  0.075926  0.814080  0.805612  1
  O  O27  1  0.296183  0.442140  0.500899  1
