# generated using pymatgen
data_Ti8CoCuAg2
_symmetry_space_group_name_H-M   'P 1'
_cell_length_a   2.96546400
_cell_length_b   2.96546400
_cell_length_c   22.18480400
_cell_angle_alpha   90.00000000
_cell_angle_beta   90.00000000
_cell_angle_gamma   90.00000000
_symmetry_Int_Tables_number   1
_chemical_formula_structural   Ti8CoCuAg2
_chemical_formula_sum   'Ti8 Co1 Cu1 Ag2'
_cell_volume   195.09265025
_cell_formula_units_Z   1
loop_
 _symmetry_equiv_pos_site_id
 _symmetry_equiv_pos_as_xyz
  1  'x, y, z'
loop_
 _atom_site_type_symbol
 _atom_site_label
 _atom_site_symmetry_multiplicity
 _atom_site_fract_x
 _atom_site_fract_y
 _atom_site_fract_z
 _atom_site_occupancy
  Ti  Ti0  1  0.500000  0.500000  0.067885  1
  Ti  Ti1  1  0.000000  0.000000  0.337723  1
  Ti  Ti2  1  0.500000  0.500000  0.578321  1
  Ti  Ti3  1  0.000000  0.000000  0.848686  1
  Ti  Ti4  1  0.000000  0.000000  0.151314  1
  Ti  Ti5  1  0.500000  0.500000  0.421679  1
  Ti  Ti6  1  0.000000  0.000000  0.662277  1
  Ti  Ti7  1  0.500000  0.500000  0.932115  1
  Co  Co8  1  0.000000  0.000000  0.000000  1
  Cu  Cu9  1  0.000000  0.000000  0.500000  1
  Ag  Ag10  1  0.500000  0.500000  0.243942  1
  Ag  Ag11  1  0.500000  0.500000  0.756058  1
