# generated using pymatgen
data_Li2AlSi3Rh4
_symmetry_space_group_name_H-M   'P 1'
_cell_length_a   7.07491200
_cell_length_b   7.07491200
_cell_length_c   2.79367800
_cell_angle_alpha   90.00000000
_cell_angle_beta   90.00000000
_cell_angle_gamma   89.68932711
_symmetry_Int_Tables_number   1
_chemical_formula_structural   Li2AlSi3Rh4
_chemical_formula_sum   'Li2 Al1 Si3 Rh4'
_cell_volume   139.83376407
_cell_formula_units_Z   1
loop_
 _symmetry_equiv_pos_site_id
 _symmetry_equiv_pos_as_xyz
  1  'x, y, z'
loop_
 _atom_site_type_symbol
 _atom_site_label
 _atom_site_symmetry_multiplicity
 _atom_site_fract_x
 _atom_site_fract_y
 _atom_site_fract_z
 _atom_site_occupancy
  Li  Li0  1  0.998385  0.001537  0.000000  1
  Li  Li1  1  0.501537  0.498385  0.000000  1
  Al  Al2  1  0.145437  0.645437  0.000000  1
  Si  Si3  1  0.357479  0.145664  0.000000  1
  Si  Si4  1  0.645664  0.857479  0.000000  1
  Si  Si5  1  0.857170  0.357170  0.000000  1
  Rh  Rh6  1  0.146097  0.335493  0.500000  1
  Rh  Rh7  1  0.359130  0.859130  0.500000  1
  Rh  Rh8  1  0.653608  0.153608  0.500000  1
  Rh  Rh9  1  0.835493  0.646097  0.500000  1
