# generated using pymatgen
data_Tb5Tl2Ir
_symmetry_space_group_name_H-M   'P 1'
_cell_length_a   7.65889400
_cell_length_b   9.23518200
_cell_length_c   12.63375000
_cell_angle_alpha   90.00000000
_cell_angle_beta   90.00000000
_cell_angle_gamma   90.00000000
_symmetry_Int_Tables_number   1
_chemical_formula_structural   Tb5Tl2Ir
_chemical_formula_sum   'Tb20 Tl8 Ir4'
_cell_volume   893.60130881
_cell_formula_units_Z   4
loop_
 _symmetry_equiv_pos_site_id
 _symmetry_equiv_pos_as_xyz
  1  'x, y, z'
loop_
 _atom_site_type_symbol
 _atom_site_label
 _atom_site_symmetry_multiplicity
 _atom_site_fract_x
 _atom_site_fract_y
 _atom_site_fract_z
 _atom_site_occupancy
  Tb  Tb0  1  0.651983  0.750000  0.722778  1
  Tb  Tb1  1  0.348017  0.250000  0.277222  1
  Tb  Tb2  1  0.151983  0.250000  0.777222  1
  Tb  Tb3  1  0.848017  0.750000  0.222778  1
  Tb  Tb4  1  0.113934  0.750000  0.808247  1
  Tb  Tb5  1  0.886066  0.250000  0.191753  1
  Tb  Tb6  1  0.613934  0.250000  0.691753  1
  Tb  Tb7  1  0.386066  0.750000  0.308247  1
  Tb  Tb8  1  0.547274  0.750000  0.999687  1
  Tb  Tb9  1  0.452726  0.250000  0.000313  1
  Tb  Tb10  1  0.047274  0.250000  0.500313  1
  Tb  Tb11  1  0.952726  0.750000  0.499687  1
  Tb  Tb12  1  0.825086  0.465047  0.922639  1
  Tb  Tb13  1  0.174914  0.534953  0.077361  1
  Tb  Tb14  1  0.325086  0.534953  0.577361  1
  Tb  Tb15  1  0.174914  0.965047  0.077361  1
  Tb  Tb16  1  0.674914  0.465047  0.422639  1
  Tb  Tb17  1  0.825086  0.034953  0.922639  1
  Tb  Tb18  1  0.674914  0.034953  0.422639  1
  Tb  Tb19  1  0.325086  0.965047  0.577361  1
  Tl  Tl20  1  0.915877  0.005331  0.664894  1
  Tl  Tl21  1  0.084123  0.994669  0.335106  1
  Tl  Tl22  1  0.415877  0.994669  0.835106  1
  Tl  Tl23  1  0.084123  0.505331  0.335106  1
  Tl  Tl24  1  0.584123  0.005331  0.164894  1
  Tl  Tl25  1  0.915877  0.494669  0.664894  1
  Tl  Tl26  1  0.584123  0.494669  0.164894  1
  Tl  Tl27  1  0.415877  0.505331  0.835106  1
  Ir  Ir28  1  0.923468  0.750000  0.999922  1
  Ir  Ir29  1  0.076532  0.250000  0.000078  1
  Ir  Ir30  1  0.423468  0.250000  0.500078  1
  Ir  Ir31  1  0.576532  0.750000  0.499922  1
