# generated using pymatgen
data_ThAg3(Pt2O7)2
_symmetry_space_group_name_H-M   'P 1'
_cell_length_a   7.26081667
_cell_length_b   7.26081758
_cell_length_c   7.31064271
_cell_angle_alpha   60.22519952
_cell_angle_beta   60.22519953
_cell_angle_gamma   60.00000347
_symmetry_Int_Tables_number   1
_chemical_formula_structural   ThAg3(Pt2O7)2
_chemical_formula_sum   'Th1 Ag3 Pt4 O14'
_cell_volume   273.45225176
_cell_formula_units_Z   1
loop_
 _symmetry_equiv_pos_site_id
 _symmetry_equiv_pos_as_xyz
  1  'x, y, z'
loop_
 _atom_site_type_symbol
 _atom_site_label
 _atom_site_symmetry_multiplicity
 _atom_site_fract_x
 _atom_site_fract_y
 _atom_site_fract_z
 _atom_site_occupancy
  Th  Th0  1  0.125000  0.125000  0.625000  1
  Ag  Ag1  1  0.125000  0.625000  0.125000  1
  Ag  Ag2  1  0.625000  0.125000  0.125000  1
  Ag  Ag3  1  0.125000  0.125000  0.125000  1
  Pt  Pt4  1  0.625000  0.625000  0.125000  1
  Pt  Pt5  1  0.625000  0.125000  0.625000  1
  Pt  Pt6  1  0.125000  0.625000  0.625000  1
  Pt  Pt7  1  0.625000  0.625000  0.625000  1
  O  O8  1  0.257289  0.257289  0.228133  1
  O  O9  1  0.992711  0.992711  0.021867  1
  O  O10  1  0.530581  0.957954  0.553513  1
  O  O11  1  0.291871  0.706464  0.295202  1
  O  O12  1  0.543536  0.543536  0.954798  1
  O  O13  1  0.957954  0.530581  0.553513  1
  O  O14  1  0.543536  0.958129  0.954798  1
  O  O15  1  0.957954  0.957954  0.553513  1
  O  O16  1  0.958129  0.543536  0.954798  1
  O  O17  1  0.706464  0.291871  0.295202  1
  O  O18  1  0.292046  0.719419  0.696487  1
  O  O19  1  0.719419  0.292046  0.696487  1
  O  O20  1  0.292046  0.292046  0.696487  1
  O  O21  1  0.706464  0.706464  0.295202  1
