# generated using pymatgen
data_Hf6BiIrPb
_symmetry_space_group_name_H-M   'P 1'
_cell_length_a   8.00995700
_cell_length_b   8.00995604
_cell_length_c   3.59510700
_cell_angle_alpha   90.00000000
_cell_angle_beta   90.00000000
_cell_angle_gamma   119.99999158
_symmetry_Int_Tables_number   1
_chemical_formula_structural   Hf6BiIrPb
_chemical_formula_sum   'Hf6 Bi1 Ir1 Pb1'
_cell_volume   199.75736764
_cell_formula_units_Z   1
loop_
 _symmetry_equiv_pos_site_id
 _symmetry_equiv_pos_as_xyz
  1  'x, y, z'
loop_
 _atom_site_type_symbol
 _atom_site_label
 _atom_site_symmetry_multiplicity
 _atom_site_fract_x
 _atom_site_fract_y
 _atom_site_fract_z
 _atom_site_occupancy
  Hf  Hf0  1  0.611736  0.001681  0.500000  1
  Hf  Hf1  1  0.389945  0.388264  0.500000  1
  Hf  Hf2  1  0.998319  0.610055  0.500000  1
  Hf  Hf3  1  0.246380  0.998525  0.000000  1
  Hf  Hf4  1  0.752146  0.753620  0.000000  1
  Hf  Hf5  1  0.001475  0.247854  0.000000  1
  Bi  Bi6  1  0.666667  0.333333  0.000000  1
  Ir  Ir7  1  0.000000  0.000000  0.500000  1
  Pb  Pb8  1  0.333333  0.666667  0.000000  1
