# generated using pymatgen
data_CeThMn12Si5C2
_symmetry_space_group_name_H-M   'P 1'
_cell_length_a   6.54591780
_cell_length_b   6.48550185
_cell_length_c   6.54591648
_cell_angle_alpha   83.23660090
_cell_angle_beta   84.29020778
_cell_angle_gamma   83.23659122
_symmetry_Int_Tables_number   1
_chemical_formula_structural   CeThMn12Si5C2
_chemical_formula_sum   'Ce1 Th1 Mn12 Si5 C2'
_cell_volume   273.00822864
_cell_formula_units_Z   1
loop_
 _symmetry_equiv_pos_site_id
 _symmetry_equiv_pos_as_xyz
  1  'x, y, z'
loop_
 _atom_site_type_symbol
 _atom_site_label
 _atom_site_symmetry_multiplicity
 _atom_site_fract_x
 _atom_site_fract_y
 _atom_site_fract_z
 _atom_site_occupancy
  Ce  Ce0  1  0.649960  0.671628  0.649960  1
  Th  Th1  1  0.350949  0.328637  0.350949  1
  Mn  Mn2  1  0.851378  0.339639  0.345978  1
  Mn  Mn3  1  0.345978  0.339639  0.851378  1
  Mn  Mn4  1  0.147945  0.661014  0.654616  1
  Mn  Mn5  1  0.654616  0.661014  0.147945  1
  Mn  Mn6  1  0.500219  0.999621  0.999700  1
  Mn  Mn7  1  0.999700  0.999621  0.500219  1
  Mn  Mn8  1  0.996921  0.290733  0.720956  1
  Mn  Mn9  1  0.279694  0.709329  0.002437  1
  Mn  Mn10  1  0.002437  0.709329  0.279694  1
  Mn  Mn11  1  0.720956  0.290733  0.996921  1
  Mn  Mn12  1  0.894482  0.898744  0.894482  1
  Mn  Mn13  1  0.104583  0.099636  0.104583  1
  Si  Si14  1  0.327075  0.837001  0.327075  1
  Si  Si15  1  0.674184  0.161514  0.674184  1
  Si  Si16  1  0.999845  0.500129  0.999845  1
  Si  Si17  1  0.756720  0.999565  0.243636  1
  Si  Si18  1  0.243636  0.999565  0.756720  1
  C  C19  1  0.997130  0.501454  0.501592  1
  C  C20  1  0.501592  0.501454  0.997130  1
