# generated using pymatgen
data_AlV2GaCo4
_symmetry_space_group_name_H-M   'P 1'
_cell_length_a   4.07348600
_cell_length_b   5.76422901
_cell_length_c   12.21899901
_cell_angle_alpha   90.00481094
_cell_angle_beta   89.99834487
_cell_angle_gamma   89.99948842
_symmetry_Int_Tables_number   1
_chemical_formula_structural   AlV2GaCo4
_chemical_formula_sum   'Al3 V6 Ga3 Co12'
_cell_volume   286.90828038
_cell_formula_units_Z   3
loop_
 _symmetry_equiv_pos_site_id
 _symmetry_equiv_pos_as_xyz
  1  'x, y, z'
loop_
 _atom_site_type_symbol
 _atom_site_label
 _atom_site_symmetry_multiplicity
 _atom_site_fract_x
 _atom_site_fract_y
 _atom_site_fract_z
 _atom_site_occupancy
  Al  Al0  1  0.499988  0.999948  0.500510  1
  Al  Al1  1  0.999770  0.500015  0.666747  1
  Al  Al2  1  0.499771  0.000021  0.832766  1
  V  V3  1  0.999984  0.000020  0.000457  1
  V  V4  1  0.500250  0.499950  0.166644  1
  V  V5  1  0.000230  0.000012  0.332858  1
  V  V6  1  0.499984  0.500031  0.499533  1
  V  V7  1  0.999762  0.999990  0.666688  1
  V  V8  1  0.499751  0.499990  0.833826  1
  Ga  Ga9  1  0.999987  0.499973  0.999495  1
  Ga  Ga10  1  0.500273  0.000065  0.166707  1
  Ga  Ga11  1  0.000266  0.499989  0.333752  1
  Co  Co12  1  0.499993  0.248499  0.998839  1
  Co  Co13  1  0.499976  0.751492  0.998841  1
  Co  Co14  1  0.000277  0.250388  0.166695  1
  Co  Co15  1  0.000291  0.749598  0.166694  1
  Co  Co16  1  0.500271  0.248285  0.334447  1
  Co  Co17  1  0.500252  0.751709  0.334462  1
  Co  Co18  1  0.999975  0.248399  0.500977  1
  Co  Co19  1  0.999993  0.751619  0.500978  1
  Co  Co20  1  0.499751  0.250753  0.666716  1
  Co  Co21  1  0.499726  0.749256  0.666704  1
  Co  Co22  1  0.999731  0.248531  0.832332  1
  Co  Co23  1  0.999749  0.751476  0.832331  1
