# generated using pymatgen
data_ErPaAl20Fe3Co
_symmetry_space_group_name_H-M   'P 1'
_cell_length_a   6.74414926
_cell_length_b   6.74900669
_cell_length_c   8.96034329
_cell_angle_alpha   90.14280278
_cell_angle_beta   90.12612925
_cell_angle_gamma   97.72631164
_symmetry_Int_Tables_number   1
_chemical_formula_structural   ErPaAl20Fe3Co
_chemical_formula_sum   'Er1 Pa1 Al20 Fe3 Co1'
_cell_volume   404.13660531
_cell_formula_units_Z   1
loop_
 _symmetry_equiv_pos_site_id
 _symmetry_equiv_pos_as_xyz
  1  'x, y, z'
loop_
 _atom_site_type_symbol
 _atom_site_label
 _atom_site_symmetry_multiplicity
 _atom_site_fract_x
 _atom_site_fract_y
 _atom_site_fract_z
 _atom_site_occupancy
  Er  Er0  1  0.129314  0.872729  0.249720  1
  Pa  Pa1  1  0.874644  0.121733  0.750634  1
  Al  Al2  1  0.623466  0.375066  0.549536  1
  Al  Al3  1  0.375106  0.626669  0.451336  1
  Al  Al4  1  0.374036  0.626385  0.048117  1
  Al  Al5  1  0.624363  0.375584  0.951090  1
  Al  Al6  1  0.226140  0.223719  0.498724  1
  Al  Al7  1  0.775067  0.775116  0.499325  1
  Al  Al8  1  0.776016  0.774910  0.001003  1
  Al  Al9  1  0.225327  0.223858  0.001146  1
  Al  Al10  1  0.842724  0.157465  0.099591  1
  Al  Al11  1  0.156580  0.843568  0.902799  1
  Al  Al12  1  0.156852  0.844180  0.597893  1
  Al  Al13  1  0.842263  0.156890  0.400075  1
  Al  Al14  1  0.864482  0.591091  0.750272  1
  Al  Al15  1  0.136209  0.414975  0.249530  1
  Al  Al16  1  0.408995  0.134950  0.750148  1
  Al  Al17  1  0.584761  0.864489  0.249889  1
  Al  Al18  1  0.221900  0.478943  0.750905  1
  Al  Al19  1  0.778229  0.521884  0.248861  1
  Al  Al20  1  0.520511  0.778406  0.749908  1
  Al  Al21  1  0.478266  0.220870  0.250183  1
  Fe  Fe22  1  0.998422  0.496258  0.997870  1
  Fe  Fe23  1  0.503869  0.001575  0.998106  1
  Fe  Fe24  1  0.503927  0.001730  0.501964  1
  Co  Co25  1  0.998529  0.496956  0.501375  1
