# generated using pymatgen
data_TbZn2Ga4Cu7
_symmetry_space_group_name_H-M   'P 1'
_cell_length_a   8.38983377
_cell_length_b   8.38983205
_cell_length_c   8.38983200
_cell_angle_alpha   121.83404709
_cell_angle_beta   119.69065355
_cell_angle_gamma   88.69482764
_symmetry_Int_Tables_number   1
_chemical_formula_structural   TbZn2Ga4Cu7
_chemical_formula_sum   'Tb2 Zn4 Ga8 Cu14'
_cell_volume   412.47135062
_cell_formula_units_Z   2
loop_
 _symmetry_equiv_pos_site_id
 _symmetry_equiv_pos_as_xyz
  1  'x, y, z'
loop_
 _atom_site_type_symbol
 _atom_site_label
 _atom_site_symmetry_multiplicity
 _atom_site_fract_x
 _atom_site_fract_y
 _atom_site_fract_z
 _atom_site_occupancy
  Tb  Tb0  1  0.749999  0.749999  0.000000  1
  Tb  Tb1  1  0.250001  0.250001  0.000000  1
  Zn  Zn2  1  0.057374  0.189494  0.246869  1
  Zn  Zn3  1  0.942626  0.810506  0.753131  1
  Zn  Zn4  1  0.557377  0.310513  0.867889  1
  Zn  Zn5  1  0.442623  0.689487  0.132111  1
  Ga  Ga6  1  0.053378  0.546239  0.857061  1
  Ga  Ga7  1  0.689178  0.196316  0.142939  1
  Ga  Ga8  1  0.553380  0.696314  0.507144  1
  Ga  Ga9  1  0.189169  0.046236  0.492856  1
  Ga  Ga10  1  0.946622  0.453761  0.142939  1
  Ga  Ga11  1  0.310822  0.803684  0.857061  1
  Ga  Ga12  1  0.446620  0.303686  0.492856  1
  Ga  Ga13  1  0.810831  0.953764  0.507144  1
  Cu  Cu14  1  0.788806  0.070391  0.859197  1
  Cu  Cu15  1  0.211194  0.929609  0.140803  1
  Cu  Cu16  1  0.711212  0.570403  0.281617  1
  Cu  Cu17  1  0.288788  0.429597  0.718383  1
  Cu  Cu18  1  0.436675  0.944617  0.734440  1
  Cu  Cu19  1  0.210177  0.702235  0.265560  1
  Cu  Cu20  1  0.936625  0.202302  0.492157  1
  Cu  Cu21  1  0.710146  0.444469  0.507843  1
  Cu  Cu22  1  0.563325  0.055383  0.265560  1
  Cu  Cu23  1  0.789823  0.297765  0.734440  1
  Cu  Cu24  1  0.063375  0.797698  0.507843  1
  Cu  Cu25  1  0.289854  0.555531  0.492157  1
  Cu  Cu26  1  0.000000  0.500000  0.500000  1
  Cu  Cu27  1  0.500000  0.000000  0.500000  1
