# generated using pymatgen
data_DyMnSb3
_symmetry_space_group_name_H-M   'P 1'
_cell_length_a   6.00873700
_cell_length_b   6.20623100
_cell_length_c   12.77820800
_cell_angle_alpha   90.00000000
_cell_angle_beta   90.00000000
_cell_angle_gamma   90.00000000
_symmetry_Int_Tables_number   1
_chemical_formula_structural   DyMnSb3
_chemical_formula_sum   'Dy4 Mn4 Sb12'
_cell_volume   476.51994719
_cell_formula_units_Z   4
loop_
 _symmetry_equiv_pos_site_id
 _symmetry_equiv_pos_as_xyz
  1  'x, y, z'
loop_
 _atom_site_type_symbol
 _atom_site_label
 _atom_site_symmetry_multiplicity
 _atom_site_fract_x
 _atom_site_fract_y
 _atom_site_fract_z
 _atom_site_occupancy
  Dy  Dy0  1  0.250000  0.504527  0.309061  1
  Dy  Dy1  1  0.750000  0.495473  0.690939  1
  Dy  Dy2  1  0.250000  0.004527  0.690939  1
  Dy  Dy3  1  0.750000  0.995473  0.309061  1
  Mn  Mn4  1  0.000000  0.750000  0.904051  1
  Mn  Mn5  1  0.000000  0.250000  0.095949  1
  Mn  Mn6  1  0.500000  0.250000  0.095949  1
  Mn  Mn7  1  0.500000  0.750000  0.904051  1
  Sb  Sb8  1  0.000000  0.750000  0.502694  1
  Sb  Sb9  1  0.000000  0.250000  0.497306  1
  Sb  Sb10  1  0.500000  0.250000  0.497306  1
  Sb  Sb11  1  0.500000  0.750000  0.502694  1
  Sb  Sb12  1  0.250000  0.602869  0.063612  1
  Sb  Sb13  1  0.750000  0.397131  0.936388  1
  Sb  Sb14  1  0.250000  0.102869  0.936388  1
  Sb  Sb15  1  0.750000  0.897131  0.063612  1
  Sb  Sb16  1  0.250000  0.999700  0.229199  1
  Sb  Sb17  1  0.750000  0.000300  0.770801  1
  Sb  Sb18  1  0.250000  0.499700  0.770801  1
  Sb  Sb19  1  0.750000  0.500300  0.229199  1
