# generated using pymatgen
data_Y5TmMn16(CoP6)2
_symmetry_space_group_name_H-M   'P 1'
_cell_length_a   3.63869300
_cell_length_b   10.86240101
_cell_length_c   12.61276301
_cell_angle_alpha   90.00473742
_cell_angle_beta   90.00000000
_cell_angle_gamma   90.00000000
_symmetry_Int_Tables_number   1
_chemical_formula_structural   Y5TmMn16(CoP6)2
_chemical_formula_sum   'Y5 Tm1 Mn16 Co2 P12'
_cell_volume   498.51873126
_cell_formula_units_Z   1
loop_
 _symmetry_equiv_pos_site_id
 _symmetry_equiv_pos_as_xyz
  1  'x, y, z'
loop_
 _atom_site_type_symbol
 _atom_site_label
 _atom_site_symmetry_multiplicity
 _atom_site_fract_x
 _atom_site_fract_y
 _atom_site_fract_z
 _atom_site_occupancy
  Y  Y0  1  0.000000  0.500051  0.531783  1
  Y  Y1  1  0.500000  0.999814  0.467799  1
  Y  Y2  1  0.500000  0.177117  0.206335  1
  Y  Y3  1  0.000000  0.677445  0.793657  1
  Y  Y4  1  0.000000  0.322514  0.793762  1
  Tm  Tm5  1  0.500000  0.823013  0.206446  1
  Mn  Mn6  1  0.500000  0.500058  0.166415  1
  Mn  Mn7  1  0.000000  0.999845  0.833928  1
  Mn  Mn8  1  0.000000  0.500642  0.993137  1
  Mn  Mn9  1  0.500000  0.999586  0.007768  1
  Mn  Mn10  1  0.500000  0.332472  0.997306  1
  Mn  Mn11  1  0.500000  0.668048  0.997858  1
  Mn  Mn12  1  0.000000  0.167008  0.003001  1
  Mn  Mn13  1  0.000000  0.832508  0.003339  1
  Mn  Mn14  1  0.500000  0.298055  0.432339  1
  Mn  Mn15  1  0.500000  0.702268  0.431885  1
  Mn  Mn16  1  0.000000  0.201803  0.567333  1
  Mn  Mn17  1  0.000000  0.798156  0.566961  1
  Mn  Mn18  1  0.500000  0.881552  0.702458  1
  Mn  Mn19  1  0.500000  0.118397  0.702554  1
  Mn  Mn20  1  0.000000  0.619156  0.297238  1
  Mn  Mn21  1  0.000000  0.381606  0.297532  1
  Co  Co22  1  0.500000  0.500141  0.705812  1
  Co  Co23  1  0.000000  0.998663  0.293547  1
  P  P24  1  0.500000  0.500187  0.881564  1
  P  P25  1  0.000000  0.998733  0.119211  1
  P  P26  1  0.500000  0.500137  0.358907  1
  P  P27  1  0.000000  0.999978  0.640796  1
  P  P28  1  0.500000  0.317686  0.618837  1
  P  P29  1  0.500000  0.682431  0.618586  1
  P  P30  1  0.000000  0.181955  0.380971  1
  P  P31  1  0.000000  0.817662  0.379761  1
  P  P32  1  0.500000  0.845778  0.885060  1
  P  P33  1  0.500000  0.154039  0.885168  1
  P  P34  1  0.000000  0.655712  0.115914  1
  P  P35  1  0.000000  0.345786  0.115030  1
