# generated using pymatgen
data_NdY5Co2(P3Ir4)4
_symmetry_space_group_name_H-M   'P 1'
_cell_length_a   3.94183400
_cell_length_b   11.12104700
_cell_length_c   12.82476500
_cell_angle_alpha   90.00000000
_cell_angle_beta   90.00000000
_cell_angle_gamma   90.00000000
_symmetry_Int_Tables_number   1
_chemical_formula_structural   NdY5Co2(P3Ir4)4
_chemical_formula_sum   'Nd1 Y5 Co2 P12 Ir16'
_cell_volume   562.20334237
_cell_formula_units_Z   1
loop_
 _symmetry_equiv_pos_site_id
 _symmetry_equiv_pos_as_xyz
  1  'x, y, z'
loop_
 _atom_site_type_symbol
 _atom_site_label
 _atom_site_symmetry_multiplicity
 _atom_site_fract_x
 _atom_site_fract_y
 _atom_site_fract_z
 _atom_site_occupancy
  Nd  Nd0  1  0.000000  0.500000  0.522588  1
  Y  Y1  1  0.500000  0.000000  0.477521  1
  Y  Y2  1  0.500000  0.816005  0.200324  1
  Y  Y3  1  0.500000  0.183995  0.200324  1
  Y  Y4  1  0.000000  0.684249  0.799892  1
  Y  Y5  1  0.000000  0.315751  0.799892  1
  Co  Co6  1  0.000000  0.500000  0.978235  1
  Co  Co7  1  0.500000  0.000000  0.022608  1
  P  P8  1  0.500000  0.500000  0.881646  1
  P  P9  1  0.000000  0.000000  0.119360  1
  P  P10  1  0.500000  0.500000  0.354915  1
  P  P11  1  0.000000  0.000000  0.642514  1
  P  P12  1  0.500000  0.314055  0.620283  1
  P  P13  1  0.500000  0.685945  0.620283  1
  P  P14  1  0.000000  0.184233  0.380602  1
  P  P15  1  0.000000  0.815767  0.380602  1
  P  P16  1  0.500000  0.852367  0.896970  1
  P  P17  1  0.500000  0.147633  0.896970  1
  P  P18  1  0.000000  0.648225  0.102902  1
  P  P19  1  0.000000  0.351775  0.102902  1
  Ir  Ir20  1  0.500000  0.500000  0.176428  1
  Ir  Ir21  1  0.000000  0.000000  0.822043  1
  Ir  Ir22  1  0.500000  0.500000  0.705317  1
  Ir  Ir23  1  0.000000  0.000000  0.297027  1
  Ir  Ir24  1  0.500000  0.338581  0.997650  1
  Ir  Ir25  1  0.500000  0.661419  0.997650  1
  Ir  Ir26  1  0.000000  0.160645  0.002169  1
  Ir  Ir27  1  0.000000  0.839355  0.002169  1
  Ir  Ir28  1  0.500000  0.289447  0.428263  1
  Ir  Ir29  1  0.500000  0.710553  0.428263  1
  Ir  Ir30  1  0.000000  0.205435  0.570940  1
  Ir  Ir31  1  0.000000  0.794565  0.570940  1
  Ir  Ir32  1  0.500000  0.870816  0.715325  1
  Ir  Ir33  1  0.500000  0.129184  0.715325  1
  Ir  Ir34  1  0.000000  0.629478  0.284580  1
  Ir  Ir35  1  0.000000  0.370522  0.284580  1
