# generated using pymatgen
data_PrSm2Co8P6W
_symmetry_space_group_name_H-M   'P 1'
_cell_length_a   3.78160200
_cell_length_b   10.70270300
_cell_length_c   12.42757200
_cell_angle_alpha   90.00000000
_cell_angle_beta   90.00000000
_cell_angle_gamma   90.00000000
_symmetry_Int_Tables_number   1
_chemical_formula_structural   PrSm2Co8P6W
_chemical_formula_sum   'Pr2 Sm4 Co16 P12 W2'
_cell_volume   502.98563364
_cell_formula_units_Z   2
loop_
 _symmetry_equiv_pos_site_id
 _symmetry_equiv_pos_as_xyz
  1  'x, y, z'
loop_
 _atom_site_type_symbol
 _atom_site_label
 _atom_site_symmetry_multiplicity
 _atom_site_fract_x
 _atom_site_fract_y
 _atom_site_fract_z
 _atom_site_occupancy
  Pr  Pr0  1  0.000000  0.500000  0.524265  1
  Pr  Pr1  1  0.500000  0.000000  0.475735  1
  Sm  Sm2  1  0.500000  0.818756  0.204265  1
  Sm  Sm3  1  0.500000  0.181244  0.204265  1
  Sm  Sm4  1  0.000000  0.681244  0.795735  1
  Sm  Sm5  1  0.000000  0.318756  0.795735  1
  Co  Co6  1  0.500000  0.500000  0.703940  1
  Co  Co7  1  0.000000  0.000000  0.296060  1
  Co  Co8  1  0.000000  0.500000  0.987806  1
  Co  Co9  1  0.500000  0.000000  0.012194  1
  Co  Co10  1  0.500000  0.332655  0.991272  1
  Co  Co11  1  0.500000  0.667345  0.991272  1
  Co  Co12  1  0.000000  0.167345  0.008728  1
  Co  Co13  1  0.000000  0.832655  0.008728  1
  Co  Co14  1  0.500000  0.295173  0.430344  1
  Co  Co15  1  0.500000  0.704827  0.430344  1
  Co  Co16  1  0.000000  0.204827  0.569656  1
  Co  Co17  1  0.000000  0.795173  0.569656  1
  Co  Co18  1  0.500000  0.880148  0.710144  1
  Co  Co19  1  0.500000  0.119852  0.710144  1
  Co  Co20  1  0.000000  0.619852  0.289856  1
  Co  Co21  1  0.000000  0.380148  0.289856  1
  P  P22  1  0.500000  0.500000  0.883873  1
  P  P23  1  0.000000  0.000000  0.116127  1
  P  P24  1  0.500000  0.500000  0.344432  1
  P  P25  1  0.000000  0.000000  0.655568  1
  P  P26  1  0.500000  0.306446  0.615788  1
  P  P27  1  0.500000  0.693554  0.615788  1
  P  P28  1  0.000000  0.193554  0.384212  1
  P  P29  1  0.000000  0.806446  0.384212  1
  P  P30  1  0.500000  0.845712  0.894842  1
  P  P31  1  0.500000  0.154288  0.894842  1
  P  P32  1  0.000000  0.654288  0.105158  1
  P  P33  1  0.000000  0.345712  0.105158  1
  W  W34  1  0.500000  0.500000  0.153601  1
  W  W35  1  0.000000  0.000000  0.846399  1
