# generated using pymatgen
data_Nd16Y3ErSn16
_symmetry_space_group_name_H-M   'P 1'
_cell_length_a   8.23912300
_cell_length_b   8.39252300
_cell_length_c   15.92499900
_cell_angle_alpha   90.00000000
_cell_angle_beta   90.00000000
_cell_angle_gamma   89.99766429
_symmetry_Int_Tables_number   1
_chemical_formula_structural   Nd16Y3ErSn16
_chemical_formula_sum   'Nd16 Y3 Er1 Sn16'
_cell_volume   1101.16637164
_cell_formula_units_Z   1
loop_
 _symmetry_equiv_pos_site_id
 _symmetry_equiv_pos_as_xyz
  1  'x, y, z'
loop_
 _atom_site_type_symbol
 _atom_site_label
 _atom_site_symmetry_multiplicity
 _atom_site_fract_x
 _atom_site_fract_y
 _atom_site_fract_z
 _atom_site_occupancy
  Nd  Nd0  1  0.017838  0.180945  0.401274  1
  Nd  Nd1  1  0.368123  0.837147  0.120668  1
  Nd  Nd2  1  0.131660  0.337287  0.620701  1
  Nd  Nd3  1  0.482305  0.680877  0.901231  1
  Nd  Nd4  1  0.868133  0.662838  0.120621  1
  Nd  Nd5  1  0.131660  0.337287  0.879299  1
  Nd  Nd6  1  0.482305  0.680877  0.598769  1
  Nd  Nd7  1  0.631994  0.163010  0.620711  1
  Nd  Nd8  1  0.868133  0.662838  0.379379  1
  Nd  Nd9  1  0.017838  0.180945  0.098726  1
  Nd  Nd10  1  0.982098  0.818947  0.901253  1
  Nd  Nd11  1  0.631994  0.163010  0.879289  1
  Nd  Nd12  1  0.517833  0.319049  0.098721  1
  Nd  Nd13  1  0.368123  0.837147  0.379332  1
  Nd  Nd14  1  0.982098  0.818947  0.598747  1
  Nd  Nd15  1  0.517833  0.319049  0.401279  1
  Y  Y16  1  0.199195  0.501987  0.250000  1
  Y  Y17  1  0.699193  0.997997  0.250000  1
  Y  Y18  1  0.300780  0.001975  0.750000  1
  Er  Er19  1  0.800555  0.497908  0.750000  1
  Sn  Sn20  1  0.791657  0.464690  0.543586  1
  Sn  Sn21  1  0.708345  0.964662  0.456597  1
  Sn  Sn22  1  0.675708  0.853987  0.750000  1
  Sn  Sn23  1  0.208351  0.535367  0.456596  1
  Sn  Sn24  1  0.291644  0.035342  0.956585  1
  Sn  Sn25  1  0.824365  0.354429  0.250000  1
  Sn  Sn26  1  0.791657  0.464690  0.956414  1
  Sn  Sn27  1  0.565105  0.616433  0.250000  1
  Sn  Sn28  1  0.208351  0.535367  0.043404  1
  Sn  Sn29  1  0.435336  0.383671  0.750000  1
  Sn  Sn30  1  0.175479  0.645519  0.750000  1
  Sn  Sn31  1  0.934823  0.116590  0.750000  1
  Sn  Sn32  1  0.291644  0.035342  0.543415  1
  Sn  Sn33  1  0.708345  0.964662  0.043403  1
  Sn  Sn34  1  0.324408  0.145593  0.250000  1
  Sn  Sn35  1  0.065094  0.883587  0.250000  1
