# generated using pymatgen
data_Er10InSn3Bi2
_symmetry_space_group_name_H-M   'P 1'
_cell_length_a   8.95259679
_cell_length_b   8.93877984
_cell_length_c   6.45891600
_cell_angle_alpha   90.00000000
_cell_angle_beta   90.00000000
_cell_angle_gamma   119.89664707
_symmetry_Int_Tables_number   1
_chemical_formula_structural   Er10InSn3Bi2
_chemical_formula_sum   'Er10 In1 Sn3 Bi2'
_cell_volume   448.09375360
_cell_formula_units_Z   1
loop_
 _symmetry_equiv_pos_site_id
 _symmetry_equiv_pos_as_xyz
  1  'x, y, z'
loop_
 _atom_site_type_symbol
 _atom_site_label
 _atom_site_symmetry_multiplicity
 _atom_site_fract_x
 _atom_site_fract_y
 _atom_site_fract_z
 _atom_site_occupancy
  Er  Er0  1  0.994979  0.757690  0.750000  1
  Er  Er1  1  0.994690  0.237206  0.250000  1
  Er  Er2  1  0.765834  0.764165  0.250000  1
  Er  Er3  1  0.765221  0.000891  0.750000  1
  Er  Er4  1  0.235740  0.242071  0.750000  1
  Er  Er5  1  0.235170  0.992711  0.250000  1
  Er  Er6  1  0.330872  0.665723  0.501129  1
  Er  Er7  1  0.674158  0.337281  0.998933  1
  Er  Er8  1  0.674158  0.337281  0.501067  1
  Er  Er9  1  0.330872  0.665723  0.998871  1
  In  In10  1  0.000865  0.604627  0.250000  1
  Sn  Sn11  1  0.000874  0.396043  0.750000  1
  Sn  Sn12  1  0.604401  0.605157  0.750000  1
  Sn  Sn13  1  0.604826  0.999574  0.250000  1
  Bi  Bi14  1  0.394000  0.002301  0.750000  1
  Bi  Bi15  1  0.393340  0.391555  0.250000  1
