# generated using pymatgen
data_K(CeB8)3
_symmetry_space_group_name_H-M   'P 1'
_cell_length_a   4.14637500
_cell_length_b   5.86032200
_cell_length_c   11.74256300
_cell_angle_alpha   90.00000000
_cell_angle_beta   90.00000000
_cell_angle_gamma   90.00000000
_symmetry_Int_Tables_number   1
_chemical_formula_structural   K(CeB8)3
_chemical_formula_sum   'K1 Ce3 B24'
_cell_volume   285.33362608
_cell_formula_units_Z   1
loop_
 _symmetry_equiv_pos_site_id
 _symmetry_equiv_pos_as_xyz
  1  'x, y, z'
loop_
 _atom_site_type_symbol
 _atom_site_label
 _atom_site_symmetry_multiplicity
 _atom_site_fract_x
 _atom_site_fract_y
 _atom_site_fract_z
 _atom_site_occupancy
  K  K0  1  0.000000  0.000000  0.000000  1
  Ce  Ce1  1  0.000000  0.500000  0.248681  1
  Ce  Ce2  1  0.000000  0.000000  0.500000  1
  Ce  Ce3  1  0.000000  0.500000  0.751319  1
  B  B4  1  0.198733  0.500000  0.500000  1
  B  B5  1  0.200259  0.000000  0.748069  1
  B  B6  1  0.201151  0.500000  0.000000  1
  B  B7  1  0.200259  0.000000  0.251931  1
  B  B8  1  0.500000  0.650071  0.574923  1
  B  B9  1  0.500000  0.150648  0.823037  1
  B  B10  1  0.500000  0.650056  0.074923  1
  B  B11  1  0.500000  0.150455  0.326494  1
  B  B12  1  0.500000  0.349929  0.574923  1
  B  B13  1  0.500000  0.849352  0.823037  1
  B  B14  1  0.500000  0.349944  0.074923  1
  B  B15  1  0.500000  0.849545  0.326494  1
  B  B16  1  0.500000  0.349929  0.425077  1
  B  B17  1  0.500000  0.849545  0.673506  1
  B  B18  1  0.500000  0.349944  0.925077  1
  B  B19  1  0.500000  0.849352  0.176963  1
  B  B20  1  0.500000  0.650071  0.425077  1
  B  B21  1  0.500000  0.150455  0.673506  1
  B  B22  1  0.500000  0.650056  0.925077  1
  B  B23  1  0.500000  0.150648  0.176963  1
  B  B24  1  0.801267  0.500000  0.500000  1
  B  B25  1  0.799741  0.000000  0.748069  1
  B  B26  1  0.798849  0.500000  0.000000  1
  B  B27  1  0.799741  0.000000  0.251931  1
