# generated using pymatgen
data_Ce7ScSi16(Mo3W)3
_symmetry_space_group_name_H-M   'P 1'
_cell_length_a   6.87925305
_cell_length_b   6.94465067
_cell_length_c   12.97527534
_cell_angle_alpha   90.23947838
_cell_angle_beta   89.95082811
_cell_angle_gamma   90.17992419
_symmetry_Int_Tables_number   1
_chemical_formula_structural   Ce7ScSi16(Mo3W)3
_chemical_formula_sum   'Ce7 Sc1 Si16 Mo9 W3'
_cell_volume   619.87223203
_cell_formula_units_Z   1
loop_
 _symmetry_equiv_pos_site_id
 _symmetry_equiv_pos_as_xyz
  1  'x, y, z'
loop_
 _atom_site_type_symbol
 _atom_site_label
 _atom_site_symmetry_multiplicity
 _atom_site_fract_x
 _atom_site_fract_y
 _atom_site_fract_z
 _atom_site_occupancy
  Ce  Ce0  1  0.494190  0.659901  0.591387  1
  Ce  Ce1  1  0.994359  0.838920  0.907187  1
  Ce  Ce2  1  0.505605  0.339751  0.092259  1
  Ce  Ce3  1  0.003366  0.165717  0.407475  1
  Ce  Ce4  1  0.505267  0.340151  0.410820  1
  Ce  Ce5  1  0.006757  0.161222  0.092676  1
  Ce  Ce6  1  0.494070  0.661945  0.905372  1
  Sc  Sc7  1  0.995246  0.831259  0.596706  1
  Si  Si8  1  0.660055  0.954390  0.455666  1
  Si  Si9  1  0.155508  0.546785  0.047375  1
  Si  Si10  1  0.346143  0.046936  0.951029  1
  Si  Si11  1  0.847545  0.461515  0.548467  1
  Si  Si12  1  0.334592  0.038979  0.547937  1
  Si  Si13  1  0.844058  0.452932  0.952159  1
  Si  Si14  1  0.656311  0.953645  0.047558  1
  Si  Si15  1  0.153289  0.551917  0.455272  1
  Si  Si16  1  0.463502  0.358566  0.749937  1
  Si  Si17  1  0.964047  0.132029  0.745733  1
  Si  Si18  1  0.537206  0.638952  0.251713  1
  Si  Si19  1  0.037172  0.864145  0.250687  1
  Si  Si20  1  0.697766  0.869927  0.745924  1
  Si  Si21  1  0.187768  0.630674  0.746906  1
  Si  Si22  1  0.308854  0.130915  0.251133  1
  Si  Si23  1  0.808041  0.372458  0.250765  1
  Mo  Mo24  1  0.667355  0.161347  0.624042  1
  Mo  Mo25  1  0.167083  0.336848  0.871699  1
  Mo  Mo26  1  0.331530  0.839196  0.127031  1
  Mo  Mo27  1  0.830999  0.664108  0.375188  1
  Mo  Mo28  1  0.329774  0.839136  0.374637  1
  Mo  Mo29  1  0.830308  0.663244  0.127373  1
  Mo  Mo30  1  0.673719  0.158835  0.871745  1
  Mo  Mo31  1  0.168499  0.334625  0.625784  1
  Mo  Mo32  1  0.831457  0.500312  0.749230  1
  W  W33  1  0.331392  0.994766  0.748651  1
  W  W34  1  0.169112  0.501620  0.250701  1
  W  W35  1  0.668058  0.002330  0.251777  1
