# generated using pymatgen
data_Tb12Ni4SnPd
_symmetry_space_group_name_H-M   'P 1'
_cell_length_a   8.39336692
_cell_length_b   8.39336782
_cell_length_c   8.39336806
_cell_angle_alpha   107.10874706
_cell_angle_beta   109.59901189
_cell_angle_gamma   111.73895838
_symmetry_Int_Tables_number   1
_chemical_formula_structural   Tb12Ni4SnPd
_chemical_formula_sum   'Tb12 Ni4 Sn1 Pd1'
_cell_volume   454.44069409
_cell_formula_units_Z   1
loop_
 _symmetry_equiv_pos_site_id
 _symmetry_equiv_pos_as_xyz
  1  'x, y, z'
loop_
 _atom_site_type_symbol
 _atom_site_label
 _atom_site_symmetry_multiplicity
 _atom_site_fract_x
 _atom_site_fract_y
 _atom_site_fract_z
 _atom_site_occupancy
  Tb  Tb0  1  0.693177  0.282938  0.976115  1
  Tb  Tb1  1  0.306823  0.717062  0.023885  1
  Tb  Tb2  1  0.693177  0.717062  0.410238  1
  Tb  Tb3  1  0.306823  0.282938  0.589762  1
  Tb  Tb4  1  0.808290  0.130489  0.322199  1
  Tb  Tb5  1  0.808290  0.486092  0.677801  1
  Tb  Tb6  1  0.191710  0.869511  0.677801  1
  Tb  Tb7  1  0.191710  0.513908  0.322199  1
  Tb  Tb8  1  0.613396  0.794734  0.818662  1
  Tb  Tb9  1  0.976074  0.794734  0.181338  1
  Tb  Tb10  1  0.023926  0.205266  0.818662  1
  Tb  Tb11  1  0.386604  0.205266  0.181338  1
  Ni  Ni12  1  0.860931  0.500000  0.360931  1
  Ni  Ni13  1  0.139069  0.500000  0.639069  1
  Ni  Ni14  1  0.000000  0.124051  0.124051  1
  Ni  Ni15  1  0.000000  0.875949  0.875949  1
  Sn  Sn16  1  0.500000  0.000000  0.500000  1
  Pd  Pd17  1  0.500000  0.500000  0.000000  1
