# generated using pymatgen
data_BeNb16Ni3Te16
_symmetry_space_group_name_H-M   'P 1'
_cell_length_a   4.83050800
_cell_length_b   10.97118620
_cell_length_c   19.06344335
_cell_angle_alpha   90.02210792
_cell_angle_beta   90.00000000
_cell_angle_gamma   90.00000000
_symmetry_Int_Tables_number   1
_chemical_formula_structural   BeNb16Ni3Te16
_chemical_formula_sum   'Be1 Nb16 Ni3 Te16'
_cell_volume   1010.29384622
_cell_formula_units_Z   1
loop_
 _symmetry_equiv_pos_site_id
 _symmetry_equiv_pos_as_xyz
  1  'x, y, z'
loop_
 _atom_site_type_symbol
 _atom_site_label
 _atom_site_symmetry_multiplicity
 _atom_site_fract_x
 _atom_site_fract_y
 _atom_site_fract_z
 _atom_site_occupancy
  Be  Be0  1  0.249792  0.000000  0.000000  1
  Nb  Nb1  1  0.500152  0.564337  0.382081  1
  Nb  Nb2  1  0.500152  0.435663  0.617919  1
  Nb  Nb3  1  0.494225  0.063159  0.115358  1
  Nb  Nb4  1  0.494225  0.936841  0.884642  1
  Nb  Nb5  1  0.500155  0.705907  0.536655  1
  Nb  Nb6  1  0.500155  0.294093  0.463345  1
  Nb  Nb7  1  0.491071  0.201763  0.964109  1
  Nb  Nb8  1  0.491071  0.798237  0.035891  1
  Nb  Nb9  1  0.999818  0.691018  0.442466  1
  Nb  Nb10  1  0.999818  0.308982  0.557534  1
  Nb  Nb11  1  0.009240  0.187195  0.056445  1
  Nb  Nb12  1  0.009240  0.812805  0.943555  1
  Nb  Nb13  1  0.999768  0.399770  0.390723  1
  Nb  Nb14  1  0.999768  0.600230  0.609277  1
  Nb  Nb15  1  0.005414  0.901776  0.106887  1
  Nb  Nb16  1  0.005414  0.098224  0.893113  1
  Ni  Ni17  1  0.250046  0.500000  0.500000  1
  Ni  Ni18  1  0.749969  0.000000  0.000000  1
  Ni  Ni19  1  0.750017  0.500000  0.500000  1
  Te  Te20  1  0.000294  0.848451  0.562461  1
  Te  Te21  1  0.000294  0.151549  0.437539  1
  Te  Te22  1  0.991314  0.345727  0.938133  1
  Te  Te23  1  0.991314  0.654273  0.061867  1
  Te  Te24  1  0.499851  0.331513  0.314907  1
  Te  Te25  1  0.499851  0.668487  0.685093  1
  Te  Te26  1  0.508121  0.833026  0.183588  1
  Te  Te27  1  0.508121  0.166974  0.816412  1
  Te  Te28  1  0.499553  0.823187  0.402407  1
  Te  Te29  1  0.499553  0.176813  0.597593  1
  Te  Te30  1  0.509022  0.320585  0.096866  1
  Te  Te31  1  0.509022  0.679415  0.903134  1
  Te  Te32  1  0.000030  0.607953  0.300308  1
  Te  Te33  1  0.000030  0.392047  0.699692  1
  Te  Te34  1  0.992058  0.106893  0.198117  1
  Te  Te35  1  0.992058  0.893107  0.801883  1
