# generated using pymatgen
data_La7Nd13Si15Au
_symmetry_space_group_name_H-M   'P 1'
_cell_length_a   7.95762932
_cell_length_b   7.95522607
_cell_length_c   15.27859979
_cell_angle_alpha   90.04309057
_cell_angle_beta   89.49949476
_cell_angle_gamma   90.18478860
_symmetry_Int_Tables_number   1
_chemical_formula_structural   La7Nd13Si15Au
_chemical_formula_sum   'La7 Nd13 Si15 Au1'
_cell_volume   967.16560470
_cell_formula_units_Z   1
loop_
 _symmetry_equiv_pos_site_id
 _symmetry_equiv_pos_as_xyz
  1  'x, y, z'
loop_
 _atom_site_type_symbol
 _atom_site_label
 _atom_site_symmetry_multiplicity
 _atom_site_fract_x
 _atom_site_fract_y
 _atom_site_fract_z
 _atom_site_occupancy
  La  La0  1  0.012931  0.368962  0.551307  1
  La  La1  1  0.627196  0.985458  0.950938  1
  La  La2  1  0.126747  0.511827  0.802196  1
  La  La3  1  0.865438  0.480239  0.294597  1
  La  La4  1  0.508429  0.123560  0.197649  1
  La  La5  1  0.492624  0.875478  0.699714  1
  La  La6  1  0.378831  0.017400  0.451730  1
  Nd  Nd7  1  0.376037  0.479764  0.373842  1
  Nd  Nd8  1  0.863259  0.024330  0.370971  1
  Nd  Nd9  1  0.981228  0.128025  0.123755  1
  Nd  Nd10  1  0.021979  0.875036  0.623898  1
  Nd  Nd11  1  0.631097  0.519735  0.874570  1
  Nd  Nd12  1  0.486121  0.371256  0.627808  1
  Nd  Nd13  1  0.515028  0.626972  0.124816  1
  Nd  Nd14  1  0.125969  0.983045  0.878809  1
  Nd  Nd15  1  0.992392  0.619145  0.053738  1
  Nd  Nd16  1  0.690481  0.696425  0.497691  1
  Nd  Nd17  1  0.812438  0.189898  0.750571  1
  Nd  Nd18  1  0.181899  0.806217  0.252148  1
  Nd  Nd19  1  0.306752  0.310577  0.999887  1
  Si  Si20  1  0.922548  0.289254  0.939909  1
  Si  Si21  1  0.714791  0.079277  0.561139  1
  Si  Si22  1  0.213511  0.422737  0.189913  1
  Si  Si23  1  0.789128  0.578371  0.688642  1
  Si  Si24  1  0.424525  0.212389  0.811898  1
  Si  Si25  1  0.574647  0.786030  0.307900  1
  Si  Si26  1  0.285435  0.920813  0.060819  1
  Si  Si27  1  0.833812  0.805525  0.796651  1
  Si  Si28  1  0.166051  0.197566  0.298629  1
  Si  Si29  1  0.800084  0.832000  0.197740  1
  Si  Si30  1  0.311619  0.667125  0.551529  1
  Si  Si31  1  0.697314  0.334420  0.048492  1
  Si  Si32  1  0.668674  0.306274  0.453859  1
  Si  Si33  1  0.330560  0.694342  0.952426  1
  Si  Si34  1  0.199313  0.167323  0.702993  1
  Au  Au35  1  0.071117  0.713204  0.436828  1
