# generated using pymatgen
data_Dy6Ho6Ni5Bi
_symmetry_space_group_name_H-M   'P 1'
_cell_length_a   8.34900175
_cell_length_b   8.34934526
_cell_length_c   8.34900223
_cell_angle_alpha   111.65379136
_cell_angle_beta   109.31151398
_cell_angle_gamma   107.47389088
_symmetry_Int_Tables_number   1
_chemical_formula_structural   Dy6Ho6Ni5Bi
_chemical_formula_sum   'Dy6 Ho6 Ni5 Bi1'
_cell_volume   447.43107119
_cell_formula_units_Z   1
loop_
 _symmetry_equiv_pos_site_id
 _symmetry_equiv_pos_as_xyz
  1  'x, y, z'
loop_
 _atom_site_type_symbol
 _atom_site_label
 _atom_site_symmetry_multiplicity
 _atom_site_fract_x
 _atom_site_fract_y
 _atom_site_fract_z
 _atom_site_occupancy
  Dy  Dy0  1  0.821897  0.705067  0.526170  1
  Dy  Dy1  1  0.178103  0.294933  0.473830  1
  Dy  Dy2  1  0.178898  0.705067  0.883170  1
  Dy  Dy3  1  0.821102  0.294933  0.116830  1
  Dy  Dy4  1  0.679392  0.371063  0.691672  1
  Dy  Dy5  1  0.320608  0.628937  0.308328  1
  Ho  Ho6  1  0.678843  0.987616  0.308775  1
  Ho  Ho7  1  0.321157  0.012384  0.691225  1
  Ho  Ho8  1  0.601850  0.794197  0.808323  1
  Ho  Ho9  1  0.398150  0.205803  0.191677  1
  Ho  Ho10  1  0.985875  0.794197  0.192347  1
  Ho  Ho11  1  0.014125  0.205803  0.807653  1
  Ni  Ni12  1  0.632829  0.000000  0.632829  1
  Ni  Ni13  1  0.367171  0.000000  0.367171  1
  Ni  Ni14  1  0.125116  0.625119  0.500003  1
  Ni  Ni15  1  0.874884  0.374881  0.499997  1
  Ni  Ni16  1  0.000000  0.000000  0.000000  1
  Bi  Bi17  1  0.500000  0.500000  0.000000  1
