# generated using pymatgen
data_Sc22Tc4Ag3Os
_symmetry_space_group_name_H-M   'P 1'
_cell_length_a   9.74750791
_cell_length_b   9.65370220
_cell_length_c   9.61924793
_cell_angle_alpha   60.76346620
_cell_angle_beta   59.84630851
_cell_angle_gamma   59.44355966
_symmetry_Int_Tables_number   1
_chemical_formula_structural   Sc22Tc4Ag3Os
_chemical_formula_sum   'Sc22 Tc4 Ag3 Os1'
_cell_volume   640.12824458
_cell_formula_units_Z   1
loop_
 _symmetry_equiv_pos_site_id
 _symmetry_equiv_pos_as_xyz
  1  'x, y, z'
loop_
 _atom_site_type_symbol
 _atom_site_label
 _atom_site_symmetry_multiplicity
 _atom_site_fract_x
 _atom_site_fract_y
 _atom_site_fract_z
 _atom_site_occupancy
  Sc  Sc0  1  0.834420  0.836848  0.857785  1
  Sc  Sc1  1  0.523444  0.151090  0.147934  1
  Sc  Sc2  1  0.147934  0.177532  0.523444  1
  Sc  Sc3  1  0.142215  0.529051  0.165580  1
  Sc  Sc4  1  0.852066  0.822468  0.476556  1
  Sc  Sc5  1  0.857785  0.470949  0.834420  1
  Sc  Sc6  1  0.476556  0.848910  0.852066  1
  Sc  Sc7  1  0.165580  0.163152  0.142215  1
  Sc  Sc8  1  0.195018  0.804982  0.195018  1
  Sc  Sc9  1  0.191425  0.808658  0.808575  1
  Sc  Sc10  1  0.808575  0.191342  0.191425  1
  Sc  Sc11  1  0.802113  0.803320  0.197887  1
  Sc  Sc12  1  0.197887  0.196680  0.802113  1
  Sc  Sc13  1  0.804982  0.195018  0.804982  1
  Sc  Sc14  1  0.376727  0.393821  0.386745  1
  Sc  Sc15  1  0.153955  0.608174  0.625510  1
  Sc  Sc16  1  0.613255  0.157294  0.623273  1
  Sc  Sc17  1  0.625510  0.612360  0.153955  1
  Sc  Sc18  1  0.386745  0.842706  0.376727  1
  Sc  Sc19  1  0.374490  0.387640  0.846045  1
  Sc  Sc20  1  0.846045  0.391826  0.374490  1
  Sc  Sc21  1  0.623273  0.606179  0.613255  1
  Tc  Tc22  1  0.000000  0.500000  0.500000  1
  Tc  Tc23  1  0.500000  0.000000  0.000000  1
  Tc  Tc24  1  0.000000  0.500000  0.000000  1
  Tc  Tc25  1  0.000000  0.000000  0.000000  1
  Ag  Ag26  1  0.500000  0.500000  0.000000  1
  Ag  Ag27  1  0.000000  0.000000  0.500000  1
  Ag  Ag28  1  0.500000  0.000000  0.500000  1
  Os  Os29  1  0.500000  0.500000  0.500000  1
