# generated using pymatgen
data_Li8Dy2Ho6Sn5Bi3
_symmetry_space_group_name_H-M   'P 1'
_cell_length_a   9.47117716
_cell_length_b   9.47259121
_cell_length_c   7.21021403
_cell_angle_alpha   90.00747602
_cell_angle_beta   89.99308696
_cell_angle_gamma   120.00160372
_symmetry_Int_Tables_number   1
_chemical_formula_structural   Li8Dy2Ho6Sn5Bi3
_chemical_formula_sum   'Li8 Dy2 Ho6 Sn5 Bi3'
_cell_volume   560.20182776
_cell_formula_units_Z   1
loop_
 _symmetry_equiv_pos_site_id
 _symmetry_equiv_pos_as_xyz
  1  'x, y, z'
loop_
 _atom_site_type_symbol
 _atom_site_label
 _atom_site_symmetry_multiplicity
 _atom_site_fract_x
 _atom_site_fract_y
 _atom_site_fract_z
 _atom_site_occupancy
  Li  Li0  1  0.167048  0.334022  0.279299  1
  Li  Li1  1  0.167088  0.832926  0.279677  1
  Li  Li2  1  0.665950  0.832950  0.279399  1
  Li  Li3  1  0.831669  0.663262  0.787147  1
  Li  Li4  1  0.831645  0.168371  0.787790  1
  Li  Li5  1  0.336776  0.168446  0.787328  1
  Li  Li6  1  0.333275  0.666553  0.672905  1
  Li  Li7  1  0.666486  0.333436  0.179911  1
  Dy  Dy8  1  0.514358  0.028405  0.488986  1
  Dy  Dy9  1  0.514006  0.485902  0.488741  1
  Ho  Ho10  1  0.971647  0.485659  0.488855  1
  Ho  Ho11  1  0.491322  0.982617  0.999846  1
  Ho  Ho12  1  0.491176  0.508842  0.999768  1
  Ho  Ho13  1  0.017426  0.508709  0.999866  1
  Ho  Ho14  1  0.999987  0.999994  0.492919  1
  Ho  Ho15  1  0.000060  0.999977  0.008794  1
  Sn  Sn16  1  0.833505  0.666785  0.233112  1
  Sn  Sn17  1  0.833502  0.166598  0.233076  1
  Sn  Sn18  1  0.333171  0.166498  0.233082  1
  Sn  Sn19  1  0.333225  0.666629  0.258550  1
  Sn  Sn20  1  0.666757  0.333434  0.760255  1
  Bi  Bi21  1  0.166488  0.333256  0.734185  1
  Bi  Bi22  1  0.166800  0.833293  0.734223  1
  Bi  Bi23  1  0.666635  0.833436  0.734255  1
