# generated using pymatgen
data_DyErLu8(In2Pt)4
_symmetry_space_group_name_H-M   'P 1'
_cell_length_a   3.58931500
_cell_length_b   8.04118004
_cell_length_c   18.01950909
_cell_angle_alpha   89.98867879
_cell_angle_beta   90.00000000
_cell_angle_gamma   90.00000000
_symmetry_Int_Tables_number   1
_chemical_formula_structural   DyErLu8(In2Pt)4
_chemical_formula_sum   'Dy1 Er1 Lu8 In8 Pt4'
_cell_volume   520.08497393
_cell_formula_units_Z   1
loop_
 _symmetry_equiv_pos_site_id
 _symmetry_equiv_pos_as_xyz
  1  'x, y, z'
loop_
 _atom_site_type_symbol
 _atom_site_label
 _atom_site_symmetry_multiplicity
 _atom_site_fract_x
 _atom_site_fract_y
 _atom_site_fract_z
 _atom_site_occupancy
  Dy  Dy0  1  0.000000  0.000000  0.000000  1
  Er  Er1  1  0.000000  0.500000  0.500000  1
  Lu  Lu2  1  0.000000  0.116494  0.413967  1
  Lu  Lu3  1  0.000000  0.883506  0.586033  1
  Lu  Lu4  1  0.000000  0.383529  0.913934  1
  Lu  Lu5  1  0.000000  0.616471  0.086066  1
  Lu  Lu6  1  0.000000  0.244494  0.221329  1
  Lu  Lu7  1  0.000000  0.755506  0.778671  1
  Lu  Lu8  1  0.000000  0.255479  0.721340  1
  Lu  Lu9  1  0.000000  0.744521  0.278660  1
  In  In10  1  0.500000  0.423894  0.351821  1
  In  In11  1  0.500000  0.576106  0.648179  1
  In  In12  1  0.500000  0.076272  0.851642  1
  In  In13  1  0.500000  0.923728  0.148358  1
  In  In14  1  0.500000  0.293812  0.066435  1
  In  In15  1  0.500000  0.706188  0.933565  1
  In  In16  1  0.500000  0.206666  0.566332  1
  In  In17  1  0.500000  0.793334  0.433668  1
  Pt  Pt18  1  0.500000  0.025806  0.303985  1
  Pt  Pt19  1  0.500000  0.974194  0.696015  1
  Pt  Pt20  1  0.500000  0.474245  0.803921  1
  Pt  Pt21  1  0.500000  0.525755  0.196079  1
