# generated using pymatgen
data_Ho6V2Co16Si7P5
_symmetry_space_group_name_H-M   'P 1'
_cell_length_a   3.72928900
_cell_length_b   10.68769671
_cell_length_c   12.27473982
_cell_angle_alpha   90.04181694
_cell_angle_beta   90.00000000
_cell_angle_gamma   90.00000000
_symmetry_Int_Tables_number   1
_chemical_formula_structural   Ho6V2Co16Si7P5
_chemical_formula_sum   'Ho6 V2 Co16 Si7 P5'
_cell_volume   489.24043204
_cell_formula_units_Z   1
loop_
 _symmetry_equiv_pos_site_id
 _symmetry_equiv_pos_as_xyz
  1  'x, y, z'
loop_
 _atom_site_type_symbol
 _atom_site_label
 _atom_site_symmetry_multiplicity
 _atom_site_fract_x
 _atom_site_fract_y
 _atom_site_fract_z
 _atom_site_occupancy
  Ho  Ho0  1  0.000000  0.499438  0.524120  1
  Ho  Ho1  1  0.500000  0.999998  0.474831  1
  Ho  Ho2  1  0.500000  0.822945  0.203162  1
  Ho  Ho3  1  0.500000  0.180588  0.201430  1
  Ho  Ho4  1  0.000000  0.677028  0.797817  1
  Ho  Ho5  1  0.000000  0.322253  0.796621  1
  V  V6  1  0.500000  0.497150  0.151454  1
  V  V7  1  0.000000  0.001014  0.848163  1
  Co  Co8  1  0.000000  0.496832  0.985475  1
  Co  Co9  1  0.500000  0.001534  0.018063  1
  Co  Co10  1  0.500000  0.304657  0.428047  1
  Co  Co11  1  0.500000  0.695477  0.429142  1
  Co  Co12  1  0.000000  0.196015  0.570069  1
  Co  Co13  1  0.000000  0.804253  0.570905  1
  Co  Co14  1  0.500000  0.882929  0.705394  1
  Co  Co15  1  0.500000  0.117642  0.705221  1
  Co  Co16  1  0.000000  0.616271  0.294642  1
  Co  Co17  1  0.000000  0.381253  0.290245  1
  Co  Co18  1  0.500000  0.333515  0.995828  1
  Co  Co19  1  0.500000  0.665257  0.994984  1
  Co  Co20  1  0.000000  0.169343  0.007910  1
  Co  Co21  1  0.000000  0.833927  0.005996  1
  Co  Co22  1  0.500000  0.499866  0.702198  1
  Co  Co23  1  0.000000  0.000122  0.298310  1
  Si  Si24  1  0.500000  0.305587  0.613822  1
  Si  Si25  1  0.500000  0.694462  0.614567  1
  Si  Si26  1  0.000000  0.194784  0.384848  1
  Si  Si27  1  0.000000  0.804996  0.385569  1
  Si  Si28  1  0.500000  0.847291  0.892608  1
  Si  Si29  1  0.500000  0.153574  0.892088  1
  Si  Si30  1  0.000000  0.653655  0.108423  1
  P  P31  1  0.500000  0.499613  0.885041  1
  P  P32  1  0.000000  0.000454  0.115637  1
  P  P33  1  0.000000  0.346173  0.107840  1
  P  P34  1  0.500000  0.500074  0.344432  1
  P  P35  1  0.000000  0.000025  0.655102  1
