# generated using pymatgen
data_Ca2Ga5Rh3
_symmetry_space_group_name_H-M   'P 1'
_cell_length_a   8.63934466
_cell_length_b   8.63934425
_cell_length_c   5.82567341
_cell_angle_alpha   70.19238472
_cell_angle_beta   70.19237909
_cell_angle_gamma   96.48183862
_symmetry_Int_Tables_number   1
_chemical_formula_structural   Ca2Ga5Rh3
_chemical_formula_sum   'Ca4 Ga10 Rh6'
_cell_volume   371.93466598
_cell_formula_units_Z   2
loop_
 _symmetry_equiv_pos_site_id
 _symmetry_equiv_pos_as_xyz
  1  'x, y, z'
loop_
 _atom_site_type_symbol
 _atom_site_label
 _atom_site_symmetry_multiplicity
 _atom_site_fract_x
 _atom_site_fract_y
 _atom_site_fract_z
 _atom_site_occupancy
  Ca  Ca0  1  0.869720  0.582898  0.773658  1
  Ca  Ca1  1  0.417102  0.130280  0.726342  1
  Ca  Ca2  1  0.130280  0.417102  0.226342  1
  Ca  Ca3  1  0.582898  0.869720  0.273658  1
  Ga  Ga4  1  0.093405  0.265376  0.819882  1
  Ga  Ga5  1  0.734624  0.906595  0.680118  1
  Ga  Ga6  1  0.906595  0.734624  0.180118  1
  Ga  Ga7  1  0.265376  0.093405  0.319882  1
  Ga  Ga8  1  0.500388  0.499612  0.750000  1
  Ga  Ga9  1  0.499612  0.500388  0.250000  1
  Ga  Ga10  1  0.795449  0.204551  0.750000  1
  Ga  Ga11  1  0.796126  0.203874  0.250000  1
  Ga  Ga12  1  0.203874  0.796126  0.750000  1
  Ga  Ga13  1  0.204551  0.795449  0.250000  1
  Rh  Rh14  1  0.999930  0.000070  0.250000  1
  Rh  Rh15  1  0.435878  0.730356  0.915346  1
  Rh  Rh16  1  0.730356  0.435878  0.415346  1
  Rh  Rh17  1  0.564122  0.269644  0.084654  1
  Rh  Rh18  1  0.000070  0.999930  0.750000  1
  Rh  Rh19  1  0.269644  0.564122  0.584654  1
