# generated using pymatgen
data_Tb4ScSn3S
_symmetry_space_group_name_H-M   'P 1'
_cell_length_a   8.98323700
_cell_length_b   8.98323823
_cell_length_c   6.55657700
_cell_angle_alpha   90.00000000
_cell_angle_beta   90.00000000
_cell_angle_gamma   120.00000653
_symmetry_Int_Tables_number   1
_chemical_formula_structural   Tb4ScSn3S
_chemical_formula_sum   'Tb8 Sc2 Sn6 S2'
_cell_volume   458.21947508
_cell_formula_units_Z   2
loop_
 _symmetry_equiv_pos_site_id
 _symmetry_equiv_pos_as_xyz
  1  'x, y, z'
loop_
 _atom_site_type_symbol
 _atom_site_label
 _atom_site_symmetry_multiplicity
 _atom_site_fract_x
 _atom_site_fract_y
 _atom_site_fract_z
 _atom_site_occupancy
  Tb  Tb0  1  0.666667  0.333333  0.000000  1
  Tb  Tb1  1  0.333333  0.666667  0.000000  1
  Tb  Tb2  1  0.752930  0.752930  0.747593  1
  Tb  Tb3  1  0.247070  0.000000  0.747593  1
  Tb  Tb4  1  0.000000  0.247070  0.747593  1
  Tb  Tb5  1  0.247070  0.247070  0.252407  1
  Tb  Tb6  1  0.752930  0.000000  0.252407  1
  Tb  Tb7  1  0.000000  0.752930  0.252407  1
  Sc  Sc8  1  0.333333  0.666667  0.500000  1
  Sc  Sc9  1  0.666667  0.333333  0.500000  1
  Sn  Sn10  1  0.399020  0.399020  0.740521  1
  Sn  Sn11  1  0.600980  0.000000  0.740521  1
  Sn  Sn12  1  0.000000  0.600980  0.740521  1
  Sn  Sn13  1  0.600980  0.600980  0.259479  1
  Sn  Sn14  1  0.399020  0.000000  0.259479  1
  Sn  Sn15  1  0.000000  0.399020  0.259479  1
  S  S16  1  0.000000  0.000000  0.000000  1
  S  S17  1  0.000000  0.000000  0.500000  1
