# generated using pymatgen
data_Dy3Er(SnRh5)2
_symmetry_space_group_name_H-M   'P 1'
_cell_length_a   4.25255600
_cell_length_b   5.71134691
_cell_length_c   11.28463600
_cell_angle_alpha   89.96762699
_cell_angle_beta   90.00000000
_cell_angle_gamma   90.00000000
_symmetry_Int_Tables_number   1
_chemical_formula_structural   Dy3Er(SnRh5)2
_chemical_formula_sum   'Dy3 Er1 Sn2 Rh10'
_cell_volume   274.07919327
_cell_formula_units_Z   1
loop_
 _symmetry_equiv_pos_site_id
 _symmetry_equiv_pos_as_xyz
  1  'x, y, z'
loop_
 _atom_site_type_symbol
 _atom_site_label
 _atom_site_symmetry_multiplicity
 _atom_site_fract_x
 _atom_site_fract_y
 _atom_site_fract_z
 _atom_site_occupancy
  Dy  Dy0  1  0.500000  0.179921  0.640230  1
  Dy  Dy1  1  0.500000  0.821612  0.359575  1
  Dy  Dy2  1  0.500000  0.679404  0.860111  1
  Er  Er3  1  0.500000  0.320263  0.140079  1
  Sn  Sn4  1  0.000000  0.499849  0.499852  1
  Sn  Sn5  1  0.000000  0.998849  0.000667  1
  Rh  Rh6  1  0.500000  0.190592  0.889366  1
  Rh  Rh7  1  0.500000  0.807791  0.111603  1
  Rh  Rh8  1  0.500000  0.690908  0.611542  1
  Rh  Rh9  1  0.500000  0.310409  0.387605  1
  Rh  Rh10  1  0.000000  0.431885  0.751108  1
  Rh  Rh11  1  0.000000  0.567729  0.248431  1
  Rh  Rh12  1  0.000000  0.000479  0.499866  1
  Rh  Rh13  1  0.000000  0.497603  0.000940  1
  Rh  Rh14  1  0.000000  0.070838  0.249344  1
  Rh  Rh15  1  0.000000  0.931869  0.749681  1
