# generated using pymatgen
data_HfZr7Nb2(SiSn3)2
_symmetry_space_group_name_H-M   'P 1'
_cell_length_a   8.62469000
_cell_length_b   8.62468858
_cell_length_c   5.80965800
_cell_angle_alpha   90.00000000
_cell_angle_beta   90.00000000
_cell_angle_gamma   120.00000545
_symmetry_Int_Tables_number   1
_chemical_formula_structural   HfZr7Nb2(SiSn3)2
_chemical_formula_sum   'Hf1 Zr7 Nb2 Si2 Sn6'
_cell_volume   374.25541414
_cell_formula_units_Z   1
loop_
 _symmetry_equiv_pos_site_id
 _symmetry_equiv_pos_as_xyz
  1  'x, y, z'
loop_
 _atom_site_type_symbol
 _atom_site_label
 _atom_site_symmetry_multiplicity
 _atom_site_fract_x
 _atom_site_fract_y
 _atom_site_fract_z
 _atom_site_occupancy
  Hf  Hf0  1  0.333333  0.666667  0.500000  1
  Zr  Zr1  1  0.666667  0.333333  0.500000  1
  Zr  Zr2  1  0.740696  0.740793  0.749071  1
  Zr  Zr3  1  0.259207  0.999903  0.749071  1
  Zr  Zr4  1  0.000097  0.259304  0.749071  1
  Zr  Zr5  1  0.259207  0.259304  0.250929  1
  Zr  Zr6  1  0.740696  0.999903  0.250929  1
  Zr  Zr7  1  0.000097  0.740793  0.250929  1
  Nb  Nb8  1  0.666667  0.333333  0.000000  1
  Nb  Nb9  1  0.333333  0.666667  0.000000  1
  Si  Si10  1  0.000000  0.000000  0.000000  1
  Si  Si11  1  0.000000  0.000000  0.500000  1
  Sn  Sn12  1  0.395693  0.395955  0.755680  1
  Sn  Sn13  1  0.604045  0.999738  0.755680  1
  Sn  Sn14  1  0.000262  0.604307  0.755680  1
  Sn  Sn15  1  0.604045  0.604307  0.244320  1
  Sn  Sn16  1  0.395693  0.999738  0.244320  1
  Sn  Sn17  1  0.000262  0.395955  0.244320  1
