# generated using pymatgen
data_HoLu7Mg2(SiB4)4
_symmetry_space_group_name_H-M   'P 1'
_cell_length_a   7.08717700
_cell_length_b   7.08717700
_cell_length_c   7.66599300
_cell_angle_alpha   90.00134307
_cell_angle_beta   89.99865693
_cell_angle_gamma   90.00150371
_symmetry_Int_Tables_number   1
_chemical_formula_structural   HoLu7Mg2(SiB4)4
_chemical_formula_sum   'Ho1 Lu7 Mg2 Si4 B16'
_cell_volume   385.04809287
_cell_formula_units_Z   1
loop_
 _symmetry_equiv_pos_site_id
 _symmetry_equiv_pos_as_xyz
  1  'x, y, z'
loop_
 _atom_site_type_symbol
 _atom_site_label
 _atom_site_symmetry_multiplicity
 _atom_site_fract_x
 _atom_site_fract_y
 _atom_site_fract_z
 _atom_site_occupancy
  Ho  Ho0  1  0.182207  0.317793  0.233906  1
  Lu  Lu1  1  0.682053  0.182043  0.231089  1
  Lu  Lu2  1  0.317962  0.817868  0.769011  1
  Lu  Lu3  1  0.317957  0.817947  0.231089  1
  Lu  Lu4  1  0.817731  0.682269  0.230969  1
  Lu  Lu5  1  0.817763  0.682237  0.768871  1
  Lu  Lu6  1  0.682132  0.182038  0.769011  1
  Lu  Lu7  1  0.182043  0.317957  0.768614  1
  Mg  Mg8  1  0.999243  0.998312  0.501060  1
  Mg  Mg9  1  0.501688  0.500757  0.501060  1
  Si  Si10  1  0.115383  0.617160  0.501251  1
  Si  Si11  1  0.882840  0.384617  0.501251  1
  Si  Si12  1  0.385070  0.114930  0.501688  1
  Si  Si13  1  0.616532  0.883468  0.500231  1
  B  B14  1  0.173821  0.038938  0.999524  1
  B  B15  1  0.825586  0.960409  0.999554  1
  B  B16  1  0.960043  0.173831  0.999308  1
  B  B17  1  0.326169  0.539957  0.999308  1
  B  B18  1  0.039120  0.825716  0.999453  1
  B  B19  1  0.674284  0.460880  0.999453  1
  B  B20  1  0.539591  0.674414  0.999554  1
  B  B21  1  0.461062  0.326179  0.999524  1
  B  B22  1  0.088373  0.588736  0.998926  1
  B  B23  1  0.911264  0.411627  0.998926  1
  B  B24  1  0.411555  0.088445  0.999744  1
  B  B25  1  0.588369  0.911631  0.999614  1
  B  B26  1  0.999397  0.999022  0.167221  1
  B  B27  1  0.999766  0.999983  0.831785  1
  B  B28  1  0.500017  0.500234  0.831785  1
  B  B29  1  0.500978  0.500603  0.167221  1
