# generated using pymatgen
data_Tb13Er3(AgRh)4
_symmetry_space_group_name_H-M   'P 1'
_cell_length_a   9.56130757
_cell_length_b   9.50541176
_cell_length_c   9.54000362
_cell_angle_alpha   60.26803739
_cell_angle_beta   60.35975453
_cell_angle_gamma   60.04525985
_symmetry_Int_Tables_number   1
_chemical_formula_structural   Tb13Er3(AgRh)4
_chemical_formula_sum   'Tb13 Er3 Ag4 Rh4'
_cell_volume   616.19085344
_cell_formula_units_Z   1
loop_
 _symmetry_equiv_pos_site_id
 _symmetry_equiv_pos_as_xyz
  1  'x, y, z'
loop_
 _atom_site_type_symbol
 _atom_site_label
 _atom_site_symmetry_multiplicity
 _atom_site_fract_x
 _atom_site_fract_y
 _atom_site_fract_z
 _atom_site_occupancy
  Tb  Tb0  1  0.646287  0.059363  0.647330  1
  Tb  Tb1  1  0.064021  0.064574  0.436281  1
  Tb  Tb2  1  0.436281  0.435124  0.064021  1
  Tb  Tb3  1  0.647330  0.647019  0.646287  1
  Tb  Tb4  1  0.813294  0.187089  0.187012  1
  Tb  Tb5  1  0.187012  0.812605  0.813294  1
  Tb  Tb6  1  0.058677  0.646974  0.646961  1
  Tb  Tb7  1  0.436556  0.063726  0.063923  1
  Tb  Tb8  1  0.436178  0.063822  0.436178  1
  Tb  Tb9  1  0.064164  0.435836  0.064164  1
  Tb  Tb10  1  0.646961  0.647387  0.058677  1
  Tb  Tb11  1  0.187643  0.812357  0.187643  1
  Tb  Tb12  1  0.063923  0.435795  0.436556  1
  Er  Er13  1  0.812889  0.812898  0.187301  1
  Er  Er14  1  0.813403  0.186597  0.813403  1
  Er  Er15  1  0.187301  0.186912  0.812889  1
  Ag  Ag16  1  0.417498  0.417984  0.418008  1
  Ag  Ag17  1  0.417641  0.417954  0.746148  1
  Ag  Ag18  1  0.418008  0.746510  0.417498  1
  Ag  Ag19  1  0.746148  0.418257  0.417641  1
  Rh  Rh20  1  0.857221  0.428641  0.855941  1
  Rh  Rh21  1  0.855941  0.858197  0.857221  1
  Rh  Rh22  1  0.855624  0.856626  0.430000  1
  Rh  Rh23  1  0.430000  0.857751  0.855624  1
