# generated using pymatgen
data_Hf18VCo2Re6W
_symmetry_space_group_name_H-M   'P 1'
_cell_length_a   8.60030000
_cell_length_b   8.60029976
_cell_length_c   8.40475800
_cell_angle_alpha   90.00000000
_cell_angle_beta   90.00000000
_cell_angle_gamma   120.00000093
_symmetry_Int_Tables_number   1
_chemical_formula_structural   Hf18VCo2Re6W
_chemical_formula_sum   'Hf18 V1 Co2 Re6 W1'
_cell_volume   538.37270092
_cell_formula_units_Z   1
loop_
 _symmetry_equiv_pos_site_id
 _symmetry_equiv_pos_as_xyz
  1  'x, y, z'
loop_
 _atom_site_type_symbol
 _atom_site_label
 _atom_site_symmetry_multiplicity
 _atom_site_fract_x
 _atom_site_fract_y
 _atom_site_fract_z
 _atom_site_occupancy
  Hf  Hf0  1  0.199117  0.800883  0.441537  1
  Hf  Hf1  1  0.199117  0.398235  0.441537  1
  Hf  Hf2  1  0.601765  0.800883  0.441537  1
  Hf  Hf3  1  0.800883  0.199117  0.558463  1
  Hf  Hf4  1  0.800883  0.601765  0.558463  1
  Hf  Hf5  1  0.398235  0.199117  0.558463  1
  Hf  Hf6  1  0.799143  0.200857  0.940865  1
  Hf  Hf7  1  0.799143  0.598285  0.940865  1
  Hf  Hf8  1  0.401715  0.200857  0.940865  1
  Hf  Hf9  1  0.200857  0.799143  0.059135  1
  Hf  Hf10  1  0.200857  0.401715  0.059135  1
  Hf  Hf11  1  0.598285  0.799143  0.059135  1
  Hf  Hf12  1  0.541711  0.458289  0.250499  1
  Hf  Hf13  1  0.541711  0.083420  0.250499  1
  Hf  Hf14  1  0.916580  0.458289  0.250499  1
  Hf  Hf15  1  0.458289  0.541711  0.749501  1
  Hf  Hf16  1  0.458289  0.916580  0.749501  1
  Hf  Hf17  1  0.083420  0.541711  0.749501  1
  V  V18  1  0.000000  0.000000  0.500000  1
  Co  Co19  1  0.333333  0.666667  0.250744  1
  Co  Co20  1  0.666667  0.333333  0.749256  1
  Re  Re21  1  0.888837  0.111163  0.252831  1
  Re  Re22  1  0.888837  0.777675  0.252831  1
  Re  Re23  1  0.222325  0.111163  0.252831  1
  Re  Re24  1  0.111163  0.888837  0.747169  1
  Re  Re25  1  0.111163  0.222325  0.747169  1
  Re  Re26  1  0.777675  0.888837  0.747169  1
  W  W27  1  0.000000  0.000000  0.000000  1
