# generated using pymatgen
data_Sc3Pa5(Co4P3)4
_symmetry_space_group_name_H-M   'P 1'
_cell_length_a   12.23838500
_cell_length_b   12.23838548
_cell_length_c   3.79640300
_cell_angle_alpha   90.00000000
_cell_angle_beta   90.00000000
_cell_angle_gamma   120.00000681
_symmetry_Int_Tables_number   1
_chemical_formula_structural   Sc3Pa5(Co4P3)4
_chemical_formula_sum   'Sc3 Pa5 Co16 P12'
_cell_volume   492.43753583
_cell_formula_units_Z   1
loop_
 _symmetry_equiv_pos_site_id
 _symmetry_equiv_pos_as_xyz
  1  'x, y, z'
loop_
 _atom_site_type_symbol
 _atom_site_label
 _atom_site_symmetry_multiplicity
 _atom_site_fract_x
 _atom_site_fract_y
 _atom_site_fract_z
 _atom_site_occupancy
  Sc  Sc0  1  0.432885  0.432885  0.000000  1
  Sc  Sc1  1  0.567115  0.000000  0.000000  1
  Sc  Sc2  1  0.000000  0.567115  0.000000  1
  Pa  Pa3  1  0.666667  0.333333  0.000000  1
  Pa  Pa4  1  0.333333  0.666667  0.000000  1
  Pa  Pa5  1  0.816909  0.816909  0.500000  1
  Pa  Pa6  1  0.183091  0.000000  0.500000  1
  Pa  Pa7  1  0.000000  0.183091  0.500000  1
  Co  Co8  1  0.873312  0.358832  0.500000  1
  Co  Co9  1  0.641168  0.514480  0.500000  1
  Co  Co10  1  0.485520  0.126688  0.500000  1
  Co  Co11  1  0.358832  0.873312  0.500000  1
  Co  Co12  1  0.514480  0.641168  0.500000  1
  Co  Co13  1  0.126688  0.485520  0.500000  1
  Co  Co14  1  0.810200  0.185124  0.000000  1
  Co  Co15  1  0.814876  0.625077  0.000000  1
  Co  Co16  1  0.374923  0.189800  0.000000  1
  Co  Co17  1  0.185124  0.810200  0.000000  1
  Co  Co18  1  0.625077  0.814876  0.000000  1
  Co  Co19  1  0.189800  0.374923  0.000000  1
  Co  Co20  1  0.275978  0.275978  0.500000  1
  Co  Co21  1  0.724022  0.000000  0.500000  1
  Co  Co22  1  0.000000  0.724022  0.500000  1
  Co  Co23  1  0.000000  0.000000  0.000000  1
  P  P24  1  0.695261  0.169682  0.500000  1
  P  P25  1  0.830318  0.525579  0.500000  1
  P  P26  1  0.474421  0.304739  0.500000  1
  P  P27  1  0.169682  0.695261  0.500000  1
  P  P28  1  0.525579  0.830318  0.500000  1
  P  P29  1  0.304739  0.474421  0.500000  1
  P  P30  1  0.180651  0.180651  0.000000  1
  P  P31  1  0.819349  0.000000  0.000000  1
  P  P32  1  0.000000  0.819349  0.000000  1
  P  P33  1  0.639062  0.639062  0.000000  1
  P  P34  1  0.360938  0.000000  0.000000  1
  P  P35  1  0.000000  0.360938  0.000000  1
