# generated using pymatgen
data_La15Ho5(Pt2Rh)4
_symmetry_space_group_name_H-M   'P 1'
_cell_length_a   11.31735137
_cell_length_b   11.30946501
_cell_length_c   6.59435200
_cell_angle_alpha   89.99363181
_cell_angle_beta   90.17922820
_cell_angle_gamma   90.19861865
_symmetry_Int_Tables_number   1
_chemical_formula_structural   La15Ho5(Pt2Rh)4
_chemical_formula_sum   'La15 Ho5 Pt8 Rh4'
_cell_volume   844.02293899
_cell_formula_units_Z   1
loop_
 _symmetry_equiv_pos_site_id
 _symmetry_equiv_pos_as_xyz
  1  'x, y, z'
loop_
 _atom_site_type_symbol
 _atom_site_label
 _atom_site_symmetry_multiplicity
 _atom_site_fract_x
 _atom_site_fract_y
 _atom_site_fract_z
 _atom_site_occupancy
  La  La0  1  0.290911  0.914472  0.885144  1
  La  La1  1  0.708606  0.088160  0.884305  1
  La  La2  1  0.710002  0.912107  0.384242  1
  La  La3  1  0.588498  0.790556  0.885362  1
  La  La4  1  0.584298  0.207825  0.384895  1
  La  La5  1  0.410744  0.794171  0.385723  1
  La  La6  1  0.409304  0.207752  0.884640  1
  La  La7  1  0.209514  0.409209  0.614132  1
  La  La8  1  0.208517  0.588548  0.115306  1
  La  La9  1  0.791281  0.410811  0.115521  1
  La  La10  1  0.790770  0.587960  0.615604  1
  La  La11  1  0.911117  0.709443  0.115632  1
  La  La12  1  0.911095  0.291249  0.616351  1
  La  La13  1  0.089065  0.709106  0.614310  1
  La  La14  1  0.090898  0.288464  0.117944  1
  Ho  Ho15  1  0.291146  0.087611  0.388699  1
  Ho  Ho16  1  0.002805  0.001751  0.498081  1
  Ho  Ho17  1  0.000770  0.000086  0.999329  1
  Ho  Ho18  1  0.499198  0.498278  0.999715  1
  Ho  Ho19  1  0.499122  0.500661  0.498719  1
  Pt  Pt20  1  0.852427  0.147846  0.248955  1
  Pt  Pt21  1  0.853152  0.852724  0.748815  1
  Pt  Pt22  1  0.150335  0.146656  0.744050  1
  Pt  Pt23  1  0.151897  0.858020  0.253947  1
  Pt  Pt24  1  0.647281  0.352467  0.749288  1
  Pt  Pt25  1  0.648154  0.647379  0.248810  1
  Pt  Pt26  1  0.350916  0.346757  0.252211  1
  Pt  Pt27  1  0.352404  0.647957  0.750416  1
  Rh  Rh28  1  0.498896  0.000088  0.125966  1
  Rh  Rh29  1  0.496125  0.001836  0.620536  1
  Rh  Rh30  1  0.000307  0.500112  0.877228  1
  Rh  Rh31  1  0.000445  0.499938  0.376126  1
