# generated using pymatgen
data_Zr2Si7(Ni5W)2
_symmetry_space_group_name_H-M   'P 1'
_cell_length_a   9.28967896
_cell_length_b   9.22793253
_cell_length_c   3.69312200
_cell_angle_alpha   90.00000000
_cell_angle_beta   90.00000000
_cell_angle_gamma   120.37893987
_symmetry_Int_Tables_number   1
_chemical_formula_structural   Zr2Si7(Ni5W)2
_chemical_formula_sum   'Zr2 Si7 Ni10 W2'
_cell_volume   273.12306269
_cell_formula_units_Z   1
loop_
 _symmetry_equiv_pos_site_id
 _symmetry_equiv_pos_as_xyz
  1  'x, y, z'
loop_
 _atom_site_type_symbol
 _atom_site_label
 _atom_site_symmetry_multiplicity
 _atom_site_fract_x
 _atom_site_fract_y
 _atom_site_fract_z
 _atom_site_occupancy
  Zr  Zr0  1  0.991167  0.000184  0.000000  1
  Zr  Zr1  1  0.333734  0.667614  0.500000  1
  Si  Si2  1  0.658370  0.316720  0.000000  1
  Si  Si3  1  0.085487  0.453977  0.000000  1
  Si  Si4  1  0.249658  0.209434  0.500000  1
  Si  Si5  1  0.779657  0.044123  0.500000  1
  Si  Si6  1  0.960581  0.752739  0.500000  1
  Si  Si7  1  0.549706  0.630108  0.000000  1
  Si  Si8  1  0.380962  0.927509  0.000000  1
  Ni  Ni9  1  0.291571  0.391471  0.000000  1
  Ni  Ni10  1  0.102657  0.712596  0.000000  1
  Ni  Ni11  1  0.373602  0.168831  0.000000  1
  Ni  Ni12  1  0.794733  0.620131  0.000000  1
  Ni  Ni13  1  0.830810  0.209779  0.000000  1
  Ni  Ni14  1  0.234859  0.947209  0.500000  1
  Ni  Ni15  1  0.051124  0.281282  0.500000  1
  Ni  Ni16  1  0.719553  0.771072  0.500000  1
  Ni  Ni17  1  0.568701  0.112796  0.500000  1
  Ni  Ni18  1  0.607616  0.898512  0.000000  1
  W  W19  1  0.883783  0.452878  0.500000  1
  W  W20  1  0.551667  0.431036  0.500000  1
