# generated using pymatgen
data_Y6ReB14Os
_symmetry_space_group_name_H-M   'P 1'
_cell_length_a   8.09711501
_cell_length_b   8.09711454
_cell_length_c   9.35626000
_cell_angle_alpha   90.00000000
_cell_angle_beta   90.00000000
_cell_angle_gamma   154.75490952
_symmetry_Int_Tables_number   1
_chemical_formula_structural   Y6ReB14Os
_chemical_formula_sum   'Y6 Re1 B14 Os1'
_cell_volume   261.62123167
_cell_formula_units_Z   1
loop_
 _symmetry_equiv_pos_site_id
 _symmetry_equiv_pos_as_xyz
  1  'x, y, z'
loop_
 _atom_site_type_symbol
 _atom_site_label
 _atom_site_symmetry_multiplicity
 _atom_site_fract_x
 _atom_site_fract_y
 _atom_site_fract_z
 _atom_site_occupancy
  Y  Y0  1  0.894353  0.105647  0.939761  1
  Y  Y1  1  0.105653  0.894347  0.061412  1
  Y  Y2  1  0.757234  0.242766  0.250000  1
  Y  Y3  1  0.243122  0.756878  0.750000  1
  Y  Y4  1  0.894353  0.105647  0.560239  1
  Y  Y5  1  0.105653  0.894347  0.438588  1
  Re  Re6  1  0.947340  0.052660  0.250000  1
  B  B7  1  0.542880  0.457120  0.250000  1
  B  B8  1  0.457571  0.542429  0.750000  1
  B  B9  1  0.520761  0.479239  0.903709  1
  B  B10  1  0.479229  0.520771  0.095449  1
  B  B11  1  0.479229  0.520771  0.404551  1
  B  B12  1  0.520761  0.479239  0.596291  1
  B  B13  1  0.631423  0.368577  0.848813  1
  B  B14  1  0.368036  0.631964  0.150888  1
  B  B15  1  0.726865  0.273135  0.965444  1
  B  B16  1  0.272629  0.727371  0.033602  1
  B  B17  1  0.272629  0.727371  0.466398  1
  B  B18  1  0.726865  0.273135  0.534556  1
  B  B19  1  0.631423  0.368577  0.651187  1
  B  B20  1  0.368036  0.631964  0.349112  1
  Os  Os21  1  0.053955  0.946045  0.750000  1
