# generated using pymatgen
data_Ce3Sm(B4W)4
_symmetry_space_group_name_H-M   'P 1'
_cell_length_a   6.08068213
_cell_length_b   11.76216208
_cell_length_c   3.69234900
_cell_angle_alpha   90.00000000
_cell_angle_beta   90.00000000
_cell_angle_gamma   90.01048852
_symmetry_Int_Tables_number   1
_chemical_formula_structural   Ce3Sm(B4W)4
_chemical_formula_sum   'Ce3 Sm1 B16 W4'
_cell_volume   264.08406553
_cell_formula_units_Z   1
loop_
 _symmetry_equiv_pos_site_id
 _symmetry_equiv_pos_as_xyz
  1  'x, y, z'
loop_
 _atom_site_type_symbol
 _atom_site_label
 _atom_site_symmetry_multiplicity
 _atom_site_fract_x
 _atom_site_fract_y
 _atom_site_fract_z
 _atom_site_occupancy
  Ce  Ce0  1  0.375063  0.650601  0.000000  1
  Ce  Ce1  1  0.125427  0.150856  0.000000  1
  Ce  Ce2  1  0.874781  0.849212  0.000000  1
  Sm  Sm3  1  0.625572  0.349461  0.000000  1
  B  B4  1  0.786596  0.184742  0.500000  1
  B  B5  1  0.213885  0.814397  0.500000  1
  B  B6  1  0.284368  0.314307  0.500000  1
  B  B7  1  0.713067  0.685402  0.500000  1
  B  B8  1  0.864185  0.031771  0.500000  1
  B  B9  1  0.135805  0.967714  0.500000  1
  B  B10  1  0.363731  0.468512  0.500000  1
  B  B11  1  0.635971  0.533357  0.500000  1
  B  B12  1  0.886738  0.453912  0.500000  1
  B  B13  1  0.113894  0.547006  0.500000  1
  B  B14  1  0.386211  0.046613  0.500000  1
  B  B15  1  0.613616  0.953033  0.500000  1
  B  B16  1  0.977698  0.308217  0.500000  1
  B  B17  1  0.024824  0.691940  0.500000  1
  B  B18  1  0.473960  0.191036  0.500000  1
  B  B19  1  0.524848  0.808071  0.500000  1
  W  W20  1  0.631155  0.084531  0.000000  1
  W  W21  1  0.368880  0.914127  0.000000  1
  W  W22  1  0.129685  0.415274  0.000000  1
  W  W23  1  0.870039  0.585911  0.000000  1
