# generated using pymatgen
data_NaAg3(TeO4)4
_symmetry_space_group_name_H-M   'P 1'
_cell_length_a   4.93311630
_cell_length_b   5.60983241
_cell_length_c   11.19605644
_cell_angle_alpha   91.81391094
_cell_angle_beta   91.24533148
_cell_angle_gamma   90.01220275
_symmetry_Int_Tables_number   1
_chemical_formula_structural   NaAg3(TeO4)4
_chemical_formula_sum   'Na1 Ag3 Te4 O16'
_cell_volume   309.61063787
_cell_formula_units_Z   1
loop_
 _symmetry_equiv_pos_site_id
 _symmetry_equiv_pos_as_xyz
  1  'x, y, z'
loop_
 _atom_site_type_symbol
 _atom_site_label
 _atom_site_symmetry_multiplicity
 _atom_site_fract_x
 _atom_site_fract_y
 _atom_site_fract_z
 _atom_site_occupancy
  Na  Na0  1  0.000000  0.000000  0.000000  1
  Ag  Ag1  1  0.000000  0.000000  0.500000  1
  Ag  Ag2  1  0.500000  0.500000  0.500000  1
  Ag  Ag3  1  0.500000  0.500000  0.000000  1
  Te  Te4  1  0.561729  0.168962  0.747544  1
  Te  Te5  1  0.939848  0.330317  0.252462  1
  Te  Te6  1  0.060152  0.669683  0.747538  1
  Te  Te7  1  0.438271  0.831038  0.252456  1
  O  O8  1  0.413647  0.189029  0.905138  1
  O  O9  1  0.586353  0.810971  0.094862  1
  O  O10  1  0.690936  0.189349  0.586119  1
  O  O11  1  0.895803  0.693671  0.590405  1
  O  O12  1  0.662622  0.103082  0.309876  1
  O  O13  1  0.725587  0.606650  0.315568  1
  O  O14  1  0.221025  0.546954  0.196325  1
  O  O15  1  0.844557  0.951489  0.807969  1
  O  O16  1  0.778975  0.453046  0.803675  1
  O  O17  1  0.206339  0.684229  0.907364  1
  O  O18  1  0.337378  0.896918  0.690124  1
  O  O19  1  0.309064  0.810651  0.413881  1
  O  O20  1  0.274413  0.393350  0.684432  1
  O  O21  1  0.104197  0.306329  0.409595  1
  O  O22  1  0.793661  0.315771  0.092636  1
  O  O23  1  0.155443  0.048511  0.192031  1
