# generated using pymatgen
data_Er2Tc2C3
_symmetry_space_group_name_H-M   'P 1'
_cell_length_a   5.99494573
_cell_length_b   5.99494546
_cell_length_c   5.64168957
_cell_angle_alpha   67.75851584
_cell_angle_beta   67.75851483
_cell_angle_gamma   32.10546431
_symmetry_Int_Tables_number   1
_chemical_formula_structural   Er2Tc2C3
_chemical_formula_sum   'Er2 Tc2 C3'
_cell_volume   99.05133302
_cell_formula_units_Z   1
loop_
 _symmetry_equiv_pos_site_id
 _symmetry_equiv_pos_as_xyz
  1  'x, y, z'
loop_
 _atom_site_type_symbol
 _atom_site_label
 _atom_site_symmetry_multiplicity
 _atom_site_fract_x
 _atom_site_fract_y
 _atom_site_fract_z
 _atom_site_occupancy
  Er  Er0  1  0.609567  0.609567  0.175756  1
  Er  Er1  1  0.390433  0.390433  0.824244  1
  Tc  Tc2  1  0.842320  0.842320  0.321653  1
  Tc  Tc3  1  0.157680  0.157680  0.678347  1
  C  C4  1  0.246091  0.246091  0.269384  1
  C  C5  1  0.753909  0.753909  0.730616  1
  C  C6  1  0.000000  0.000000  0.000000  1
