# generated using pymatgen
data_AcGa3Ni2
_symmetry_space_group_name_H-M   'P 1'
_cell_length_a   6.48464279
_cell_length_b   6.48464221
_cell_length_c   5.22232800
_cell_angle_alpha   90.00000000
_cell_angle_beta   90.00000000
_cell_angle_gamma   104.36423625
_symmetry_Int_Tables_number   1
_chemical_formula_structural   AcGa3Ni2
_chemical_formula_sum   'Ac2 Ga6 Ni4'
_cell_volume   212.73681290
_cell_formula_units_Z   2
loop_
 _symmetry_equiv_pos_site_id
 _symmetry_equiv_pos_as_xyz
  1  'x, y, z'
loop_
 _atom_site_type_symbol
 _atom_site_label
 _atom_site_symmetry_multiplicity
 _atom_site_fract_x
 _atom_site_fract_y
 _atom_site_fract_z
 _atom_site_occupancy
  Ac  Ac0  1  0.658767  0.658767  0.250000  1
  Ac  Ac1  1  0.341233  0.341233  0.750000  1
  Ga  Ga2  1  0.064714  0.064714  0.250000  1
  Ga  Ga3  1  0.935286  0.935286  0.750000  1
  Ga  Ga4  1  0.087360  0.472895  0.250000  1
  Ga  Ga5  1  0.527105  0.912640  0.750000  1
  Ga  Ga6  1  0.912640  0.527105  0.750000  1
  Ga  Ga7  1  0.472895  0.087360  0.250000  1
  Ni  Ni8  1  0.203655  0.796345  0.500000  1
  Ni  Ni9  1  0.203655  0.796345  0.000000  1
  Ni  Ni10  1  0.796345  0.203655  0.500000  1
  Ni  Ni11  1  0.796345  0.203655  0.000000  1
