# generated using pymatgen
data_TbY5(Er2Bi3)2
_symmetry_space_group_name_H-M   'P 1'
_cell_length_a   8.24696300
_cell_length_b   9.48455903
_cell_length_c   12.05911904
_cell_angle_alpha   90.00881905
_cell_angle_beta   90.00000000
_cell_angle_gamma   90.00000000
_symmetry_Int_Tables_number   1
_chemical_formula_structural   TbY5(Er2Bi3)2
_chemical_formula_sum   'Tb2 Y10 Er8 Bi12'
_cell_volume   943.24989780
_cell_formula_units_Z   2
loop_
 _symmetry_equiv_pos_site_id
 _symmetry_equiv_pos_as_xyz
  1  'x, y, z'
loop_
 _atom_site_type_symbol
 _atom_site_label
 _atom_site_symmetry_multiplicity
 _atom_site_fract_x
 _atom_site_fract_y
 _atom_site_fract_z
 _atom_site_occupancy
  Tb  Tb0  1  0.186337  0.749814  0.718866  1
  Tb  Tb1  1  0.686337  0.750186  0.781134  1
  Y  Y2  1  0.813632  0.249807  0.281262  1
  Y  Y3  1  0.313632  0.250193  0.218738  1
  Y  Y4  1  0.693569  0.563138  0.059854  1
  Y  Y5  1  0.193569  0.936862  0.440146  1
  Y  Y6  1  0.306528  0.063045  0.940116  1
  Y  Y7  1  0.806528  0.436955  0.559884  1
  Y  Y8  1  0.354215  0.750051  0.215369  1
  Y  Y9  1  0.854215  0.749949  0.284631  1
  Y  Y10  1  0.645821  0.250054  0.784578  1
  Y  Y11  1  0.145821  0.249946  0.715422  1
  Er  Er12  1  0.025739  0.750214  0.988562  1
  Er  Er13  1  0.525739  0.749786  0.511438  1
  Er  Er14  1  0.974227  0.250221  0.011256  1
  Er  Er15  1  0.474227  0.249779  0.488744  1
  Er  Er16  1  0.306657  0.435294  0.940154  1
  Er  Er17  1  0.806657  0.064706  0.559846  1
  Er  Er18  1  0.693440  0.935232  0.059845  1
  Er  Er19  1  0.193440  0.564768  0.440155  1
  Bi  Bi20  1  0.434114  0.004039  0.672972  1
  Bi  Bi21  1  0.934114  0.495961  0.827028  1
  Bi  Bi22  1  0.565929  0.503710  0.327035  1
  Bi  Bi23  1  0.065929  0.996290  0.172965  1
  Bi  Bi24  1  0.566454  0.996086  0.327086  1
  Bi  Bi25  1  0.066454  0.503914  0.172914  1
  Bi  Bi26  1  0.433576  0.495748  0.672926  1
  Bi  Bi27  1  0.933576  0.004252  0.827074  1
  Bi  Bi28  1  0.408165  0.748790  0.958147  1
  Bi  Bi29  1  0.908165  0.751210  0.541853  1
  Bi  Bi30  1  0.591597  0.248824  0.041993  1
  Bi  Bi31  1  0.091597  0.251176  0.458007  1
