# generated using pymatgen
data_Nd(S8Cl)3
_symmetry_space_group_name_H-M   'P 1'
_cell_length_a   15.10092001
_cell_length_b   15.10091994
_cell_length_c   15.10092015
_cell_angle_alpha   119.17325661
_cell_angle_beta   119.17326013
_cell_angle_gamma   119.17325134
_symmetry_Int_Tables_number   1
_chemical_formula_structural   Nd(S8Cl)3
_chemical_formula_sum   'Nd1 S24 Cl3'
_cell_volume   811.43334931
_cell_formula_units_Z   1
loop_
 _symmetry_equiv_pos_site_id
 _symmetry_equiv_pos_as_xyz
  1  'x, y, z'
loop_
 _atom_site_type_symbol
 _atom_site_label
 _atom_site_symmetry_multiplicity
 _atom_site_fract_x
 _atom_site_fract_y
 _atom_site_fract_z
 _atom_site_occupancy
  Nd  Nd0  1  0.447277  0.447277  0.447277  1
  S  S1  1  0.001208  0.596808  0.596808  1
  S  S2  1  0.596808  0.596808  0.001208  1
  S  S3  1  0.596808  0.001208  0.596808  1
  S  S4  1  0.258653  0.867580  0.739018  1
  S  S5  1  0.867580  0.739018  0.258653  1
  S  S6  1  0.739018  0.258653  0.867580  1
  S  S7  1  0.867580  0.258653  0.739018  1
  S  S8  1  0.258653  0.739018  0.867580  1
  S  S9  1  0.739018  0.867580  0.258653  1
  S  S10  1  0.081380  0.606879  0.425553  1
  S  S11  1  0.606879  0.425553  0.081380  1
  S  S12  1  0.425553  0.081380  0.606879  1
  S  S13  1  0.606879  0.081380  0.425553  1
  S  S14  1  0.081380  0.425553  0.606879  1
  S  S15  1  0.425553  0.606879  0.081380  1
  S  S16  1  0.377689  0.762707  0.632301  1
  S  S17  1  0.762707  0.632301  0.377689  1
  S  S18  1  0.632301  0.377689  0.762707  1
  S  S19  1  0.762707  0.377689  0.632301  1
  S  S20  1  0.377689  0.632301  0.762707  1
  S  S21  1  0.632301  0.762707  0.377689  1
  S  S22  1  0.173062  0.447565  0.447565  1
  S  S23  1  0.447565  0.447565  0.173062  1
  S  S24  1  0.447565  0.173062  0.447565  1
  Cl  Cl25  1  0.031545  0.900872  0.900872  1
  Cl  Cl26  1  0.900872  0.900872  0.031545  1
  Cl  Cl27  1  0.900872  0.031545  0.900872  1
