# generated using pymatgen
data_Sc4GeAsRh10
_symmetry_space_group_name_H-M   'P 1'
_cell_length_a   4.08165800
_cell_length_b   5.51398122
_cell_length_c   10.83812488
_cell_angle_alpha   90.26006933
_cell_angle_beta   90.00000000
_cell_angle_gamma   90.00000000
_symmetry_Int_Tables_number   1
_chemical_formula_structural   Sc4GeAsRh10
_chemical_formula_sum   'Sc4 Ge1 As1 Rh10'
_cell_volume   243.92233673
_cell_formula_units_Z   1
loop_
 _symmetry_equiv_pos_site_id
 _symmetry_equiv_pos_as_xyz
  1  'x, y, z'
loop_
 _atom_site_type_symbol
 _atom_site_label
 _atom_site_symmetry_multiplicity
 _atom_site_fract_x
 _atom_site_fract_y
 _atom_site_fract_z
 _atom_site_occupancy
  Sc  Sc0  1  0.500000  0.322415  0.360637  1
  Sc  Sc1  1  0.500000  0.677585  0.639363  1
  Sc  Sc2  1  0.500000  0.175619  0.858295  1
  Sc  Sc3  1  0.500000  0.824381  0.141705  1
  Ge  Ge4  1  0.000000  0.000000  0.500000  1
  As  As5  1  0.000000  0.500000  0.000000  1
  Rh  Rh6  1  0.500000  0.316824  0.105465  1
  Rh  Rh7  1  0.500000  0.683176  0.894535  1
  Rh  Rh8  1  0.500000  0.816477  0.393023  1
  Rh  Rh9  1  0.500000  0.183523  0.606977  1
  Rh  Rh10  1  0.000000  0.930040  0.745078  1
  Rh  Rh11  1  0.000000  0.069960  0.254922  1
  Rh  Rh12  1  0.000000  0.431310  0.755505  1
  Rh  Rh13  1  0.000000  0.568690  0.244495  1
  Rh  Rh14  1  0.000000  0.500000  0.500000  1
  Rh  Rh15  1  0.000000  0.000000  0.000000  1
