# generated using pymatgen
data_Dy2Y2NiAu3O14
_symmetry_space_group_name_H-M   'P 1'
_cell_length_a   7.35106802
_cell_length_b   7.33166026
_cell_length_c   7.33166045
_cell_angle_alpha   59.97459267
_cell_angle_beta   60.04912134
_cell_angle_gamma   60.04912067
_symmetry_Int_Tables_number   1
_chemical_formula_structural   Dy2Y2NiAu3O14
_chemical_formula_sum   'Dy2 Y2 Ni1 Au3 O14'
_cell_volume   279.56228662
_cell_formula_units_Z   1
loop_
 _symmetry_equiv_pos_site_id
 _symmetry_equiv_pos_as_xyz
  1  'x, y, z'
loop_
 _atom_site_type_symbol
 _atom_site_label
 _atom_site_symmetry_multiplicity
 _atom_site_fract_x
 _atom_site_fract_y
 _atom_site_fract_z
 _atom_site_occupancy
  Dy  Dy0  1  0.125000  0.125000  0.125000  1
  Dy  Dy1  1  0.625000  0.125000  0.125000  1
  Y  Y2  1  0.125000  0.125000  0.625000  1
  Y  Y3  1  0.125000  0.625000  0.125000  1
  Ni  Ni4  1  0.125000  0.625000  0.625000  1
  Au  Au5  1  0.625000  0.625000  0.625000  1
  Au  Au6  1  0.625000  0.625000  0.125000  1
  Au  Au7  1  0.625000  0.125000  0.625000  1
  O  O8  1  0.994109  0.002151  0.002151  1
  O  O9  1  0.255891  0.247849  0.247849  1
  O  O10  1  0.284552  0.277669  0.719291  1
  O  O11  1  0.539400  0.527805  0.966104  1
  O  O12  1  0.710600  0.283896  0.722195  1
  O  O13  1  0.711284  0.283156  0.283156  1
  O  O14  1  0.284792  0.718645  0.718645  1
  O  O15  1  0.284552  0.719291  0.277669  1
  O  O16  1  0.710600  0.722195  0.283896  1
  O  O17  1  0.965208  0.531355  0.531355  1
  O  O18  1  0.538716  0.966844  0.966844  1
  O  O19  1  0.965448  0.972331  0.530709  1
  O  O20  1  0.965448  0.530709  0.972331  1
  O  O21  1  0.539400  0.966104  0.527805  1
