# generated using pymatgen
data_Hf7ScCo7Si14Ir
_symmetry_space_group_name_H-M   'P 1'
_cell_length_a   9.47146258
_cell_length_b   9.46728334
_cell_length_c   9.48128635
_cell_angle_alpha   94.12916180
_cell_angle_beta   94.15397397
_cell_angle_gamma   148.80140042
_symmetry_Int_Tables_number   1
_chemical_formula_structural   Hf7ScCo7Si14Ir
_chemical_formula_sum   'Hf7 Sc1 Co7 Si14 Ir1'
_cell_volume   424.21688723
_cell_formula_units_Z   1
loop_
 _symmetry_equiv_pos_site_id
 _symmetry_equiv_pos_as_xyz
  1  'x, y, z'
loop_
 _atom_site_type_symbol
 _atom_site_label
 _atom_site_symmetry_multiplicity
 _atom_site_fract_x
 _atom_site_fract_y
 _atom_site_fract_z
 _atom_site_occupancy
  Hf  Hf0  1  0.862059  0.862062  0.724114  1
  Hf  Hf1  1  0.135059  0.860935  0.999072  1
  Hf  Hf2  1  0.864013  0.138137  0.999073  1
  Hf  Hf3  1  0.304175  0.498058  0.802818  1
  Hf  Hf4  1  0.695905  0.500925  0.195450  1
  Hf  Hf5  1  0.499552  0.694526  0.195459  1
  Hf  Hf6  1  0.498647  0.304763  0.802825  1
  Sc  Sc7  1  0.138170  0.138172  0.276326  1
  Co  Co8  1  0.396050  0.896053  0.792108  1
  Co  Co9  1  0.898423  0.101440  0.502583  1
  Co  Co10  1  0.604164  0.401141  0.502584  1
  Co  Co11  1  0.602162  0.102164  0.204294  1
  Co  Co12  1  0.898432  0.398435  0.796866  1
  Co  Co13  1  0.102606  0.898303  0.500691  1
  Co  Co14  1  0.398081  0.602385  0.500687  1
  Si  Si15  1  0.290101  0.290101  0.580171  1
  Si  Si16  1  0.709834  0.709834  0.419699  1
  Si  Si17  1  0.301456  0.718453  0.994169  1
  Si  Si18  1  0.692714  0.275716  0.994172  1
  Si  Si19  1  0.092249  0.499373  0.591814  1
  Si  Si20  1  0.895484  0.489986  0.413772  1
  Si  Si21  1  0.518288  0.923787  0.413777  1
  Si  Si22  1  0.499569  0.092447  0.591818  1
  Si  Si23  1  0.250721  0.250929  0.998613  1
  Si  Si24  1  0.747895  0.747686  0.998617  1
  Si  Si25  1  0.306605  0.013450  0.301442  1
  Si  Si26  1  0.700799  0.000147  0.700742  1
  Si  Si27  1  0.999938  0.700587  0.700742  1
  Si  Si28  1  0.994843  0.287995  0.301440  1
  Ir  Ir29  1  0.102004  0.602006  0.204060  1
