# generated using pymatgen
data_Nd4Cu(AuO4)3
_symmetry_space_group_name_H-M   'P 1'
_cell_length_a   3.95936600
_cell_length_b   12.92067713
_cell_length_c   5.61013700
_cell_angle_alpha   90.00000000
_cell_angle_beta   90.00000000
_cell_angle_gamma   89.99172093
_symmetry_Int_Tables_number   1
_chemical_formula_structural   Nd4Cu(AuO4)3
_chemical_formula_sum   'Nd4 Cu1 Au3 O12'
_cell_volume   287.00164508
_cell_formula_units_Z   1
loop_
 _symmetry_equiv_pos_site_id
 _symmetry_equiv_pos_as_xyz
  1  'x, y, z'
loop_
 _atom_site_type_symbol
 _atom_site_label
 _atom_site_symmetry_multiplicity
 _atom_site_fract_x
 _atom_site_fract_y
 _atom_site_fract_z
 _atom_site_occupancy
  Nd  Nd0  1  0.744130  0.084466  0.250000  1
  Nd  Nd1  1  0.251912  0.574251  0.250000  1
  Nd  Nd2  1  0.725159  0.414854  0.750000  1
  Nd  Nd3  1  0.261249  0.921128  0.750000  1
  Cu  Cu4  1  0.072334  0.330065  0.250000  1
  Au  Au5  1  0.933980  0.830416  0.250000  1
  Au  Au6  1  0.077167  0.177026  0.750000  1
  Au  Au7  1  0.929266  0.668004  0.750000  1
  O  O8  1  0.834209  0.255657  0.015471  1
  O  O9  1  0.189388  0.749126  0.999157  1
  O  O10  1  0.241067  0.415441  0.014224  1
  O  O11  1  0.743092  0.925299  0.002265  1
  O  O12  1  0.241067  0.415441  0.485775  1
  O  O13  1  0.743092  0.925299  0.497734  1
  O  O14  1  0.834209  0.255657  0.484530  1
  O  O15  1  0.189388  0.749126  0.500844  1
  O  O16  1  0.261225  0.081030  0.503497  1
  O  O17  1  0.733426  0.573342  0.503552  1
  O  O18  1  0.261225  0.081030  0.996503  1
  O  O19  1  0.733426  0.573342  0.996448  1
