# generated using pymatgen
data_Tb7YSc12Si15Tc
_symmetry_space_group_name_H-M   'P 1'
_cell_length_a   7.10451194
_cell_length_b   7.46093660
_cell_length_c   13.97585005
_cell_angle_alpha   89.99104736
_cell_angle_beta   89.99718827
_cell_angle_gamma   90.18774828
_symmetry_Int_Tables_number   1
_chemical_formula_structural   Tb7YSc12Si15Tc
_chemical_formula_sum   'Tb7 Y1 Sc12 Si15 Tc1'
_cell_volume   740.80429717
_cell_formula_units_Z   1
loop_
 _symmetry_equiv_pos_site_id
 _symmetry_equiv_pos_as_xyz
  1  'x, y, z'
loop_
 _atom_site_type_symbol
 _atom_site_label
 _atom_site_symmetry_multiplicity
 _atom_site_fract_x
 _atom_site_fract_y
 _atom_site_fract_z
 _atom_site_occupancy
  Tb  Tb0  1  0.990918  0.827605  0.903265  1
  Tb  Tb1  1  0.488789  0.675303  0.903726  1
  Tb  Tb2  1  0.990908  0.827627  0.596734  1
  Tb  Tb3  1  0.510891  0.323410  0.096281  1
  Tb  Tb4  1  0.011522  0.178053  0.403873  1
  Tb  Tb5  1  0.510855  0.323413  0.403728  1
  Tb  Tb6  1  0.488785  0.675315  0.596285  1
  Y  Y7  1  0.011458  0.178082  0.096208  1
  Sc  Sc8  1  0.156023  0.497730  0.749997  1
  Sc  Sc9  1  0.838462  0.495210  0.250004  1
  Sc  Sc10  1  0.338493  0.004990  0.249979  1
  Sc  Sc11  1  0.667530  0.999721  0.749976  1
  Sc  Sc12  1  0.317015  0.171809  0.627769  1
  Sc  Sc13  1  0.671848  0.825969  0.373998  1
  Sc  Sc14  1  0.171521  0.677934  0.373965  1
  Sc  Sc15  1  0.671815  0.825967  0.125997  1
  Sc  Sc16  1  0.837369  0.319421  0.627245  1
  Sc  Sc17  1  0.316971  0.171822  0.872236  1
  Sc  Sc18  1  0.837399  0.319368  0.872740  1
  Sc  Sc19  1  0.171518  0.677914  0.126019  1
  Si  Si20  1  0.967906  0.882855  0.249999  1
  Si  Si21  1  0.469721  0.615353  0.249993  1
  Si  Si22  1  0.529930  0.387354  0.750004  1
  Si  Si23  1  0.287423  0.869323  0.750015  1
  Si  Si24  1  0.712891  0.127761  0.249944  1
  Si  Si25  1  0.213854  0.371197  0.249976  1
  Si  Si26  1  0.780034  0.627163  0.750004  1
  Si  Si27  1  0.159207  0.468671  0.536901  1
  Si  Si28  1  0.845390  0.536451  0.461512  1
  Si  Si29  1  0.345117  0.965194  0.459911  1
  Si  Si30  1  0.845390  0.536409  0.038507  1
  Si  Si31  1  0.654597  0.033972  0.538858  1
  Si  Si32  1  0.159202  0.468614  0.963107  1
  Si  Si33  1  0.654627  0.033987  0.961141  1
  Si  Si34  1  0.345051  0.965195  0.040114  1
  Tc  Tc35  1  0.029568  0.113838  0.749990  1
