# generated using pymatgen
data_TbY5(Er2Sb3)2
_symmetry_space_group_name_H-M   'P 1'
_cell_length_a   8.98539400
_cell_length_b   8.98760118
_cell_length_c   6.27352700
_cell_angle_alpha   90.00000000
_cell_angle_beta   90.00000000
_cell_angle_gamma   119.99187658
_symmetry_Int_Tables_number   1
_chemical_formula_structural   TbY5(Er2Sb3)2
_chemical_formula_sum   'Tb1 Y5 Er4 Sb6'
_cell_volume   438.79216613
_cell_formula_units_Z   1
loop_
 _symmetry_equiv_pos_site_id
 _symmetry_equiv_pos_as_xyz
  1  'x, y, z'
loop_
 _atom_site_type_symbol
 _atom_site_label
 _atom_site_symmetry_multiplicity
 _atom_site_fract_x
 _atom_site_fract_y
 _atom_site_fract_z
 _atom_site_occupancy
  Tb  Tb0  1  0.247475  0.000000  0.250000  1
  Y  Y1  1  0.000004  0.752533  0.750000  1
  Y  Y2  1  0.000026  0.247487  0.250000  1
  Y  Y3  1  0.752539  0.752513  0.250000  1
  Y  Y4  1  0.752542  0.000000  0.750000  1
  Y  Y5  1  0.247471  0.247467  0.750000  1
  Er  Er6  1  0.333349  0.666695  0.499967  1
  Er  Er7  1  0.666654  0.333305  0.000033  1
  Er  Er8  1  0.666654  0.333305  0.499967  1
  Er  Er9  1  0.333349  0.666695  0.000033  1
  Sb  Sb10  1  0.389217  0.000000  0.750000  1
  Sb  Sb11  1  0.389225  0.389306  0.250000  1
  Sb  Sb12  1  0.999920  0.610694  0.250000  1
  Sb  Sb13  1  0.999986  0.389219  0.750000  1
  Sb  Sb14  1  0.610766  0.610781  0.750000  1
  Sb  Sb15  1  0.610823  0.000000  0.250000  1
