# generated using pymatgen
data_Dy20Si12N
_symmetry_space_group_name_H-M   'P 1'
_cell_length_a   14.64566200
_cell_length_b   6.36709883
_cell_length_c   8.40311500
_cell_angle_alpha   89.88890182
_cell_angle_beta   90.00000000
_cell_angle_gamma   90.00000000
_symmetry_Int_Tables_number   1
_chemical_formula_structural   Dy20Si12N
_chemical_formula_sum   'Dy20 Si12 N1'
_cell_volume   783.59217197
_cell_formula_units_Z   1
loop_
 _symmetry_equiv_pos_site_id
 _symmetry_equiv_pos_as_xyz
  1  'x, y, z'
loop_
 _atom_site_type_symbol
 _atom_site_label
 _atom_site_symmetry_multiplicity
 _atom_site_fract_x
 _atom_site_fract_y
 _atom_site_fract_z
 _atom_site_occupancy
  Dy  Dy0  1  0.664032  0.500000  0.500000  1
  Dy  Dy1  1  0.170207  0.500000  0.000000  1
  Dy  Dy2  1  0.829793  0.500000  0.000000  1
  Dy  Dy3  1  0.335968  0.500000  0.500000  1
  Dy  Dy4  1  0.839037  0.000000  0.000000  1
  Dy  Dy5  1  0.328834  0.000000  0.500000  1
  Dy  Dy6  1  0.671166  0.000000  0.500000  1
  Dy  Dy7  1  0.160963  0.000000  0.000000  1
  Dy  Dy8  1  0.500000  0.246556  0.754341  1
  Dy  Dy9  1  0.000000  0.275081  0.267597  1
  Dy  Dy10  1  0.620954  0.248232  0.122517  1
  Dy  Dy11  1  0.116643  0.268720  0.619349  1
  Dy  Dy12  1  0.883357  0.268720  0.619349  1
  Dy  Dy13  1  0.379046  0.248232  0.122517  1
  Dy  Dy14  1  0.000000  0.724919  0.732403  1
  Dy  Dy15  1  0.500000  0.753444  0.245659  1
  Dy  Dy16  1  0.883357  0.731280  0.380651  1
  Dy  Dy17  1  0.379046  0.751768  0.877483  1
  Dy  Dy18  1  0.620954  0.751768  0.877483  1
  Dy  Dy19  1  0.116643  0.731280  0.380651  1
  Si  Si20  1  0.000000  0.263291  0.901629  1
  Si  Si21  1  0.500000  0.242760  0.396211  1
  Si  Si22  1  0.800774  0.255499  0.300921  1
  Si  Si23  1  0.301621  0.246125  0.801749  1
  Si  Si24  1  0.698379  0.246125  0.801749  1
  Si  Si25  1  0.199226  0.255499  0.300921  1
  Si  Si26  1  0.500000  0.757240  0.603789  1
  Si  Si27  1  0.000000  0.736709  0.098371  1
  Si  Si28  1  0.698379  0.753875  0.198251  1
  Si  Si29  1  0.199226  0.744501  0.699079  1
  Si  Si30  1  0.800774  0.744501  0.699079  1
  Si  Si31  1  0.301621  0.753875  0.198251  1
  N  N32  1  0.000000  0.500000  0.500000  1
