# generated using pymatgen
data_LuHfGeRh5
_symmetry_space_group_name_H-M   'P 1'
_cell_length_a   4.11484200
_cell_length_b   5.59328726
_cell_length_c   11.00226350
_cell_angle_alpha   90.03485100
_cell_angle_beta   90.00000000
_cell_angle_gamma   90.00000000
_symmetry_Int_Tables_number   1
_chemical_formula_structural   LuHfGeRh5
_chemical_formula_sum   'Lu2 Hf2 Ge2 Rh10'
_cell_volume   253.22247556
_cell_formula_units_Z   2
loop_
 _symmetry_equiv_pos_site_id
 _symmetry_equiv_pos_as_xyz
  1  'x, y, z'
loop_
 _atom_site_type_symbol
 _atom_site_label
 _atom_site_symmetry_multiplicity
 _atom_site_fract_x
 _atom_site_fract_y
 _atom_site_fract_z
 _atom_site_occupancy
  Lu  Lu0  1  0.500000  0.178244  0.639206  1
  Lu  Lu1  1  0.500000  0.821756  0.360794  1
  Hf  Hf2  1  0.500000  0.675735  0.858292  1
  Hf  Hf3  1  0.500000  0.324265  0.141708  1
  Ge  Ge4  1  0.000000  0.500000  0.500000  1
  Ge  Ge5  1  0.000000  0.000000  0.000000  1
  Rh  Rh6  1  0.500000  0.185196  0.897755  1
  Rh  Rh7  1  0.500000  0.814804  0.102245  1
  Rh  Rh8  1  0.500000  0.681068  0.609735  1
  Rh  Rh9  1  0.500000  0.318932  0.390265  1
  Rh  Rh10  1  0.000000  0.434488  0.748342  1
  Rh  Rh11  1  0.000000  0.565512  0.251658  1
  Rh  Rh12  1  0.000000  0.000000  0.500000  1
  Rh  Rh13  1  0.000000  0.500000  0.000000  1
  Rh  Rh14  1  0.000000  0.071803  0.240159  1
  Rh  Rh15  1  0.000000  0.928197  0.759841  1
