# generated using pymatgen
data_CsLi6SbO6
_symmetry_space_group_name_H-M   'P 1'
_cell_length_a   5.47274352
_cell_length_b   5.47274409
_cell_length_c   5.47274424
_cell_angle_alpha   101.29288232
_cell_angle_beta   101.29288835
_cell_angle_gamma   101.29288019
_symmetry_Int_Tables_number   1
_chemical_formula_structural   CsLi6SbO6
_chemical_formula_sum   'Cs1 Li6 Sb1 O6'
_cell_volume   152.88328403
_cell_formula_units_Z   1
loop_
 _symmetry_equiv_pos_site_id
 _symmetry_equiv_pos_as_xyz
  1  'x, y, z'
loop_
 _atom_site_type_symbol
 _atom_site_label
 _atom_site_symmetry_multiplicity
 _atom_site_fract_x
 _atom_site_fract_y
 _atom_site_fract_z
 _atom_site_occupancy
  Cs  Cs0  1  0.500000  0.500000  0.500000  1
  Li  Li1  1  0.000000  0.342007  0.657993  1
  Li  Li2  1  0.657993  0.000000  0.342007  1
  Li  Li3  1  0.657993  0.342007  0.000000  1
  Li  Li4  1  0.342007  0.000000  0.657993  1
  Li  Li5  1  0.000000  0.657993  0.342007  1
  Li  Li6  1  0.342007  0.657993  0.000000  1
  Sb  Sb7  1  0.000000  0.000000  0.000000  1
  O  O8  1  0.914104  0.268930  0.268930  1
  O  O9  1  0.268930  0.268930  0.914104  1
  O  O10  1  0.085896  0.731070  0.731070  1
  O  O11  1  0.731070  0.731070  0.085896  1
  O  O12  1  0.731070  0.085896  0.731070  1
  O  O13  1  0.268930  0.914104  0.268930  1
