# generated using pymatgen
data_K8MgMn3P8(WO10)4
_symmetry_space_group_name_H-M   'P 1'
_cell_length_a   9.29843897
_cell_length_b   9.31372791
_cell_length_c   10.87907100
_cell_angle_alpha   90.27420941
_cell_angle_beta   90.44222953
_cell_angle_gamma   90.17448320
_symmetry_Int_Tables_number   1
_chemical_formula_structural   K8MgMn3P8(WO10)4
_chemical_formula_sum   'K8 Mg1 Mn3 P8 W4 O40'
_cell_volume   942.11827686
_cell_formula_units_Z   1
loop_
 _symmetry_equiv_pos_site_id
 _symmetry_equiv_pos_as_xyz
  1  'x, y, z'
loop_
 _atom_site_type_symbol
 _atom_site_label
 _atom_site_symmetry_multiplicity
 _atom_site_fract_x
 _atom_site_fract_y
 _atom_site_fract_z
 _atom_site_occupancy
  K  K0  1  0.842463  0.502045  0.341937  1
  K  K1  1  0.507842  0.189584  0.199618  1
  K  K2  1  0.002924  0.336918  0.677332  1
  K  K3  1  0.662374  0.999582  0.873656  1
  K  K4  1  0.256320  0.007249  0.451286  1
  K  K5  1  0.515884  0.752418  0.574872  1
  K  K6  1  0.263818  0.476563  0.939839  1
  K  K7  1  0.989574  0.731520  0.051232  1
  Mg  Mg8  1  0.155004  0.843190  0.750703  1
  Mn  Mn9  1  0.355619  0.358099  0.495405  1
  Mn  Mn10  1  0.868496  0.121130  0.241531  1
  Mn  Mn11  1  0.641951  0.623775  0.013445  1
  P  P12  1  0.173440  0.318485  0.232014  1
  P  P13  1  0.836343  0.681945  0.759239  1
  P  P14  1  0.675619  0.182475  0.496863  1
  P  P15  1  0.675977  0.813733  0.270461  1
  P  P16  1  0.329448  0.155617  0.743145  1
  P  P17  1  0.826175  0.311498  0.986058  1
  P  P18  1  0.338772  0.823576  0.007895  1
  P  P19  1  0.163827  0.659240  0.496766  1
  W  W20  1  0.378807  0.612121  0.252491  1
  W  W21  1  0.120355  0.101159  0.991782  1
  W  W22  1  0.609303  0.392092  0.744607  1
  W  W23  1  0.892917  0.891975  0.510679  1
  O  O24  1  0.054474  0.979821  0.875231  1
  O  O25  1  0.999144  0.670962  0.769103  1
  O  O26  1  0.688587  0.970823  0.237192  1
  O  O27  1  0.255496  0.757369  0.899871  1
  O  O28  1  0.740257  0.779257  0.401380  1
  O  O29  1  0.335477  0.993007  0.732046  1
  O  O30  1  0.226555  0.250716  0.107375  1
  O  O31  1  0.509457  0.777768  0.286174  1
  O  O32  1  0.963400  0.986245  0.380227  1
  O  O33  1  0.772740  0.529211  0.719563  1
  O  O34  1  0.208701  0.484916  0.217400  1
  O  O35  1  0.743586  0.709411  0.178429  1
  O  O36  1  0.988911  0.266198  0.959948  1
  O  O37  1  0.279150  0.749637  0.127384  1
  O  O38  1  0.501040  0.813550  0.999054  1
  O  O39  1  0.733095  0.028496  0.537365  1
  O  O40  1  0.239972  0.712244  0.376048  1
  O  O41  1  0.001252  0.709129  0.480916  1
  O  O42  1  0.824241  0.469502  0.021259  1
  O  O43  1  0.298813  0.988450  0.023882  1
  O  O44  1  0.018700  0.027209  0.116685  1
  O  O45  1  0.488636  0.465373  0.630695  1
  O  O46  1  0.244707  0.208114  0.859315  1
  O  O47  1  0.454261  0.505932  0.375298  1
  O  O48  1  0.162004  0.496582  0.507669  1
  O  O49  1  0.488838  0.215040  0.766631  1
  O  O50  1  0.265493  0.254517  0.334861  1
  O  O51  1  0.236188  0.739860  0.603093  1
  O  O52  1  0.765028  0.733690  0.877524  1
  O  O53  1  0.481945  0.531725  0.129797  1
  O  O54  1  0.754100  0.281432  0.856765  1
  O  O55  1  0.261452  0.229098  0.631548  1
  O  O56  1  0.023861  0.953964  0.621440  1
  O  O57  1  0.012634  0.304557  0.248592  1
  O  O58  1  0.755067  0.235479  0.383467  1
  O  O59  1  0.759029  0.209067  0.078824  1
  O  O60  1  0.542382  0.490012  0.875506  1
  O  O61  1  0.720343  0.279166  0.609498  1
  O  O62  1  0.785616  0.782699  0.652225  1
  O  O63  1  0.513404  0.173536  0.478621  1
