# generated using pymatgen
data_VH3F6
_symmetry_space_group_name_H-M   'P 1'
_cell_length_a   3.95533343
_cell_length_b   7.26608650
_cell_length_c   6.14296605
_cell_angle_alpha   127.89829196
_cell_angle_beta   96.35834898
_cell_angle_gamma   104.36330303
_symmetry_Int_Tables_number   1
_chemical_formula_structural   VH3F6
_chemical_formula_sum   'V1 H3 F6'
_cell_volume   126.71251219
_cell_formula_units_Z   1
loop_
 _symmetry_equiv_pos_site_id
 _symmetry_equiv_pos_as_xyz
  1  'x, y, z'
loop_
 _atom_site_type_symbol
 _atom_site_label
 _atom_site_symmetry_multiplicity
 _atom_site_fract_x
 _atom_site_fract_y
 _atom_site_fract_z
 _atom_site_occupancy
  V  V0  1  0.713082  0.687091  0.066025  1
  H  H1  1  0.208917  0.188053  0.560698  1
  H  H2  1  0.560131  0.291975  0.060422  1
  H  H3  1  0.604213  0.969704  0.905290  1
  F  F4  1  0.762750  0.857903  0.911377  1
  F  F5  1  0.932728  0.024839  0.468343  1
  F  F6  1  0.655501  0.507260  0.215283  1
  F  F7  1  0.443511  0.071735  0.888320  1
  F  F8  1  0.484873  0.353828  0.656733  1
  F  F9  1  0.210848  0.685156  0.066080  1
