# generated using pymatgen
data_Y2Pa2Ge6Ir7
_symmetry_space_group_name_H-M   'P 1'
_cell_length_a   7.30947058
_cell_length_b   7.34467513
_cell_length_c   7.30950244
_cell_angle_alpha   109.40313193
_cell_angle_beta   109.41711995
_cell_angle_gamma   109.41981620
_symmetry_Int_Tables_number   1
_chemical_formula_structural   Y2Pa2Ge6Ir7
_chemical_formula_sum   'Y2 Pa2 Ge6 Ir7'
_cell_volume   302.72715363
_cell_formula_units_Z   1
loop_
 _symmetry_equiv_pos_site_id
 _symmetry_equiv_pos_as_xyz
  1  'x, y, z'
loop_
 _atom_site_type_symbol
 _atom_site_label
 _atom_site_symmetry_multiplicity
 _atom_site_fract_x
 _atom_site_fract_y
 _atom_site_fract_z
 _atom_site_occupancy
  Y  Y0  1  0.000000  0.000000  0.500000  1
  Y  Y1  1  0.500000  0.000000  0.000000  1
  Pa  Pa2  1  0.000000  0.500000  0.000000  1
  Pa  Pa3  1  0.500000  0.500000  0.500000  1
  Ge  Ge4  1  0.682160  0.686902  0.004807  1
  Ge  Ge5  1  0.317149  0.999839  0.317165  1
  Ge  Ge6  1  0.995104  0.313032  0.317759  1
  Ge  Ge7  1  0.317840  0.313098  0.995193  1
  Ge  Ge8  1  0.682851  0.000161  0.682835  1
  Ge  Ge9  1  0.004896  0.686968  0.682241  1
  Ir  Ir10  1  0.749797  0.255325  0.505464  1
  Ir  Ir11  1  0.749919  0.499958  0.250045  1
  Ir  Ir12  1  0.505561  0.255307  0.749884  1
  Ir  Ir13  1  0.250081  0.500042  0.749955  1
  Ir  Ir14  1  0.250203  0.744675  0.494536  1
  Ir  Ir15  1  0.494439  0.744693  0.250116  1
  Ir  Ir16  1  0.000000  0.000000  0.000000  1
