# generated using pymatgen
data_Li2BeSnS4
_symmetry_space_group_name_H-M   'P 1'
_cell_length_a   6.52942600
_cell_length_b   6.26331206
_cell_length_c   10.10181178
_cell_angle_alpha   51.35234231
_cell_angle_beta   90.00000000
_cell_angle_gamma   90.00000000
_symmetry_Int_Tables_number   1
_chemical_formula_structural   Li2BeSnS4
_chemical_formula_sum   'Li4 Be2 Sn2 S8'
_cell_volume   322.64880945
_cell_formula_units_Z   2
loop_
 _symmetry_equiv_pos_site_id
 _symmetry_equiv_pos_as_xyz
  1  'x, y, z'
loop_
 _atom_site_type_symbol
 _atom_site_label
 _atom_site_symmetry_multiplicity
 _atom_site_fract_x
 _atom_site_fract_y
 _atom_site_fract_z
 _atom_site_occupancy
  Li  Li0  1  0.332566  0.303425  0.568659  1
  Li  Li1  1  0.667434  0.303425  0.068659  1
  Li  Li2  1  0.160083  0.048423  0.322340  1
  Li  Li3  1  0.839917  0.048423  0.822340  1
  Be  Be4  1  0.177615  0.553347  0.820843  1
  Be  Be5  1  0.822385  0.553347  0.320843  1
  Sn  Sn6  1  0.323519  0.801624  0.072443  1
  Sn  Sn7  1  0.676481  0.801624  0.572443  1
  S  S8  1  0.309891  0.213174  0.049183  1
  S  S9  1  0.690109  0.213174  0.549183  1
  S  S10  1  0.869647  0.440591  0.820685  1
  S  S11  1  0.130353  0.440591  0.320685  1
  S  S12  1  0.321627  0.665600  0.595998  1
  S  S13  1  0.678373  0.665600  0.095998  1
  S  S14  1  0.180783  0.894116  0.820049  1
  S  S15  1  0.819217  0.894116  0.320049  1
