# generated using pymatgen
data_Sr9Nd(PN5)2
_symmetry_space_group_name_H-M   'P 1'
_cell_length_a   7.50643539
_cell_length_b   7.50643399
_cell_length_c   8.71966286
_cell_angle_alpha   76.58622371
_cell_angle_beta   76.58622236
_cell_angle_gamma   95.76932371
_symmetry_Int_Tables_number   1
_chemical_formula_structural   Sr9Nd(PN5)2
_chemical_formula_sum   'Sr9 Nd1 P2 N10'
_cell_volume   458.65587428
_cell_formula_units_Z   1
loop_
 _symmetry_equiv_pos_site_id
 _symmetry_equiv_pos_as_xyz
  1  'x, y, z'
loop_
 _atom_site_type_symbol
 _atom_site_label
 _atom_site_symmetry_multiplicity
 _atom_site_fract_x
 _atom_site_fract_y
 _atom_site_fract_z
 _atom_site_occupancy
  Sr  Sr0  1  0.601111  0.601111  0.631143  1
  Sr  Sr1  1  0.674804  0.674804  0.000231  1
  Sr  Sr2  1  0.328047  0.328047  0.994435  1
  Sr  Sr3  1  0.926984  0.926984  0.196960  1
  Sr  Sr4  1  0.072181  0.072181  0.800247  1
  Sr  Sr5  1  0.552050  0.088277  0.761990  1
  Sr  Sr6  1  0.915006  0.446048  0.238156  1
  Sr  Sr7  1  0.446048  0.915006  0.238156  1
  Sr  Sr8  1  0.088277  0.552050  0.761990  1
  Nd  Nd9  1  0.412957  0.412957  0.364302  1
  P  P10  1  0.757990  0.241449  0.001858  1
  P  P11  1  0.241449  0.757990  0.001858  1
  N  N12  1  0.648221  0.648221  0.325268  1
  N  N13  1  0.341831  0.341831  0.657290  1
  N  N14  1  0.721231  0.022389  0.989144  1
  N  N15  1  0.976900  0.276065  0.016723  1
  N  N16  1  0.276065  0.976900  0.016723  1
  N  N17  1  0.022389  0.721231  0.989144  1
  N  N18  1  0.391588  0.727634  0.837754  1
  N  N19  1  0.272092  0.605145  0.169436  1
  N  N20  1  0.605145  0.272092  0.169436  1
  N  N21  1  0.727634  0.391588  0.837754  1
