# generated using pymatgen
data_Ce4ZnSi6Ir
_symmetry_space_group_name_H-M   'P 1'
_cell_length_a   8.20185200
_cell_length_b   8.20185134
_cell_length_c   4.15153100
_cell_angle_alpha   90.00000000
_cell_angle_beta   90.00000000
_cell_angle_gamma   119.99999461
_symmetry_Int_Tables_number   1
_chemical_formula_structural   Ce4ZnSi6Ir
_chemical_formula_sum   'Ce4 Zn1 Si6 Ir1'
_cell_volume   241.85928346
_cell_formula_units_Z   1
loop_
 _symmetry_equiv_pos_site_id
 _symmetry_equiv_pos_as_xyz
  1  'x, y, z'
loop_
 _atom_site_type_symbol
 _atom_site_label
 _atom_site_symmetry_multiplicity
 _atom_site_fract_x
 _atom_site_fract_y
 _atom_site_fract_z
 _atom_site_occupancy
  Ce  Ce0  1  0.000000  0.000000  0.500000  1
  Ce  Ce1  1  0.011224  0.505612  0.500000  1
  Ce  Ce2  1  0.494388  0.505612  0.500000  1
  Ce  Ce3  1  0.494388  0.988776  0.500000  1
  Zn  Zn4  1  0.666667  0.333333  0.000000  1
  Si  Si5  1  0.330829  0.165415  0.000000  1
  Si  Si6  1  0.834585  0.165415  0.000000  1
  Si  Si7  1  0.834585  0.669171  0.000000  1
  Si  Si8  1  0.165506  0.331012  0.000000  1
  Si  Si9  1  0.165506  0.834494  0.000000  1
  Si  Si10  1  0.668988  0.834494  0.000000  1
  Ir  Ir11  1  0.333333  0.666667  0.000000  1
