# generated using pymatgen
data_Yb4MgIr7
_symmetry_space_group_name_H-M   'P 1'
_cell_length_a   5.40631500
_cell_length_b   5.40631514
_cell_length_c   8.59382400
_cell_angle_alpha   90.00000000
_cell_angle_beta   90.00000000
_cell_angle_gamma   120.00000528
_symmetry_Int_Tables_number   1
_chemical_formula_structural   Yb4MgIr7
_chemical_formula_sum   'Yb4 Mg1 Ir7'
_cell_volume   217.53030433
_cell_formula_units_Z   1
loop_
 _symmetry_equiv_pos_site_id
 _symmetry_equiv_pos_as_xyz
  1  'x, y, z'
loop_
 _atom_site_type_symbol
 _atom_site_label
 _atom_site_symmetry_multiplicity
 _atom_site_fract_x
 _atom_site_fract_y
 _atom_site_fract_z
 _atom_site_occupancy
  Yb  Yb0  1  0.333334  0.666667  0.076884  1
  Yb  Yb1  1  0.333334  0.666667  0.434661  1
  Yb  Yb2  1  0.666666  0.333334  0.565338  1
  Yb  Yb3  1  0.666666  0.333334  0.923116  1
  Mg  Mg4  1  0.000000  0.000000  0.000000  1
  Ir  Ir5  1  0.344467  0.172234  0.255483  1
  Ir  Ir6  1  0.827767  0.172234  0.255483  1
  Ir  Ir7  1  0.827765  0.655532  0.255483  1
  Ir  Ir8  1  0.000000  0.000000  0.500000  1
  Ir  Ir9  1  0.172234  0.344467  0.744516  1
  Ir  Ir10  1  0.172234  0.827765  0.744516  1
  Ir  Ir11  1  0.655532  0.827765  0.744516  1
