# generated using pymatgen
data_Tm2LuGaSn2Pt3
_symmetry_space_group_name_H-M   'P 1'
_cell_length_a   7.55537838
_cell_length_b   7.50011934
_cell_length_c   3.77649500
_cell_angle_alpha   90.00000000
_cell_angle_beta   90.00000000
_cell_angle_gamma   119.75835394
_symmetry_Int_Tables_number   1
_chemical_formula_structural   Tm2LuGaSn2Pt3
_chemical_formula_sum   'Tm2 Lu1 Ga1 Sn2 Pt3'
_cell_volume   185.77886203
_cell_formula_units_Z   1
loop_
 _symmetry_equiv_pos_site_id
 _symmetry_equiv_pos_as_xyz
  1  'x, y, z'
loop_
 _atom_site_type_symbol
 _atom_site_label
 _atom_site_symmetry_multiplicity
 _atom_site_fract_x
 _atom_site_fract_y
 _atom_site_fract_z
 _atom_site_occupancy
  Tm  Tm0  1  0.607888  0.598789  0.000000  1
  Tm  Tm1  1  0.392112  0.990902  0.000000  1
  Lu  Lu2  1  0.000000  0.415192  0.000000  1
  Ga  Ga3  1  0.000000  0.735311  0.500000  1
  Sn  Sn4  1  0.261865  0.262042  0.500000  1
  Sn  Sn5  1  0.738135  0.000177  0.500000  1
  Pt  Pt6  1  0.327134  0.668750  0.500000  1
  Pt  Pt7  1  0.672866  0.341614  0.500000  1
  Pt  Pt8  1  0.000000  0.987222  0.000000  1
