# generated using pymatgen
data_V(PtO3)2
_symmetry_space_group_name_H-M   'P 1'
_cell_length_a   4.56927100
_cell_length_b   4.56927100
_cell_length_c   9.43517100
_cell_angle_alpha   90.00000000
_cell_angle_beta   90.00000000
_cell_angle_gamma   90.00000000
_symmetry_Int_Tables_number   1
_chemical_formula_structural   V(PtO3)2
_chemical_formula_sum   'V2 Pt4 O12'
_cell_volume   196.98974072
_cell_formula_units_Z   2
loop_
 _symmetry_equiv_pos_site_id
 _symmetry_equiv_pos_as_xyz
  1  'x, y, z'
loop_
 _atom_site_type_symbol
 _atom_site_label
 _atom_site_symmetry_multiplicity
 _atom_site_fract_x
 _atom_site_fract_y
 _atom_site_fract_z
 _atom_site_occupancy
  V  V0  1  0.000000  0.000000  0.000000  1
  V  V1  1  0.500000  0.500000  0.500000  1
  Pt  Pt2  1  0.000000  0.000000  0.332322  1
  Pt  Pt3  1  0.000000  0.000000  0.667678  1
  Pt  Pt4  1  0.500000  0.500000  0.167678  1
  Pt  Pt5  1  0.500000  0.500000  0.832322  1
  O  O6  1  0.189708  0.810292  0.161275  1
  O  O7  1  0.197591  0.802409  0.500000  1
  O  O8  1  0.189708  0.810292  0.838725  1
  O  O9  1  0.302409  0.302409  0.000000  1
  O  O10  1  0.310292  0.310292  0.338725  1
  O  O11  1  0.310292  0.310292  0.661275  1
  O  O12  1  0.697591  0.697591  0.000000  1
  O  O13  1  0.689708  0.689708  0.338725  1
  O  O14  1  0.689708  0.689708  0.661275  1
  O  O15  1  0.810292  0.189708  0.161275  1
  O  O16  1  0.802409  0.197591  0.500000  1
  O  O17  1  0.810292  0.189708  0.838725  1
