# generated using pymatgen
data_Sc3GaNi3As2
_symmetry_space_group_name_H-M   'P 1'
_cell_length_a   6.47558400
_cell_length_b   6.47558378
_cell_length_c   3.82779200
_cell_angle_alpha   90.00000000
_cell_angle_beta   90.00000000
_cell_angle_gamma   120.00000110
_symmetry_Int_Tables_number   1
_chemical_formula_structural   Sc3GaNi3As2
_chemical_formula_sum   'Sc3 Ga1 Ni3 As2'
_cell_volume   139.00704958
_cell_formula_units_Z   1
loop_
 _symmetry_equiv_pos_site_id
 _symmetry_equiv_pos_as_xyz
  1  'x, y, z'
loop_
 _atom_site_type_symbol
 _atom_site_label
 _atom_site_symmetry_multiplicity
 _atom_site_fract_x
 _atom_site_fract_y
 _atom_site_fract_z
 _atom_site_occupancy
  Sc  Sc0  1  0.578952  0.000000  0.499999  1
  Sc  Sc1  1  0.421049  0.421049  0.499999  1
  Sc  Sc2  1  0.000000  0.578952  0.499999  1
  Ga  Ga3  1  0.000000  0.000000  0.499999  1
  Ni  Ni4  1  0.246641  0.000000  0.000000  1
  Ni  Ni5  1  0.000000  0.246640  0.000000  1
  Ni  Ni6  1  0.753360  0.753359  0.000000  1
  As  As7  1  0.666667  0.333334  0.000000  1
  As  As8  1  0.333334  0.666667  0.000000  1
