# generated using pymatgen
data_HfSc3Si6Ir4Rh3
_symmetry_space_group_name_H-M   'P 1'
_cell_length_a   6.98687012
_cell_length_b   6.96468258
_cell_length_c   6.98651921
_cell_angle_alpha   109.40625459
_cell_angle_beta   109.53335409
_cell_angle_gamma   109.40858636
_symmetry_Int_Tables_number   1
_chemical_formula_structural   HfSc3Si6Ir4Rh3
_chemical_formula_sum   'Hf1 Sc3 Si6 Ir4 Rh3'
_cell_volume   261.92251511
_cell_formula_units_Z   1
loop_
 _symmetry_equiv_pos_site_id
 _symmetry_equiv_pos_as_xyz
  1  'x, y, z'
loop_
 _atom_site_type_symbol
 _atom_site_label
 _atom_site_symmetry_multiplicity
 _atom_site_fract_x
 _atom_site_fract_y
 _atom_site_fract_z
 _atom_site_occupancy
  Hf  Hf0  1  0.000923  0.500466  0.000470  1
  Sc  Sc1  1  0.000049  0.000024  0.500025  1
  Sc  Sc2  1  0.499901  0.999613  0.999872  1
  Sc  Sc3  1  0.499900  0.500296  0.500028  1
  Si  Si4  1  0.680649  0.683182  0.999854  1
  Si  Si5  1  0.319421  0.002917  0.319364  1
  Si  Si6  1  0.999764  0.316504  0.319111  1
  Si  Si7  1  0.319422  0.316507  0.000059  1
  Si  Si8  1  0.680647  0.997465  0.680793  1
  Si  Si9  1  0.999762  0.683261  0.680651  1
  Ir  Ir10  1  0.248698  0.499207  0.750264  1
  Ir  Ir11  1  0.248689  0.749489  0.498418  1
  Ir  Ir12  1  0.499355  0.749664  0.249676  1
  Ir  Ir13  1  0.000091  0.000042  0.000044  1
  Rh  Rh14  1  0.750336  0.250915  0.501339  1
  Rh  Rh15  1  0.750342  0.499421  0.248987  1
  Rh  Rh16  1  0.502052  0.251029  0.751045  1
