# generated using pymatgen
data_Ta6Al3Ga(CuC)2
_symmetry_space_group_name_H-M   'P 1'
_cell_length_a   8.28396823
_cell_length_b   8.28672403
_cell_length_c   8.28672320
_cell_angle_alpha   60.01899390
_cell_angle_beta   60.01100156
_cell_angle_gamma   60.01100173
_symmetry_Int_Tables_number   1
_chemical_formula_structural   Ta6Al3Ga(CuC)2
_chemical_formula_sum   'Ta12 Al6 Ga2 Cu4 C4'
_cell_volume   402.36820677
_cell_formula_units_Z   2
loop_
 _symmetry_equiv_pos_site_id
 _symmetry_equiv_pos_as_xyz
  1  'x, y, z'
loop_
 _atom_site_type_symbol
 _atom_site_label
 _atom_site_symmetry_multiplicity
 _atom_site_fract_x
 _atom_site_fract_y
 _atom_site_fract_z
 _atom_site_occupancy
  Ta  Ta0  1  0.566813  0.932888  0.567131  1
  Ta  Ta1  1  0.317302  0.682793  0.682793  1
  Ta  Ta2  1  0.682918  0.317112  0.317112  1
  Ta  Ta3  1  0.316832  0.682869  0.317112  1
  Ta  Ta4  1  0.682828  0.682456  0.317617  1
  Ta  Ta5  1  0.316832  0.317112  0.682869  1
  Ta  Ta6  1  0.566813  0.567131  0.932888  1
  Ta  Ta7  1  0.932889  0.567207  0.567207  1
  Ta  Ta8  1  0.567142  0.932888  0.932888  1
  Ta  Ta9  1  0.932900  0.932383  0.567544  1
  Ta  Ta10  1  0.682828  0.317617  0.682456  1
  Ta  Ta11  1  0.932900  0.567544  0.932383  1
  Al  Al12  1  0.333390  0.999569  0.333518  1
  Al  Al13  1  0.333390  0.333518  0.999569  1
  Al  Al14  1  0.916478  0.250431  0.916482  1
  Al  Al15  1  0.916478  0.916482  0.250431  1
  Al  Al16  1  0.250437  0.916474  0.916474  1
  Al  Al17  1  0.333383  0.333526  0.333526  1
  Ga  Ga18  1  0.916252  0.916191  0.916191  1
  Ga  Ga19  1  0.998633  0.333809  0.333809  1
  Cu  Cu20  1  0.125226  0.124333  0.124333  1
  Cu  Cu21  1  0.623893  0.125667  0.125667  1
  Cu  Cu22  1  0.125945  0.625000  0.125000  1
  Cu  Cu23  1  0.125945  0.125000  0.625000  1
  C  C24  1  0.625378  0.624587  0.624587  1
  C  C25  1  0.124553  0.625413  0.625413  1
  C  C26  1  0.625812  0.125000  0.625000  1
  C  C27  1  0.625812  0.625000  0.125000  1
