# generated using pymatgen
data_Yb3Pa(SbPd)4
_symmetry_space_group_name_H-M   'P 1'
_cell_length_a   4.67096800
_cell_length_b   7.36045028
_cell_length_c   7.88550103
_cell_angle_alpha   89.76417765
_cell_angle_beta   90.00000000
_cell_angle_gamma   90.00000000
_symmetry_Int_Tables_number   1
_chemical_formula_structural   Yb3Pa(SbPd)4
_chemical_formula_sum   'Yb3 Pa1 Sb4 Pd4'
_cell_volume   271.10460187
_cell_formula_units_Z   1
loop_
 _symmetry_equiv_pos_site_id
 _symmetry_equiv_pos_as_xyz
  1  'x, y, z'
loop_
 _atom_site_type_symbol
 _atom_site_label
 _atom_site_symmetry_multiplicity
 _atom_site_fract_x
 _atom_site_fract_y
 _atom_site_fract_z
 _atom_site_occupancy
  Yb  Yb0  1  0.750000  0.506358  0.792177  1
  Yb  Yb1  1  0.250000  0.993050  0.291743  1
  Yb  Yb2  1  0.750000  0.004454  0.710075  1
  Pa  Pa3  1  0.250000  0.494406  0.206859  1
  Sb  Sb4  1  0.250000  0.295464  0.591744  1
  Sb  Sb5  1  0.750000  0.209483  0.092962  1
  Sb  Sb6  1  0.250000  0.782122  0.909826  1
  Sb  Sb7  1  0.750000  0.696211  0.403522  1
  Pd  Pd8  1  0.750000  0.308515  0.418612  1
  Pd  Pd9  1  0.250000  0.207994  0.927995  1
  Pd  Pd10  1  0.750000  0.811295  0.080944  1
  Pd  Pd11  1  0.250000  0.690648  0.573542  1
