# generated using pymatgen
data_Nd9SmB2Cl15
_symmetry_space_group_name_H-M   'P 1'
_cell_length_a   9.02849805
_cell_length_b   9.84900466
_cell_length_c   10.64784304
_cell_angle_alpha   90.58251513
_cell_angle_beta   114.67022505
_cell_angle_gamma   111.20868885
_symmetry_Int_Tables_number   1
_chemical_formula_structural   Nd9SmB2Cl15
_chemical_formula_sum   'Nd9 Sm1 B2 Cl15'
_cell_volume   787.47869373
_cell_formula_units_Z   1
loop_
 _symmetry_equiv_pos_site_id
 _symmetry_equiv_pos_as_xyz
  1  'x, y, z'
loop_
 _atom_site_type_symbol
 _atom_site_label
 _atom_site_symmetry_multiplicity
 _atom_site_fract_x
 _atom_site_fract_y
 _atom_site_fract_z
 _atom_site_occupancy
  Nd  Nd0  1  0.810012  0.418918  0.278774  1
  Nd  Nd1  1  0.188368  0.580516  0.720375  1
  Nd  Nd2  1  0.680982  0.743393  0.818554  1
  Nd  Nd3  1  0.318012  0.256263  0.181647  1
  Nd  Nd4  1  0.527166  0.699142  0.102137  1
  Nd  Nd5  1  0.472374  0.300669  0.897775  1
  Nd  Nd6  1  0.591100  0.036914  0.334200  1
  Nd  Nd7  1  0.407439  0.962490  0.665326  1
  Nd  Nd8  1  0.735961  0.078766  0.050037  1
  Sm  Sm9  1  0.268613  0.922258  0.950633  1
  B  B10  1  0.464358  0.817570  0.874746  1
  B  B11  1  0.532367  0.181068  0.124310  1
  Cl  Cl12  1  0.002828  0.998487  0.999043  1
  Cl  Cl13  1  0.635178  0.883719  0.586885  1
  Cl  Cl14  1  0.364358  0.116128  0.413142  1
  Cl  Cl15  1  0.881818  0.299123  0.522952  1
  Cl  Cl16  1  0.117604  0.700442  0.476630  1
  Cl  Cl17  1  0.293525  0.767621  0.177272  1
  Cl  Cl18  1  0.703891  0.234146  0.818567  1
  Cl  Cl19  1  0.055456  0.345501  0.227669  1
  Cl  Cl20  1  0.167663  0.055340  0.709161  1
  Cl  Cl21  1  0.831849  0.941883  0.294297  1
  Cl  Cl22  1  0.234928  0.410446  0.945695  1
  Cl  Cl23  1  0.764434  0.589271  0.054163  1
  Cl  Cl24  1  0.406949  0.467898  0.660257  1
  Cl  Cl25  1  0.592856  0.532066  0.339740  1
  Cl  Cl26  1  0.949910  0.659962  0.776011  1
