# generated using pymatgen
data_TmLu3(Si5Os3)2
_symmetry_space_group_name_H-M   'P 1'
_cell_length_a   8.10063626
_cell_length_b   8.10026617
_cell_length_c   5.74405604
_cell_angle_alpha   70.67794291
_cell_angle_beta   70.67703148
_cell_angle_gamma   94.26738684
_symmetry_Int_Tables_number   1
_chemical_formula_structural   TmLu3(Si5Os3)2
_chemical_formula_sum   'Tm1 Lu3 Si10 Os6'
_cell_volume   328.40891930
_cell_formula_units_Z   1
loop_
 _symmetry_equiv_pos_site_id
 _symmetry_equiv_pos_as_xyz
  1  'x, y, z'
loop_
 _atom_site_type_symbol
 _atom_site_label
 _atom_site_symmetry_multiplicity
 _atom_site_fract_x
 _atom_site_fract_y
 _atom_site_fract_z
 _atom_site_occupancy
  Tm  Tm0  1  0.869191  0.600362  0.753529  1
  Lu  Lu1  1  0.399617  0.130781  0.746492  1
  Lu  Lu2  1  0.130805  0.399622  0.246467  1
  Lu  Lu3  1  0.600372  0.869214  0.253516  1
  Si  Si4  1  0.069523  0.262017  0.832542  1
  Si  Si5  1  0.737942  0.930575  0.667445  1
  Si  Si6  1  0.930514  0.738010  0.167410  1
  Si  Si7  1  0.262037  0.069519  0.332526  1
  Si  Si8  1  0.205703  0.794398  0.750012  1
  Si  Si9  1  0.794371  0.205642  0.249984  1
  Si  Si10  1  0.512674  0.487208  0.750009  1
  Si  Si11  1  0.487218  0.512755  0.250025  1
  Si  Si12  1  0.775551  0.224420  0.750000  1
  Si  Si13  1  0.224489  0.775566  0.249931  1
  Os  Os14  1  0.255054  0.544388  0.630969  1
  Os  Os15  1  0.455580  0.745142  0.868959  1
  Os  Os16  1  0.745034  0.455474  0.369114  1
  Os  Os17  1  0.544324  0.254798  0.131100  1
  Os  Os18  1  0.002458  0.997610  0.749989  1
  Os  Os19  1  0.997544  0.002500  0.249980  1
