# generated using pymatgen
data_Yb8Ga(AgPd2)8
_symmetry_space_group_name_H-M   'P 1'
_cell_length_a   8.43502030
_cell_length_b   8.33318282
_cell_length_c   8.36974100
_cell_angle_alpha   90.00913082
_cell_angle_beta   89.96819701
_cell_angle_gamma   90.10766354
_symmetry_Int_Tables_number   1
_chemical_formula_structural   Yb8Ga(AgPd2)8
_chemical_formula_sum   'Yb8 Ga1 Ag8 Pd16'
_cell_volume   588.31269731
_cell_formula_units_Z   1
loop_
 _symmetry_equiv_pos_site_id
 _symmetry_equiv_pos_as_xyz
  1  'x, y, z'
loop_
 _atom_site_type_symbol
 _atom_site_label
 _atom_site_symmetry_multiplicity
 _atom_site_fract_x
 _atom_site_fract_y
 _atom_site_fract_z
 _atom_site_occupancy
  Yb  Yb0  1  0.252547  0.252895  0.747515  1
  Yb  Yb1  1  0.251459  0.752407  0.256673  1
  Yb  Yb2  1  0.741688  0.245186  0.251655  1
  Yb  Yb3  1  0.753238  0.748973  0.743190  1
  Yb  Yb4  1  0.747906  0.755295  0.257538  1
  Yb  Yb5  1  0.746883  0.252128  0.749531  1
  Yb  Yb6  1  0.247059  0.746293  0.742497  1
  Yb  Yb7  1  0.256932  0.246258  0.252022  1
  Ga  Ga8  1  0.998226  0.999394  0.002232  1
  Ag  Ag9  1  0.997779  0.499768  0.738375  1
  Ag  Ag10  1  0.500555  0.260488  0.999875  1
  Ag  Ag11  1  0.262605  0.999707  0.500095  1
  Ag  Ag12  1  0.996871  0.260818  0.499458  1
  Ag  Ag13  1  0.501143  0.997937  0.736632  1
  Ag  Ag14  1  0.262448  0.500858  0.002209  1
  Ag  Ag15  1  0.996685  0.500212  0.262233  1
  Ag  Ag16  1  0.501496  0.738876  0.000288  1
  Pd  Pd17  1  0.500201  0.500762  0.745605  1
  Pd  Pd18  1  0.499874  0.254191  0.500401  1
  Pd  Pd19  1  0.254354  0.498524  0.499090  1
  Pd  Pd20  1  0.500313  0.500322  0.254861  1
  Pd  Pd21  1  0.500173  0.745200  0.500020  1
  Pd  Pd22  1  0.743462  0.499691  0.499850  1
  Pd  Pd23  1  0.002461  0.002508  0.711466  1
  Pd  Pd24  1  0.001863  0.290765  0.000828  1
  Pd  Pd25  1  0.287846  0.998420  0.995696  1
  Pd  Pd26  1  0.001832  0.002257  0.291960  1
  Pd  Pd27  1  0.001985  0.708185  0.000653  1
  Pd  Pd28  1  0.709214  0.999195  0.996698  1
  Pd  Pd29  1  0.999901  0.741481  0.499986  1
  Pd  Pd30  1  0.499196  0.998355  0.257783  1
  Pd  Pd31  1  0.740995  0.002041  0.501207  1
  Pd  Pd32  1  0.740806  0.500609  0.001875  1
