# generated using pymatgen
data_Ac10Sn6Cl
_symmetry_space_group_name_H-M   'P 1'
_cell_length_a   7.26428800
_cell_length_b   9.98737448
_cell_length_c   9.98712901
_cell_angle_alpha   120.00082056
_cell_angle_beta   90.00114094
_cell_angle_gamma   89.99771501
_symmetry_Int_Tables_number   1
_chemical_formula_structural   Ac10Sn6Cl
_chemical_formula_sum   'Ac10 Sn6 Cl1'
_cell_volume   627.49762778
_cell_formula_units_Z   1
loop_
 _symmetry_equiv_pos_site_id
 _symmetry_equiv_pos_as_xyz
  1  'x, y, z'
loop_
 _atom_site_type_symbol
 _atom_site_label
 _atom_site_symmetry_multiplicity
 _atom_site_fract_x
 _atom_site_fract_y
 _atom_site_fract_z
 _atom_site_occupancy
  Ac  Ac0  1  0.499999  0.333323  0.666646  1
  Ac  Ac1  1  0.499999  0.666675  0.333354  1
  Ac  Ac2  1  0.000000  0.666647  0.333296  1
  Ac  Ac3  1  0.000000  0.333351  0.666704  1
  Ac  Ac4  1  0.758930  0.251827  0.000000  1
  Ac  Ac5  1  0.758905  0.748155  0.748151  1
  Ac  Ac6  1  0.758905  0.000002  0.251849  1
  Ac  Ac7  1  0.241059  0.748168  0.000000  1
  Ac  Ac8  1  0.241091  0.251846  0.251848  1
  Ac  Ac9  1  0.241091  0.999998  0.748152  1
  Sn  Sn10  1  0.751819  0.609974  0.000000  1
  Sn  Sn11  1  0.751950  0.389981  0.390059  1
  Sn  Sn12  1  0.751950  0.999921  0.609941  1
  Sn  Sn13  1  0.248213  0.390048  0.000000  1
  Sn  Sn14  1  0.248047  0.610015  0.609941  1
  Sn  Sn15  1  0.248047  0.000074  0.390059  1
  Cl  Cl16  1  0.499998  0.999998  0.000000  1
