# generated using pymatgen
data_ScPaReB6
_symmetry_space_group_name_H-M   'P 1'
_cell_length_a   3.64319400
_cell_length_b   8.99397500
_cell_length_c   11.37083000
_cell_angle_alpha   90.00000000
_cell_angle_beta   90.00000000
_cell_angle_gamma   90.00000000
_symmetry_Int_Tables_number   1
_chemical_formula_structural   ScPaReB6
_chemical_formula_sum   'Sc4 Pa4 Re4 B24'
_cell_volume   372.58566419
_cell_formula_units_Z   4
loop_
 _symmetry_equiv_pos_site_id
 _symmetry_equiv_pos_as_xyz
  1  'x, y, z'
loop_
 _atom_site_type_symbol
 _atom_site_label
 _atom_site_symmetry_multiplicity
 _atom_site_fract_x
 _atom_site_fract_y
 _atom_site_fract_z
 _atom_site_occupancy
  Sc  Sc0  1  0.000000  0.945458  0.374897  1
  Sc  Sc1  1  0.000000  0.054542  0.625103  1
  Sc  Sc2  1  0.000000  0.445458  0.125103  1
  Sc  Sc3  1  0.000000  0.554542  0.874897  1
  Pa  Pa4  1  0.000000  0.320633  0.413779  1
  Pa  Pa5  1  0.000000  0.679367  0.586221  1
  Pa  Pa6  1  0.000000  0.820633  0.086221  1
  Pa  Pa7  1  0.000000  0.179367  0.913779  1
  Re  Re8  1  0.000000  0.640734  0.319239  1
  Re  Re9  1  0.000000  0.359266  0.680761  1
  Re  Re10  1  0.000000  0.140734  0.180761  1
  Re  Re11  1  0.000000  0.859266  0.819239  1
  B  B12  1  0.500000  0.554195  0.433356  1
  B  B13  1  0.500000  0.445805  0.566644  1
  B  B14  1  0.500000  0.054195  0.066644  1
  B  B15  1  0.500000  0.945805  0.933356  1
  B  B16  1  0.500000  0.753524  0.419389  1
  B  B17  1  0.500000  0.246476  0.580611  1
  B  B18  1  0.500000  0.253524  0.080611  1
  B  B19  1  0.500000  0.746476  0.919389  1
  B  B20  1  0.500000  0.794940  0.265077  1
  B  B21  1  0.500000  0.205060  0.734923  1
  B  B22  1  0.500000  0.294940  0.234923  1
  B  B23  1  0.500000  0.705060  0.765077  1
  B  B24  1  0.500000  0.630112  0.182793  1
  B  B25  1  0.500000  0.369888  0.817207  1
  B  B26  1  0.500000  0.130112  0.317207  1
  B  B27  1  0.500000  0.869888  0.682793  1
  B  B28  1  0.500000  0.981621  0.214558  1
  B  B29  1  0.500000  0.018379  0.785442  1
  B  B30  1  0.500000  0.481621  0.285442  1
  B  B31  1  0.500000  0.518379  0.714558  1
  B  B32  1  0.500000  0.600582  0.027630  1
  B  B33  1  0.500000  0.399418  0.972370  1
  B  B34  1  0.500000  0.100582  0.472370  1
  B  B35  1  0.500000  0.899418  0.527630  1
