# generated using pymatgen
data_YbPrAlIr3
_symmetry_space_group_name_H-M   'P 1'
_cell_length_a   5.19362701
_cell_length_b   5.19362632
_cell_length_c   5.19362737
_cell_angle_alpha   65.51715972
_cell_angle_beta   65.51716097
_cell_angle_gamma   65.51715466
_symmetry_Int_Tables_number   1
_chemical_formula_structural   YbPrAlIr3
_chemical_formula_sum   'Yb1 Pr1 Al1 Ir3'
_cell_volume   110.93944093
_cell_formula_units_Z   1
loop_
 _symmetry_equiv_pos_site_id
 _symmetry_equiv_pos_as_xyz
  1  'x, y, z'
loop_
 _atom_site_type_symbol
 _atom_site_label
 _atom_site_symmetry_multiplicity
 _atom_site_fract_x
 _atom_site_fract_y
 _atom_site_fract_z
 _atom_site_occupancy
  Yb  Yb0  1  0.998756  0.998756  0.998756  1
  Pr  Pr1  1  0.249689  0.249689  0.249689  1
  Al  Al2  1  0.624321  0.624321  0.624321  1
  Ir  Ir3  1  0.627633  0.627633  0.121969  1
  Ir  Ir4  1  0.627633  0.121969  0.627633  1
  Ir  Ir5  1  0.121969  0.627633  0.627633  1
