# generated using pymatgen
data_Np8VSe17
_symmetry_space_group_name_H-M   'P 1'
_cell_length_a   8.19521680
_cell_length_b   8.19808062
_cell_length_c   10.87835564
_cell_angle_alpha   80.59614172
_cell_angle_beta   80.57486945
_cell_angle_gamma   65.21955740
_symmetry_Int_Tables_number   1
_chemical_formula_structural   Np8VSe17
_chemical_formula_sum   'Np8 V1 Se17'
_cell_volume   650.93410249
_cell_formula_units_Z   1
loop_
 _symmetry_equiv_pos_site_id
 _symmetry_equiv_pos_as_xyz
  1  'x, y, z'
loop_
 _atom_site_type_symbol
 _atom_site_label
 _atom_site_symmetry_multiplicity
 _atom_site_fract_x
 _atom_site_fract_y
 _atom_site_fract_z
 _atom_site_occupancy
  Np  Np0  1  0.818928  0.301099  0.298471  1
  Np  Np1  1  0.301204  0.818857  0.298411  1
  Np  Np2  1  0.181072  0.698901  0.701529  1
  Np  Np3  1  0.698796  0.181143  0.701589  1
  Np  Np4  1  0.205148  0.205128  0.543305  1
  Np  Np5  1  0.794852  0.794872  0.456695  1
  Np  Np6  1  0.680435  0.680464  0.980891  1
  Np  Np7  1  0.319565  0.319536  0.019109  1
  V  V8  1  0.000000  0.000000  0.000000  1
  Se  Se9  1  0.822274  0.431587  0.535792  1
  Se  Se10  1  0.431618  0.822303  0.535652  1
  Se  Se11  1  0.177726  0.568413  0.464208  1
  Se  Se12  1  0.568382  0.177697  0.464348  1
  Se  Se13  1  0.943280  0.322941  0.027847  1
  Se  Se14  1  0.322925  0.943248  0.027938  1
  Se  Se15  1  0.056720  0.677059  0.972153  1
  Se  Se16  1  0.677075  0.056752  0.972062  1
  Se  Se17  1  0.211877  0.211705  0.278455  1
  Se  Se18  1  0.788123  0.788295  0.721545  1
  Se  Se19  1  0.058571  0.058676  0.771809  1
  Se  Se20  1  0.941429  0.941324  0.228191  1
  Se  Se21  1  0.301324  0.301183  0.755086  1
  Se  Se22  1  0.698676  0.698817  0.244914  1
  Se  Se23  1  0.521230  0.521072  0.830969  1
  Se  Se24  1  0.478770  0.478928  0.169031  1
  Se  Se25  1  0.000000  0.000000  0.500000  1
