# generated using pymatgen
data_DyY2Ho(Al3Ir)6
_symmetry_space_group_name_H-M   'P 1'
_cell_length_a   7.56000135
_cell_length_b   7.56060004
_cell_length_c   9.48505300
_cell_angle_alpha   90.00000000
_cell_angle_beta   90.00000000
_cell_angle_gamma   119.49479920
_symmetry_Int_Tables_number   1
_chemical_formula_structural   DyY2Ho(Al3Ir)6
_chemical_formula_sum   'Dy1 Y2 Ho1 Al18 Ir6'
_cell_volume   471.88587326
_cell_formula_units_Z   1
loop_
 _symmetry_equiv_pos_site_id
 _symmetry_equiv_pos_as_xyz
  1  'x, y, z'
loop_
 _atom_site_type_symbol
 _atom_site_label
 _atom_site_symmetry_multiplicity
 _atom_site_fract_x
 _atom_site_fract_y
 _atom_site_fract_z
 _atom_site_occupancy
  Dy  Dy0  1  0.994624  0.671460  0.250000  1
  Y  Y1  1  0.005198  0.328629  0.750000  1
  Y  Y2  1  0.671355  0.994816  0.250000  1
  Ho  Ho3  1  0.328621  0.005216  0.750000  1
  Al  Al4  1  0.129426  0.129526  0.250000  1
  Al  Al5  1  0.870760  0.870755  0.750000  1
  Al  Al6  1  0.000962  0.335106  0.073924  1
  Al  Al7  1  0.999198  0.664915  0.925603  1
  Al  Al8  1  0.999198  0.664915  0.574397  1
  Al  Al9  1  0.335236  0.000981  0.426153  1
  Al  Al10  1  0.000962  0.335106  0.426076  1
  Al  Al11  1  0.664737  0.999103  0.574231  1
  Al  Al12  1  0.664737  0.999103  0.925769  1
  Al  Al13  1  0.335236  0.000981  0.073847  1
  Al  Al14  1  0.333261  0.333155  0.551215  1
  Al  Al15  1  0.666667  0.666711  0.449284  1
  Al  Al16  1  0.666667  0.666711  0.050716  1
  Al  Al17  1  0.333261  0.333155  0.948785  1
  Al  Al18  1  0.339845  0.548648  0.250000  1
  Al  Al19  1  0.660117  0.451111  0.750000  1
  Al  Al20  1  0.548492  0.339490  0.250000  1
  Al  Al21  1  0.451346  0.660437  0.750000  1
  Ir  Ir22  1  0.671817  0.328062  0.999907  1
  Ir  Ir23  1  0.328158  0.671932  0.999890  1
  Ir  Ir24  1  0.328158  0.671932  0.500110  1
  Ir  Ir25  1  0.671817  0.328062  0.500093  1
  Ir  Ir26  1  0.000072  0.999992  0.999927  1
  Ir  Ir27  1  0.000072  0.999992  0.500073  1
