# generated using pymatgen
data_Ti16V(Si4Mo)3
_symmetry_space_group_name_H-M   'P 1'
_cell_length_a   7.38463300
_cell_length_b   7.38471052
_cell_length_c   13.92118300
_cell_angle_alpha   90.00000000
_cell_angle_beta   90.00000000
_cell_angle_gamma   140.44440892
_symmetry_Int_Tables_number   1
_chemical_formula_structural   Ti16V(Si4Mo)3
_chemical_formula_sum   'Ti16 V1 Si12 Mo3'
_cell_volume   483.45908055
_cell_formula_units_Z   1
loop_
 _symmetry_equiv_pos_site_id
 _symmetry_equiv_pos_as_xyz
  1  'x, y, z'
loop_
 _atom_site_type_symbol
 _atom_site_label
 _atom_site_symmetry_multiplicity
 _atom_site_fract_x
 _atom_site_fract_y
 _atom_site_fract_z
 _atom_site_occupancy
  Ti  Ti0  1  0.070967  0.429503  0.399932  1
  Ti  Ti1  1  0.571342  0.929068  0.898034  1
  Ti  Ti2  1  0.429512  0.070960  0.600056  1
  Ti  Ti3  1  0.929097  0.571314  0.101961  1
  Ti  Ti4  1  0.849500  0.648652  0.679016  1
  Ti  Ti5  1  0.351481  0.149380  0.179248  1
  Ti  Ti6  1  0.648634  0.849535  0.320953  1
  Ti  Ti7  1  0.149362  0.351517  0.820761  1
  Ti  Ti8  1  0.648634  0.849535  0.679047  1
  Ti  Ti9  1  0.149362  0.351517  0.179239  1
  Ti  Ti10  1  0.849500  0.648652  0.320984  1
  Ti  Ti11  1  0.351481  0.149380  0.820752  1
  Ti  Ti12  1  0.429512  0.070960  0.399944  1
  Ti  Ti13  1  0.929097  0.571314  0.898039  1
  Ti  Ti14  1  0.070967  0.429503  0.600068  1
  Ti  Ti15  1  0.571342  0.929068  0.101966  1
  V  V16  1  0.999888  0.999890  0.500000  1
  Si  Si17  1  0.249902  0.750053  0.749369  1
  Si  Si18  1  0.750135  0.249881  0.250630  1
  Si  Si19  1  0.750135  0.249881  0.749370  1
  Si  Si20  1  0.249902  0.750053  0.250631  1
  Si  Si21  1  0.244687  0.244737  0.659426  1
  Si  Si22  1  0.750274  0.750302  0.161803  1
  Si  Si23  1  0.244687  0.244737  0.340574  1
  Si  Si24  1  0.750274  0.750302  0.838197  1
  Si  Si25  1  0.595825  0.913962  0.500000  1
  Si  Si26  1  0.087920  0.412695  0.000000  1
  Si  Si27  1  0.913973  0.595817  0.500000  1
  Si  Si28  1  0.412740  0.087898  0.000000  1
  Mo  Mo29  1  0.500439  0.500473  0.000000  1
  Mo  Mo30  1  0.499428  0.499429  0.500000  1
  Mo  Mo31  1  0.000003  0.000038  0.000000  1
