# generated using pymatgen
data_CsRb3Sn6(HgSe8)2
_symmetry_space_group_name_H-M   'P 1'
_cell_length_a   8.13186305
_cell_length_b   13.25489909
_cell_length_c   18.86594000
_cell_angle_alpha   90.00000000
_cell_angle_beta   90.00000000
_cell_angle_gamma   89.98670760
_symmetry_Int_Tables_number   1
_chemical_formula_structural   CsRb3Sn6(HgSe8)2
_chemical_formula_sum   'Cs2 Rb6 Sn12 Hg4 Se32'
_cell_volume   2033.50347656
_cell_formula_units_Z   2
loop_
 _symmetry_equiv_pos_site_id
 _symmetry_equiv_pos_as_xyz
  1  'x, y, z'
loop_
 _atom_site_type_symbol
 _atom_site_label
 _atom_site_symmetry_multiplicity
 _atom_site_fract_x
 _atom_site_fract_y
 _atom_site_fract_z
 _atom_site_occupancy
  Cs  Cs0  1  0.737583  0.696112  0.661267  1
  Cs  Cs1  1  0.762417  0.303888  0.161267  1
  Rb  Rb2  1  0.746499  0.632814  0.047830  1
  Rb  Rb3  1  0.753501  0.367186  0.547830  1
  Rb  Rb4  1  0.246359  0.868324  0.952860  1
  Rb  Rb5  1  0.253641  0.131676  0.452860  1
  Rb  Rb6  1  0.232093  0.795457  0.334310  1
  Rb  Rb7  1  0.267907  0.204543  0.834310  1
  Sn  Sn8  1  0.764058  0.053492  0.323902  1
  Sn  Sn9  1  0.735942  0.946508  0.823902  1
  Sn  Sn10  1  0.262929  0.446193  0.676157  1
  Sn  Sn11  1  0.237071  0.553807  0.176157  1
  Sn  Sn12  1  0.731433  0.930369  0.484432  1
  Sn  Sn13  1  0.768567  0.069631  0.984432  1
  Sn  Sn14  1  0.230677  0.570187  0.515303  1
  Sn  Sn15  1  0.269323  0.429813  0.015303  1
  Sn  Sn16  1  0.512556  0.977862  0.153113  1
  Sn  Sn17  1  0.987444  0.022138  0.653113  1
  Sn  Sn18  1  0.013278  0.520921  0.847713  1
  Sn  Sn19  1  0.486722  0.479079  0.347713  1
  Hg  Hg20  1  0.982982  0.500873  0.346633  1
  Hg  Hg21  1  0.517018  0.499127  0.846633  1
  Hg  Hg22  1  0.482880  0.998878  0.653390  1
  Hg  Hg23  1  0.017120  0.001122  0.153390  1
  Se  Se24  1  0.973482  0.620100  0.227765  1
  Se  Se25  1  0.526518  0.379900  0.727765  1
  Se  Se26  1  0.471281  0.881589  0.773037  1
  Se  Se27  1  0.028719  0.118411  0.273037  1
  Se  Se28  1  0.968612  0.629938  0.458549  1
  Se  Se29  1  0.531388  0.370062  0.958549  1
  Se  Se30  1  0.465623  0.873335  0.539828  1
  Se  Se31  1  0.034377  0.126665  0.039828  1
  Se  Se32  1  0.764953  0.868192  0.158065  1
  Se  Se33  1  0.735047  0.131808  0.658065  1
  Se  Se34  1  0.264497  0.631664  0.841898  1
  Se  Se35  1  0.235503  0.368336  0.341898  1
  Se  Se36  1  0.764719  0.635365  0.856605  1
  Se  Se37  1  0.735281  0.364635  0.356605  1
  Se  Se38  1  0.263899  0.862982  0.147467  1
  Se  Se39  1  0.236101  0.137018  0.647467  1
  Se  Se40  1  0.764803  0.862496  0.356307  1
  Se  Se41  1  0.735197  0.137504  0.856307  1
  Se  Se42  1  0.260871  0.637113  0.643867  1
  Se  Se43  1  0.239129  0.362887  0.143867  1
  Se  Se44  1  0.727711  0.121956  0.452710  1
  Se  Se45  1  0.772289  0.878044  0.952710  1
  Se  Se46  1  0.227980  0.378462  0.547105  1
  Se  Se47  1  0.272020  0.621538  0.047105  1
  Se  Se48  1  0.508442  0.601625  0.238748  1
  Se  Se49  1  0.991558  0.398375  0.738748  1
  Se  Se50  1  0.009088  0.899919  0.762150  1
  Se  Se51  1  0.490912  0.100081  0.262150  1
  Se  Se52  1  0.500364  0.613853  0.449216  1
  Se  Se53  1  0.999636  0.386147  0.949216  1
  Se  Se54  1  0.003694  0.890212  0.549770  1
  Se  Se55  1  0.496306  0.109788  0.049770  1
