# generated using pymatgen
data_Tb4Dy4Re3B24Ru
_symmetry_space_group_name_H-M   'P 1'
_cell_length_a   3.68782300
_cell_length_b   9.18110298
_cell_length_c   11.57439198
_cell_angle_alpha   89.89351477
_cell_angle_beta   90.00000000
_cell_angle_gamma   90.00000000
_symmetry_Int_Tables_number   1
_chemical_formula_structural   Tb4Dy4Re3B24Ru
_chemical_formula_sum   'Tb4 Dy4 Re3 B24 Ru1'
_cell_volume   391.88835924
_cell_formula_units_Z   1
loop_
 _symmetry_equiv_pos_site_id
 _symmetry_equiv_pos_as_xyz
  1  'x, y, z'
loop_
 _atom_site_type_symbol
 _atom_site_label
 _atom_site_symmetry_multiplicity
 _atom_site_fract_x
 _atom_site_fract_y
 _atom_site_fract_z
 _atom_site_occupancy
  Tb  Tb0  1  0.000000  0.323373  0.413687  1
  Tb  Tb1  1  0.000000  0.675110  0.584313  1
  Tb  Tb2  1  0.000000  0.823000  0.087547  1
  Tb  Tb3  1  0.000000  0.177773  0.914176  1
  Dy  Dy4  1  0.000000  0.943087  0.370997  1
  Dy  Dy5  1  0.000000  0.056846  0.630645  1
  Dy  Dy6  1  0.000000  0.443555  0.129307  1
  Dy  Dy7  1  0.000000  0.558338  0.869591  1
  Re  Re8  1  0.000000  0.638247  0.320814  1
  Re  Re9  1  0.000000  0.361677  0.679612  1
  Re  Re10  1  0.000000  0.137903  0.178353  1
  B  B11  1  0.500000  0.553086  0.432573  1
  B  B12  1  0.500000  0.446523  0.567018  1
  B  B13  1  0.500000  0.053118  0.067090  1
  B  B14  1  0.500000  0.945872  0.932396  1
  B  B15  1  0.500000  0.748410  0.418565  1
  B  B16  1  0.500000  0.250825  0.581673  1
  B  B17  1  0.500000  0.249017  0.081368  1
  B  B18  1  0.500000  0.751871  0.918179  1
  B  B19  1  0.500000  0.791805  0.266091  1
  B  B20  1  0.500000  0.208578  0.734720  1
  B  B21  1  0.500000  0.291665  0.233955  1
  B  B22  1  0.500000  0.709465  0.765693  1
  B  B23  1  0.500000  0.631417  0.185763  1
  B  B24  1  0.500000  0.369030  0.814625  1
  B  B25  1  0.500000  0.130752  0.313855  1
  B  B26  1  0.500000  0.868376  0.686081  1
  B  B27  1  0.500000  0.982346  0.212231  1
  B  B28  1  0.500000  0.015940  0.788147  1
  B  B29  1  0.500000  0.482845  0.287431  1
  B  B30  1  0.500000  0.517055  0.711908  1
  B  B31  1  0.500000  0.602694  0.028123  1
  B  B32  1  0.500000  0.399445  0.971348  1
  B  B33  1  0.500000  0.101571  0.472265  1
  B  B34  1  0.500000  0.897849  0.528956  1
  Ru  Ru35  1  0.000000  0.861535  0.820903  1
