# generated using pymatgen
data_Sm8AlCuPd23
_symmetry_space_group_name_H-M   'P 1'
_cell_length_a   8.32642500
_cell_length_b   8.43058600
_cell_length_c   8.44363800
_cell_angle_alpha   90.00000000
_cell_angle_beta   90.00000000
_cell_angle_gamma   90.00000000
_symmetry_Int_Tables_number   1
_chemical_formula_structural   Sm8AlCuPd23
_chemical_formula_sum   'Sm8 Al1 Cu1 Pd23'
_cell_volume   592.71503416
_cell_formula_units_Z   1
loop_
 _symmetry_equiv_pos_site_id
 _symmetry_equiv_pos_as_xyz
  1  'x, y, z'
loop_
 _atom_site_type_symbol
 _atom_site_label
 _atom_site_symmetry_multiplicity
 _atom_site_fract_x
 _atom_site_fract_y
 _atom_site_fract_z
 _atom_site_occupancy
  Sm  Sm0  1  0.251612  0.249296  0.255023  1
  Sm  Sm1  1  0.748096  0.747703  0.749643  1
  Sm  Sm2  1  0.748096  0.747703  0.250357  1
  Sm  Sm3  1  0.748096  0.252297  0.749643  1
  Sm  Sm4  1  0.251612  0.249296  0.744977  1
  Sm  Sm5  1  0.251612  0.750704  0.255023  1
  Sm  Sm6  1  0.251612  0.750704  0.744977  1
  Sm  Sm7  1  0.748096  0.252297  0.250357  1
  Al  Al8  1  0.997931  0.000000  0.000000  1
  Cu  Cu9  1  0.264675  0.500000  0.000000  1
  Pd  Pd10  1  0.741483  0.500000  0.000000  1
  Pd  Pd11  1  0.998724  0.260607  0.500000  1
  Pd  Pd12  1  0.493738  0.265822  0.000000  1
  Pd  Pd13  1  0.998724  0.739393  0.500000  1
  Pd  Pd14  1  0.493738  0.734178  0.000000  1
  Pd  Pd15  1  0.500263  0.000000  0.261248  1
  Pd  Pd16  1  0.259979  0.000000  0.500000  1
  Pd  Pd17  1  0.500263  0.000000  0.738752  1
  Pd  Pd18  1  0.738959  0.000000  0.500000  1
  Pd  Pd19  1  0.002942  0.500000  0.260131  1
  Pd  Pd20  1  0.002942  0.500000  0.739869  1
  Pd  Pd21  1  0.253069  0.500000  0.500000  1
  Pd  Pd22  1  0.746972  0.500000  0.500000  1
  Pd  Pd23  1  0.500790  0.254420  0.500000  1
  Pd  Pd24  1  0.500790  0.745580  0.500000  1
  Pd  Pd25  1  0.495505  0.500000  0.251318  1
  Pd  Pd26  1  0.495505  0.500000  0.748682  1
  Pd  Pd27  1  0.291845  0.000000  0.000000  1
  Pd  Pd28  1  0.704522  0.000000  0.000000  1
  Pd  Pd29  1  0.010057  0.294597  0.000000  1
  Pd  Pd30  1  0.010057  0.705403  0.000000  1
  Pd  Pd31  1  0.998846  0.000000  0.289639  1
  Pd  Pd32  1  0.998846  0.000000  0.710361  1
