# generated using pymatgen
data_La9ScIn6
_symmetry_space_group_name_H-M   'P 1'
_cell_length_a   6.24750757
_cell_length_b   9.56371775
_cell_length_c   9.56371767
_cell_angle_alpha   83.87579196
_cell_angle_beta   70.93592054
_cell_angle_gamma   70.93592342
_symmetry_Int_Tables_number   1
_chemical_formula_structural   La9ScIn6
_chemical_formula_sum   'La9 Sc1 In6'
_cell_volume   510.46424674
_cell_formula_units_Z   1
loop_
 _symmetry_equiv_pos_site_id
 _symmetry_equiv_pos_as_xyz
  1  'x, y, z'
loop_
 _atom_site_type_symbol
 _atom_site_label
 _atom_site_symmetry_multiplicity
 _atom_site_fract_x
 _atom_site_fract_y
 _atom_site_fract_z
 _atom_site_occupancy
  La  La0  1  0.728274  0.863050  0.689842  1
  La  La1  1  0.281167  0.136950  0.310158  1
  La  La2  1  0.771726  0.310158  0.136950  1
  La  La3  1  0.218833  0.689842  0.863050  1
  La  La4  1  0.581883  0.689842  0.136950  1
  La  La5  1  0.408676  0.310158  0.863050  1
  La  La6  1  0.091324  0.136950  0.689842  1
  La  La7  1  0.918117  0.863050  0.310158  1
  La  La8  1  0.750000  0.500000  0.500000  1
  Sc  Sc9  1  0.250000  0.500000  0.500000  1
  In  In10  1  0.168202  0.500000  0.186240  1
  In  In11  1  0.854442  0.500000  0.813760  1
  In  In12  1  0.331798  0.813760  0.500000  1
  In  In13  1  0.645558  0.186240  0.500000  1
  In  In14  1  0.250000  0.000000  0.000000  1
  In  In15  1  0.750000  0.000000  0.000000  1
