# generated using pymatgen
data_Tb19DyZn3Cd3Ru2
_symmetry_space_group_name_H-M   'P 1'
_cell_length_a   9.57031200
_cell_length_b   9.57231492
_cell_length_c   9.76563400
_cell_angle_alpha   90.00000000
_cell_angle_beta   90.00000000
_cell_angle_gamma   120.00692933
_symmetry_Int_Tables_number   1
_chemical_formula_structural   Tb19DyZn3Cd3Ru2
_chemical_formula_sum   'Tb19 Dy1 Zn3 Cd3 Ru2'
_cell_volume   774.71831152
_cell_formula_units_Z   1
loop_
 _symmetry_equiv_pos_site_id
 _symmetry_equiv_pos_as_xyz
  1  'x, y, z'
loop_
 _atom_site_type_symbol
 _atom_site_label
 _atom_site_symmetry_multiplicity
 _atom_site_fract_x
 _atom_site_fract_y
 _atom_site_fract_z
 _atom_site_occupancy
  Tb  Tb0  1  0.999950  0.999975  0.474182  1
  Tb  Tb1  1  0.999950  0.999975  0.025818  1
  Tb  Tb2  1  0.208350  0.791716  0.438462  1
  Tb  Tb3  1  0.208350  0.416634  0.438462  1
  Tb  Tb4  1  0.583263  0.791631  0.438507  1
  Tb  Tb5  1  0.790628  0.209316  0.557873  1
  Tb  Tb6  1  0.790628  0.581312  0.557873  1
  Tb  Tb7  1  0.418693  0.209346  0.557928  1
  Tb  Tb8  1  0.790628  0.209316  0.942127  1
  Tb  Tb9  1  0.790628  0.581312  0.942127  1
  Tb  Tb10  1  0.418693  0.209346  0.942072  1
  Tb  Tb11  1  0.208350  0.791716  0.061538  1
  Tb  Tb12  1  0.208350  0.416634  0.061538  1
  Tb  Tb13  1  0.583263  0.791631  0.061493  1
  Tb  Tb14  1  0.541496  0.458571  0.250000  1
  Tb  Tb15  1  0.541496  0.082926  0.250000  1
  Tb  Tb16  1  0.917086  0.458543  0.250000  1
  Tb  Tb17  1  0.458791  0.541120  0.750000  1
  Tb  Tb18  1  0.458791  0.917671  0.750000  1
  Dy  Dy19  1  0.082489  0.541244  0.750000  1
  Zn  Zn20  1  0.878439  0.121612  0.250000  1
  Zn  Zn21  1  0.878439  0.756829  0.250000  1
  Zn  Zn22  1  0.243162  0.121582  0.250000  1
  Cd  Cd23  1  0.110472  0.889553  0.750000  1
  Cd  Cd24  1  0.110472  0.220918  0.750000  1
  Cd  Cd25  1  0.779177  0.889588  0.750000  1
  Ru  Ru26  1  0.333392  0.666696  0.250000  1
  Ru  Ru27  1  0.666575  0.333287  0.750000  1
