# generated using pymatgen
data_Y4MnFe3(Co4P3)4
_symmetry_space_group_name_H-M   'P 1'
_cell_length_a   3.66467700
_cell_length_b   10.28445452
_cell_length_c   11.79092060
_cell_angle_alpha   89.96352948
_cell_angle_beta   90.00000000
_cell_angle_gamma   90.00000000
_symmetry_Int_Tables_number   1
_chemical_formula_structural   Y4MnFe3(Co4P3)4
_chemical_formula_sum   'Y4 Mn1 Fe3 Co16 P12'
_cell_volume   444.39032100
_cell_formula_units_Z   1
loop_
 _symmetry_equiv_pos_site_id
 _symmetry_equiv_pos_as_xyz
  1  'x, y, z'
loop_
 _atom_site_type_symbol
 _atom_site_label
 _atom_site_symmetry_multiplicity
 _atom_site_fract_x
 _atom_site_fract_y
 _atom_site_fract_z
 _atom_site_occupancy
  Y  Y0  1  0.250000  0.918406  0.203353  1
  Y  Y1  1  0.750000  0.081369  0.796531  1
  Y  Y2  1  0.750000  0.417995  0.296832  1
  Y  Y3  1  0.250000  0.581314  0.703117  1
  Mn  Mn4  1  0.250000  0.789306  0.487397  1
  Fe  Fe5  1  0.750000  0.210099  0.512273  1
  Fe  Fe6  1  0.750000  0.290049  0.012519  1
  Fe  Fe7  1  0.250000  0.710091  0.987499  1
  Co  Co8  1  0.250000  0.094021  0.987616  1
  Co  Co9  1  0.750000  0.905941  0.012432  1
  Co  Co10  1  0.750000  0.594419  0.512133  1
  Co  Co11  1  0.250000  0.406281  0.487712  1
  Co  Co12  1  0.250000  0.278862  0.676433  1
  Co  Co13  1  0.750000  0.721170  0.323942  1
  Co  Co14  1  0.750000  0.778505  0.823445  1
  Co  Co15  1  0.250000  0.221446  0.176382  1
  Co  Co16  1  0.250000  0.618153  0.197948  1
  Co  Co17  1  0.750000  0.382231  0.802031  1
  Co  Co18  1  0.750000  0.117912  0.301704  1
  Co  Co19  1  0.250000  0.882396  0.698367  1
  Co  Co20  1  0.250000  0.034072  0.433043  1
  Co  Co21  1  0.750000  0.966704  0.567347  1
  Co  Co22  1  0.750000  0.533413  0.067070  1
  Co  Co23  1  0.250000  0.466541  0.933076  1
  P  P24  1  0.250000  0.081127  0.612598  1
  P  P25  1  0.750000  0.919111  0.387397  1
  P  P26  1  0.750000  0.580910  0.887207  1
  P  P27  1  0.250000  0.419045  0.112918  1
  P  P28  1  0.250000  0.230170  0.368481  1
  P  P29  1  0.750000  0.770172  0.631597  1
  P  P30  1  0.750000  0.729825  0.131598  1
  P  P31  1  0.250000  0.270103  0.868234  1
  P  P32  1  0.250000  0.897649  0.892568  1
  P  P33  1  0.750000  0.102503  0.107546  1
  P  P34  1  0.750000  0.396970  0.607608  1
  P  P35  1  0.250000  0.601717  0.392046  1
