# generated using pymatgen
data_Pr3Co8NiP6
_symmetry_space_group_name_H-M   'P 1'
_cell_length_a   3.78830700
_cell_length_b   10.72757300
_cell_length_c   12.48303900
_cell_angle_alpha   90.00000000
_cell_angle_beta   90.00000000
_cell_angle_gamma   90.00000000
_symmetry_Int_Tables_number   1
_chemical_formula_structural   Pr3Co8NiP6
_chemical_formula_sum   'Pr6 Co16 Ni2 P12'
_cell_volume   507.30246477
_cell_formula_units_Z   2
loop_
 _symmetry_equiv_pos_site_id
 _symmetry_equiv_pos_as_xyz
  1  'x, y, z'
loop_
 _atom_site_type_symbol
 _atom_site_label
 _atom_site_symmetry_multiplicity
 _atom_site_fract_x
 _atom_site_fract_y
 _atom_site_fract_z
 _atom_site_occupancy
  Pr  Pr0  1  0.750000  0.250000  0.480815  1
  Pr  Pr1  1  0.250000  0.750000  0.519185  1
  Pr  Pr2  1  0.250000  0.935756  0.794953  1
  Pr  Pr3  1  0.250000  0.564244  0.794953  1
  Pr  Pr4  1  0.750000  0.064244  0.205047  1
  Pr  Pr5  1  0.750000  0.435756  0.205047  1
  Co  Co6  1  0.250000  0.250000  0.842436  1
  Co  Co7  1  0.750000  0.750000  0.157564  1
  Co  Co8  1  0.750000  0.250000  0.013175  1
  Co  Co9  1  0.250000  0.750000  0.986825  1
  Co  Co10  1  0.250000  0.415931  0.003847  1
  Co  Co11  1  0.250000  0.084069  0.003847  1
  Co  Co12  1  0.750000  0.584069  0.996153  1
  Co  Co13  1  0.750000  0.915931  0.996153  1
  Co  Co14  1  0.250000  0.453074  0.569745  1
  Co  Co15  1  0.250000  0.046926  0.569745  1
  Co  Co16  1  0.750000  0.546926  0.430255  1
  Co  Co17  1  0.750000  0.953074  0.430255  1
  Co  Co18  1  0.250000  0.867924  0.288748  1
  Co  Co19  1  0.250000  0.632076  0.288748  1
  Co  Co20  1  0.750000  0.132076  0.711252  1
  Co  Co21  1  0.750000  0.367924  0.711252  1
  Ni  Ni22  1  0.250000  0.250000  0.295920  1
  Ni  Ni23  1  0.750000  0.750000  0.704080  1
  P  P24  1  0.250000  0.250000  0.112117  1
  P  P25  1  0.750000  0.750000  0.887883  1
  P  P26  1  0.250000  0.250000  0.662217  1
  P  P27  1  0.750000  0.750000  0.337783  1
  P  P28  1  0.250000  0.446037  0.386911  1
  P  P29  1  0.250000  0.053963  0.386911  1
  P  P30  1  0.750000  0.553963  0.613089  1
  P  P31  1  0.750000  0.946037  0.613089  1
  P  P32  1  0.250000  0.900252  0.103092  1
  P  P33  1  0.250000  0.599748  0.103092  1
  P  P34  1  0.750000  0.099748  0.896908  1
  P  P35  1  0.750000  0.400252  0.896908  1
