# generated using pymatgen
data_Cs4K3Zr4TlTe12
_symmetry_space_group_name_H-M   'P 1'
_cell_length_a   14.90660397
_cell_length_b   6.99927919
_cell_length_c   9.81703239
_cell_angle_alpha   70.51889565
_cell_angle_beta   89.93788756
_cell_angle_gamma   90.24969261
_symmetry_Int_Tables_number   1
_chemical_formula_structural   Cs4K3Zr4TlTe12
_chemical_formula_sum   'Cs4 K3 Zr4 Tl1 Te12'
_cell_volume   965.61455113
_cell_formula_units_Z   1
loop_
 _symmetry_equiv_pos_site_id
 _symmetry_equiv_pos_as_xyz
  1  'x, y, z'
loop_
 _atom_site_type_symbol
 _atom_site_label
 _atom_site_symmetry_multiplicity
 _atom_site_fract_x
 _atom_site_fract_y
 _atom_site_fract_z
 _atom_site_occupancy
  Cs  Cs0  1  0.951937  0.656583  0.669545  1
  Cs  Cs1  1  0.452198  0.836741  0.338313  1
  Cs  Cs2  1  0.047639  0.336260  0.340711  1
  Cs  Cs3  1  0.546192  0.162622  0.661391  1
  K  K4  1  0.362429  0.439547  0.099257  1
  K  K5  1  0.135857  0.939062  0.098660  1
  K  K6  1  0.638825  0.563447  0.896573  1
  Zr  Zr7  1  0.748440  0.672538  0.284545  1
  Zr  Zr8  1  0.250278  0.826408  0.715069  1
  Zr  Zr9  1  0.251125  0.325742  0.715362  1
  Zr  Zr10  1  0.750500  0.178592  0.282435  1
  Tl  Tl11  1  0.856443  0.044677  0.919612  1
  Te  Te12  1  0.909201  0.913540  0.256007  1
  Te  Te13  1  0.411181  0.592557  0.739531  1
  Te  Te14  1  0.091740  0.087870  0.740120  1
  Te  Te15  1  0.589359  0.410205  0.256856  1
  Te  Te16  1  0.808765  0.291811  0.516944  1
  Te  Te17  1  0.311466  0.213204  0.479310  1
  Te  Te18  1  0.190528  0.711498  0.479829  1
  Te  Te19  1  0.690515  0.791780  0.516721  1
  Te  Te20  1  0.845605  0.503106  0.072569  1
  Te  Te21  1  0.344303  0.001949  0.925162  1
  Te  Te22  1  0.156944  0.500397  0.925363  1
  Te  Te23  1  0.658527  0.999864  0.070117  1
