# generated using pymatgen
data_Ac9Pr11Si15Sn
_symmetry_space_group_name_H-M   'P 1'
_cell_length_a   8.18373817
_cell_length_b   8.15708414
_cell_length_c   15.62419432
_cell_angle_alpha   90.04889216
_cell_angle_beta   89.75359143
_cell_angle_gamma   89.97270353
_symmetry_Int_Tables_number   1
_chemical_formula_structural   Ac9Pr11Si15Sn
_chemical_formula_sum   'Ac9 Pr11 Si15 Sn1'
_cell_volume   1042.98983391
_cell_formula_units_Z   1
loop_
 _symmetry_equiv_pos_site_id
 _symmetry_equiv_pos_as_xyz
  1  'x, y, z'
loop_
 _atom_site_type_symbol
 _atom_site_label
 _atom_site_symmetry_multiplicity
 _atom_site_fract_x
 _atom_site_fract_y
 _atom_site_fract_z
 _atom_site_occupancy
  Ac  Ac0  1  0.308022  0.309018  0.000312  1
  Ac  Ac1  1  0.372055  0.015538  0.450889  1
  Ac  Ac2  1  0.491280  0.865347  0.700724  1
  Ac  Ac3  1  0.514974  0.125356  0.200675  1
  Ac  Ac4  1  0.871570  0.485110  0.299126  1
  Ac  Ac5  1  0.124432  0.522376  0.801370  1
  Ac  Ac6  1  0.629803  0.984255  0.951166  1
  Ac  Ac7  1  0.008437  0.378841  0.544690  1
  Ac  Ac8  1  0.985288  0.628256  0.051067  1
  Pr  Pr9  1  0.189000  0.811666  0.250283  1
  Pr  Pr10  1  0.803347  0.188767  0.751253  1
  Pr  Pr11  1  0.685340  0.688815  0.497917  1
  Pr  Pr12  1  0.124629  0.981801  0.880193  1
  Pr  Pr13  1  0.516718  0.630117  0.127922  1
  Pr  Pr14  1  0.493261  0.378262  0.625697  1
  Pr  Pr15  1  0.631675  0.518371  0.874730  1
  Pr  Pr16  1  0.371818  0.485177  0.372764  1
  Pr  Pr17  1  0.871324  0.015148  0.377280  1
  Pr  Pr18  1  0.983685  0.127157  0.124337  1
  Pr  Pr19  1  0.006243  0.859518  0.619387  1
  Si  Si20  1  0.337336  0.702488  0.952391  1
  Si  Si21  1  0.662857  0.300589  0.452204  1
  Si  Si22  1  0.703255  0.336990  0.049283  1
  Si  Si23  1  0.301874  0.664706  0.545925  1
  Si  Si24  1  0.802236  0.835422  0.204008  1
  Si  Si25  1  0.163958  0.198575  0.297998  1
  Si  Si26  1  0.836797  0.802923  0.796527  1
  Si  Si27  1  0.284317  0.916377  0.062048  1
  Si  Si28  1  0.579123  0.784642  0.310709  1
  Si  Si29  1  0.436967  0.214970  0.811282  1
  Si  Si30  1  0.785562  0.578253  0.689736  1
  Si  Si31  1  0.213999  0.423775  0.193638  1
  Si  Si32  1  0.715001  0.079619  0.560159  1
  Si  Si33  1  0.917524  0.284693  0.939058  1
  Si  Si34  1  0.080404  0.716665  0.437963  1
  Sn  Sn35  1  0.195889  0.160420  0.695288  1
