# generated using pymatgen
data_Sm3Ag2Hg3Pt
_symmetry_space_group_name_H-M   'P 1'
_cell_length_a   8.06192400
_cell_length_b   8.06192538
_cell_length_c   3.80082900
_cell_angle_alpha   90.00000000
_cell_angle_beta   90.00000000
_cell_angle_gamma   120.00000256
_symmetry_Int_Tables_number   1
_chemical_formula_structural   Sm3Ag2Hg3Pt
_chemical_formula_sum   'Sm3 Ag2 Hg3 Pt1'
_cell_volume   213.93725799
_cell_formula_units_Z   1
loop_
 _symmetry_equiv_pos_site_id
 _symmetry_equiv_pos_as_xyz
  1  'x, y, z'
loop_
 _atom_site_type_symbol
 _atom_site_label
 _atom_site_symmetry_multiplicity
 _atom_site_fract_x
 _atom_site_fract_y
 _atom_site_fract_z
 _atom_site_occupancy
  Sm  Sm0  1  0.586379  0.976031  0.500000  1
  Sm  Sm1  1  0.023969  0.610349  0.500000  1
  Sm  Sm2  1  0.389651  0.413621  0.500000  1
  Ag  Ag3  1  0.000000  0.000000  0.500000  1
  Ag  Ag4  1  0.666667  0.333333  0.000000  1
  Hg  Hg5  1  0.278839  0.009616  0.000000  1
  Hg  Hg6  1  0.730777  0.721161  0.000000  1
  Hg  Hg7  1  0.990384  0.269223  0.000000  1
  Pt  Pt8  1  0.333333  0.666667  0.000000  1
