# generated using pymatgen
data_TaTi5(NbAs)8
_symmetry_space_group_name_H-M   'P 1'
_cell_length_a   3.55460800
_cell_length_b   7.82284278
_cell_length_c   14.10053163
_cell_angle_alpha   103.69549686
_cell_angle_beta   90.00000000
_cell_angle_gamma   103.13193484
_symmetry_Int_Tables_number   1
_chemical_formula_structural   TaTi5(NbAs)8
_chemical_formula_sum   'Ta1 Ti5 Nb8 As8'
_cell_volume   370.38530035
_cell_formula_units_Z   1
loop_
 _symmetry_equiv_pos_site_id
 _symmetry_equiv_pos_as_xyz
  1  'x, y, z'
loop_
 _atom_site_type_symbol
 _atom_site_label
 _atom_site_symmetry_multiplicity
 _atom_site_fract_x
 _atom_site_fract_y
 _atom_site_fract_z
 _atom_site_occupancy
  Ta  Ta0  1  0.430775  0.861552  0.827422  1
  Ti  Ti1  1  0.568786  0.137571  0.173641  1
  Ti  Ti2  1  0.197972  0.395944  0.308233  1
  Ti  Ti3  1  0.803266  0.606531  0.692055  1
  Ti  Ti4  1  0.212358  0.424717  0.796539  1
  Ti  Ti5  1  0.788643  0.577287  0.201971  1
  Nb  Nb6  1  0.999359  0.998718  0.999075  1
  Nb  Nb7  1  0.500196  0.000393  0.500017  1
  Nb  Nb8  1  0.335042  0.670083  0.030599  1
  Nb  Nb9  1  0.665638  0.331278  0.970886  1
  Nb  Nb10  1  0.999198  0.998395  0.661884  1
  Nb  Nb11  1  0.999988  0.999977  0.339479  1
  Nb  Nb12  1  0.178362  0.356723  0.544366  1
  Nb  Nb13  1  0.821002  0.642005  0.454732  1
  As  As14  1  0.174266  0.348532  0.114355  1
  As  As15  1  0.822657  0.645316  0.887325  1
  As  As16  1  0.367918  0.735839  0.602609  1
  As  As17  1  0.631369  0.262735  0.395078  1
  As  As18  1  0.369259  0.738518  0.332233  1
  As  As19  1  0.631080  0.262161  0.667330  1
  As  As20  1  0.067008  0.134017  0.847173  1
  As  As21  1  0.935857  0.871711  0.152998  1
