# generated using pymatgen
data_Cs8V7WN16
_symmetry_space_group_name_H-M   'P 1'
_cell_length_a   5.97293470
_cell_length_b   8.46601918
_cell_length_c   11.95249600
_cell_angle_alpha   90.00000000
_cell_angle_beta   90.00000000
_cell_angle_gamma   89.98406576
_symmetry_Int_Tables_number   1
_chemical_formula_structural   Cs8V7WN16
_chemical_formula_sum   'Cs8 V7 W1 N16'
_cell_volume   604.40159931
_cell_formula_units_Z   1
loop_
 _symmetry_equiv_pos_site_id
 _symmetry_equiv_pos_as_xyz
  1  'x, y, z'
loop_
 _atom_site_type_symbol
 _atom_site_label
 _atom_site_symmetry_multiplicity
 _atom_site_fract_x
 _atom_site_fract_y
 _atom_site_fract_z
 _atom_site_occupancy
  Cs  Cs0  1  0.748704  0.125180  0.999918  1
  Cs  Cs1  1  0.248356  0.870396  0.493691  1
  Cs  Cs2  1  0.248356  0.870396  0.006309  1
  Cs  Cs3  1  0.748704  0.125180  0.500082  1
  Cs  Cs4  1  0.739879  0.373071  0.250000  1
  Cs  Cs5  1  0.239269  0.622953  0.250000  1
  Cs  Cs6  1  0.263045  0.626465  0.750000  1
  Cs  Cs7  1  0.763221  0.386439  0.750000  1
  V  V8  1  0.248677  0.378941  0.004757  1
  V  V9  1  0.748550  0.625116  0.497189  1
  V  V10  1  0.748550  0.625116  0.002811  1
  V  V11  1  0.248677  0.378941  0.495243  1
  V  V12  1  0.243099  0.125299  0.250000  1
  V  V13  1  0.743253  0.877327  0.250000  1
  V  V14  1  0.759551  0.864639  0.750000  1
  W  W15  1  0.259404  0.124473  0.750000  1
  N  N16  1  0.989225  0.004916  0.250000  1
  N  N17  1  0.489414  0.997154  0.250000  1
  N  N18  1  0.016804  0.984641  0.750000  1
  N  N19  1  0.521774  0.003621  0.750000  1
  N  N20  1  0.247399  0.251653  0.373623  1
  N  N21  1  0.747533  0.752889  0.124512  1
  N  N22  1  0.750376  0.743971  0.873839  1
  N  N23  1  0.250042  0.253083  0.622476  1
  N  N24  1  0.750376  0.743971  0.626161  1
  N  N25  1  0.250042  0.253083  0.877524  1
  N  N26  1  0.247399  0.251653  0.126377  1
  N  N27  1  0.747533  0.752889  0.375488  1
  N  N28  1  0.497441  0.501934  0.495530  1
  N  N29  1  0.998955  0.501337  0.004343  1
  N  N30  1  0.497441  0.501934  0.004470  1
  N  N31  1  0.998955  0.501337  0.495657  1
