# generated using pymatgen
data_Nd2MnNiIr2
_symmetry_space_group_name_H-M   'P 1'
_cell_length_a   5.45957525
_cell_length_b   5.45957454
_cell_length_c   5.21501418
_cell_angle_alpha   59.47128045
_cell_angle_beta   59.47128059
_cell_angle_gamma   61.60062629
_symmetry_Int_Tables_number   1
_chemical_formula_structural   Nd2MnNiIr2
_chemical_formula_sum   'Nd2 Mn1 Ni1 Ir2'
_cell_volume   110.26345890
_cell_formula_units_Z   1
loop_
 _symmetry_equiv_pos_site_id
 _symmetry_equiv_pos_as_xyz
  1  'x, y, z'
loop_
 _atom_site_type_symbol
 _atom_site_label
 _atom_site_symmetry_multiplicity
 _atom_site_fract_x
 _atom_site_fract_y
 _atom_site_fract_z
 _atom_site_occupancy
  Nd  Nd0  1  0.125779  0.125779  0.123901  1
  Nd  Nd1  1  0.874221  0.874221  0.876099  1
  Mn  Mn2  1  0.500000  0.500000  0.000000  1
  Ni  Ni3  1  0.500000  0.500000  0.500000  1
  Ir  Ir4  1  0.500000  0.000000  0.500000  1
  Ir  Ir5  1  0.000000  0.500000  0.500000  1
