# generated using pymatgen
data_Nb8Fe2Co6Si13Ge
_symmetry_space_group_name_H-M   'P 1'
_cell_length_a   9.25532131
_cell_length_b   9.26892333
_cell_length_c   9.28865290
_cell_angle_alpha   94.26620575
_cell_angle_beta   94.18830055
_cell_angle_gamma   148.44657750
_symmetry_Int_Tables_number   1
_chemical_formula_structural   Nb8Fe2Co6Si13Ge
_chemical_formula_sum   'Nb8 Fe2 Co6 Si13 Ge1'
_cell_volume   401.36625236
_cell_formula_units_Z   1
loop_
 _symmetry_equiv_pos_site_id
 _symmetry_equiv_pos_as_xyz
  1  'x, y, z'
loop_
 _atom_site_type_symbol
 _atom_site_label
 _atom_site_symmetry_multiplicity
 _atom_site_fract_x
 _atom_site_fract_y
 _atom_site_fract_z
 _atom_site_occupancy
  Nb  Nb0  1  0.132955  0.132955  0.265909  1
  Nb  Nb1  1  0.867056  0.867056  0.734113  1
  Nb  Nb2  1  0.865288  0.134544  0.999996  1
  Nb  Nb3  1  0.134709  0.865453  0.999996  1
  Nb  Nb4  1  0.499080  0.690895  0.190752  1
  Nb  Nb5  1  0.502666  0.308558  0.811740  1
  Nb  Nb6  1  0.309074  0.503183  0.811740  1
  Nb  Nb7  1  0.691672  0.499857  0.190752  1
  Fe  Fe8  1  0.900327  0.400327  0.800655  1
  Fe  Fe9  1  0.599926  0.099926  0.199853  1
  Co  Co10  1  0.398704  0.898704  0.797407  1
  Co  Co11  1  0.101488  0.601488  0.202977  1
  Co  Co12  1  0.100849  0.893212  0.497994  1
  Co  Co13  1  0.397145  0.604782  0.497994  1
  Co  Co14  1  0.603069  0.400326  0.498013  1
  Co  Co15  1  0.894944  0.097687  0.498013  1
  Si  Si16  1  0.707717  0.707717  0.415435  1
  Si  Si17  1  0.709426  0.291264  0.000765  1
  Si  Si18  1  0.291339  0.709501  0.000765  1
  Si  Si19  1  0.995415  0.292669  0.295556  1
  Si  Si20  1  0.997181  0.699803  0.703610  1
  Si  Si21  1  0.706430  0.003807  0.703610  1
  Si  Si22  1  0.300142  0.002887  0.295556  1
  Si  Si23  1  0.504744  0.913125  0.404134  1
  Si  Si24  1  0.508803  0.101216  0.596040  1
  Si  Si25  1  0.087237  0.494824  0.596040  1
  Si  Si26  1  0.899390  0.491009  0.404134  1
  Si  Si27  1  0.750760  0.750754  0.000018  1
  Si  Si28  1  0.249258  0.249264  0.000018  1
  Ge  Ge29  1  0.293206  0.293206  0.586412  1
