# generated using pymatgen
data_Tb2Sm2ReB12Os
_symmetry_space_group_name_H-M   'P 1'
_cell_length_a   3.71202200
_cell_length_b   9.24082687
_cell_length_c   11.65705003
_cell_angle_alpha   90.13894934
_cell_angle_beta   90.00000000
_cell_angle_gamma   90.00000000
_symmetry_Int_Tables_number   1
_chemical_formula_structural   Tb2Sm2ReB12Os
_chemical_formula_sum   'Tb4 Sm4 Re2 B24 Os2'
_cell_volume   399.86073370
_cell_formula_units_Z   2
loop_
 _symmetry_equiv_pos_site_id
 _symmetry_equiv_pos_as_xyz
  1  'x, y, z'
loop_
 _atom_site_type_symbol
 _atom_site_label
 _atom_site_symmetry_multiplicity
 _atom_site_fract_x
 _atom_site_fract_y
 _atom_site_fract_z
 _atom_site_occupancy
  Tb  Tb0  1  0.000000  0.943006  0.370225  1
  Tb  Tb1  1  0.000000  0.056994  0.629775  1
  Tb  Tb2  1  0.000000  0.442156  0.129302  1
  Tb  Tb3  1  0.000000  0.557844  0.870698  1
  Sm  Sm4  1  0.000000  0.321409  0.412837  1
  Sm  Sm5  1  0.000000  0.678591  0.587163  1
  Sm  Sm6  1  0.000000  0.824467  0.084974  1
  Sm  Sm7  1  0.000000  0.175533  0.915026  1
  Re  Re8  1  0.000000  0.138391  0.180100  1
  Re  Re9  1  0.000000  0.861609  0.819900  1
  B  B10  1  0.500000  0.554450  0.431664  1
  B  B11  1  0.500000  0.445550  0.568336  1
  B  B12  1  0.500000  0.053886  0.068235  1
  B  B13  1  0.500000  0.946114  0.931765  1
  B  B14  1  0.500000  0.748090  0.417309  1
  B  B15  1  0.500000  0.251910  0.582691  1
  B  B16  1  0.500000  0.248052  0.082649  1
  B  B17  1  0.500000  0.751948  0.917351  1
  B  B18  1  0.500000  0.789354  0.266509  1
  B  B19  1  0.500000  0.210646  0.733491  1
  B  B20  1  0.500000  0.290267  0.234039  1
  B  B21  1  0.500000  0.709733  0.765961  1
  B  B22  1  0.500000  0.630323  0.186862  1
  B  B23  1  0.500000  0.369677  0.813138  1
  B  B24  1  0.500000  0.130802  0.314108  1
  B  B25  1  0.500000  0.869198  0.685892  1
  B  B26  1  0.500000  0.984264  0.212825  1
  B  B27  1  0.500000  0.015736  0.787175  1
  B  B28  1  0.500000  0.484280  0.287708  1
  B  B29  1  0.500000  0.515720  0.712292  1
  B  B30  1  0.500000  0.601675  0.028367  1
  B  B31  1  0.500000  0.398325  0.971633  1
  B  B32  1  0.500000  0.102292  0.471788  1
  B  B33  1  0.500000  0.897708  0.528212  1
  Os  Os34  1  0.000000  0.637595  0.321192  1
  Os  Os35  1  0.000000  0.362405  0.678808  1
