# generated using pymatgen
data_La9Nd6Ho(CdIr)4
_symmetry_space_group_name_H-M   'P 1'
_cell_length_a   10.02450050
_cell_length_b   10.02450052
_cell_length_c   10.04454400
_cell_angle_alpha   59.93383007
_cell_angle_beta   59.93383003
_cell_angle_gamma   60.11603250
_symmetry_Int_Tables_number   1
_chemical_formula_structural   La9Nd6Ho(CdIr)4
_chemical_formula_sum   'La9 Nd6 Ho1 Cd4 Ir4'
_cell_volume   713.64832586
_cell_formula_units_Z   1
loop_
 _symmetry_equiv_pos_site_id
 _symmetry_equiv_pos_as_xyz
  1  'x, y, z'
loop_
 _atom_site_type_symbol
 _atom_site_label
 _atom_site_symmetry_multiplicity
 _atom_site_fract_x
 _atom_site_fract_y
 _atom_site_fract_z
 _atom_site_occupancy
  La  La0  1  0.347273  0.347273  0.348117  1
  La  La1  1  0.347273  0.347273  0.957337  1
  La  La2  1  0.353127  0.955955  0.345459  1
  La  La3  1  0.955955  0.353127  0.345459  1
  La  La4  1  0.809069  0.186511  0.192611  1
  La  La5  1  0.186511  0.809069  0.811809  1
  La  La6  1  0.186511  0.809069  0.192611  1
  La  La7  1  0.809069  0.186511  0.811809  1
  La  La8  1  0.191051  0.191051  0.808949  1
  Nd  Nd9  1  0.934436  0.566039  0.562255  1
  Nd  Nd10  1  0.566039  0.934436  0.937270  1
  Nd  Nd11  1  0.566039  0.934436  0.562255  1
  Nd  Nd12  1  0.934436  0.566039  0.937270  1
  Nd  Nd13  1  0.563287  0.563287  0.936713  1
  Nd  Nd14  1  0.938494  0.938494  0.561506  1
  Ho  Ho15  1  0.806525  0.806525  0.193475  1
  Cd  Cd16  1  0.581710  0.581710  0.578337  1
  Cd  Cd17  1  0.581710  0.581710  0.258243  1
  Cd  Cd18  1  0.581252  0.256790  0.580979  1
  Cd  Cd19  1  0.256790  0.581252  0.580979  1
  Ir  Ir20  1  0.141435  0.141435  0.140334  1
  Ir  Ir21  1  0.141435  0.141435  0.576795  1
  Ir  Ir22  1  0.139672  0.580900  0.139713  1
  Ir  Ir23  1  0.580900  0.139672  0.139713  1
