# generated using pymatgen
data_Ti7Nb5Al8(AuC)4
_symmetry_space_group_name_H-M   'P 1'
_cell_length_a   8.37736580
_cell_length_b   8.37488755
_cell_length_c   8.37613652
_cell_angle_alpha   60.01557170
_cell_angle_beta   59.92386893
_cell_angle_gamma   60.01496626
_symmetry_Int_Tables_number   1
_chemical_formula_structural   Ti7Nb5Al8(AuC)4
_chemical_formula_sum   'Ti7 Nb5 Al8 Au4 C4'
_cell_volume   415.39837380
_cell_formula_units_Z   1
loop_
 _symmetry_equiv_pos_site_id
 _symmetry_equiv_pos_as_xyz
  1  'x, y, z'
loop_
 _atom_site_type_symbol
 _atom_site_label
 _atom_site_symmetry_multiplicity
 _atom_site_fract_x
 _atom_site_fract_y
 _atom_site_fract_z
 _atom_site_occupancy
  Ti  Ti0  1  0.320729  0.679644  0.321506  1
  Ti  Ti1  1  0.571626  0.928503  0.570613  1
  Ti  Ti2  1  0.571438  0.928177  0.930273  1
  Ti  Ti3  1  0.929438  0.571574  0.569920  1
  Ti  Ti4  1  0.928438  0.571867  0.929554  1
  Ti  Ti5  1  0.319346  0.321766  0.680454  1
  Ti  Ti6  1  0.570683  0.570640  0.929868  1
  Nb  Nb7  1  0.930270  0.928475  0.570704  1
  Nb  Nb8  1  0.681423  0.321097  0.319271  1
  Nb  Nb9  1  0.318077  0.680088  0.680471  1
  Nb  Nb10  1  0.680636  0.677951  0.319367  1
  Nb  Nb11  1  0.679952  0.320670  0.678247  1
  Al  Al12  1  0.911955  0.262328  0.913370  1
  Al  Al13  1  0.334916  0.335820  0.992417  1
  Al  Al14  1  0.995301  0.334383  0.334654  1
  Al  Al15  1  0.336035  0.337643  0.336943  1
  Al  Al16  1  0.261605  0.912127  0.912843  1
  Al  Al17  1  0.913166  0.912278  0.914240  1
  Al  Al18  1  0.912704  0.913402  0.259682  1
  Al  Al19  1  0.334711  0.991578  0.335930  1
  Au  Au20  1  0.126449  0.624919  0.126188  1
  Au  Au21  1  0.126901  0.126987  0.625710  1
  Au  Au22  1  0.623779  0.125561  0.125351  1
  Au  Au23  1  0.127802  0.124162  0.121262  1
  C  C24  1  0.616981  0.122271  0.629918  1
  C  C25  1  0.622025  0.629307  0.118245  1
  C  C26  1  0.126163  0.618176  0.624252  1
  C  C27  1  0.627452  0.628606  0.628748  1
