# generated using pymatgen
data_EuHf2PtF15
_symmetry_space_group_name_H-M   'P 1'
_cell_length_a   8.11260125
_cell_length_b   8.11260180
_cell_length_c   8.08378600
_cell_angle_alpha   79.66521356
_cell_angle_beta   79.66522003
_cell_angle_gamma   99.74154727
_symmetry_Int_Tables_number   1
_chemical_formula_structural   EuHf2PtF15
_chemical_formula_sum   'Eu2 Hf4 Pt2 F30'
_cell_volume   503.63489922
_cell_formula_units_Z   2
loop_
 _symmetry_equiv_pos_site_id
 _symmetry_equiv_pos_as_xyz
  1  'x, y, z'
loop_
 _atom_site_type_symbol
 _atom_site_label
 _atom_site_symmetry_multiplicity
 _atom_site_fract_x
 _atom_site_fract_y
 _atom_site_fract_z
 _atom_site_occupancy
  Eu  Eu0  1  0.177136  0.822864  0.250000  1
  Eu  Eu1  1  0.822864  0.177136  0.750000  1
  Hf  Hf2  1  0.738025  0.678209  0.668649  1
  Hf  Hf3  1  0.321791  0.261975  0.831351  1
  Hf  Hf4  1  0.261975  0.321791  0.331351  1
  Hf  Hf5  1  0.678209  0.738025  0.168649  1
  Pt  Pt6  1  0.749354  0.250646  0.250000  1
  Pt  Pt7  1  0.250646  0.749354  0.750000  1
  F  F8  1  0.315076  0.351985  0.059308  1
  F  F9  1  0.928747  0.811496  0.151074  1
  F  F10  1  0.834950  0.467099  0.688689  1
  F  F11  1  0.467099  0.834950  0.188689  1
  F  F12  1  0.811496  0.928747  0.651074  1
  F  F13  1  0.351985  0.315076  0.559307  1
  F  F14  1  0.684924  0.648015  0.940692  1
  F  F15  1  0.071253  0.188504  0.848926  1
  F  F16  1  0.165050  0.532901  0.311311  1
  F  F17  1  0.532901  0.165050  0.811311  1
  F  F18  1  0.188504  0.071253  0.348926  1
  F  F19  1  0.648015  0.684924  0.440692  1
  F  F20  1  0.771448  0.288552  0.001460  1
  F  F21  1  0.998300  0.274610  0.206543  1
  F  F22  1  0.790697  0.504798  0.218937  1
  F  F23  1  0.504798  0.790697  0.718937  1
  F  F24  1  0.274610  0.998300  0.706543  1
  F  F25  1  0.288552  0.771448  0.501460  1
  F  F26  1  0.228552  0.711448  0.998540  1
  F  F27  1  0.001700  0.725390  0.793457  1
  F  F28  1  0.209303  0.495202  0.781063  1
  F  F29  1  0.495202  0.209303  0.281063  1
  F  F30  1  0.725390  0.001700  0.293457  1
  F  F31  1  0.711448  0.228552  0.498540  1
  F  F32  1  0.477973  0.522027  0.250000  1
  F  F33  1  0.742094  0.949150  0.978292  1
  F  F34  1  0.050850  0.257906  0.521708  1
  F  F35  1  0.257906  0.050850  0.021708  1
  F  F36  1  0.949150  0.742094  0.478292  1
  F  F37  1  0.522027  0.477973  0.750000  1
