# generated using pymatgen
data_YbDy(HoOs4)2
_symmetry_space_group_name_H-M   'P 1'
_cell_length_a   5.32464300
_cell_length_b   5.32464179
_cell_length_c   8.78171500
_cell_angle_alpha   90.00000000
_cell_angle_beta   90.00000000
_cell_angle_gamma   120.00000128
_symmetry_Int_Tables_number   1
_chemical_formula_structural   YbDy(HoOs4)2
_chemical_formula_sum   'Yb1 Dy1 Ho2 Os8'
_cell_volume   215.62090092
_cell_formula_units_Z   1
loop_
 _symmetry_equiv_pos_site_id
 _symmetry_equiv_pos_as_xyz
  1  'x, y, z'
loop_
 _atom_site_type_symbol
 _atom_site_label
 _atom_site_symmetry_multiplicity
 _atom_site_fract_x
 _atom_site_fract_y
 _atom_site_fract_z
 _atom_site_occupancy
  Yb  Yb0  1  0.333333  0.666667  0.063153  1
  Dy  Dy1  1  0.333333  0.666667  0.429601  1
  Ho  Ho2  1  0.666667  0.333333  0.565788  1
  Ho  Ho3  1  0.666667  0.333333  0.938831  1
  Os  Os4  1  0.000000  0.000000  0.500933  1
  Os  Os5  1  0.000000  0.000000  0.000793  1
  Os  Os6  1  0.827811  0.172189  0.250206  1
  Os  Os7  1  0.827811  0.655622  0.250206  1
  Os  Os8  1  0.344378  0.172189  0.250206  1
  Os  Os9  1  0.173005  0.826995  0.750094  1
  Os  Os10  1  0.173005  0.346008  0.750094  1
  Os  Os11  1  0.653992  0.826995  0.750094  1
