# generated using pymatgen
data_Tb3MnCo7TcP6
_symmetry_space_group_name_H-M   'P 1'
_cell_length_a   3.75222700
_cell_length_b   10.60385500
_cell_length_c   12.17998000
_cell_angle_alpha   90.00000000
_cell_angle_beta   90.00000000
_cell_angle_gamma   90.00000000
_symmetry_Int_Tables_number   1
_chemical_formula_structural   Tb3MnCo7TcP6
_chemical_formula_sum   'Tb6 Mn2 Co14 Tc2 P12'
_cell_volume   484.61790945
_cell_formula_units_Z   2
loop_
 _symmetry_equiv_pos_site_id
 _symmetry_equiv_pos_as_xyz
  1  'x, y, z'
loop_
 _atom_site_type_symbol
 _atom_site_label
 _atom_site_symmetry_multiplicity
 _atom_site_fract_x
 _atom_site_fract_y
 _atom_site_fract_z
 _atom_site_occupancy
  Tb  Tb0  1  0.000000  0.500000  0.524820  1
  Tb  Tb1  1  0.500000  0.000000  0.475180  1
  Tb  Tb2  1  0.500000  0.818527  0.203376  1
  Tb  Tb3  1  0.500000  0.181473  0.203376  1
  Tb  Tb4  1  0.000000  0.681473  0.796624  1
  Tb  Tb5  1  0.000000  0.318527  0.796624  1
  Mn  Mn6  1  0.000000  0.500000  0.986984  1
  Mn  Mn7  1  0.500000  0.000000  0.013016  1
  Co  Co8  1  0.500000  0.500000  0.697945  1
  Co  Co9  1  0.000000  0.000000  0.302055  1
  Co  Co10  1  0.500000  0.330680  0.991207  1
  Co  Co11  1  0.500000  0.669320  0.991207  1
  Co  Co12  1  0.000000  0.169320  0.008793  1
  Co  Co13  1  0.000000  0.830680  0.008793  1
  Co  Co14  1  0.500000  0.295696  0.431042  1
  Co  Co15  1  0.500000  0.704304  0.431042  1
  Co  Co16  1  0.000000  0.204304  0.568958  1
  Co  Co17  1  0.000000  0.795696  0.568958  1
  Co  Co18  1  0.500000  0.879460  0.706865  1
  Co  Co19  1  0.500000  0.120540  0.706865  1
  Co  Co20  1  0.000000  0.620540  0.293135  1
  Co  Co21  1  0.000000  0.379460  0.293135  1
  Tc  Tc22  1  0.500000  0.500000  0.155826  1
  Tc  Tc23  1  0.000000  0.000000  0.844174  1
  P  P24  1  0.500000  0.500000  0.882825  1
  P  P25  1  0.000000  0.000000  0.117175  1
  P  P26  1  0.500000  0.500000  0.346676  1
  P  P27  1  0.000000  0.000000  0.653324  1
  P  P28  1  0.500000  0.309405  0.616564  1
  P  P29  1  0.500000  0.690595  0.616564  1
  P  P30  1  0.000000  0.190595  0.383436  1
  P  P31  1  0.000000  0.809405  0.383436  1
  P  P32  1  0.500000  0.847146  0.895315  1
  P  P33  1  0.500000  0.152854  0.895315  1
  P  P34  1  0.000000  0.652854  0.104685  1
  P  P35  1  0.000000  0.347146  0.104685  1
