# generated using pymatgen
data_Er2U(GaCo)3
_symmetry_space_group_name_H-M   'P 1'
_cell_length_a   3.54040000
_cell_length_b   7.04018498
_cell_length_c   7.15339240
_cell_angle_alpha   120.63594757
_cell_angle_beta   90.00000000
_cell_angle_gamma   90.00000000
_symmetry_Int_Tables_number   1
_chemical_formula_structural   Er2U(GaCo)3
_chemical_formula_sum   'Er2 U1 Ga3 Co3'
_cell_volume   153.41230727
_cell_formula_units_Z   1
loop_
 _symmetry_equiv_pos_site_id
 _symmetry_equiv_pos_as_xyz
  1  'x, y, z'
loop_
 _atom_site_type_symbol
 _atom_site_label
 _atom_site_symmetry_multiplicity
 _atom_site_fract_x
 _atom_site_fract_y
 _atom_site_fract_z
 _atom_site_occupancy
  Er  Er0  1  0.500000  0.591146  0.002081  1
  Er  Er1  1  0.500000  0.408640  0.410917  1
  U  U2  1  0.500000  0.000108  0.579528  1
  Ga  Ga3  1  0.000000  0.255810  0.004826  1
  Ga  Ga4  1  0.000000  0.744086  0.748999  1
  Ga  Ga5  1  0.000000  0.000032  0.235342  1
  Co  Co6  1  0.000000  0.283683  0.658815  1
  Co  Co7  1  0.000000  0.716402  0.375137  1
  Co  Co8  1  0.500000  0.999994  0.984357  1
