# generated using pymatgen
data_Dy7HoIn2PtRh
_symmetry_space_group_name_H-M   'P 1'
_cell_length_a   9.69667927
_cell_length_b   9.69216457
_cell_length_c   9.69136898
_cell_angle_alpha   59.97184888
_cell_angle_beta   59.98334311
_cell_angle_gamma   59.97092727
_symmetry_Int_Tables_number   1
_chemical_formula_structural   Dy7HoIn2PtRh
_chemical_formula_sum   'Dy14 Ho2 In4 Pt2 Rh2'
_cell_volume   643.68195421
_cell_formula_units_Z   2
loop_
 _symmetry_equiv_pos_site_id
 _symmetry_equiv_pos_as_xyz
  1  'x, y, z'
loop_
 _atom_site_type_symbol
 _atom_site_label
 _atom_site_symmetry_multiplicity
 _atom_site_fract_x
 _atom_site_fract_y
 _atom_site_fract_z
 _atom_site_occupancy
  Dy  Dy0  1  0.310432  0.692727  0.309888  1
  Dy  Dy1  1  0.938705  0.937171  0.561667  1
  Dy  Dy2  1  0.150370  0.146177  0.552956  1
  Dy  Dy3  1  0.562442  0.937104  0.561453  1
  Dy  Dy4  1  0.152766  0.149388  0.149410  1
  Dy  Dy5  1  0.310244  0.309939  0.692715  1
  Dy  Dy6  1  0.938934  0.561003  0.560830  1
  Dy  Dy7  1  0.562358  0.561571  0.937286  1
  Dy  Dy8  1  0.562991  0.936923  0.937279  1
  Dy  Dy9  1  0.938653  0.561674  0.937413  1
  Dy  Dy10  1  0.150162  0.553112  0.146240  1
  Dy  Dy11  1  0.311076  0.689203  0.688908  1
  Dy  Dy12  1  0.687167  0.310096  0.692554  1
  Dy  Dy13  1  0.548693  0.149060  0.149404  1
  Ho  Ho14  1  0.690576  0.309605  0.309438  1
  Ho  Ho15  1  0.687151  0.692538  0.310003  1
  In  In16  1  0.916784  0.917689  0.248661  1
  In  In17  1  0.248722  0.917312  0.917381  1
  In  In18  1  0.916800  0.248632  0.917732  1
  In  In19  1  0.916526  0.917277  0.917428  1
  Pt  Pt20  1  0.356602  0.357782  0.357831  1
  Pt  Pt21  1  0.927370  0.358440  0.357691  1
  Rh  Rh22  1  0.357002  0.358927  0.926956  1
  Rh  Rh23  1  0.357473  0.926647  0.358873  1
