# generated using pymatgen
data_DyHo9(Pb3Cl)2
_symmetry_space_group_name_H-M   'P 1'
_cell_length_a   9.16492700
_cell_length_b   9.16735813
_cell_length_c   6.59168300
_cell_angle_alpha   90.00000000
_cell_angle_beta   90.00000000
_cell_angle_gamma   119.99122422
_symmetry_Int_Tables_number   1
_chemical_formula_structural   DyHo9(Pb3Cl)2
_chemical_formula_sum   'Dy1 Ho9 Pb6 Cl2'
_cell_volume   479.66557557
_cell_formula_units_Z   1
loop_
 _symmetry_equiv_pos_site_id
 _symmetry_equiv_pos_as_xyz
  1  'x, y, z'
loop_
 _atom_site_type_symbol
 _atom_site_label
 _atom_site_symmetry_multiplicity
 _atom_site_fract_x
 _atom_site_fract_y
 _atom_site_fract_z
 _atom_site_occupancy
  Dy  Dy0  1  0.259940  0.000000  0.750000  1
  Ho  Ho1  1  0.739853  0.000000  0.250000  1
  Ho  Ho2  1  0.999982  0.260054  0.750000  1
  Ho  Ho3  1  0.999998  0.739864  0.250000  1
  Ho  Ho4  1  0.739928  0.739946  0.750000  1
  Ho  Ho5  1  0.260135  0.260136  0.250000  1
  Ho  Ho6  1  0.333345  0.666627  0.499977  1
  Ho  Ho7  1  0.666719  0.333373  0.499977  1
  Ho  Ho8  1  0.666719  0.333373  0.000023  1
  Ho  Ho9  1  0.333345  0.666627  0.000023  1
  Pb  Pb10  1  0.609912  0.000000  0.750000  1
  Pb  Pb11  1  0.390375  0.000000  0.250000  1
  Pb  Pb12  1  0.999757  0.609355  0.750000  1
  Pb  Pb13  1  0.000070  0.390358  0.250000  1
  Pb  Pb14  1  0.390402  0.390645  0.750000  1
  Pb  Pb15  1  0.609712  0.609642  0.250000  1
  Cl  Cl16  1  0.999904  0.000000  0.499847  1
  Cl  Cl17  1  0.999904  0.000000  0.000153  1
