# generated using pymatgen
data_Tb2Dy6Re3B24Ru
_symmetry_space_group_name_H-M   'P 1'
_cell_length_a   3.68756400
_cell_length_b   9.17813643
_cell_length_c   11.56463209
_cell_angle_alpha   89.88993985
_cell_angle_beta   90.00000000
_cell_angle_gamma   90.00000000
_symmetry_Int_Tables_number   1
_chemical_formula_structural   Tb2Dy6Re3B24Ru
_chemical_formula_sum   'Tb2 Dy6 Re3 B24 Ru1'
_cell_volume   391.40385189
_cell_formula_units_Z   1
loop_
 _symmetry_equiv_pos_site_id
 _symmetry_equiv_pos_as_xyz
  1  'x, y, z'
loop_
 _atom_site_type_symbol
 _atom_site_label
 _atom_site_symmetry_multiplicity
 _atom_site_fract_x
 _atom_site_fract_y
 _atom_site_fract_z
 _atom_site_occupancy
  Tb  Tb0  1  0.000000  0.323276  0.413629  1
  Tb  Tb1  1  0.000000  0.675142  0.584454  1
  Dy  Dy2  1  0.000000  0.823066  0.087644  1
  Dy  Dy3  1  0.000000  0.177781  0.914138  1
  Dy  Dy4  1  0.000000  0.943014  0.370914  1
  Dy  Dy5  1  0.000000  0.056872  0.630763  1
  Dy  Dy6  1  0.000000  0.443497  0.129116  1
  Dy  Dy7  1  0.000000  0.558449  0.869789  1
  Re  Re8  1  0.000000  0.638358  0.320690  1
  Re  Re9  1  0.000000  0.361537  0.679802  1
  Re  Re10  1  0.000000  0.137633  0.177949  1
  B  B11  1  0.500000  0.552902  0.432535  1
  B  B12  1  0.500000  0.446645  0.567018  1
  B  B13  1  0.500000  0.052698  0.066698  1
  B  B14  1  0.500000  0.946164  0.932737  1
  B  B15  1  0.500000  0.748349  0.418432  1
  B  B16  1  0.500000  0.250683  0.581763  1
  B  B17  1  0.500000  0.248868  0.080951  1
  B  B18  1  0.500000  0.752071  0.918523  1
  B  B19  1  0.500000  0.791830  0.265697  1
  B  B20  1  0.500000  0.208431  0.735077  1
  B  B21  1  0.500000  0.291487  0.233825  1
  B  B22  1  0.500000  0.709649  0.765879  1
  B  B23  1  0.500000  0.631565  0.185446  1
  B  B24  1  0.500000  0.368951  0.814955  1
  B  B25  1  0.500000  0.130591  0.313701  1
  B  B26  1  0.500000  0.868687  0.686211  1
  B  B27  1  0.500000  0.981965  0.211862  1
  B  B28  1  0.500000  0.016215  0.788512  1
  B  B29  1  0.500000  0.482765  0.287336  1
  B  B30  1  0.500000  0.517164  0.711979  1
  B  B31  1  0.500000  0.603030  0.028253  1
  B  B32  1  0.500000  0.399361  0.971254  1
  B  B33  1  0.500000  0.101261  0.472248  1
  B  B34  1  0.500000  0.898298  0.529012  1
  Ru  Ru35  1  0.000000  0.861745  0.821209  1
