# generated using pymatgen
data_Dy4Lu2Al24Ru7Pt
_symmetry_space_group_name_H-M   'P 1'
_cell_length_a   8.77934192
_cell_length_b   8.78736822
_cell_length_c   9.57823879
_cell_angle_alpha   90.10377040
_cell_angle_beta   89.87703176
_cell_angle_gamma   119.92272210
_symmetry_Int_Tables_number   1
_chemical_formula_structural   Dy4Lu2Al24Ru7Pt
_chemical_formula_sum   'Dy4 Lu2 Al24 Ru7 Pt1'
_cell_volume   640.43282192
_cell_formula_units_Z   1
loop_
 _symmetry_equiv_pos_site_id
 _symmetry_equiv_pos_as_xyz
  1  'x, y, z'
loop_
 _atom_site_type_symbol
 _atom_site_label
 _atom_site_symmetry_multiplicity
 _atom_site_fract_x
 _atom_site_fract_y
 _atom_site_fract_z
 _atom_site_occupancy
  Dy  Dy0  1  0.615663  0.809635  0.249021  1
  Dy  Dy1  1  0.806423  0.193107  0.751902  1
  Dy  Dy2  1  0.809176  0.615021  0.750939  1
  Dy  Dy3  1  0.384201  0.190277  0.751000  1
  Lu  Lu4  1  0.195328  0.804699  0.248063  1
  Lu  Lu5  1  0.192040  0.388766  0.248383  1
  Al  Al6  1  0.561734  0.437016  0.247016  1
  Al  Al7  1  0.560280  0.122685  0.250293  1
  Al  Al8  1  0.878203  0.439563  0.250248  1
  Al  Al9  1  0.436862  0.562568  0.753451  1
  Al  Al10  1  0.438235  0.876359  0.749775  1
  Al  Al11  1  0.123494  0.561360  0.749665  1
  Al  Al12  1  0.323355  0.157216  0.420343  1
  Al  Al13  1  0.838068  0.163189  0.420587  1
  Al  Al14  1  0.843039  0.676204  0.420346  1
  Al  Al15  1  0.675265  0.842011  0.577997  1
  Al  Al16  1  0.162759  0.837152  0.576995  1
  Al  Al17  1  0.157899  0.324351  0.577216  1
  Al  Al18  1  0.673865  0.836447  0.923237  1
  Al  Al19  1  0.163219  0.836700  0.923921  1
  Al  Al20  1  0.163270  0.325668  0.923965  1
  Al  Al21  1  0.324516  0.162925  0.078570  1
  Al  Al22  1  0.837500  0.163640  0.078525  1
  Al  Al23  1  0.837309  0.674655  0.078367  1
  Al  Al24  1  0.669114  0.330431  0.519731  1
  Al  Al25  1  0.330408  0.669062  0.477905  1
  Al  Al26  1  0.333101  0.666429  0.020444  1
  Al  Al27  1  0.666205  0.333280  0.981605  1
  Al  Al28  1  0.002907  0.002109  0.249839  1
  Al  Al29  1  0.999980  0.999324  0.750149  1
  Ru  Ru30  1  0.999587  0.999815  0.500044  1
  Ru  Ru31  1  0.999492  0.999710  0.999962  1
  Ru  Ru32  1  0.498936  0.999141  0.499227  1
  Ru  Ru33  1  0.000932  0.500431  0.498647  1
  Ru  Ru34  1  0.498911  0.499684  0.000839  1
  Ru  Ru35  1  0.498836  0.999204  0.000926  1
  Ru  Ru36  1  0.000763  0.500466  0.001252  1
  Pt  Pt37  1  0.499124  0.499699  0.499605  1
