# generated using pymatgen
data_Tb5Er15(Bi2As)4
_symmetry_space_group_name_H-M   'P 1'
_cell_length_a   8.02114835
_cell_length_b   9.14877022
_cell_length_c   11.94438430
_cell_angle_alpha   89.99161441
_cell_angle_beta   90.02430441
_cell_angle_gamma   89.97651876
_symmetry_Int_Tables_number   1
_chemical_formula_structural   Tb5Er15(Bi2As)4
_chemical_formula_sum   'Tb5 Er15 Bi8 As4'
_cell_volume   876.52227289
_cell_formula_units_Z   1
loop_
 _symmetry_equiv_pos_site_id
 _symmetry_equiv_pos_as_xyz
  1  'x, y, z'
loop_
 _atom_site_type_symbol
 _atom_site_label
 _atom_site_symmetry_multiplicity
 _atom_site_fract_x
 _atom_site_fract_y
 _atom_site_fract_z
 _atom_site_occupancy
  Tb  Tb0  1  0.818273  0.555206  0.061862  1
  Tb  Tb1  1  0.161150  0.750431  0.212610  1
  Tb  Tb2  1  0.338250  0.750427  0.712758  1
  Tb  Tb3  1  0.838230  0.250236  0.787245  1
  Tb  Tb4  1  0.661192  0.249938  0.287710  1
  Er  Er5  1  0.680920  0.942858  0.562258  1
  Er  Er6  1  0.182110  0.057119  0.937576  1
  Er  Er7  1  0.318867  0.442745  0.437948  1
  Er  Er8  1  0.180647  0.442770  0.937893  1
  Er  Er9  1  0.318943  0.057347  0.437867  1
  Er  Er10  1  0.818547  0.942318  0.062277  1
  Er  Er11  1  0.680920  0.557366  0.562206  1
  Er  Er12  1  0.466826  0.750063  0.001111  1
  Er  Er13  1  0.033048  0.750226  0.501396  1
  Er  Er14  1  0.532877  0.250181  0.998853  1
  Er  Er15  1  0.967074  0.250079  0.498925  1
  Er  Er16  1  0.640073  0.750363  0.293772  1
  Er  Er17  1  0.859999  0.750232  0.793129  1
  Er  Er18  1  0.359799  0.250272  0.706579  1
  Er  Er19  1  0.139989  0.250211  0.206680  1
  Bi  Bi20  1  0.929425  0.509794  0.327682  1
  Bi  Bi21  1  0.570894  0.990666  0.826972  1
  Bi  Bi22  1  0.070936  0.009984  0.672881  1
  Bi  Bi23  1  0.428320  0.490581  0.173258  1
  Bi  Bi24  1  0.070979  0.490426  0.672871  1
  Bi  Bi25  1  0.428841  0.009868  0.173006  1
  Bi  Bi26  1  0.928982  0.990582  0.327211  1
  Bi  Bi27  1  0.570937  0.509830  0.826652  1
  As  As28  1  0.409030  0.750025  0.475235  1
  As  As29  1  0.092155  0.751450  0.974477  1
  As  As30  1  0.590843  0.250085  0.525107  1
  As  As31  1  0.910926  0.246321  0.023991  1
