# generated using pymatgen
data_KSr(SiAu3)2
_symmetry_space_group_name_H-M   'P 1'
_cell_length_a   6.55557400
_cell_length_b   6.55557400
_cell_length_c   5.25734900
_cell_angle_alpha   90.00000000
_cell_angle_beta   90.00000000
_cell_angle_gamma   90.00000000
_symmetry_Int_Tables_number   1
_chemical_formula_structural   KSr(SiAu3)2
_chemical_formula_sum   'K1 Sr1 Si2 Au6'
_cell_volume   225.93746729
_cell_formula_units_Z   1
loop_
 _symmetry_equiv_pos_site_id
 _symmetry_equiv_pos_as_xyz
  1  'x, y, z'
loop_
 _atom_site_type_symbol
 _atom_site_label
 _atom_site_symmetry_multiplicity
 _atom_site_fract_x
 _atom_site_fract_y
 _atom_site_fract_z
 _atom_site_occupancy
  K  K0  1  0.500000  0.500000  0.000000  1
  Sr  Sr1  1  0.000000  0.000000  0.000000  1
  Si  Si2  1  0.500000  0.000000  0.686247  1
  Si  Si3  1  0.000000  0.500000  0.313753  1
  Au  Au4  1  0.243036  0.243036  0.500000  1
  Au  Au5  1  0.243036  0.756964  0.500000  1
  Au  Au6  1  0.756964  0.243036  0.500000  1
  Au  Au7  1  0.756964  0.756964  0.500000  1
  Au  Au8  1  0.500000  0.000000  0.146581  1
  Au  Au9  1  0.000000  0.500000  0.853419  1
