# generated using pymatgen
data_SrCuF5
_symmetry_space_group_name_H-M   'P 1'
_cell_length_a   7.63012200
_cell_length_b   9.20806074
_cell_length_c   13.87299700
_cell_angle_alpha   52.25583817
_cell_angle_beta   90.00000000
_cell_angle_gamma   90.00000000
_symmetry_Int_Tables_number   1
_chemical_formula_structural   SrCuF5
_chemical_formula_sum   'Sr8 Cu8 F40'
_cell_volume   770.74412364
_cell_formula_units_Z   8
loop_
 _symmetry_equiv_pos_site_id
 _symmetry_equiv_pos_as_xyz
  1  'x, y, z'
loop_
 _atom_site_type_symbol
 _atom_site_label
 _atom_site_symmetry_multiplicity
 _atom_site_fract_x
 _atom_site_fract_y
 _atom_site_fract_z
 _atom_site_occupancy
  Sr  Sr0  1  0.218787  0.670999  0.642906  1
  Sr  Sr1  1  0.718787  0.329001  0.857094  1
  Sr  Sr2  1  0.781213  0.329001  0.357094  1
  Sr  Sr3  1  0.281213  0.670999  0.142906  1
  Sr  Sr4  1  0.276896  0.226799  0.544440  1
  Sr  Sr5  1  0.776896  0.773201  0.955560  1
  Sr  Sr6  1  0.723104  0.773201  0.455560  1
  Sr  Sr7  1  0.223104  0.226799  0.044440  1
  Cu  Cu8  1  0.291913  0.791561  0.839164  1
  Cu  Cu9  1  0.791913  0.208439  0.660836  1
  Cu  Cu10  1  0.708087  0.208439  0.160836  1
  Cu  Cu11  1  0.208087  0.791561  0.339164  1
  Cu  Cu12  1  0.193970  0.194385  0.815290  1
  Cu  Cu13  1  0.693970  0.805615  0.684710  1
  Cu  Cu14  1  0.806030  0.805615  0.184710  1
  Cu  Cu15  1  0.306030  0.194385  0.315290  1
  F  F16  1  0.941959  0.646051  0.166212  1
  F  F17  1  0.441959  0.353949  0.333788  1
  F  F18  1  0.058041  0.353949  0.833788  1
  F  F19  1  0.558041  0.646051  0.666212  1
  F  F20  1  0.478626  0.887833  0.711420  1
  F  F21  1  0.978626  0.112167  0.788580  1
  F  F22  1  0.521374  0.112167  0.288580  1
  F  F23  1  0.021374  0.887833  0.211420  1
  F  F24  1  0.452352  0.725785  0.965269  1
  F  F25  1  0.952352  0.274215  0.534731  1
  F  F26  1  0.547648  0.274215  0.034731  1
  F  F27  1  0.047648  0.725785  0.465269  1
  F  F28  1  0.390259  0.286624  0.850524  1
  F  F29  1  0.890259  0.713376  0.649476  1
  F  F30  1  0.609741  0.713376  0.149476  1
  F  F31  1  0.109741  0.286624  0.350524  1
  F  F32  1  0.183955  0.048189  0.280420  1
  F  F33  1  0.683955  0.951811  0.219580  1
  F  F34  1  0.816045  0.951811  0.719580  1
  F  F35  1  0.316045  0.048189  0.780420  1
  F  F36  1  0.275495  0.388204  0.146177  1
  F  F37  1  0.775495  0.611796  0.353823  1
  F  F38  1  0.724505  0.611796  0.853823  1
  F  F39  1  0.224505  0.388204  0.646177  1
  F  F40  1  0.349697  0.888091  0.199107  1
  F  F41  1  0.849697  0.111909  0.300893  1
  F  F42  1  0.650303  0.111909  0.800893  1
  F  F43  1  0.150303  0.888091  0.699107  1
  F  F44  1  0.393859  0.727660  0.450878  1
  F  F45  1  0.893859  0.272340  0.049122  1
  F  F46  1  0.606141  0.272340  0.549122  1
  F  F47  1  0.106141  0.727660  0.950878  1
  F  F48  1  0.218786  0.563947  0.366008  1
  F  F49  1  0.718786  0.436053  0.133992  1
  F  F50  1  0.781214  0.436053  0.633992  1
  F  F51  1  0.281214  0.563947  0.866008  1
  F  F52  1  0.688732  0.995179  0.512839  1
  F  F53  1  0.188732  0.004821  0.987161  1
  F  F54  1  0.311268  0.004821  0.487161  1
  F  F55  1  0.811268  0.995179  0.012839  1
