# generated using pymatgen
data_Tb5Ga4P8Ir19
_symmetry_space_group_name_H-M   'P 1'
_cell_length_a   12.91793257
_cell_length_b   12.89603419
_cell_length_c   3.97224600
_cell_angle_alpha   90.00000000
_cell_angle_beta   90.00000000
_cell_angle_gamma   120.05297835
_symmetry_Int_Tables_number   1
_chemical_formula_structural   Tb5Ga4P8Ir19
_chemical_formula_sum   'Tb5 Ga4 P8 Ir19'
_cell_volume   572.77474939
_cell_formula_units_Z   1
loop_
 _symmetry_equiv_pos_site_id
 _symmetry_equiv_pos_as_xyz
  1  'x, y, z'
loop_
 _atom_site_type_symbol
 _atom_site_label
 _atom_site_symmetry_multiplicity
 _atom_site_fract_x
 _atom_site_fract_y
 _atom_site_fract_z
 _atom_site_occupancy
  Tb  Tb0  1  0.335819  0.669411  0.500000  1
  Tb  Tb1  1  0.665978  0.331593  0.500000  1
  Tb  Tb2  1  0.181383  0.181957  0.000000  1
  Tb  Tb3  1  0.817876  0.999387  0.000000  1
  Tb  Tb4  1  0.001643  0.815959  0.000000  1
  Ga  Ga5  1  0.317916  0.834468  0.000000  1
  Ga  Ga6  1  0.357536  0.358613  0.500000  1
  Ga  Ga7  1  0.640856  0.001025  0.500000  1
  Ga  Ga8  1  0.997066  0.637846  0.500000  1
  P  P9  1  0.173515  0.484461  0.000000  1
  P  P10  1  0.521299  0.690431  0.000000  1
  P  P11  1  0.823341  0.305638  0.000000  1
  P  P12  1  0.481907  0.175163  0.000000  1
  P  P13  1  0.692300  0.515033  0.000000  1
  P  P14  1  0.822462  0.818705  0.500000  1
  P  P15  1  0.178876  0.001011  0.500000  1
  P  P16  1  0.000113  0.180281  0.500000  1
  Ir  Ir17  1  0.191154  0.825213  0.500000  1
  Ir  Ir18  1  0.174489  0.381992  0.500000  1
  Ir  Ir19  1  0.626119  0.795466  0.500000  1
  Ir  Ir20  1  0.825698  0.205662  0.500000  1
  Ir  Ir21  1  0.385031  0.178060  0.500000  1
  Ir  Ir22  1  0.790528  0.614879  0.500000  1
  Ir  Ir23  1  0.128183  0.633183  0.000000  1
  Ir  Ir24  1  0.362888  0.497123  0.000000  1
  Ir  Ir25  1  0.522146  0.871263  0.000000  1
  Ir  Ir26  1  0.633093  0.131457  0.000000  1
  Ir  Ir27  1  0.496884  0.366494  0.000000  1
  Ir  Ir28  1  0.866884  0.500859  0.000000  1
  Ir  Ir29  1  0.547755  0.551039  0.500000  1
  Ir  Ir30  1  0.443213  0.992662  0.500000  1
  Ir  Ir31  1  0.998317  0.447127  0.500000  1
  Ir  Ir32  1  0.718249  0.714897  0.000000  1
  Ir  Ir33  1  0.280526  0.008008  0.000000  1
  Ir  Ir34  1  0.000117  0.283090  0.000000  1
  Ir  Ir35  1  0.998838  0.000542  0.500000  1
