# generated using pymatgen
data_Dy16Cd4Ir3Ru
_symmetry_space_group_name_H-M   'P 1'
_cell_length_a   9.65414530
_cell_length_b   9.65414596
_cell_length_c   9.65414600
_cell_angle_alpha   59.61654855
_cell_angle_beta   59.61654362
_cell_angle_gamma   59.61655026
_symmetry_Int_Tables_number   1
_chemical_formula_structural   Dy16Cd4Ir3Ru
_chemical_formula_sum   'Dy16 Cd4 Ir3 Ru1'
_cell_volume   630.70356885
_cell_formula_units_Z   1
loop_
 _symmetry_equiv_pos_site_id
 _symmetry_equiv_pos_as_xyz
  1  'x, y, z'
loop_
 _atom_site_type_symbol
 _atom_site_label
 _atom_site_symmetry_multiplicity
 _atom_site_fract_x
 _atom_site_fract_y
 _atom_site_fract_z
 _atom_site_occupancy
  Dy  Dy0  1  0.599343  0.599343  0.599343  1
  Dy  Dy1  1  0.598418  0.598418  0.206326  1
  Dy  Dy2  1  0.598418  0.206326  0.598418  1
  Dy  Dy3  1  0.206326  0.598418  0.598418  1
  Dy  Dy4  1  0.061660  0.439169  0.439169  1
  Dy  Dy5  1  0.438037  0.059490  0.059490  1
  Dy  Dy6  1  0.439169  0.061660  0.439169  1
  Dy  Dy7  1  0.059490  0.438037  0.059490  1
  Dy  Dy8  1  0.439169  0.439169  0.061660  1
  Dy  Dy9  1  0.059490  0.059490  0.438037  1
  Dy  Dy10  1  0.189040  0.811579  0.811579  1
  Dy  Dy11  1  0.809251  0.188448  0.188448  1
  Dy  Dy12  1  0.811579  0.189040  0.811579  1
  Dy  Dy13  1  0.188448  0.809251  0.188448  1
  Dy  Dy14  1  0.811579  0.811579  0.189040  1
  Dy  Dy15  1  0.188448  0.188448  0.809251  1
  Cd  Cd16  1  0.830024  0.830024  0.830024  1
  Cd  Cd17  1  0.830735  0.830735  0.506219  1
  Cd  Cd18  1  0.830735  0.506219  0.830735  1
  Cd  Cd19  1  0.506219  0.830735  0.830735  1
  Ir  Ir20  1  0.393401  0.393401  0.826621  1
  Ir  Ir21  1  0.393401  0.826621  0.393401  1
  Ir  Ir22  1  0.826621  0.393401  0.393401  1
  Ru  Ru23  1  0.391000  0.391000  0.391000  1
