# generated using pymatgen
data_Tm6Th2Cd2IrRu
_symmetry_space_group_name_H-M   'P 1'
_cell_length_a   9.63569919
_cell_length_b   9.63567491
_cell_length_c   9.65810700
_cell_angle_alpha   59.92080609
_cell_angle_beta   59.92081266
_cell_angle_gamma   59.93619536
_symmetry_Int_Tables_number   1
_chemical_formula_structural   Tm6Th2Cd2IrRu
_chemical_formula_sum   'Tm12 Th4 Cd4 Ir2 Ru2'
_cell_volume   633.01231669
_cell_formula_units_Z   2
loop_
 _symmetry_equiv_pos_site_id
 _symmetry_equiv_pos_as_xyz
  1  'x, y, z'
loop_
 _atom_site_type_symbol
 _atom_site_label
 _atom_site_symmetry_multiplicity
 _atom_site_fract_x
 _atom_site_fract_y
 _atom_site_fract_z
 _atom_site_occupancy
  Tm  Tm0  1  0.063859  0.437085  0.437549  1
  Tm  Tm1  1  0.437084  0.063890  0.061491  1
  Tm  Tm2  1  0.437086  0.063856  0.437550  1
  Tm  Tm3  1  0.063890  0.437086  0.061486  1
  Tm  Tm4  1  0.436972  0.436974  0.063006  1
  Tm  Tm5  1  0.062413  0.062410  0.437596  1
  Tm  Tm6  1  0.185025  0.814527  0.816114  1
  Tm  Tm7  1  0.814544  0.185018  0.184329  1
  Tm  Tm8  1  0.814526  0.185025  0.816118  1
  Tm  Tm9  1  0.185014  0.814548  0.184326  1
  Tm  Tm10  1  0.815161  0.815163  0.184842  1
  Tm  Tm11  1  0.184581  0.184580  0.815427  1
  Th  Th12  1  0.598418  0.598410  0.601957  1
  Th  Th13  1  0.598400  0.598401  0.201232  1
  Th  Th14  1  0.597316  0.202306  0.600183  1
  Th  Th15  1  0.202310  0.597315  0.600175  1
  Cd  Cd16  1  0.832306  0.832305  0.833983  1
  Cd  Cd17  1  0.832305  0.832306  0.501421  1
  Cd  Cd18  1  0.832380  0.499642  0.833994  1
  Cd  Cd19  1  0.499638  0.832383  0.833994  1
  Ir  Ir20  1  0.393144  0.824780  0.391041  1
  Ir  Ir21  1  0.824782  0.393141  0.391040  1
  Ru  Ru22  1  0.394416  0.394420  0.391989  1
  Ru  Ru23  1  0.394429  0.394428  0.819154  1
