# generated using pymatgen
data_Sm4Er16Bi7Sb5
_symmetry_space_group_name_H-M   'P 1'
_cell_length_a   8.12780230
_cell_length_b   9.39063826
_cell_length_c   11.89043600
_cell_angle_alpha   90.03967723
_cell_angle_beta   89.93455376
_cell_angle_gamma   90.02653136
_symmetry_Int_Tables_number   1
_chemical_formula_structural   Sm4Er16Bi7Sb5
_chemical_formula_sum   'Sm4 Er16 Bi7 Sb5'
_cell_volume   907.53960830
_cell_formula_units_Z   1
loop_
 _symmetry_equiv_pos_site_id
 _symmetry_equiv_pos_as_xyz
  1  'x, y, z'
loop_
 _atom_site_type_symbol
 _atom_site_label
 _atom_site_symmetry_multiplicity
 _atom_site_fract_x
 _atom_site_fract_y
 _atom_site_fract_z
 _atom_site_occupancy
  Sm  Sm0  1  0.318699  0.247988  0.219413  1
  Sm  Sm1  1  0.815207  0.246840  0.281578  1
  Sm  Sm2  1  0.682445  0.749953  0.781121  1
  Sm  Sm3  1  0.182685  0.749926  0.718645  1
  Er  Er4  1  0.355706  0.753022  0.216035  1
  Er  Er5  1  0.849778  0.752577  0.285451  1
  Er  Er6  1  0.647357  0.250208  0.784887  1
  Er  Er7  1  0.147558  0.249981  0.714835  1
  Er  Er8  1  0.688527  0.563571  0.058945  1
  Er  Er9  1  0.190580  0.937398  0.440482  1
  Er  Er10  1  0.311469  0.063256  0.941231  1
  Er  Er11  1  0.811088  0.436435  0.558524  1
  Er  Er12  1  0.311682  0.436507  0.941392  1
  Er  Er13  1  0.810321  0.062662  0.557013  1
  Er  Er14  1  0.687200  0.937119  0.061119  1
  Er  Er15  1  0.189092  0.563372  0.440877  1
  Er  Er16  1  0.473895  0.247656  0.487036  1
  Er  Er17  1  0.973458  0.250012  0.012006  1
  Er  Er18  1  0.527194  0.752250  0.509905  1
  Er  Er19  1  0.026355  0.750084  0.988654  1
  Bi  Bi20  1  0.065630  0.507126  0.173673  1
  Bi  Bi21  1  0.434664  0.493009  0.672208  1
  Bi  Bi22  1  0.934058  0.007041  0.826850  1
  Bi  Bi23  1  0.434353  0.007050  0.673378  1
  Bi  Bi24  1  0.934319  0.492912  0.826909  1
  Bi  Bi25  1  0.565682  0.506748  0.326865  1
  Bi  Bi26  1  0.065735  0.992839  0.172898  1
  Sb  Sb27  1  0.404592  0.749965  0.961815  1
  Sb  Sb28  1  0.905573  0.749839  0.538343  1
  Sb  Sb29  1  0.595234  0.250149  0.038145  1
  Sb  Sb30  1  0.094835  0.250077  0.461363  1
  Sb  Sb31  1  0.565027  0.992432  0.328402  1
