# generated using pymatgen
data_Yb3Ti(GaO4)2
_symmetry_space_group_name_H-M   'P 1'
_cell_length_a   5.41707400
_cell_length_b   5.50398403
_cell_length_c   11.06033614
_cell_angle_alpha   90.00311634
_cell_angle_beta   90.00000000
_cell_angle_gamma   90.00000000
_symmetry_Int_Tables_number   1
_chemical_formula_structural   Yb3Ti(GaO4)2
_chemical_formula_sum   'Yb6 Ti2 Ga4 O16'
_cell_volume   329.76932757
_cell_formula_units_Z   2
loop_
 _symmetry_equiv_pos_site_id
 _symmetry_equiv_pos_as_xyz
  1  'x, y, z'
loop_
 _atom_site_type_symbol
 _atom_site_label
 _atom_site_symmetry_multiplicity
 _atom_site_fract_x
 _atom_site_fract_y
 _atom_site_fract_z
 _atom_site_occupancy
  Yb  Yb0  1  0.964948  0.223124  0.812287  1
  Yb  Yb1  1  0.966226  0.224367  0.186810  1
  Yb  Yb2  1  0.464948  0.776876  0.187713  1
  Yb  Yb3  1  0.466226  0.775633  0.813190  1
  Yb  Yb4  1  0.035490  0.225001  0.501064  1
  Yb  Yb5  1  0.535490  0.774999  0.498936  1
  Ti  Ti6  1  0.496789  0.269665  0.335592  1
  Ti  Ti7  1  0.996789  0.730335  0.664408  1
  Ga  Ga8  1  0.444157  0.315946  0.000308  1
  Ga  Ga9  1  0.944157  0.684054  0.999692  1
  Ga  Ga10  1  0.497595  0.256100  0.672472  1
  Ga  Ga11  1  0.997595  0.743900  0.327528  1
  O  O12  1  0.269595  0.974455  0.645418  1
  O  O13  1  0.272312  0.979353  0.354300  1
  O  O14  1  0.769595  0.025545  0.354582  1
  O  O15  1  0.772312  0.020647  0.645700  1
  O  O16  1  0.220411  0.474505  0.703980  1
  O  O17  1  0.224045  0.471173  0.294604  1
  O  O18  1  0.720411  0.525495  0.296020  1
  O  O19  1  0.724045  0.528827  0.705396  1
  O  O20  1  0.095214  0.370204  0.999559  1
  O  O21  1  0.595214  0.629796  0.000441  1
  O  O22  1  0.533957  0.170519  0.856857  1
  O  O23  1  0.533171  0.171056  0.143293  1
  O  O24  1  0.033957  0.829481  0.143143  1
  O  O25  1  0.033171  0.828944  0.856707  1
  O  O26  1  0.478089  0.342706  0.499008  1
  O  O27  1  0.978089  0.657294  0.500992  1
