# generated using pymatgen
data_Y13Th3MgHg3Ir4
_symmetry_space_group_name_H-M   'P 1'
_cell_length_a   9.72493261
_cell_length_b   9.74852086
_cell_length_c   9.74852000
_cell_angle_alpha   59.99999613
_cell_angle_beta   59.91972729
_cell_angle_gamma   59.91972662
_symmetry_Int_Tables_number   1
_chemical_formula_structural   Y13Th3MgHg3Ir4
_chemical_formula_sum   'Y13 Th3 Mg1 Hg3 Ir4'
_cell_volume   652.71109388
_cell_formula_units_Z   1
loop_
 _symmetry_equiv_pos_site_id
 _symmetry_equiv_pos_as_xyz
  1  'x, y, z'
loop_
 _atom_site_type_symbol
 _atom_site_label
 _atom_site_symmetry_multiplicity
 _atom_site_fract_x
 _atom_site_fract_y
 _atom_site_fract_z
 _atom_site_occupancy
  Y  Y0  1  0.188843  0.603719  0.603719  1
  Y  Y1  1  0.059880  0.440955  0.440955  1
  Y  Y2  1  0.435911  0.063209  0.063209  1
  Y  Y3  1  0.435911  0.063209  0.437671  1
  Y  Y4  1  0.059880  0.440955  0.058210  1
  Y  Y5  1  0.435911  0.437671  0.063209  1
  Y  Y6  1  0.059880  0.058210  0.440955  1
  Y  Y7  1  0.185315  0.813996  0.813996  1
  Y  Y8  1  0.812751  0.186045  0.186045  1
  Y  Y9  1  0.812751  0.186045  0.815159  1
  Y  Y10  1  0.185315  0.813996  0.186694  1
  Y  Y11  1  0.812751  0.815159  0.186045  1
  Y  Y12  1  0.185315  0.186694  0.813996  1
  Th  Th13  1  0.598166  0.599298  0.599298  1
  Th  Th14  1  0.598166  0.599298  0.203241  1
  Th  Th15  1  0.598166  0.203241  0.599298  1
  Mg  Mg16  1  0.527874  0.824042  0.824042  1
  Hg  Hg17  1  0.835534  0.837676  0.837676  1
  Hg  Hg18  1  0.835534  0.837676  0.489113  1
  Hg  Hg19  1  0.835534  0.489113  0.837676  1
  Ir  Ir20  1  0.393838  0.392543  0.392543  1
  Ir  Ir21  1  0.393838  0.392543  0.821076  1
  Ir  Ir22  1  0.393838  0.821076  0.392543  1
  Ir  Ir23  1  0.819100  0.393634  0.393634  1
