# generated using pymatgen
data_SrNd(Si2Ir3)2
_symmetry_space_group_name_H-M   'P 1'
_cell_length_a   6.74343455
_cell_length_b   6.74343494
_cell_length_c   6.74343468
_cell_angle_alpha   130.16339628
_cell_angle_beta   115.51098685
_cell_angle_gamma   85.66120971
_symmetry_Int_Tables_number   1
_chemical_formula_structural   SrNd(Si2Ir3)2
_chemical_formula_sum   'Sr1 Nd1 Si4 Ir6'
_cell_volume   202.21070142
_cell_formula_units_Z   1
loop_
 _symmetry_equiv_pos_site_id
 _symmetry_equiv_pos_as_xyz
  1  'x, y, z'
loop_
 _atom_site_type_symbol
 _atom_site_label
 _atom_site_symmetry_multiplicity
 _atom_site_fract_x
 _atom_site_fract_y
 _atom_site_fract_z
 _atom_site_occupancy
  Sr  Sr0  1  0.250000  0.975975  0.725975  1
  Nd  Nd1  1  0.750000  0.026100  0.276100  1
  Si  Si2  1  0.087030  0.295403  0.208372  1
  Si  Si3  1  0.927784  0.729472  0.801687  1
  Si  Si4  1  0.412970  0.621341  0.208372  1
  Si  Si5  1  0.572216  0.373904  0.801687  1
  Ir  Ir6  1  0.514490  0.496209  0.510699  1
  Ir  Ir7  1  0.985510  0.496209  0.981719  1
  Ir  Ir8  1  0.282730  0.999237  0.276187  1
  Ir  Ir9  1  0.723050  0.999237  0.716506  1
  Ir  Ir10  1  0.217270  0.493457  0.716506  1
  Ir  Ir11  1  0.776950  0.493457  0.276187  1
