# generated using pymatgen
data_Dy4LuRu2
_symmetry_space_group_name_H-M   'P 1'
_cell_length_a   6.31106812
_cell_length_b   7.24470690
_cell_length_c   8.43964182
_cell_angle_alpha   96.74184498
_cell_angle_beta   111.95599029
_cell_angle_gamma   90.00000125
_symmetry_Int_Tables_number   1
_chemical_formula_structural   Dy4LuRu2
_chemical_formula_sum   'Dy8 Lu2 Ru4'
_cell_volume   355.01031677
_cell_formula_units_Z   2
loop_
 _symmetry_equiv_pos_site_id
 _symmetry_equiv_pos_as_xyz
  1  'x, y, z'
loop_
 _atom_site_type_symbol
 _atom_site_label
 _atom_site_symmetry_multiplicity
 _atom_site_fract_x
 _atom_site_fract_y
 _atom_site_fract_z
 _atom_site_occupancy
  Dy  Dy0  1  0.522719  0.083439  0.813878  1
  Dy  Dy1  1  0.477281  0.916561  0.186122  1
  Dy  Dy2  1  0.708842  0.416561  0.186122  1
  Dy  Dy3  1  0.291158  0.583439  0.813878  1
  Dy  Dy4  1  0.298495  0.312402  0.432015  1
  Dy  Dy5  1  0.701505  0.687598  0.567985  1
  Dy  Dy6  1  0.866481  0.187598  0.567985  1
  Dy  Dy7  1  0.133519  0.812402  0.432015  1
  Lu  Lu8  1  0.078196  0.250000  0.000000  1
  Lu  Lu9  1  0.921804  0.750000  0.000000  1
  Ru  Ru10  1  0.319389  0.576013  0.218234  1
  Ru  Ru11  1  0.680611  0.423987  0.781766  1
  Ru  Ru12  1  0.101156  0.923987  0.781766  1
  Ru  Ru13  1  0.898844  0.076013  0.218234  1
