# generated using pymatgen
data_Rh(SeF9)2
_symmetry_space_group_name_H-M   'P 1'
_cell_length_a   9.04474300
_cell_length_b   9.04474220
_cell_length_c   5.23413000
_cell_angle_alpha   90.00000000
_cell_angle_beta   90.00000000
_cell_angle_gamma   120.00000657
_symmetry_Int_Tables_number   1
_chemical_formula_structural   Rh(SeF9)2
_chemical_formula_sum   'Rh1 Se2 F18'
_cell_volume   370.82374200
_cell_formula_units_Z   1
loop_
 _symmetry_equiv_pos_site_id
 _symmetry_equiv_pos_as_xyz
  1  'x, y, z'
loop_
 _atom_site_type_symbol
 _atom_site_label
 _atom_site_symmetry_multiplicity
 _atom_site_fract_x
 _atom_site_fract_y
 _atom_site_fract_z
 _atom_site_occupancy
  Rh  Rh0  1  0.000000  0.000000  0.000000  1
  Se  Se1  1  0.666667  0.333333  0.446611  1
  Se  Se2  1  0.333333  0.666667  0.553389  1
  F  F3  1  0.242842  0.757158  0.361701  1
  F  F4  1  0.242842  0.485685  0.361701  1
  F  F5  1  0.514315  0.757158  0.361701  1
  F  F6  1  0.097572  0.902428  0.793447  1
  F  F7  1  0.097572  0.195143  0.793447  1
  F  F8  1  0.804857  0.902428  0.793447  1
  F  F9  1  0.195143  0.097572  0.206553  1
  F  F10  1  0.902428  0.804857  0.206553  1
  F  F11  1  0.902428  0.097572  0.206553  1
  F  F12  1  0.423826  0.576174  0.744955  1
  F  F13  1  0.423826  0.847651  0.744955  1
  F  F14  1  0.152349  0.576174  0.744955  1
  F  F15  1  0.847651  0.423826  0.255045  1
  F  F16  1  0.576174  0.152349  0.255045  1
  F  F17  1  0.576174  0.423826  0.255045  1
  F  F18  1  0.757158  0.242842  0.638299  1
  F  F19  1  0.757158  0.514315  0.638299  1
  F  F20  1  0.485685  0.242842  0.638299  1
