# generated using pymatgen
data_Ba4Nd(ReO6)2
_symmetry_space_group_name_H-M   'P 1'
_cell_length_a   10.25434856
_cell_length_b   10.25434874
_cell_length_c   10.25434942
_cell_angle_alpha   33.75382529
_cell_angle_beta   33.75382289
_cell_angle_gamma   33.75383023
_symmetry_Int_Tables_number   1
_chemical_formula_structural   Ba4Nd(ReO6)2
_chemical_formula_sum   'Ba4 Nd1 Re2 O12'
_cell_volume   296.60103814
_cell_formula_units_Z   1
loop_
 _symmetry_equiv_pos_site_id
 _symmetry_equiv_pos_as_xyz
  1  'x, y, z'
loop_
 _atom_site_type_symbol
 _atom_site_label
 _atom_site_symmetry_multiplicity
 _atom_site_fract_x
 _atom_site_fract_y
 _atom_site_fract_z
 _atom_site_occupancy
  Ba  Ba0  1  0.713510  0.713510  0.713510  1
  Ba  Ba1  1  0.286490  0.286490  0.286490  1
  Ba  Ba2  1  0.865187  0.865187  0.865187  1
  Ba  Ba3  1  0.134813  0.134813  0.134813  1
  Nd  Nd4  1  0.000000  0.000000  0.000000  1
  Re  Re5  1  0.577312  0.577312  0.577312  1
  Re  Re6  1  0.422688  0.422688  0.422688  1
  O  O7  1  0.229307  0.681845  0.229307  1
  O  O8  1  0.229307  0.229307  0.681845  1
  O  O9  1  0.681845  0.229307  0.229307  1
  O  O10  1  0.770693  0.318155  0.770693  1
  O  O11  1  0.770693  0.770693  0.318155  1
  O  O12  1  0.318155  0.770693  0.770693  1
  O  O13  1  0.388443  0.856943  0.388443  1
  O  O14  1  0.388443  0.388443  0.856943  1
  O  O15  1  0.856943  0.388443  0.388443  1
  O  O16  1  0.611557  0.143057  0.611557  1
  O  O17  1  0.611557  0.611557  0.143057  1
  O  O18  1  0.143057  0.611557  0.611557  1
