# generated using pymatgen
data_La10S2Br15
_symmetry_space_group_name_H-M   'P 1'
_cell_length_a   9.41744352
_cell_length_b   10.65558084
_cell_length_c   11.20390100
_cell_angle_alpha   90.43088463
_cell_angle_beta   114.27106378
_cell_angle_gamma   110.79701898
_symmetry_Int_Tables_number   1
_chemical_formula_structural   La10S2Br15
_chemical_formula_sum   'La10 S2 Br15'
_cell_volume   942.47423258
_cell_formula_units_Z   1
loop_
 _symmetry_equiv_pos_site_id
 _symmetry_equiv_pos_as_xyz
  1  'x, y, z'
loop_
 _atom_site_type_symbol
 _atom_site_label
 _atom_site_symmetry_multiplicity
 _atom_site_fract_x
 _atom_site_fract_y
 _atom_site_fract_z
 _atom_site_occupancy
  La  La0  1  0.235401  0.575242  0.047366  1
  La  La1  1  0.764599  0.424758  0.952634  1
  La  La2  1  0.304288  0.915826  0.275578  1
  La  La3  1  0.695712  0.084174  0.724422  1
  La  La4  1  0.099041  0.551700  0.344018  1
  La  La5  1  0.900959  0.448300  0.655982  1
  La  La6  1  0.822633  0.759952  0.179887  1
  La  La7  1  0.177367  0.240048  0.820113  1
  La  La8  1  0.974775  0.810330  0.903074  1
  La  La9  1  0.025225  0.189670  0.096926  1
  S  S10  1  0.034490  0.672482  0.117950  1
  S  S11  1  0.965510  0.327518  0.882050  1
  Br  Br12  1  0.327689  0.437601  0.292129  1
  Br  Br13  1  0.672311  0.562399  0.707871  1
  Br  Br14  1  0.192556  0.722495  0.808873  1
  Br  Br15  1  0.807444  0.277505  0.191127  1
  Br  Br16  1  0.146767  0.384613  0.583815  1
  Br  Br17  1  0.853233  0.615387  0.416185  1
  Br  Br18  1  0.394071  0.805869  0.532558  1
  Br  Br19  1  0.605929  0.194131  0.467442  1
  Br  Br20  1  0.275747  0.088695  0.054486  1
  Br  Br21  1  0.724253  0.911305  0.945514  1
  Br  Br22  1  0.554565  0.838836  0.221234  1
  Br  Br23  1  0.445435  0.161164  0.778766  1
  Br  Br24  1  0.090907  0.034295  0.345328  1
  Br  Br25  1  0.909093  0.965705  0.654672  1
  Br  Br26  1  0.500000  0.500000  0.000000  1
