# generated using pymatgen
data_Dy3ZnSiRh2
_symmetry_space_group_name_H-M   'P 1'
_cell_length_a   5.48643400
_cell_length_b   7.98298000
_cell_length_c   13.21693400
_cell_angle_alpha   90.00000000
_cell_angle_beta   90.00000000
_cell_angle_gamma   90.00000000
_symmetry_Int_Tables_number   1
_chemical_formula_structural   Dy3ZnSiRh2
_chemical_formula_sum   'Dy12 Zn4 Si4 Rh8'
_cell_volume   578.87650310
_cell_formula_units_Z   4
loop_
 _symmetry_equiv_pos_site_id
 _symmetry_equiv_pos_as_xyz
  1  'x, y, z'
loop_
 _atom_site_type_symbol
 _atom_site_label
 _atom_site_symmetry_multiplicity
 _atom_site_fract_x
 _atom_site_fract_y
 _atom_site_fract_z
 _atom_site_occupancy
  Dy  Dy0  1  0.638558  0.259748  0.250000  1
  Dy  Dy1  1  0.361442  0.740252  0.750000  1
  Dy  Dy2  1  0.361442  0.759748  0.250000  1
  Dy  Dy3  1  0.638558  0.240252  0.750000  1
  Dy  Dy4  1  0.150160  0.399777  0.101461  1
  Dy  Dy5  1  0.849840  0.600223  0.898539  1
  Dy  Dy6  1  0.849840  0.600223  0.601461  1
  Dy  Dy7  1  0.849840  0.899777  0.398539  1
  Dy  Dy8  1  0.150160  0.399777  0.398539  1
  Dy  Dy9  1  0.150160  0.100223  0.601461  1
  Dy  Dy10  1  0.150160  0.100223  0.898539  1
  Dy  Dy11  1  0.849840  0.899777  0.101461  1
  Zn  Zn12  1  0.649894  0.250000  0.000000  1
  Zn  Zn13  1  0.350106  0.750000  0.000000  1
  Zn  Zn14  1  0.350106  0.750000  0.500000  1
  Zn  Zn15  1  0.649894  0.250000  0.500000  1
  Si  Si16  1  0.134812  0.114009  0.250000  1
  Si  Si17  1  0.865188  0.885991  0.750000  1
  Si  Si18  1  0.865188  0.614009  0.250000  1
  Si  Si19  1  0.134812  0.385991  0.750000  1
  Rh  Rh20  1  0.357152  0.034090  0.096161  1
  Rh  Rh21  1  0.642848  0.965910  0.903839  1
  Rh  Rh22  1  0.642848  0.965910  0.596161  1
  Rh  Rh23  1  0.642848  0.534090  0.403839  1
  Rh  Rh24  1  0.357152  0.034090  0.403839  1
  Rh  Rh25  1  0.357152  0.465910  0.596161  1
  Rh  Rh26  1  0.357152  0.465910  0.903839  1
  Rh  Rh27  1  0.642848  0.534090  0.096161  1
