# generated using pymatgen
data_LaDyTeO6
_symmetry_space_group_name_H-M   'P 1'
_cell_length_a   5.47810300
_cell_length_b   9.35769000
_cell_length_c   10.21887000
_cell_angle_alpha   90.00000000
_cell_angle_beta   90.00000000
_cell_angle_gamma   90.00000000
_symmetry_Int_Tables_number   1
_chemical_formula_structural   LaDyTeO6
_chemical_formula_sum   'La4 Dy4 Te4 O24'
_cell_volume   523.84369585
_cell_formula_units_Z   4
loop_
 _symmetry_equiv_pos_site_id
 _symmetry_equiv_pos_as_xyz
  1  'x, y, z'
loop_
 _atom_site_type_symbol
 _atom_site_label
 _atom_site_symmetry_multiplicity
 _atom_site_fract_x
 _atom_site_fract_y
 _atom_site_fract_z
 _atom_site_occupancy
  La  La0  1  0.530342  0.219949  0.356849  1
  La  La1  1  0.030342  0.280051  0.643151  1
  La  La2  1  0.469658  0.719949  0.143151  1
  La  La3  1  0.969658  0.780051  0.856849  1
  Dy  Dy4  1  0.522702  0.103589  0.955764  1
  Dy  Dy5  1  0.022702  0.396411  0.044236  1
  Dy  Dy6  1  0.477298  0.603589  0.544236  1
  Dy  Dy7  1  0.977298  0.896411  0.455764  1
  Te  Te8  1  0.463990  0.990488  0.641158  1
  Te  Te9  1  0.963990  0.509512  0.358842  1
  Te  Te10  1  0.536010  0.490488  0.858842  1
  Te  Te11  1  0.036010  0.009512  0.141158  1
  O  O12  1  0.307946  0.142180  0.167379  1
  O  O13  1  0.807946  0.357820  0.832621  1
  O  O14  1  0.692054  0.642180  0.332621  1
  O  O15  1  0.192054  0.857820  0.667379  1
  O  O16  1  0.724537  0.106806  0.561765  1
  O  O17  1  0.224537  0.393194  0.438235  1
  O  O18  1  0.275463  0.606806  0.938235  1
  O  O19  1  0.775463  0.893194  0.061765  1
  O  O20  1  0.672597  0.634175  0.742854  1
  O  O21  1  0.172597  0.865825  0.257146  1
  O  O22  1  0.327403  0.134175  0.757146  1
  O  O23  1  0.827403  0.365825  0.242854  1
  O  O24  1  0.664306  0.949825  0.792396  1
  O  O25  1  0.164306  0.550175  0.207604  1
  O  O26  1  0.335694  0.449825  0.707604  1
  O  O27  1  0.835694  0.050175  0.292396  1
  O  O28  1  0.253263  0.075354  0.503762  1
  O  O29  1  0.753263  0.424646  0.496238  1
  O  O30  1  0.746737  0.575354  0.996238  1
  O  O31  1  0.246737  0.924646  0.003762  1
  O  O32  1  0.098896  0.660262  0.469518  1
  O  O33  1  0.598896  0.839738  0.530482  1
  O  O34  1  0.901104  0.160262  0.030482  1
  O  O35  1  0.401104  0.339738  0.969518  1
