# generated using pymatgen
data_Pr8DyHoIr6
_symmetry_space_group_name_H-M   'P 1'
_cell_length_a   11.26446300
_cell_length_b   11.26446300
_cell_length_c   6.57177700
_cell_angle_alpha   90.00000000
_cell_angle_beta   90.00000000
_cell_angle_gamma   90.00000000
_symmetry_Int_Tables_number   1
_chemical_formula_structural   Pr8DyHoIr6
_chemical_formula_sum   'Pr16 Dy2 Ho2 Ir12'
_cell_volume   833.88047248
_cell_formula_units_Z   2
loop_
 _symmetry_equiv_pos_site_id
 _symmetry_equiv_pos_as_xyz
  1  'x, y, z'
loop_
 _atom_site_type_symbol
 _atom_site_label
 _atom_site_symmetry_multiplicity
 _atom_site_fract_x
 _atom_site_fract_y
 _atom_site_fract_z
 _atom_site_occupancy
  Pr  Pr0  1  0.288890  0.087721  0.382037  1
  Pr  Pr1  1  0.288890  0.912279  0.882037  1
  Pr  Pr2  1  0.711110  0.087721  0.882037  1
  Pr  Pr3  1  0.711110  0.912279  0.382037  1
  Pr  Pr4  1  0.587689  0.788740  0.882002  1
  Pr  Pr5  1  0.587689  0.211260  0.382002  1
  Pr  Pr6  1  0.412311  0.788740  0.382002  1
  Pr  Pr7  1  0.412311  0.211260  0.882002  1
  Pr  Pr8  1  0.211260  0.412311  0.617998  1
  Pr  Pr9  1  0.211260  0.587689  0.117998  1
  Pr  Pr10  1  0.788740  0.412311  0.117998  1
  Pr  Pr11  1  0.788740  0.587689  0.617998  1
  Pr  Pr12  1  0.912279  0.711110  0.117963  1
  Pr  Pr13  1  0.912279  0.288890  0.617963  1
  Pr  Pr14  1  0.087721  0.711110  0.617963  1
  Pr  Pr15  1  0.087721  0.288890  0.117963  1
  Dy  Dy16  1  0.000000  0.000000  0.500000  1
  Dy  Dy17  1  0.000000  0.000000  0.000000  1
  Ho  Ho18  1  0.500000  0.500000  0.000000  1
  Ho  Ho19  1  0.500000  0.500000  0.500000  1
  Ir  Ir20  1  0.852024  0.147976  0.250000  1
  Ir  Ir21  1  0.852024  0.852024  0.750000  1
  Ir  Ir22  1  0.147976  0.147976  0.750000  1
  Ir  Ir23  1  0.147976  0.852024  0.250000  1
  Ir  Ir24  1  0.647528  0.352472  0.750000  1
  Ir  Ir25  1  0.647528  0.647528  0.250000  1
  Ir  Ir26  1  0.352472  0.352472  0.250000  1
  Ir  Ir27  1  0.352472  0.647528  0.750000  1
  Ir  Ir28  1  0.500000  0.000000  0.117816  1
  Ir  Ir29  1  0.500000  0.000000  0.617816  1
  Ir  Ir30  1  0.000000  0.500000  0.882184  1
  Ir  Ir31  1  0.000000  0.500000  0.382184  1
