# generated using pymatgen
data_Er6PtRh17
_symmetry_space_group_name_H-M   'P 1'
_cell_length_a   5.24991400
_cell_length_b   5.24991409
_cell_length_c   17.52803600
_cell_angle_alpha   90.00000000
_cell_angle_beta   90.00000000
_cell_angle_gamma   119.99999941
_symmetry_Int_Tables_number   1
_chemical_formula_structural   Er6PtRh17
_chemical_formula_sum   'Er6 Pt1 Rh17'
_cell_volume   418.37745806
_cell_formula_units_Z   1
loop_
 _symmetry_equiv_pos_site_id
 _symmetry_equiv_pos_as_xyz
  1  'x, y, z'
loop_
 _atom_site_type_symbol
 _atom_site_label
 _atom_site_symmetry_multiplicity
 _atom_site_fract_x
 _atom_site_fract_y
 _atom_site_fract_z
 _atom_site_occupancy
  Er  Er0  1  0.333333  0.666666  0.043312  1
  Er  Er1  1  0.333333  0.666666  0.250795  1
  Er  Er2  1  0.333333  0.666666  0.458278  1
  Er  Er3  1  0.666667  0.333334  0.541722  1
  Er  Er4  1  0.666667  0.333334  0.749205  1
  Er  Er5  1  0.666667  0.333334  0.956688  1
  Pt  Pt6  1  0.000000  0.000000  0.000000  1
  Rh  Rh7  1  0.335556  0.167778  0.126346  1
  Rh  Rh8  1  0.832221  0.167778  0.126346  1
  Rh  Rh9  1  0.832222  0.664444  0.126346  1
  Rh  Rh10  1  0.000000  0.000000  0.250671  1
  Rh  Rh11  1  0.666667  0.333334  0.250039  1
  Rh  Rh12  1  0.334965  0.167482  0.374951  1
  Rh  Rh13  1  0.832517  0.167482  0.374951  1
  Rh  Rh14  1  0.832518  0.665035  0.374951  1
  Rh  Rh15  1  0.000000  0.000000  0.500000  1
  Rh  Rh16  1  0.167482  0.334965  0.625050  1
  Rh  Rh17  1  0.167483  0.832518  0.625050  1
  Rh  Rh18  1  0.665035  0.832518  0.625050  1
  Rh  Rh19  1  0.000000  0.000000  0.749329  1
  Rh  Rh20  1  0.333333  0.666666  0.749961  1
  Rh  Rh21  1  0.167778  0.335556  0.873654  1
  Rh  Rh22  1  0.167779  0.832222  0.873654  1
  Rh  Rh23  1  0.664444  0.832222  0.873654  1
