# generated using pymatgen
data_Dy3Y5Ti11Si16Ru
_symmetry_space_group_name_H-M   'P 1'
_cell_length_a   7.04028840
_cell_length_b   7.04014052
_cell_length_c   12.90778713
_cell_angle_alpha   89.97106140
_cell_angle_beta   90.02233613
_cell_angle_gamma   89.87200779
_symmetry_Int_Tables_number   1
_chemical_formula_structural   Dy3Y5Ti11Si16Ru
_chemical_formula_sum   'Dy3 Y5 Ti11 Si16 Ru1'
_cell_volume   639.76783210
_cell_formula_units_Z   1
loop_
 _symmetry_equiv_pos_site_id
 _symmetry_equiv_pos_as_xyz
  1  'x, y, z'
loop_
 _atom_site_type_symbol
 _atom_site_label
 _atom_site_symmetry_multiplicity
 _atom_site_fract_x
 _atom_site_fract_y
 _atom_site_fract_z
 _atom_site_occupancy
  Dy  Dy0  1  0.503051  0.159108  0.218046  1
  Dy  Dy1  1  0.499703  0.840575  0.714924  1
  Dy  Dy2  1  0.341728  0.001411  0.468264  1
  Y  Y3  1  0.996106  0.659617  0.032643  1
  Y  Y4  1  0.001581  0.341540  0.531708  1
  Y  Y5  1  0.659605  0.996071  0.967352  1
  Y  Y6  1  0.159204  0.503225  0.781947  1
  Y  Y7  1  0.840478  0.499491  0.284954  1
  Ti  Ti8  1  0.344253  0.507370  0.374492  1
  Ti  Ti9  1  0.849181  0.995743  0.375793  1
  Ti  Ti10  1  0.006386  0.151877  0.124663  1
  Ti  Ti11  1  0.995919  0.849264  0.624113  1
  Ti  Ti12  1  0.507462  0.344110  0.625422  1
  Ti  Ti13  1  0.151929  0.006395  0.875292  1
  Ti  Ti14  1  0.824970  0.172442  0.748613  1
  Ti  Ti15  1  0.172592  0.825198  0.251443  1
  Ti  Ti16  1  0.326210  0.326158  0.000068  1
  Ti  Ti17  1  0.492674  0.651386  0.127909  1
  Ti  Ti18  1  0.651347  0.492845  0.872035  1
  Si  Si19  1  0.046804  0.713096  0.435546  1
  Si  Si20  1  0.952160  0.291243  0.934420  1
  Si  Si21  1  0.712719  0.046640  0.564526  1
  Si  Si22  1  0.208102  0.453013  0.184445  1
  Si  Si23  1  0.790149  0.550100  0.682083  1
  Si  Si24  1  0.453121  0.207871  0.815541  1
  Si  Si25  1  0.549878  0.790524  0.317989  1
  Si  Si26  1  0.291337  0.952265  0.065693  1
  Si  Si27  1  0.797419  0.868851  0.185473  1
  Si  Si28  1  0.300346  0.626982  0.565640  1
  Si  Si29  1  0.703382  0.369255  0.065453  1
  Si  Si30  1  0.626570  0.300127  0.434380  1
  Si  Si31  1  0.369432  0.703481  0.934546  1
  Si  Si32  1  0.130955  0.203206  0.315839  1
  Si  Si33  1  0.203489  0.130571  0.684178  1
  Si  Si34  1  0.868595  0.797506  0.814535  1
  Ru  Ru35  1  0.671164  0.671444  0.500032  1
