# generated using pymatgen
data_Nb7Ni4OsN2
_symmetry_space_group_name_H-M   'P 1'
_cell_length_a   8.18991953
_cell_length_b   8.23125410
_cell_length_c   8.18992051
_cell_angle_alpha   59.83290517
_cell_angle_beta   59.62341539
_cell_angle_gamma   59.83290839
_symmetry_Int_Tables_number   1
_chemical_formula_structural   Nb7Ni4OsN2
_chemical_formula_sum   'Nb14 Ni8 Os2 N4'
_cell_volume   388.29679042
_cell_formula_units_Z   2
loop_
 _symmetry_equiv_pos_site_id
 _symmetry_equiv_pos_as_xyz
  1  'x, y, z'
loop_
 _atom_site_type_symbol
 _atom_site_label
 _atom_site_symmetry_multiplicity
 _atom_site_fract_x
 _atom_site_fract_y
 _atom_site_fract_z
 _atom_site_occupancy
  Nb  Nb0  1  0.125000  0.625000  0.625000  1
  Nb  Nb1  1  0.625000  0.625000  0.125000  1
  Nb  Nb2  1  0.811822  0.812005  0.193068  1
  Nb  Nb3  1  0.193068  0.183105  0.811822  1
  Nb  Nb4  1  0.807771  0.192229  0.807771  1
  Nb  Nb5  1  0.183825  0.816175  0.183825  1
  Nb  Nb6  1  0.193068  0.812005  0.811822  1
  Nb  Nb7  1  0.811822  0.183105  0.193068  1
  Nb  Nb8  1  0.438178  0.437995  0.056932  1
  Nb  Nb9  1  0.056932  0.066895  0.438178  1
  Nb  Nb10  1  0.442229  0.057771  0.442229  1
  Nb  Nb11  1  0.066175  0.433825  0.066175  1
  Nb  Nb12  1  0.056932  0.437995  0.438178  1
  Nb  Nb13  1  0.438178  0.066895  0.056932  1
  Ni  Ni14  1  0.735782  0.420022  0.424176  1
  Ni  Ni15  1  0.419649  0.746995  0.419649  1
  Ni  Ni16  1  0.424176  0.420022  0.735782  1
  Ni  Ni17  1  0.419649  0.413710  0.419649  1
  Ni  Ni18  1  0.514218  0.829978  0.825824  1
  Ni  Ni19  1  0.830351  0.503005  0.830351  1
  Ni  Ni20  1  0.825824  0.829978  0.514218  1
  Ni  Ni21  1  0.830351  0.836290  0.830351  1
  Os  Os22  1  0.625000  0.125000  0.625000  1
  Os  Os23  1  0.625000  0.625000  0.625000  1
  N  N24  1  0.625000  0.125000  0.125000  1
  N  N25  1  0.125000  0.625000  0.125000  1
  N  N26  1  0.125000  0.125000  0.625000  1
  N  N27  1  0.125000  0.125000  0.125000  1
