# generated using pymatgen
data_YTa3(NbBr6)3
_symmetry_space_group_name_H-M   'P 1'
_cell_length_a   10.70874771
_cell_length_b   10.70904838
_cell_length_c   10.71095625
_cell_angle_alpha   56.02361409
_cell_angle_beta   56.02898979
_cell_angle_gamma   56.02627919
_symmetry_Int_Tables_number   1
_chemical_formula_structural   YTa3(NbBr6)3
_chemical_formula_sum   'Y1 Ta3 Nb3 Br18'
_cell_volume   788.61608506
_cell_formula_units_Z   1
loop_
 _symmetry_equiv_pos_site_id
 _symmetry_equiv_pos_as_xyz
  1  'x, y, z'
loop_
 _atom_site_type_symbol
 _atom_site_label
 _atom_site_symmetry_multiplicity
 _atom_site_fract_x
 _atom_site_fract_y
 _atom_site_fract_z
 _atom_site_occupancy
  Y  Y0  1  0.999928  0.999932  0.000364  1
  Ta  Ta1  1  0.412494  0.309760  0.642606  1
  Ta  Ta2  1  0.357280  0.587616  0.690121  1
  Ta  Ta3  1  0.690326  0.357308  0.587385  1
  Nb  Nb4  1  0.307996  0.644184  0.411471  1
  Nb  Nb5  1  0.644140  0.411761  0.307746  1
  Nb  Nb6  1  0.588367  0.692131  0.355717  1
  Br  Br7  1  0.567276  0.160894  0.443740  1
  Br  Br8  1  0.224046  0.371199  0.907266  1
  Br  Br9  1  0.908274  0.223083  0.372779  1
  Br  Br10  1  0.370557  0.908918  0.223339  1
  Br  Br11  1  0.776828  0.629346  0.091133  1
  Br  Br12  1  0.092332  0.775803  0.630873  1
  Br  Br13  1  0.700364  0.959644  0.161065  1
  Br  Br14  1  0.956697  0.161990  0.700106  1
  Br  Br15  1  0.162908  0.699012  0.957245  1
  Br  Br16  1  0.300675  0.042780  0.837984  1
  Br  Br17  1  0.039893  0.838834  0.300283  1
  Br  Br18  1  0.839781  0.299338  0.040365  1
  Br  Br19  1  0.558276  0.431466  0.837829  1
  Br  Br20  1  0.162292  0.439567  0.570109  1
  Br  Br21  1  0.441602  0.568633  0.161015  1
  Br  Br22  1  0.430033  0.837680  0.560441  1
  Br  Br23  1  0.839013  0.556297  0.432851  1
  Br  Br24  1  0.628624  0.092824  0.776169  1
