# generated using pymatgen
data_Li(Cd5Ni)2
_symmetry_space_group_name_H-M   'P 1'
_cell_length_a   8.63832790
_cell_length_b   8.63832802
_cell_length_c   8.63844422
_cell_angle_alpha   109.46500239
_cell_angle_beta   109.46501422
_cell_angle_gamma   109.48309508
_symmetry_Int_Tables_number   1
_chemical_formula_structural   Li(Cd5Ni)2
_chemical_formula_sum   'Li2 Cd20 Ni4'
_cell_volume   496.22193495
_cell_formula_units_Z   2
loop_
 _symmetry_equiv_pos_site_id
 _symmetry_equiv_pos_as_xyz
  1  'x, y, z'
loop_
 _atom_site_type_symbol
 _atom_site_label
 _atom_site_symmetry_multiplicity
 _atom_site_fract_x
 _atom_site_fract_y
 _atom_site_fract_z
 _atom_site_occupancy
  Li  Li0  1  0.197831  0.996976  0.000000  1
  Li  Li1  1  0.996976  0.197831  0.000000  1
  Cd  Cd2  1  0.010514  0.010514  0.197884  1
  Cd  Cd3  1  0.812630  0.812630  0.802116  1
  Cd  Cd4  1  0.007134  0.647567  0.651209  1
  Cd  Cd5  1  0.355924  0.996359  0.348791  1
  Cd  Cd6  1  0.334236  0.334236  0.000000  1
  Cd  Cd7  1  0.996359  0.355924  0.348791  1
  Cd  Cd8  1  0.647567  0.007134  0.651209  1
  Cd  Cd9  1  0.637299  0.637299  0.000000  1
  Cd  Cd10  1  0.354630  0.761120  0.000000  1
  Cd  Cd11  1  0.591529  0.238284  0.238594  1
  Cd  Cd12  1  0.352935  0.999689  0.761406  1
  Cd  Cd13  1  0.761120  0.354630  0.000000  1
  Cd  Cd14  1  0.999689  0.352935  0.761406  1
  Cd  Cd15  1  0.238284  0.591529  0.238594  1
  Cd  Cd16  1  0.253862  0.253862  0.610964  1
  Cd  Cd17  1  0.000559  0.754252  0.355974  1
  Cd  Cd18  1  0.754252  0.000559  0.355974  1
  Cd  Cd19  1  0.642898  0.642898  0.389036  1
  Cd  Cd20  1  0.398279  0.644586  0.644026  1
  Cd  Cd21  1  0.644586  0.398279  0.644026  1
  Ni  Ni22  1  0.663832  0.001644  0.000000  1
  Ni  Ni23  1  0.001644  0.663832  0.000000  1
  Ni  Ni24  1  0.003229  0.003229  0.661030  1
  Ni  Ni25  1  0.342199  0.342199  0.338970  1
