# generated using pymatgen
data_Lu2Ta(NbSi2)2
_symmetry_space_group_name_H-M   'P 1'
_cell_length_a   7.00048400
_cell_length_b   7.00048400
_cell_length_c   12.92065800
_cell_angle_alpha   90.00000000
_cell_angle_beta   90.00000000
_cell_angle_gamma   90.00000000
_symmetry_Int_Tables_number   1
_chemical_formula_structural   Lu2Ta(NbSi2)2
_chemical_formula_sum   'Lu8 Ta4 Nb8 Si16'
_cell_volume   633.19979541
_cell_formula_units_Z   4
loop_
 _symmetry_equiv_pos_site_id
 _symmetry_equiv_pos_as_xyz
  1  'x, y, z'
loop_
 _atom_site_type_symbol
 _atom_site_label
 _atom_site_symmetry_multiplicity
 _atom_site_fract_x
 _atom_site_fract_y
 _atom_site_fract_z
 _atom_site_occupancy
  Lu  Lu0  1  0.998092  0.342288  0.218027  1
  Lu  Lu1  1  0.001908  0.657712  0.718027  1
  Lu  Lu2  1  0.157712  0.498092  0.468027  1
  Lu  Lu3  1  0.501908  0.842288  0.031973  1
  Lu  Lu4  1  0.842288  0.501908  0.968027  1
  Lu  Lu5  1  0.498092  0.157712  0.531973  1
  Lu  Lu6  1  0.342288  0.998092  0.781973  1
  Lu  Lu7  1  0.657712  0.001908  0.281973  1
  Ta  Ta8  1  0.171764  0.171764  0.000000  1
  Ta  Ta9  1  0.828236  0.828236  0.500000  1
  Ta  Ta10  1  0.328236  0.671764  0.250000  1
  Ta  Ta11  1  0.671764  0.328236  0.750000  1
  Nb  Nb12  1  0.152672  0.993441  0.376337  1
  Nb  Nb13  1  0.847328  0.006559  0.876337  1
  Nb  Nb14  1  0.506559  0.652672  0.626337  1
  Nb  Nb15  1  0.347328  0.493441  0.873663  1
  Nb  Nb16  1  0.493441  0.347328  0.126337  1
  Nb  Nb17  1  0.652672  0.506559  0.373663  1
  Nb  Nb18  1  0.993441  0.152672  0.623663  1
  Nb  Nb19  1  0.006559  0.847328  0.123663  1
  Si  Si20  1  0.295906  0.044982  0.186376  1
  Si  Si21  1  0.704094  0.955018  0.686376  1
  Si  Si22  1  0.455018  0.795906  0.436376  1
  Si  Si23  1  0.204094  0.544982  0.063624  1
  Si  Si24  1  0.544982  0.204094  0.936376  1
  Si  Si25  1  0.795906  0.455018  0.563624  1
  Si  Si26  1  0.044982  0.295906  0.813624  1
  Si  Si27  1  0.955018  0.704094  0.313624  1
  Si  Si28  1  0.363785  0.296484  0.318853  1
  Si  Si29  1  0.636215  0.703516  0.818853  1
  Si  Si30  1  0.203516  0.863785  0.568853  1
  Si  Si31  1  0.136215  0.796484  0.931147  1
  Si  Si32  1  0.796484  0.136215  0.068853  1
  Si  Si33  1  0.863785  0.203516  0.431147  1
  Si  Si34  1  0.296484  0.363785  0.681147  1
  Si  Si35  1  0.703516  0.636215  0.181147  1
