# generated using pymatgen
data_Re3Tc3(Te4Br)2
_symmetry_space_group_name_H-M   'P 1'
_cell_length_a   12.56286800
_cell_length_b   7.07806895
_cell_length_c   11.92914505
_cell_angle_alpha   66.99676584
_cell_angle_beta   90.00000000
_cell_angle_gamma   90.00000000
_symmetry_Int_Tables_number   1
_chemical_formula_structural   Re3Tc3(Te4Br)2
_chemical_formula_sum   'Re6 Tc6 Te16 Br4'
_cell_volume   976.40182182
_cell_formula_units_Z   2
loop_
 _symmetry_equiv_pos_site_id
 _symmetry_equiv_pos_as_xyz
  1  'x, y, z'
loop_
 _atom_site_type_symbol
 _atom_site_label
 _atom_site_symmetry_multiplicity
 _atom_site_fract_x
 _atom_site_fract_y
 _atom_site_fract_z
 _atom_site_occupancy
  Re  Re0  1  0.575002  0.019882  0.357025  1
  Re  Re1  1  0.924998  0.019882  0.857025  1
  Re  Re2  1  0.424877  0.980128  0.642934  1
  Re  Re3  1  0.075123  0.980128  0.142934  1
  Re  Re4  1  0.367377  0.975417  0.428601  1
  Re  Re5  1  0.132623  0.975417  0.928601  1
  Tc  Tc6  1  0.633784  0.024770  0.572042  1
  Tc  Tc7  1  0.866216  0.024770  0.072042  1
  Tc  Tc8  1  0.515088  0.709898  0.562015  1
  Tc  Tc9  1  0.984912  0.709898  0.062015  1
  Tc  Tc10  1  0.484905  0.289705  0.438269  1
  Tc  Tc11  1  0.015095  0.289705  0.938269  1
  Te  Te12  1  0.453882  0.719486  0.332348  1
  Te  Te13  1  0.046118  0.719486  0.832348  1
  Te  Te14  1  0.546061  0.280184  0.666685  1
  Te  Te15  1  0.953939  0.280184  0.166685  1
  Te  Te16  1  0.310612  0.660497  0.637993  1
  Te  Te17  1  0.189388  0.660497  0.137993  1
  Te  Te18  1  0.688781  0.337996  0.362781  1
  Te  Te19  1  0.811219  0.337996  0.862781  1
  Te  Te20  1  0.426350  0.287556  0.219514  1
  Te  Te21  1  0.073650  0.287556  0.719514  1
  Te  Te22  1  0.573324  0.713273  0.779417  1
  Te  Te23  1  0.926676  0.713273  0.279417  1
  Te  Te24  1  0.720809  0.749884  0.494862  1
  Te  Te25  1  0.779191  0.749884  0.994862  1
  Te  Te26  1  0.278297  0.251377  0.505011  1
  Te  Te27  1  0.221703  0.251377  0.005011  1
  Br  Br28  1  0.167468  0.927220  0.357169  1
  Br  Br29  1  0.332532  0.927220  0.857169  1
  Br  Br30  1  0.833452  0.072728  0.643333  1
  Br  Br31  1  0.666548  0.072728  0.143333  1
