# generated using pymatgen
data_In9Pd11Au2
_symmetry_space_group_name_H-M   'P 1'
_cell_length_a   7.27171679
_cell_length_b   7.24420338
_cell_length_c   9.73091557
_cell_angle_alpha   62.45021719
_cell_angle_beta   62.53893289
_cell_angle_gamma   76.67292037
_symmetry_Int_Tables_number   1
_chemical_formula_structural   In9Pd11Au2
_chemical_formula_sum   'In9 Pd11 Au2'
_cell_volume   403.17344706
_cell_formula_units_Z   1
loop_
 _symmetry_equiv_pos_site_id
 _symmetry_equiv_pos_as_xyz
  1  'x, y, z'
loop_
 _atom_site_type_symbol
 _atom_site_label
 _atom_site_symmetry_multiplicity
 _atom_site_fract_x
 _atom_site_fract_y
 _atom_site_fract_z
 _atom_site_occupancy
  In  In0  1  0.255966  0.826642  0.192206  1
  In  In1  1  0.170409  0.177626  0.382771  1
  In  In2  1  0.294812  0.302475  0.664543  1
  In  In3  1  0.830402  0.262794  0.186858  1
  In  In4  1  0.705188  0.697525  0.335457  1
  In  In5  1  0.500000  0.500000  0.000000  1
  In  In6  1  0.744034  0.173358  0.807794  1
  In  In7  1  0.169598  0.737206  0.813142  1
  In  In8  1  0.829591  0.822374  0.617229  1
  Pd  Pd9  1  0.544666  0.064621  0.159648  1
  Pd  Pd10  1  0.547823  0.547283  0.680011  1
  Pd  Pd11  1  0.068287  0.545320  0.158462  1
  Pd  Pd12  1  0.452177  0.452717  0.319989  1
  Pd  Pd13  1  0.256371  0.746343  0.499640  1
  Pd  Pd14  1  0.258970  0.257563  0.991091  1
  Pd  Pd15  1  0.931713  0.454680  0.841538  1
  Pd  Pd16  1  0.741030  0.742437  0.008909  1
  Pd  Pd17  1  0.455334  0.935379  0.840352  1
  Pd  Pd18  1  0.743629  0.253657  0.500360  1
  Pd  Pd19  1  0.000000  0.500000  0.500000  1
  Au  Au20  1  0.500000  0.000000  0.500000  1
  Au  Au21  1  0.000000  0.000000  0.000000  1
