# generated using pymatgen
data_Tm10CoSi2NiBi2
_symmetry_space_group_name_H-M   'P 1'
_cell_length_a   8.43429930
_cell_length_b   8.43429946
_cell_length_c   8.67356294
_cell_angle_alpha   125.46742610
_cell_angle_beta   125.46742618
_cell_angle_gamma   78.84869940
_symmetry_Int_Tables_number   1
_chemical_formula_structural   Tm10CoSi2NiBi2
_chemical_formula_sum   'Tm10 Co1 Si2 Ni1 Bi2'
_cell_volume   399.61739695
_cell_formula_units_Z   1
loop_
 _symmetry_equiv_pos_site_id
 _symmetry_equiv_pos_as_xyz
  1  'x, y, z'
loop_
 _atom_site_type_symbol
 _atom_site_label
 _atom_site_symmetry_multiplicity
 _atom_site_fract_x
 _atom_site_fract_y
 _atom_site_fract_z
 _atom_site_occupancy
  Tm  Tm0  1  0.996888  0.998147  0.995035  1
  Tm  Tm1  1  0.501853  0.503112  0.004965  1
  Tm  Tm2  1  0.777478  0.274270  0.787539  1
  Tm  Tm3  1  0.225730  0.722522  0.212461  1
  Tm  Tm4  1  0.489940  0.986732  0.212461  1
  Tm  Tm5  1  0.295601  0.466242  0.500000  1
  Tm  Tm6  1  0.033758  0.204399  0.500000  1
  Tm  Tm7  1  0.513268  0.010060  0.787539  1
  Tm  Tm8  1  0.701008  0.538588  0.500000  1
  Tm  Tm9  1  0.961412  0.798992  0.500000  1
  Co  Co10  1  0.634273  0.865727  0.500000  1
  Si  Si11  1  0.148994  0.648367  0.797364  1
  Si  Si12  1  0.851633  0.351006  0.202636  1
  Ni  Ni13  1  0.366641  0.133359  0.500000  1
  Bi  Bi14  1  0.250761  0.249239  0.000000  1
  Bi  Bi15  1  0.750761  0.749239  0.000000  1
