# generated using pymatgen
data_Er2Ta2Ni10P7
_symmetry_space_group_name_H-M   'P 1'
_cell_length_a   9.25015803
_cell_length_b   9.19978377
_cell_length_c   3.68123200
_cell_angle_alpha   90.00000000
_cell_angle_beta   90.00000000
_cell_angle_gamma   120.30320234
_symmetry_Int_Tables_number   1
_chemical_formula_structural   Er2Ta2Ni10P7
_chemical_formula_sum   'Er2 Ta2 Ni10 P7'
_cell_volume   270.46780839
_cell_formula_units_Z   1
loop_
 _symmetry_equiv_pos_site_id
 _symmetry_equiv_pos_as_xyz
  1  'x, y, z'
loop_
 _atom_site_type_symbol
 _atom_site_label
 _atom_site_symmetry_multiplicity
 _atom_site_fract_x
 _atom_site_fract_y
 _atom_site_fract_z
 _atom_site_occupancy
  Er  Er0  1  0.993710  0.000889  0.000000  1
  Er  Er1  1  0.337155  0.669520  0.500000  1
  Ta  Ta2  1  0.886839  0.451410  0.500000  1
  Ta  Ta3  1  0.547227  0.432640  0.500000  1
  Ni  Ni4  1  0.296012  0.394468  0.000000  1
  Ni  Ni5  1  0.103499  0.706159  0.000000  1
  Ni  Ni6  1  0.381124  0.170578  0.000000  1
  Ni  Ni7  1  0.797530  0.621720  0.000000  1
  Ni  Ni8  1  0.821686  0.206236  0.000000  1
  Ni  Ni9  1  0.232814  0.948680  0.500000  1
  Ni  Ni10  1  0.049447  0.275435  0.500000  1
  Ni  Ni11  1  0.722126  0.776569  0.500000  1
  Ni  Ni12  1  0.567125  0.109440  0.500000  1
  Ni  Ni13  1  0.600128  0.899375  0.000000  1
  P  P14  1  0.661686  0.324127  0.000000  1
  P  P15  1  0.084467  0.447365  0.000000  1
  P  P16  1  0.251325  0.211563  0.500000  1
  P  P17  1  0.777964  0.044413  0.500000  1
  P  P18  1  0.960374  0.748926  0.500000  1
  P  P19  1  0.555973  0.636507  0.000000  1
  P  P20  1  0.371788  0.923980  0.000000  1
