# generated using pymatgen
data_Dy4Re3(TcB4)3
_symmetry_space_group_name_H-M   'P 1'
_cell_length_a   6.20508989
_cell_length_b   6.21090296
_cell_length_c   7.51209822
_cell_angle_alpha   89.34601922
_cell_angle_beta   89.33968077
_cell_angle_gamma   113.64668408
_symmetry_Int_Tables_number   1
_chemical_formula_structural   Dy4Re3(TcB4)3
_chemical_formula_sum   'Dy4 Re3 Tc3 B12'
_cell_volume   265.14370312
_cell_formula_units_Z   1
loop_
 _symmetry_equiv_pos_site_id
 _symmetry_equiv_pos_as_xyz
  1  'x, y, z'
loop_
 _atom_site_type_symbol
 _atom_site_label
 _atom_site_symmetry_multiplicity
 _atom_site_fract_x
 _atom_site_fract_y
 _atom_site_fract_z
 _atom_site_occupancy
  Dy  Dy0  1  0.898883  0.555224  0.322036  1
  Dy  Dy1  1  0.440929  0.101232  0.177233  1
  Dy  Dy2  1  0.101099  0.443703  0.677961  1
  Dy  Dy3  1  0.557000  0.898810  0.822585  1
  Re  Re4  1  0.807108  0.990456  0.410356  1
  Re  Re5  1  0.990642  0.806100  0.911007  1
  Re  Re6  1  0.193511  0.009539  0.589090  1
  Tc  Tc7  1  0.411522  0.588332  0.250241  1
  Tc  Tc8  1  0.588095  0.411586  0.750431  1
  Tc  Tc9  1  0.009609  0.194546  0.088415  1
  B  B10  1  0.753841  0.848442  0.130181  1
  B  B11  1  0.152322  0.249717  0.371108  1
  B  B12  1  0.248881  0.151354  0.869422  1
  B  B13  1  0.847574  0.751508  0.630039  1
  B  B14  1  0.414343  0.841249  0.481463  1
  B  B15  1  0.158531  0.585152  0.018717  1
  B  B16  1  0.586179  0.158719  0.518021  1
  B  B17  1  0.840891  0.414841  0.981156  1
  B  B18  1  0.557267  0.649574  0.534718  1
  B  B19  1  0.349928  0.442561  0.965448  1
  B  B20  1  0.442776  0.350409  0.465378  1
  B  B21  1  0.649071  0.556947  0.034993  1
