# generated using pymatgen
data_Rb8Ho(TaBr8)3
_symmetry_space_group_name_H-M   'P 1'
_cell_length_a   13.29035823
_cell_length_b   13.29035798
_cell_length_c   13.29035900
_cell_angle_alpha   131.51242494
_cell_angle_beta   131.51242400
_cell_angle_gamma   71.00019451
_symmetry_Int_Tables_number   1
_chemical_formula_structural   Rb8Ho(TaBr8)3
_chemical_formula_sum   'Rb8 Ho1 Ta3 Br24'
_cell_volume   1288.94907785
_cell_formula_units_Z   1
loop_
 _symmetry_equiv_pos_site_id
 _symmetry_equiv_pos_as_xyz
  1  'x, y, z'
loop_
 _atom_site_type_symbol
 _atom_site_label
 _atom_site_symmetry_multiplicity
 _atom_site_fract_x
 _atom_site_fract_y
 _atom_site_fract_z
 _atom_site_occupancy
  Rb  Rb0  1  0.119933  0.640615  0.001262  1
  Rb  Rb1  1  0.359385  0.880067  0.998738  1
  Rb  Rb2  1  0.639040  0.641003  0.520364  1
  Rb  Rb3  1  0.358997  0.360960  0.479636  1
  Rb  Rb4  1  0.881063  0.360742  0.001587  1
  Rb  Rb5  1  0.881180  0.880144  0.520629  1
  Rb  Rb6  1  0.119856  0.118820  0.479371  1
  Rb  Rb7  1  0.639258  0.118937  0.998413  1
  Ho  Ho8  1  0.000547  0.999453  0.000000  1
  Ta  Ta9  1  0.749958  0.250042  0.500000  1
  Ta  Ta10  1  0.500365  0.499635  0.000000  1
  Ta  Ta11  1  0.249733  0.750267  0.500000  1
  Br  Br12  1  0.256488  0.000308  0.255255  1
  Br  Br13  1  0.999692  0.743512  0.744745  1
  Br  Br14  1  0.251827  0.987156  0.735578  1
  Br  Br15  1  0.747665  0.484133  0.735793  1
  Br  Br16  1  0.484258  0.748112  0.735741  1
  Br  Br17  1  0.128529  0.128193  0.999927  1
  Br  Br18  1  0.500226  0.734999  0.234470  1
  Br  Br19  1  0.867580  0.368420  0.499663  1
  Br  Br20  1  0.999841  0.254007  0.255264  1
  Br  Br21  1  0.381261  0.381630  0.999765  1
  Br  Br22  1  0.618370  0.618739  0.000235  1
  Br  Br23  1  0.500253  0.265959  0.765397  1
  Br  Br24  1  0.265001  0.499774  0.765530  1
  Br  Br25  1  0.515867  0.252335  0.264207  1
  Br  Br26  1  0.369464  0.868970  0.500034  1
  Br  Br27  1  0.631580  0.132420  0.500337  1
  Br  Br28  1  0.251888  0.515742  0.264259  1
  Br  Br29  1  0.131030  0.630536  0.499966  1
  Br  Br30  1  0.012844  0.748173  0.264422  1
  Br  Br31  1  0.987309  0.252123  0.735837  1
  Br  Br32  1  0.745993  0.000159  0.744736  1
  Br  Br33  1  0.734041  0.499747  0.234603  1
  Br  Br34  1  0.747877  0.012691  0.264163  1
  Br  Br35  1  0.871807  0.871471  0.000073  1
