# generated using pymatgen
data_Y5In4RuAu
_symmetry_space_group_name_H-M   'P 1'
_cell_length_a   18.45271500
_cell_length_b   8.28080000
_cell_length_c   3.58954400
_cell_angle_alpha   90.00000000
_cell_angle_beta   90.00000000
_cell_angle_gamma   90.00000000
_symmetry_Int_Tables_number   1
_chemical_formula_structural   Y5In4RuAu
_chemical_formula_sum   'Y10 In8 Ru2 Au2'
_cell_volume   548.49396184
_cell_formula_units_Z   2
loop_
 _symmetry_equiv_pos_site_id
 _symmetry_equiv_pos_as_xyz
  1  'x, y, z'
loop_
 _atom_site_type_symbol
 _atom_site_label
 _atom_site_symmetry_multiplicity
 _atom_site_fract_x
 _atom_site_fract_y
 _atom_site_fract_z
 _atom_site_occupancy
  Y  Y0  1  0.001014  0.001633  0.000000  1
  Y  Y1  1  0.419067  0.122100  0.000000  1
  Y  Y2  1  0.218552  0.257315  0.000000  1
  Y  Y3  1  0.718552  0.242685  0.000000  1
  Y  Y4  1  0.919067  0.377900  0.000000  1
  Y  Y5  1  0.501014  0.498367  0.000000  1
  Y  Y6  1  0.084801  0.612972  0.000000  1
  Y  Y7  1  0.278525  0.717969  0.000000  1
  Y  Y8  1  0.778524  0.782030  0.000000  1
  Y  Y9  1  0.584801  0.887029  0.000000  1
  In  In10  1  0.850883  0.076527  0.500000  1
  In  In11  1  0.570213  0.207218  0.500000  1
  In  In12  1  0.070213  0.292783  0.500000  1
  In  In13  1  0.350883  0.423474  0.500000  1
  In  In14  1  0.648384  0.584774  0.500000  1
  In  In15  1  0.932802  0.707722  0.500000  1
  In  In16  1  0.432802  0.792279  0.500000  1
  In  In17  1  0.148385  0.915227  0.500000  1
  Ru  Ru18  1  0.194872  0.518783  0.500000  1
  Ru  Ru19  1  0.694872  0.981217  0.500000  1
  Au  Au20  1  0.300887  0.018770  0.500000  1
  Au  Au21  1  0.800887  0.481230  0.500000  1
