# generated using pymatgen
data_LaTh7Zn8PtRh7
_symmetry_space_group_name_H-M   'P 1'
_cell_length_a   3.96544700
_cell_length_b   7.54492726
_cell_length_c   16.61941855
_cell_angle_alpha   89.78667337
_cell_angle_beta   90.00000000
_cell_angle_gamma   90.00000000
_symmetry_Int_Tables_number   1
_chemical_formula_structural   LaTh7Zn8PtRh7
_chemical_formula_sum   'La1 Th7 Zn8 Pt1 Rh7'
_cell_volume   497.23308957
_cell_formula_units_Z   1
loop_
 _symmetry_equiv_pos_site_id
 _symmetry_equiv_pos_as_xyz
  1  'x, y, z'
loop_
 _atom_site_type_symbol
 _atom_site_label
 _atom_site_symmetry_multiplicity
 _atom_site_fract_x
 _atom_site_fract_y
 _atom_site_fract_z
 _atom_site_occupancy
  La  La0  1  0.750000  0.937655  0.285186  1
  Th  Th1  1  0.750000  0.330184  0.443305  1
  Th  Th2  1  0.250000  0.062053  0.715613  1
  Th  Th3  1  0.250000  0.561746  0.785474  1
  Th  Th4  1  0.250000  0.675629  0.560801  1
  Th  Th5  1  0.750000  0.823484  0.059588  1
  Th  Th6  1  0.250000  0.171480  0.939622  1
  Th  Th7  1  0.750000  0.444527  0.212301  1
  Zn  Zn8  1  0.250000  0.111871  0.151981  1
  Zn  Zn9  1  0.250000  0.997207  0.441417  1
  Zn  Zn10  1  0.750000  0.887325  0.847049  1
  Zn  Zn11  1  0.750000  0.005053  0.560032  1
  Zn  Zn12  1  0.250000  0.491821  0.057098  1
  Zn  Zn13  1  0.750000  0.388303  0.653737  1
  Zn  Zn14  1  0.750000  0.502608  0.940458  1
  Zn  Zn15  1  0.250000  0.616970  0.347911  1
  Pt  Pt16  1  0.250000  0.252386  0.314770  1
  Rh  Rh17  1  0.750000  0.258368  0.815073  1
  Rh  Rh18  1  0.250000  0.754113  0.936909  1
  Rh  Rh19  1  0.250000  0.257017  0.563275  1
  Rh  Rh20  1  0.250000  0.728155  0.179814  1
  Rh  Rh21  1  0.750000  0.741138  0.440976  1
  Rh  Rh22  1  0.750000  0.240425  0.061839  1
  Rh  Rh23  1  0.750000  0.760484  0.685769  1
