# generated using pymatgen
data_Ti13Al9(RuPt)4
_symmetry_space_group_name_H-M   'P 1'
_cell_length_a   8.79526321
_cell_length_b   8.79526270
_cell_length_c   8.76291020
_cell_angle_alpha   59.53857289
_cell_angle_beta   59.53857903
_cell_angle_gamma   59.42474056
_symmetry_Int_Tables_number   1
_chemical_formula_structural   Ti13Al9(RuPt)4
_chemical_formula_sum   'Ti13 Al9 Ru4 Pt4'
_cell_volume   473.88108863
_cell_formula_units_Z   1
loop_
 _symmetry_equiv_pos_site_id
 _symmetry_equiv_pos_as_xyz
  1  'x, y, z'
loop_
 _atom_site_type_symbol
 _atom_site_label
 _atom_site_symmetry_multiplicity
 _atom_site_fract_x
 _atom_site_fract_y
 _atom_site_fract_z
 _atom_site_occupancy
  Ti  Ti0  1  0.210381  0.210381  0.789591  1
  Ti  Ti1  1  0.786866  0.213535  0.210820  1
  Ti  Ti2  1  0.213535  0.786866  0.210820  1
  Ti  Ti3  1  0.797179  0.797179  0.192507  1
  Ti  Ti4  1  0.191962  0.797744  0.797891  1
  Ti  Ti5  1  0.797744  0.191962  0.797891  1
  Ti  Ti6  1  0.376646  0.376646  0.383908  1
  Ti  Ti7  1  0.382276  0.863199  0.383432  1
  Ti  Ti8  1  0.863199  0.382276  0.383432  1
  Ti  Ti9  1  0.381124  0.381124  0.862543  1
  Ti  Ti10  1  0.846903  0.470662  0.837452  1
  Ti  Ti11  1  0.470662  0.846903  0.837452  1
  Ti  Ti12  1  0.842903  0.842903  0.465406  1
  Al  Al13  1  0.152251  0.152251  0.154238  1
  Al  Al14  1  0.154393  0.530742  0.163907  1
  Al  Al15  1  0.530742  0.154393  0.163907  1
  Al  Al16  1  0.160565  0.160565  0.529087  1
  Al  Al17  1  0.621256  0.621256  0.614942  1
  Al  Al18  1  0.618272  0.144739  0.614988  1
  Al  Al19  1  0.144739  0.618272  0.614988  1
  Al  Al20  1  0.618838  0.618838  0.143846  1
  Al  Al21  1  0.828964  0.828964  0.827715  1
  Ru  Ru22  1  0.999360  0.500176  0.502098  1
  Ru  Ru23  1  0.500176  0.999360  0.502098  1
  Ru  Ru24  1  0.500775  0.500775  0.501081  1
  Ru  Ru25  1  0.003554  0.003554  0.005966  1
  Pt  Pt26  1  0.004207  0.004207  0.498747  1
  Pt  Pt27  1  0.497821  0.005365  0.003433  1
  Pt  Pt28  1  0.005365  0.497821  0.003433  1
  Pt  Pt29  1  0.497337  0.497337  0.002380  1
