# generated using pymatgen
data_Tb3DyLu4(WO6)4
_symmetry_space_group_name_H-M   'P 1'
_cell_length_a   5.37665700
_cell_length_b   7.65791674
_cell_length_c   11.34624661
_cell_angle_alpha   75.62156198
_cell_angle_beta   90.00000000
_cell_angle_gamma   90.00000000
_symmetry_Int_Tables_number   1
_chemical_formula_structural   Tb3DyLu4(WO6)4
_chemical_formula_sum   'Tb3 Dy1 Lu4 W4 O24'
_cell_volume   452.53694015
_cell_formula_units_Z   1
loop_
 _symmetry_equiv_pos_site_id
 _symmetry_equiv_pos_as_xyz
  1  'x, y, z'
loop_
 _atom_site_type_symbol
 _atom_site_label
 _atom_site_symmetry_multiplicity
 _atom_site_fract_x
 _atom_site_fract_y
 _atom_site_fract_z
 _atom_site_occupancy
  Tb  Tb0  1  0.256883  0.000000  0.750000  1
  Tb  Tb1  1  0.315641  0.500000  0.750000  1
  Tb  Tb2  1  0.684488  0.500000  0.250000  1
  Dy  Dy3  1  0.742919  0.000000  0.250000  1
  Lu  Lu4  1  0.182629  0.793404  0.079279  1
  Lu  Lu5  1  0.182629  0.206596  0.420721  1
  Lu  Lu6  1  0.817275  0.206702  0.920922  1
  Lu  Lu7  1  0.817275  0.793298  0.579078  1
  W  W8  1  0.743617  0.724017  0.886154  1
  W  W9  1  0.256423  0.724254  0.386043  1
  W  W10  1  0.743617  0.275983  0.613846  1
  W  W11  1  0.256423  0.275746  0.113957  1
  O  O12  1  0.540504  0.157630  0.066843  1
  O  O13  1  0.048385  0.058037  0.102456  1
  O  O14  1  0.017763  0.712935  0.770190  1
  O  O15  1  0.459733  0.158029  0.566479  1
  O  O16  1  0.356531  0.487993  0.386718  1
  O  O17  1  0.950740  0.058179  0.602012  1
  O  O18  1  0.545922  0.791802  0.725247  1
  O  O19  1  0.454838  0.792420  0.225249  1
  O  O20  1  0.145355  0.635660  0.549596  1
  O  O21  1  0.048385  0.941963  0.397544  1
  O  O22  1  0.459733  0.841971  0.933521  1
  O  O23  1  0.454838  0.207580  0.274751  1
  O  O24  1  0.854820  0.364545  0.450326  1
  O  O25  1  0.643352  0.487824  0.886825  1
  O  O26  1  0.356531  0.512007  0.113282  1
  O  O27  1  0.950740  0.941821  0.897988  1
  O  O28  1  0.540504  0.842370  0.433157  1
  O  O29  1  0.982146  0.286736  0.229861  1
  O  O30  1  0.545922  0.208198  0.774753  1
  O  O31  1  0.854820  0.635455  0.049674  1
  O  O32  1  0.017763  0.287065  0.729810  1
  O  O33  1  0.145355  0.364340  0.950404  1
  O  O34  1  0.982146  0.713264  0.270139  1
  O  O35  1  0.643352  0.512176  0.613175  1
