# generated using pymatgen
data_Ho7Tm(ThRh)6
_symmetry_space_group_name_H-M   'P 1'
_cell_length_a   9.85844000
_cell_length_b   9.76978495
_cell_length_c   6.34092038
_cell_angle_alpha   90.10379561
_cell_angle_beta   90.00000000
_cell_angle_gamma   120.30063587
_symmetry_Int_Tables_number   1
_chemical_formula_structural   Ho7Tm(ThRh)6
_chemical_formula_sum   'Ho7 Tm1 Th6 Rh6'
_cell_volume   527.29242863
_cell_formula_units_Z   1
loop_
 _symmetry_equiv_pos_site_id
 _symmetry_equiv_pos_as_xyz
  1  'x, y, z'
loop_
 _atom_site_type_symbol
 _atom_site_label
 _atom_site_symmetry_multiplicity
 _atom_site_fract_x
 _atom_site_fract_y
 _atom_site_fract_z
 _atom_site_occupancy
  Ho  Ho0  1  0.872917  0.745835  0.740591  1
  Ho  Ho1  1  0.539798  0.463620  0.445292  1
  Ho  Ho2  1  0.923823  0.463620  0.445292  1
  Ho  Ho3  1  0.538317  0.076633  0.444732  1
  Ho  Ho4  1  0.461714  0.540865  0.940643  1
  Ho  Ho5  1  0.079149  0.540865  0.940643  1
  Ho  Ho6  1  0.460530  0.921062  0.941155  1
  Tm  Tm7  1  0.333040  0.666082  0.461479  1
  Th  Th8  1  0.666390  0.332779  0.959671  1
  Th  Th9  1  0.127961  0.868955  0.244024  1
  Th  Th10  1  0.740994  0.868955  0.244024  1
  Th  Th11  1  0.129656  0.259311  0.242923  1
  Th  Th12  1  0.869439  0.125272  0.739526  1
  Th  Th13  1  0.255833  0.125272  0.739526  1
  Rh  Rh14  1  0.813801  0.185430  0.195949  1
  Rh  Rh15  1  0.371627  0.185430  0.195949  1
  Rh  Rh16  1  0.813346  0.626693  0.196713  1
  Rh  Rh17  1  0.191842  0.818152  0.692377  1
  Rh  Rh18  1  0.626311  0.818152  0.692377  1
  Rh  Rh19  1  0.183509  0.367017  0.700656  1
