# generated using pymatgen
data_NaLa3(Mo2O7)2
_symmetry_space_group_name_H-M   'P 1'
_cell_length_a   7.61587731
_cell_length_b   7.53483928
_cell_length_c   7.55780500
_cell_angle_alpha   119.34565639
_cell_angle_beta   120.43931929
_cell_angle_gamma   90.04958067
_symmetry_Int_Tables_number   1
_chemical_formula_structural   NaLa3(Mo2O7)2
_chemical_formula_sum   'Na1 La3 Mo4 O14'
_cell_volume   307.50671961
_cell_formula_units_Z   1
loop_
 _symmetry_equiv_pos_site_id
 _symmetry_equiv_pos_as_xyz
  1  'x, y, z'
loop_
 _atom_site_type_symbol
 _atom_site_label
 _atom_site_symmetry_multiplicity
 _atom_site_fract_x
 _atom_site_fract_y
 _atom_site_fract_z
 _atom_site_occupancy
  Na  Na0  1  0.375000  0.625000  0.750000  1
  La  La1  1  0.375000  0.625000  0.250000  1
  La  La2  1  0.875000  0.625000  0.250000  1
  La  La3  1  0.375000  0.125000  0.750000  1
  Mo  Mo4  1  0.875000  0.625000  0.750000  1
  Mo  Mo5  1  0.375000  0.125000  0.250000  1
  Mo  Mo6  1  0.875000  0.125000  0.250000  1
  Mo  Mo7  1  0.875000  0.125000  0.750000  1
  O  O8  1  0.786719  0.196110  0.994286  1
  O  O9  1  0.555751  0.444521  0.494908  1
  O  O10  1  0.204854  0.201395  0.999978  1
  O  O11  1  0.935523  0.427363  0.481380  1
  O  O12  1  0.801796  0.797825  0.591451  1
  O  O13  1  0.552968  0.062453  0.121962  1
  O  O14  1  0.247609  0.751617  0.494920  1
  O  O15  1  0.948204  0.452175  0.908549  1
  O  O16  1  0.963281  0.053890  0.505714  1
  O  O17  1  0.545146  0.048605  0.500022  1
  O  O18  1  0.197032  0.187547  0.378038  1
  O  O19  1  0.502391  0.498383  0.005080  1
  O  O20  1  0.814477  0.822637  0.018620  1
  O  O21  1  0.194249  0.805479  0.005092  1
