# generated using pymatgen
data_Ho4BeCo3Br2
_symmetry_space_group_name_H-M   'P 1'
_cell_length_a   3.89724100
_cell_length_b   3.89724113
_cell_length_c   16.35948600
_cell_angle_alpha   90.00000000
_cell_angle_beta   90.00000000
_cell_angle_gamma   120.00002432
_symmetry_Int_Tables_number   1
_chemical_formula_structural   Ho4BeCo3Br2
_chemical_formula_sum   'Ho4 Be1 Co3 Br2'
_cell_volume   215.18635057
_cell_formula_units_Z   1
loop_
 _symmetry_equiv_pos_site_id
 _symmetry_equiv_pos_as_xyz
  1  'x, y, z'
loop_
 _atom_site_type_symbol
 _atom_site_label
 _atom_site_symmetry_multiplicity
 _atom_site_fract_x
 _atom_site_fract_y
 _atom_site_fract_z
 _atom_site_occupancy
  Ho  Ho0  1  0.000000  0.000000  0.107337  1
  Ho  Ho1  1  0.000000  0.000000  0.892575  1
  Ho  Ho2  1  0.000000  0.000000  0.603572  1
  Ho  Ho3  1  0.000000  0.000000  0.396209  1
  Be  Be4  1  0.333333  0.666667  0.500424  1
  Co  Co5  1  0.666667  0.333333  0.499066  1
  Co  Co6  1  0.666667  0.333333  0.002679  1
  Co  Co7  1  0.333333  0.666667  0.997518  1
  Br  Br8  1  0.333333  0.666667  0.249547  1
  Br  Br9  1  0.666667  0.333333  0.751074  1
