# generated using pymatgen
data_Tb16In4Ru3Pt
_symmetry_space_group_name_H-M   'P 1'
_cell_length_a   9.71818301
_cell_length_b   9.72725928
_cell_length_c   9.72332786
_cell_angle_alpha   59.92255839
_cell_angle_beta   59.92131600
_cell_angle_gamma   59.92909086
_symmetry_Int_Tables_number   1
_chemical_formula_structural   Tb16In4Ru3Pt
_chemical_formula_sum   'Tb16 In4 Ru3 Pt1'
_cell_volume   648.82762030
_cell_formula_units_Z   1
loop_
 _symmetry_equiv_pos_site_id
 _symmetry_equiv_pos_as_xyz
  1  'x, y, z'
loop_
 _atom_site_type_symbol
 _atom_site_label
 _atom_site_symmetry_multiplicity
 _atom_site_fract_x
 _atom_site_fract_y
 _atom_site_fract_z
 _atom_site_occupancy
  Tb  Tb0  1  0.809412  0.809313  0.191569  1
  Tb  Tb1  1  0.809252  0.191470  0.809604  1
  Tb  Tb2  1  0.186773  0.197697  0.810302  1
  Tb  Tb3  1  0.653807  0.045417  0.649363  1
  Tb  Tb4  1  0.059359  0.058233  0.441182  1
  Tb  Tb5  1  0.441583  0.435180  0.061732  1
  Tb  Tb6  1  0.654981  0.649812  0.649612  1
  Tb  Tb7  1  0.811391  0.191320  0.191371  1
  Tb  Tb8  1  0.186732  0.808975  0.809414  1
  Tb  Tb9  1  0.043503  0.651751  0.651652  1
  Tb  Tb10  1  0.442273  0.060684  0.060681  1
  Tb  Tb11  1  0.441494  0.061796  0.435133  1
  Tb  Tb12  1  0.059138  0.441294  0.058164  1
  Tb  Tb13  1  0.653727  0.649612  0.045213  1
  Tb  Tb14  1  0.186934  0.809901  0.197869  1
  Tb  Tb15  1  0.061847  0.439281  0.439381  1
  In  In16  1  0.418467  0.417893  0.417941  1
  In  In17  1  0.418255  0.417967  0.746376  1
  In  In18  1  0.418243  0.746369  0.417981  1
  In  In19  1  0.748112  0.417138  0.417406  1
  Ru  Ru20  1  0.857746  0.420130  0.858893  1
  Ru  Ru21  1  0.857200  0.861268  0.860894  1
  Ru  Ru22  1  0.857856  0.859038  0.420087  1
  Pt  Pt23  1  0.421913  0.858460  0.858179  1
