# generated using pymatgen
data_Yb20Ag15Au
_symmetry_space_group_name_H-M   'P 1'
_cell_length_a   7.91582549
_cell_length_b   8.12125816
_cell_length_c   15.27782400
_cell_angle_alpha   90.00000000
_cell_angle_beta   90.00000000
_cell_angle_gamma   90.14393727
_symmetry_Int_Tables_number   1
_chemical_formula_structural   Yb20Ag15Au
_chemical_formula_sum   'Yb20 Ag15 Au1'
_cell_volume   982.15415818
_cell_formula_units_Z   1
loop_
 _symmetry_equiv_pos_site_id
 _symmetry_equiv_pos_as_xyz
  1  'x, y, z'
loop_
 _atom_site_type_symbol
 _atom_site_label
 _atom_site_symmetry_multiplicity
 _atom_site_fract_x
 _atom_site_fract_y
 _atom_site_fract_z
 _atom_site_occupancy
  Yb  Yb0  1  0.995105  0.178814  0.405206  1
  Yb  Yb1  1  0.831136  0.668171  0.377675  1
  Yb  Yb2  1  0.495146  0.321794  0.094101  1
  Yb  Yb3  1  0.166467  0.328975  0.623945  1
  Yb  Yb4  1  0.330190  0.832891  0.377495  1
  Yb  Yb5  1  0.166467  0.328975  0.876055  1
  Yb  Yb6  1  0.330190  0.832891  0.122505  1
  Yb  Yb7  1  0.165775  0.489260  0.250000  1
  Yb  Yb8  1  0.495146  0.321794  0.405899  1
  Yb  Yb9  1  0.835398  0.507641  0.750000  1
  Yb  Yb10  1  0.004364  0.825498  0.902389  1
  Yb  Yb11  1  0.004364  0.825498  0.597611  1
  Yb  Yb12  1  0.504175  0.677793  0.595141  1
  Yb  Yb13  1  0.673164  0.165658  0.624210  1
  Yb  Yb14  1  0.331029  0.990640  0.750000  1
  Yb  Yb15  1  0.673164  0.165658  0.875790  1
  Yb  Yb16  1  0.665420  0.011038  0.250000  1
  Yb  Yb17  1  0.831136  0.668171  0.122325  1
  Yb  Yb18  1  0.504175  0.677793  0.904859  1
  Yb  Yb19  1  0.995105  0.178814  0.094794  1
  Ag  Ag20  1  0.790346  0.364271  0.250000  1
  Ag  Ag21  1  0.468542  0.390260  0.750000  1
  Ag  Ag22  1  0.706762  0.860147  0.750000  1
  Ag  Ag23  1  0.831886  0.467791  0.541680  1
  Ag  Ag24  1  0.667713  0.968011  0.041362  1
  Ag  Ag25  1  0.831886  0.467791  0.958320  1
  Ag  Ag26  1  0.167666  0.532440  0.459248  1
  Ag  Ag27  1  0.167666  0.532440  0.040752  1
  Ag  Ag28  1  0.210932  0.635180  0.750000  1
  Ag  Ag29  1  0.291348  0.137141  0.250000  1
  Ag  Ag30  1  0.531654  0.609404  0.250000  1
  Ag  Ag31  1  0.031356  0.891845  0.250000  1
  Ag  Ag32  1  0.333745  0.032636  0.958336  1
  Ag  Ag33  1  0.667713  0.968011  0.458638  1
  Ag  Ag34  1  0.333745  0.032636  0.541664  1
  Au  Au35  1  0.969923  0.112224  0.750000  1
