# generated using pymatgen
data_Sc20Cd3Ni2Au3
_symmetry_space_group_name_H-M   'P 1'
_cell_length_a   8.89605400
_cell_length_b   8.89610147
_cell_length_c   8.92556700
_cell_angle_alpha   90.00000000
_cell_angle_beta   90.00000000
_cell_angle_gamma   119.99981796
_symmetry_Int_Tables_number   1
_chemical_formula_structural   Sc20Cd3Ni2Au3
_chemical_formula_sum   'Sc20 Cd3 Ni2 Au3'
_cell_volume   611.73648211
_cell_formula_units_Z   1
loop_
 _symmetry_equiv_pos_site_id
 _symmetry_equiv_pos_as_xyz
  1  'x, y, z'
loop_
 _atom_site_type_symbol
 _atom_site_label
 _atom_site_symmetry_multiplicity
 _atom_site_fract_x
 _atom_site_fract_y
 _atom_site_fract_z
 _atom_site_occupancy
  Sc  Sc0  1  0.999980  0.999996  0.477267  1
  Sc  Sc1  1  0.999980  0.999996  0.022733  1
  Sc  Sc2  1  0.542736  0.457246  0.250000  1
  Sc  Sc3  1  0.542791  0.085495  0.250000  1
  Sc  Sc4  1  0.914490  0.457253  0.250000  1
  Sc  Sc5  1  0.457964  0.542025  0.750000  1
  Sc  Sc6  1  0.457993  0.915940  0.750000  1
  Sc  Sc7  1  0.084041  0.542033  0.750000  1
  Sc  Sc8  1  0.209520  0.790521  0.438491  1
  Sc  Sc9  1  0.209437  0.418952  0.438489  1
  Sc  Sc10  1  0.581047  0.790522  0.438474  1
  Sc  Sc11  1  0.790106  0.209895  0.559352  1
  Sc  Sc12  1  0.790094  0.580200  0.559344  1
  Sc  Sc13  1  0.419805  0.209893  0.559334  1
  Sc  Sc14  1  0.790106  0.209895  0.940648  1
  Sc  Sc15  1  0.790094  0.580200  0.940656  1
  Sc  Sc16  1  0.419805  0.209893  0.940666  1
  Sc  Sc17  1  0.209520  0.790521  0.061509  1
  Sc  Sc18  1  0.209437  0.418952  0.061511  1
  Sc  Sc19  1  0.581047  0.790522  0.061526  1
  Cd  Cd20  1  0.113177  0.886844  0.750000  1
  Cd  Cd21  1  0.113145  0.226333  0.750000  1
  Cd  Cd22  1  0.773663  0.886822  0.750000  1
  Ni  Ni23  1  0.333361  0.666689  0.250000  1
  Ni  Ni24  1  0.666666  0.333359  0.750000  1
  Au  Au25  1  0.876330  0.123742  0.250000  1
  Au  Au26  1  0.876254  0.752581  0.250000  1
  Au  Au27  1  0.247416  0.123681  0.250000  1
