# generated using pymatgen
data_ErLu7Sc11Si16W
_symmetry_space_group_name_H-M   'P 1'
_cell_length_a   7.00882813
_cell_length_b   7.25537371
_cell_length_c   13.77676000
_cell_angle_alpha   90.18693680
_cell_angle_beta   89.55523968
_cell_angle_gamma   89.65036903
_symmetry_Int_Tables_number   1
_chemical_formula_structural   ErLu7Sc11Si16W
_chemical_formula_sum   'Er1 Lu7 Sc11 Si16 W1'
_cell_volume   700.53322789
_cell_formula_units_Z   1
loop_
 _symmetry_equiv_pos_site_id
 _symmetry_equiv_pos_as_xyz
  1  'x, y, z'
loop_
 _atom_site_type_symbol
 _atom_site_label
 _atom_site_symmetry_multiplicity
 _atom_site_fract_x
 _atom_site_fract_y
 _atom_site_fract_z
 _atom_site_occupancy
  Er  Er0  1  0.487750  0.675892  0.595596  1
  Lu  Lu1  1  0.011985  0.175299  0.096968  1
  Lu  Lu2  1  0.989075  0.825317  0.899107  1
  Lu  Lu3  1  0.487294  0.678995  0.899577  1
  Lu  Lu4  1  0.993161  0.829319  0.595728  1
  Lu  Lu5  1  0.513264  0.322776  0.096345  1
  Lu  Lu6  1  0.009872  0.175519  0.403892  1
  Lu  Lu7  1  0.507152  0.322311  0.409992  1
  Sc  Sc8  1  0.162521  0.497615  0.745545  1
  Sc  Sc9  1  0.838112  0.496605  0.251663  1
  Sc  Sc10  1  0.337154  0.004238  0.252463  1
  Sc  Sc11  1  0.659237  0.000516  0.747526  1
  Sc  Sc12  1  0.666123  0.825889  0.379231  1
  Sc  Sc13  1  0.167849  0.678734  0.378438  1
  Sc  Sc14  1  0.669518  0.824260  0.124428  1
  Sc  Sc15  1  0.832547  0.322366  0.623259  1
  Sc  Sc16  1  0.332522  0.176353  0.875082  1
  Sc  Sc17  1  0.830026  0.322677  0.872426  1
  Sc  Sc18  1  0.170418  0.677114  0.125487  1
  Si  Si19  1  0.041322  0.118972  0.745096  1
  Si  Si20  1  0.964466  0.887765  0.251264  1
  Si  Si21  1  0.467566  0.614763  0.250791  1
  Si  Si22  1  0.530784  0.376753  0.746174  1
  Si  Si23  1  0.286388  0.877155  0.745953  1
  Si  Si24  1  0.711611  0.129661  0.250831  1
  Si  Si25  1  0.216137  0.370626  0.250585  1
  Si  Si26  1  0.784587  0.626947  0.747024  1
  Si  Si27  1  0.176393  0.450986  0.539912  1
  Si  Si28  1  0.841020  0.530987  0.460650  1
  Si  Si29  1  0.330555  0.970633  0.470832  1
  Si  Si30  1  0.843854  0.534160  0.039080  1
  Si  Si31  1  0.648433  0.034869  0.544650  1
  Si  Si32  1  0.156294  0.467344  0.958951  1
  Si  Si33  1  0.662458  0.034726  0.958935  1
  Si  Si34  1  0.339600  0.964235  0.038439  1
  W  W35  1  0.332951  0.177625  0.628077  1
