# generated using pymatgen
data_Er2Lu2TiOs7
_symmetry_space_group_name_H-M   'P 1'
_cell_length_a   5.37920300
_cell_length_b   5.37920273
_cell_length_c   8.60963000
_cell_angle_alpha   90.00000000
_cell_angle_beta   90.00000000
_cell_angle_gamma   119.99998323
_symmetry_Int_Tables_number   1
_chemical_formula_structural   Er2Lu2TiOs7
_chemical_formula_sum   'Er2 Lu2 Ti1 Os7'
_cell_volume   215.75011649
_cell_formula_units_Z   1
loop_
 _symmetry_equiv_pos_site_id
 _symmetry_equiv_pos_as_xyz
  1  'x, y, z'
loop_
 _atom_site_type_symbol
 _atom_site_label
 _atom_site_symmetry_multiplicity
 _atom_site_fract_x
 _atom_site_fract_y
 _atom_site_fract_z
 _atom_site_occupancy
  Er  Er0  1  0.333333  0.666667  0.438383  1
  Er  Er1  1  0.666667  0.333333  0.561617  1
  Lu  Lu2  1  0.666667  0.333333  0.929000  1
  Lu  Lu3  1  0.333333  0.666667  0.071000  1
  Ti  Ti4  1  0.000000  0.000000  0.000000  1
  Os  Os5  1  0.172727  0.345455  0.752481  1
  Os  Os6  1  0.172727  0.827273  0.752481  1
  Os  Os7  1  0.345455  0.172727  0.247519  1
  Os  Os8  1  0.827273  0.654545  0.247519  1
  Os  Os9  1  0.654545  0.827273  0.752481  1
  Os  Os10  1  0.827273  0.172727  0.247519  1
  Os  Os11  1  0.000000  0.000000  0.500000  1
