# generated using pymatgen
data_Na2Mg3Si12Ir19
_symmetry_space_group_name_H-M   'P 1'
_cell_length_a   12.73521200
_cell_length_b   12.73521327
_cell_length_c   3.97334700
_cell_angle_alpha   90.00000000
_cell_angle_beta   90.00000000
_cell_angle_gamma   120.00000190
_symmetry_Int_Tables_number   1
_chemical_formula_structural   Na2Mg3Si12Ir19
_chemical_formula_sum   'Na2 Mg3 Si12 Ir19'
_cell_volume   558.08393224
_cell_formula_units_Z   1
loop_
 _symmetry_equiv_pos_site_id
 _symmetry_equiv_pos_as_xyz
  1  'x, y, z'
loop_
 _atom_site_type_symbol
 _atom_site_label
 _atom_site_symmetry_multiplicity
 _atom_site_fract_x
 _atom_site_fract_y
 _atom_site_fract_z
 _atom_site_occupancy
  Na  Na0  1  0.333333  0.666667  0.000000  1
  Na  Na1  1  0.666667  0.333333  0.000000  1
  Mg  Mg2  1  0.000000  0.821544  0.500000  1
  Mg  Mg3  1  0.178456  0.178456  0.500000  1
  Mg  Mg4  1  0.821544  0.000000  0.500000  1
  Si  Si5  1  0.000000  0.179617  0.000000  1
  Si  Si6  1  0.820383  0.820383  0.000000  1
  Si  Si7  1  0.179617  0.000000  0.000000  1
  Si  Si8  1  0.519644  0.686925  0.500000  1
  Si  Si9  1  0.313075  0.832719  0.500000  1
  Si  Si10  1  0.167281  0.480356  0.500000  1
  Si  Si11  1  0.480356  0.167281  0.500000  1
  Si  Si12  1  0.686925  0.519644  0.500000  1
  Si  Si13  1  0.832719  0.313075  0.500000  1
  Si  Si14  1  0.000000  0.629434  0.000000  1
  Si  Si15  1  0.370566  0.370566  0.000000  1
  Si  Si16  1  0.629434  0.000000  0.000000  1
  Ir  Ir17  1  0.000000  0.279360  0.500000  1
  Ir  Ir18  1  0.720640  0.720640  0.500000  1
  Ir  Ir19  1  0.279360  0.000000  0.500000  1
  Ir  Ir20  1  0.626456  0.810567  0.000000  1
  Ir  Ir21  1  0.189433  0.815889  0.000000  1
  Ir  Ir22  1  0.184111  0.373544  0.000000  1
  Ir  Ir23  1  0.373544  0.184111  0.000000  1
  Ir  Ir24  1  0.810567  0.626456  0.000000  1
  Ir  Ir25  1  0.815889  0.189433  0.000000  1
  Ir  Ir26  1  0.514507  0.874469  0.500000  1
  Ir  Ir27  1  0.125531  0.640037  0.500000  1
  Ir  Ir28  1  0.359963  0.485493  0.500000  1
  Ir  Ir29  1  0.485493  0.359963  0.500000  1
  Ir  Ir30  1  0.874469  0.514507  0.500000  1
  Ir  Ir31  1  0.640037  0.125531  0.500000  1
  Ir  Ir32  1  0.000000  0.000000  0.000000  1
  Ir  Ir33  1  0.000000  0.444603  0.000000  1
  Ir  Ir34  1  0.555397  0.555397  0.000000  1
  Ir  Ir35  1  0.444603  0.000000  0.000000  1
