# generated using pymatgen
data_TbCo2(AsRu)3
_symmetry_space_group_name_H-M   'P 1'
_cell_length_a   3.89000000
_cell_length_b   11.03124300
_cell_length_c   12.52873200
_cell_angle_alpha   90.00000000
_cell_angle_beta   90.00000000
_cell_angle_gamma   90.00000000
_symmetry_Int_Tables_number   1
_chemical_formula_structural   TbCo2(AsRu)3
_chemical_formula_sum   'Tb4 Co8 As12 Ru12'
_cell_volume   537.62712511
_cell_formula_units_Z   4
loop_
 _symmetry_equiv_pos_site_id
 _symmetry_equiv_pos_as_xyz
  1  'x, y, z'
loop_
 _atom_site_type_symbol
 _atom_site_label
 _atom_site_symmetry_multiplicity
 _atom_site_fract_x
 _atom_site_fract_y
 _atom_site_fract_z
 _atom_site_occupancy
  Tb  Tb0  1  0.250000  0.584721  0.705200  1
  Tb  Tb1  1  0.250000  0.915279  0.205200  1
  Tb  Tb2  1  0.750000  0.415279  0.294800  1
  Tb  Tb3  1  0.750000  0.084721  0.794800  1
  Co  Co4  1  0.250000  0.886002  0.695240  1
  Co  Co5  1  0.250000  0.613998  0.195240  1
  Co  Co6  1  0.750000  0.113998  0.304760  1
  Co  Co7  1  0.750000  0.386002  0.804760  1
  Co  Co8  1  0.250000  0.465131  0.934178  1
  Co  Co9  1  0.250000  0.034869  0.434178  1
  Co  Co10  1  0.750000  0.534869  0.065822  1
  Co  Co11  1  0.750000  0.965131  0.565822  1
  As  As12  1  0.250000  0.424437  0.113631  1
  As  As13  1  0.250000  0.075563  0.613631  1
  As  As14  1  0.750000  0.575563  0.886369  1
  As  As15  1  0.750000  0.924437  0.386369  1
  As  As16  1  0.250000  0.271547  0.871928  1
  As  As17  1  0.250000  0.228453  0.371928  1
  As  As18  1  0.750000  0.728453  0.128072  1
  As  As19  1  0.750000  0.771547  0.628072  1
  As  As20  1  0.250000  0.599744  0.385656  1
  As  As21  1  0.250000  0.900256  0.885656  1
  As  As22  1  0.750000  0.400256  0.614344  1
  As  As23  1  0.750000  0.099744  0.114344  1
  Ru  Ru24  1  0.250000  0.704883  0.986736  1
  Ru  Ru25  1  0.250000  0.795117  0.486736  1
  Ru  Ru26  1  0.750000  0.295117  0.013264  1
  Ru  Ru27  1  0.750000  0.204883  0.513264  1
  Ru  Ru28  1  0.250000  0.405898  0.486744  1
  Ru  Ru29  1  0.250000  0.094102  0.986744  1
  Ru  Ru30  1  0.750000  0.594102  0.513256  1
  Ru  Ru31  1  0.750000  0.905898  0.013256  1
  Ru  Ru32  1  0.250000  0.221380  0.179166  1
  Ru  Ru33  1  0.250000  0.278620  0.679166  1
  Ru  Ru34  1  0.750000  0.778620  0.820834  1
  Ru  Ru35  1  0.750000  0.721380  0.320834  1
