# generated using pymatgen
data_Li4Nd3(SnBi)2
_symmetry_space_group_name_H-M   'P 1'
_cell_length_a   8.92126186
_cell_length_b   8.92126084
_cell_length_c   8.92126019
_cell_angle_alpha   149.15645600
_cell_angle_beta   131.32262765
_cell_angle_gamma   58.74359243
_symmetry_Int_Tables_number   1
_chemical_formula_structural   Li4Nd3(SnBi)2
_chemical_formula_sum   'Li4 Nd3 Sn2 Bi2'
_cell_volume   271.25185596
_cell_formula_units_Z   1
loop_
 _symmetry_equiv_pos_site_id
 _symmetry_equiv_pos_as_xyz
  1  'x, y, z'
loop_
 _atom_site_type_symbol
 _atom_site_label
 _atom_site_symmetry_multiplicity
 _atom_site_fract_x
 _atom_site_fract_y
 _atom_site_fract_z
 _atom_site_occupancy
  Li  Li0  1  0.482018  0.671321  0.810698  1
  Li  Li1  1  0.860624  0.671321  0.189302  1
  Li  Li2  1  0.139376  0.328679  0.810698  1
  Li  Li3  1  0.517982  0.328679  0.189302  1
  Nd  Nd4  1  0.500000  0.000000  0.500000  1
  Nd  Nd5  1  0.878797  0.878797  0.000000  1
  Nd  Nd6  1  0.121203  0.121203  0.000000  1
  Sn  Sn7  1  0.801349  0.500000  0.301349  1
  Sn  Sn8  1  0.198651  0.500000  0.698651  1
  Bi  Bi9  1  0.284708  0.784708  0.500000  1
  Bi  Bi10  1  0.715292  0.215292  0.500000  1
