# generated using pymatgen
data_La9Nd11(CoPb2)4
_symmetry_space_group_name_H-M   'P 1'
_cell_length_a   8.43076810
_cell_length_b   9.23229846
_cell_length_c   12.72132400
_cell_angle_alpha   90.05297455
_cell_angle_beta   90.10100270
_cell_angle_gamma   90.04986496
_symmetry_Int_Tables_number   1
_chemical_formula_structural   La9Nd11(CoPb2)4
_chemical_formula_sum   'La9 Nd11 Co4 Pb8'
_cell_volume   990.16658803
_cell_formula_units_Z   1
loop_
 _symmetry_equiv_pos_site_id
 _symmetry_equiv_pos_as_xyz
  1  'x, y, z'
loop_
 _atom_site_type_symbol
 _atom_site_label
 _atom_site_symmetry_multiplicity
 _atom_site_fract_x
 _atom_site_fract_y
 _atom_site_fract_z
 _atom_site_occupancy
  La  La0  1  0.858068  0.749917  0.812164  1
  La  La1  1  0.142808  0.250051  0.188804  1
  La  La2  1  0.357606  0.250623  0.688979  1
  La  La3  1  0.644027  0.750451  0.309413  1
  La  La4  1  0.388461  0.748430  0.684533  1
  La  La5  1  0.607957  0.250459  0.316909  1
  La  La6  1  0.889701  0.249548  0.818103  1
  La  La7  1  0.109162  0.749970  0.181958  1
  La  La8  1  0.684242  0.025504  0.570256  1
  Nd  Nd9  1  0.964496  0.748454  0.501926  1
  Nd  Nd10  1  0.038762  0.251183  0.497052  1
  Nd  Nd11  1  0.462587  0.250447  0.998155  1
  Nd  Nd12  1  0.537021  0.749020  0.002650  1
  Nd  Nd13  1  0.314209  0.970773  0.428077  1
  Nd  Nd14  1  0.184123  0.972167  0.928526  1
  Nd  Nd15  1  0.317923  0.531456  0.428710  1
  Nd  Nd16  1  0.815061  0.028361  0.070921  1
  Nd  Nd17  1  0.683700  0.472042  0.570877  1
  Nd  Nd18  1  0.816035  0.470964  0.071079  1
  Nd  Nd19  1  0.183348  0.527641  0.928717  1
  Co  Co20  1  0.561871  0.753035  0.505807  1
  Co  Co21  1  0.437837  0.252297  0.493873  1
  Co  Co22  1  0.057449  0.249680  0.995925  1
  Co  Co23  1  0.943711  0.749862  0.005144  1
  Pb  Pb24  1  0.575897  0.491333  0.828795  1
  Pb  Pb25  1  0.424312  0.508438  0.171628  1
  Pb  Pb26  1  0.073675  0.507309  0.672350  1
  Pb  Pb27  1  0.425102  0.991748  0.171607  1
  Pb  Pb28  1  0.925044  0.491587  0.327758  1
  Pb  Pb29  1  0.574008  0.007598  0.829642  1
  Pb  Pb30  1  0.925738  0.008057  0.327356  1
  Pb  Pb31  1  0.076060  0.991597  0.672304  1
