# generated using pymatgen
data_Ho6Zn17AsPd6
_symmetry_space_group_name_H-M   'P 1'
_cell_length_a   9.03279240
_cell_length_b   9.03281356
_cell_length_c   9.03279600
_cell_angle_alpha   59.99991783
_cell_angle_beta   60.00006739
_cell_angle_gamma   60.00006175
_symmetry_Int_Tables_number   1
_chemical_formula_structural   Ho6Zn17AsPd6
_chemical_formula_sum   'Ho6 Zn17 As1 Pd6'
_cell_volume   521.13763053
_cell_formula_units_Z   1
loop_
 _symmetry_equiv_pos_site_id
 _symmetry_equiv_pos_as_xyz
  1  'x, y, z'
loop_
 _atom_site_type_symbol
 _atom_site_label
 _atom_site_symmetry_multiplicity
 _atom_site_fract_x
 _atom_site_fract_y
 _atom_site_fract_z
 _atom_site_occupancy
  Ho  Ho0  1  0.719186  0.280800  0.280805  1
  Ho  Ho1  1  0.719193  0.280799  0.719207  1
  Ho  Ho2  1  0.719186  0.719207  0.280804  1
  Ho  Ho3  1  0.280814  0.719200  0.719195  1
  Ho  Ho4  1  0.280807  0.719201  0.280793  1
  Ho  Ho5  1  0.280814  0.280793  0.719196  1
  Zn  Zn6  1  0.627639  0.124121  0.124119  1
  Zn  Zn7  1  0.124123  0.627644  0.124118  1
  Zn  Zn8  1  0.124122  0.124119  0.627642  1
  Zn  Zn9  1  0.124122  0.124117  0.124117  1
  Zn  Zn10  1  0.372361  0.875879  0.875881  1
  Zn  Zn11  1  0.875877  0.372356  0.875882  1
  Zn  Zn12  1  0.875878  0.875881  0.372358  1
  Zn  Zn13  1  0.875878  0.875883  0.875883  1
  Zn  Zn14  1  0.000000  0.000000  0.000000  1
  Zn  Zn15  1  0.006953  0.331016  0.331016  1
  Zn  Zn16  1  0.331020  0.006954  0.331011  1
  Zn  Zn17  1  0.331021  0.331012  0.006952  1
  Zn  Zn18  1  0.331019  0.331014  0.331011  1
  Zn  Zn19  1  0.993047  0.668984  0.668984  1
  Zn  Zn20  1  0.668980  0.993046  0.668989  1
  Zn  Zn21  1  0.668979  0.668988  0.993048  1
  Zn  Zn22  1  0.668981  0.668986  0.668989  1
  As  As23  1  0.500000  0.500000  0.500000  1
  Pd  Pd24  1  0.500000  0.000000  0.000000  1
  Pd  Pd25  1  0.500000  0.000000  0.500000  1
  Pd  Pd26  1  0.500000  0.500000  0.000000  1
  Pd  Pd27  1  0.000000  0.500000  0.500000  1
  Pd  Pd28  1  0.000000  0.500000  0.000000  1
  Pd  Pd29  1  0.000000  0.000000  0.500000  1
