# generated using pymatgen
data_Pr8HoTmSn6
_symmetry_space_group_name_H-M   'P 1'
_cell_length_a   6.81588500
_cell_length_b   9.27516117
_cell_length_c   9.27539201
_cell_angle_alpha   119.99975521
_cell_angle_beta   90.00114470
_cell_angle_gamma   89.99867558
_symmetry_Int_Tables_number   1
_chemical_formula_structural   Pr8HoTmSn6
_chemical_formula_sum   'Pr8 Ho1 Tm1 Sn6'
_cell_volume   507.81753778
_cell_formula_units_Z   1
loop_
 _symmetry_equiv_pos_site_id
 _symmetry_equiv_pos_as_xyz
  1  'x, y, z'
loop_
 _atom_site_type_symbol
 _atom_site_label
 _atom_site_symmetry_multiplicity
 _atom_site_fract_x
 _atom_site_fract_y
 _atom_site_fract_z
 _atom_site_occupancy
  Pr  Pr0  1  0.499996  0.333309  0.666630  1
  Pr  Pr1  1  0.500003  0.666684  0.333372  1
  Pr  Pr2  1  0.752809  0.242515  0.999933  1
  Pr  Pr3  1  0.752814  0.757429  0.757500  1
  Pr  Pr4  1  0.752810  0.000064  0.242574  1
  Pr  Pr5  1  0.247188  0.757428  0.999939  1
  Pr  Pr6  1  0.247184  0.242506  0.242567  1
  Pr  Pr7  1  0.247189  0.000076  0.757494  1
  Ho  Ho8  1  0.000012  0.666646  0.333320  1
  Tm  Tm9  1  0.999997  0.333340  0.666675  1
  Sn  Sn10  1  0.762409  0.602368  0.999774  1
  Sn  Sn11  1  0.762458  0.397394  0.397619  1
  Sn  Sn12  1  0.762469  0.000231  0.602612  1
  Sn  Sn13  1  0.237590  0.397409  0.999773  1
  Sn  Sn14  1  0.237539  0.602383  0.602609  1
  Sn  Sn15  1  0.237531  0.000220  0.397611  1
