# generated using pymatgen
data_Y4Tm7ThCo4
_symmetry_space_group_name_H-M   'P 1'
_cell_length_a   6.21455549
_cell_length_b   6.91930320
_cell_length_c   9.40961082
_cell_angle_alpha   90.04411215
_cell_angle_beta   89.80064224
_cell_angle_gamma   91.12789251
_symmetry_Int_Tables_number   1
_chemical_formula_structural   Y4Tm7ThCo4
_chemical_formula_sum   'Y4 Tm7 Th1 Co4'
_cell_volume   404.53602605
_cell_formula_units_Z   1
loop_
 _symmetry_equiv_pos_site_id
 _symmetry_equiv_pos_as_xyz
  1  'x, y, z'
loop_
 _atom_site_type_symbol
 _atom_site_label
 _atom_site_symmetry_multiplicity
 _atom_site_fract_x
 _atom_site_fract_y
 _atom_site_fract_z
 _atom_site_occupancy
  Y  Y0  1  0.174144  0.175140  0.068434  1
  Y  Y1  1  0.638135  0.040400  0.250877  1
  Y  Y2  1  0.139825  0.457991  0.748936  1
  Y  Y3  1  0.359953  0.958104  0.748819  1
  Tm  Tm4  1  0.327644  0.673972  0.067396  1
  Tm  Tm5  1  0.173537  0.174198  0.432426  1
  Tm  Tm6  1  0.675687  0.325019  0.568634  1
  Tm  Tm7  1  0.822437  0.827745  0.929179  1
  Tm  Tm8  1  0.676284  0.325149  0.930087  1
  Tm  Tm9  1  0.823179  0.827730  0.569716  1
  Tm  Tm10  1  0.326557  0.673707  0.432541  1
  Th  Th11  1  0.849037  0.554397  0.250425  1
  Co  Co12  1  0.046599  0.869389  0.251958  1
  Co  Co13  1  0.468372  0.391328  0.252296  1
  Co  Co14  1  0.946634  0.113654  0.747614  1
  Co  Co15  1  0.551975  0.612075  0.750663  1
