# generated using pymatgen
data_Tb3Ho3Al24ZnOs7
_symmetry_space_group_name_H-M   'P 1'
_cell_length_a   8.86600164
_cell_length_b   8.86340606
_cell_length_c   9.54766503
_cell_angle_alpha   89.98250138
_cell_angle_beta   89.99129340
_cell_angle_gamma   120.05588792
_symmetry_Int_Tables_number   1
_chemical_formula_structural   Tb3Ho3Al24ZnOs7
_chemical_formula_sum   'Tb3 Ho3 Al24 Zn1 Os7'
_cell_volume   649.39861382
_cell_formula_units_Z   1
loop_
 _symmetry_equiv_pos_site_id
 _symmetry_equiv_pos_as_xyz
  1  'x, y, z'
loop_
 _atom_site_type_symbol
 _atom_site_label
 _atom_site_symmetry_multiplicity
 _atom_site_fract_x
 _atom_site_fract_y
 _atom_site_fract_z
 _atom_site_occupancy
  Tb  Tb0  1  0.191286  0.385016  0.247594  1
  Tb  Tb1  1  0.808548  0.614823  0.752393  1
  Tb  Tb2  1  0.615008  0.808786  0.247691  1
  Ho  Ho3  1  0.386602  0.191625  0.751790  1
  Ho  Ho4  1  0.194387  0.805383  0.253665  1
  Ho  Ho5  1  0.805159  0.194617  0.746252  1
  Al  Al6  1  0.329271  0.670702  0.020872  1
  Al  Al7  1  0.670259  0.329275  0.978647  1
  Al  Al8  1  0.665685  0.333758  0.517753  1
  Al  Al9  1  0.333865  0.665967  0.482662  1
  Al  Al10  1  0.162592  0.325878  0.574033  1
  Al  Al11  1  0.837639  0.673865  0.426292  1
  Al  Al12  1  0.673960  0.837573  0.573987  1
  Al  Al13  1  0.849051  0.677078  0.081098  1
  Al  Al14  1  0.326019  0.162317  0.426641  1
  Al  Al15  1  0.151148  0.322696  0.918611  1
  Al  Al16  1  0.163047  0.837449  0.575243  1
  Al  Al17  1  0.322747  0.150852  0.080736  1
  Al  Al18  1  0.837114  0.162941  0.424992  1
  Al  Al19  1  0.677178  0.849151  0.918722  1
  Al  Al20  1  0.836423  0.163435  0.075540  1
  Al  Al21  1  0.163720  0.837008  0.924155  1
  Al  Al22  1  0.561285  0.121623  0.249200  1
  Al  Al23  1  0.438470  0.878948  0.750723  1
  Al  Al24  1  0.878338  0.438644  0.249308  1
  Al  Al25  1  0.121715  0.561347  0.750718  1
  Al  Al26  1  0.563947  0.435964  0.254792  1
  Al  Al27  1  0.435830  0.563237  0.745466  1
  Al  Al28  1  0.999627  0.000421  0.250573  1
  Al  Al29  1  0.001362  0.000154  0.749491  1
  Zn  Zn30  1  0.499905  0.499916  0.999930  1
  Os  Os31  1  0.499770  0.000293  0.999523  1
  Os  Os32  1  0.999793  0.499859  0.999895  1
  Os  Os33  1  0.499823  0.000173  0.500395  1
  Os  Os34  1  0.999728  0.499856  0.500168  1
  Os  Os35  1  0.499806  0.499484  0.500425  1
  Os  Os36  1  0.999925  0.999933  0.999966  1
  Os  Os37  1  0.999967  0.999954  0.500061  1
