# generated using pymatgen
data_Ac6Ga3Si8Ag
_symmetry_space_group_name_H-M   'P 1'
_cell_length_a   4.55313552
_cell_length_b   4.43776163
_cell_length_c   22.00649889
_cell_angle_alpha   84.21311575
_cell_angle_beta   95.93787113
_cell_angle_gamma   89.99999528
_symmetry_Int_Tables_number   1
_chemical_formula_structural   Ac6Ga3Si8Ag
_chemical_formula_sum   'Ac6 Ga3 Si8 Ag1'
_cell_volume   439.99329410
_cell_formula_units_Z   1
loop_
 _symmetry_equiv_pos_site_id
 _symmetry_equiv_pos_as_xyz
  1  'x, y, z'
loop_
 _atom_site_type_symbol
 _atom_site_label
 _atom_site_symmetry_multiplicity
 _atom_site_fract_x
 _atom_site_fract_y
 _atom_site_fract_z
 _atom_site_occupancy
  Ac  Ac0  1  0.374507  0.875493  0.249014  1
  Ac  Ac1  1  0.041206  0.208794  0.582410  1
  Ac  Ac2  1  0.705204  0.544796  0.910411  1
  Ac  Ac3  1  0.292001  0.457999  0.084003  1
  Ac  Ac4  1  0.961451  0.788549  0.422901  1
  Ac  Ac5  1  0.625727  0.124273  0.751453  1
  Ga  Ga6  1  0.570218  0.679782  0.640434  1
  Ga  Ga7  1  0.234685  0.015315  0.969369  1
  Ga  Ga8  1  0.762842  0.987158  0.025684  1
  Si  Si9  1  0.433232  0.316768  0.366464  1
  Si  Si10  1  0.097147  0.652853  0.694295  1
  Si  Si11  1  0.846191  0.403809  0.192384  1
  Si  Si12  1  0.514211  0.735789  0.528420  1
  Si  Si13  1  0.178346  0.071654  0.856691  1
  Si  Si14  1  0.819410  0.930590  0.138821  1
  Si  Si15  1  0.487558  0.262442  0.475116  1
  Si  Si16  1  0.151494  0.598506  0.802985  1
  Ag  Ag17  1  0.904572  0.345428  0.309144  1
