# generated using pymatgen
data_Sc12In2Fe2Rh
_symmetry_space_group_name_H-M   'P 1'
_cell_length_a   7.83484817
_cell_length_b   7.83489407
_cell_length_c   7.83484981
_cell_angle_alpha   108.51536510
_cell_angle_beta   108.51524348
_cell_angle_gamma   111.40020409
_symmetry_Int_Tables_number   1
_chemical_formula_structural   Sc12In2Fe2Rh
_chemical_formula_sum   'Sc12 In2 Fe2 Rh1'
_cell_volume   369.91592209
_cell_formula_units_Z   1
loop_
 _symmetry_equiv_pos_site_id
 _symmetry_equiv_pos_as_xyz
  1  'x, y, z'
loop_
 _atom_site_type_symbol
 _atom_site_label
 _atom_site_symmetry_multiplicity
 _atom_site_fract_x
 _atom_site_fract_y
 _atom_site_fract_z
 _atom_site_occupancy
  Sc  Sc0  1  0.305547  0.305546  0.611093  1
  Sc  Sc1  1  0.694453  0.694454  0.388907  1
  Sc  Sc2  1  0.694453  0.305546  0.999999  1
  Sc  Sc3  1  0.305547  0.694454  0.000001  1
  Sc  Sc4  1  0.197474  0.435843  0.238369  1
  Sc  Sc5  1  0.802526  0.564157  0.761631  1
  Sc  Sc6  1  0.197472  0.959106  0.761634  1
  Sc  Sc7  1  0.959103  0.197473  0.761630  1
  Sc  Sc8  1  0.802528  0.040894  0.238366  1
  Sc  Sc9  1  0.040897  0.802527  0.238370  1
  Sc  Sc10  1  0.435844  0.197473  0.238370  1
  Sc  Sc11  1  0.564156  0.802527  0.761630  1
  In  In12  1  0.000000  0.500000  0.500000  1
  In  In13  1  0.500000  0.000000  0.500000  1
  Fe  Fe14  1  0.379665  0.379665  0.000000  1
  Fe  Fe15  1  0.620335  0.620335  0.000000  1
  Rh  Rh16  1  0.000000  0.000000  0.000000  1
