# generated using pymatgen
data_Tb5HoTiAl23Os8
_symmetry_space_group_name_H-M   'P 1'
_cell_length_a   8.87152900
_cell_length_b   8.87462629
_cell_length_c   9.58689500
_cell_angle_alpha   90.00317736
_cell_angle_beta   90.00000000
_cell_angle_gamma   119.98845196
_symmetry_Int_Tables_number   1
_chemical_formula_structural   Tb5HoTiAl23Os8
_chemical_formula_sum   'Tb5 Ho1 Ti1 Al23 Os8'
_cell_volume   653.74394202
_cell_formula_units_Z   1
loop_
 _symmetry_equiv_pos_site_id
 _symmetry_equiv_pos_as_xyz
  1  'x, y, z'
loop_
 _atom_site_type_symbol
 _atom_site_label
 _atom_site_symmetry_multiplicity
 _atom_site_fract_x
 _atom_site_fract_y
 _atom_site_fract_z
 _atom_site_occupancy
  Tb  Tb0  1  0.807109  0.614217  0.748336  1
  Tb  Tb1  1  0.612760  0.806345  0.250099  1
  Tb  Tb2  1  0.385706  0.192871  0.748293  1
  Tb  Tb3  1  0.193586  0.806345  0.250099  1
  Tb  Tb4  1  0.807166  0.192871  0.748293  1
  Ho  Ho5  1  0.193942  0.387883  0.249995  1
  Ti  Ti6  1  0.333238  0.666476  0.991436  1
  Al  Al7  1  0.666663  0.333325  0.981999  1
  Al  Al8  1  0.666639  0.333277  0.515810  1
  Al  Al9  1  0.333207  0.666414  0.482398  1
  Al  Al10  1  0.162469  0.324936  0.574765  1
  Al  Al11  1  0.837307  0.674615  0.424429  1
  Al  Al12  1  0.675026  0.837532  0.575004  1
  Al  Al13  1  0.836846  0.673693  0.076653  1
  Al  Al14  1  0.325302  0.162844  0.424367  1
  Al  Al15  1  0.159645  0.319287  0.926397  1
  Al  Al16  1  0.162509  0.837532  0.575004  1
  Al  Al17  1  0.326200  0.163257  0.076700  1
  Al  Al18  1  0.837540  0.162844  0.424367  1
  Al  Al19  1  0.680656  0.840356  0.926115  1
  Al  Al20  1  0.837056  0.163257  0.076700  1
  Al  Al21  1  0.159703  0.840356  0.926115  1
  Al  Al22  1  0.561753  0.123508  0.253095  1
  Al  Al23  1  0.440848  0.881695  0.750136  1
  Al  Al24  1  0.876904  0.438192  0.253101  1
  Al  Al25  1  0.118345  0.559139  0.750121  1
  Al  Al26  1  0.561287  0.438192  0.253101  1
  Al  Al27  1  0.440794  0.559139  0.750121  1
  Al  Al28  1  0.000265  0.000530  0.250147  1
  Al  Al29  1  0.999991  0.999982  0.749526  1
  Os  Os30  1  0.499030  0.998060  0.002915  1
  Os  Os31  1  0.002016  0.500749  0.003102  1
  Os  Os32  1  0.499520  0.999040  0.502748  1
  Os  Os33  1  0.498731  0.500749  0.003102  1
  Os  Os34  1  0.000954  0.500262  0.502621  1
  Os  Os35  1  0.499309  0.500262  0.502621  1
  Os  Os36  1  0.999984  0.999968  0.000426  1
  Os  Os37  1  0.999999  0.999997  0.499745  1
