# generated using pymatgen
data_Y8Ta(IO8)3
_symmetry_space_group_name_H-M   'P 1'
_cell_length_a   5.49373118
_cell_length_b   7.73452827
_cell_length_c   11.70462763
_cell_angle_alpha   76.02315282
_cell_angle_beta   90.00359918
_cell_angle_gamma   90.34279690
_symmetry_Int_Tables_number   1
_chemical_formula_structural   Y8Ta(IO8)3
_chemical_formula_sum   'Y8 Ta1 I3 O24'
_cell_volume   482.61238232
_cell_formula_units_Z   1
loop_
 _symmetry_equiv_pos_site_id
 _symmetry_equiv_pos_as_xyz
  1  'x, y, z'
loop_
 _atom_site_type_symbol
 _atom_site_label
 _atom_site_symmetry_multiplicity
 _atom_site_fract_x
 _atom_site_fract_y
 _atom_site_fract_z
 _atom_site_occupancy
  Y  Y0  1  0.179119  0.804402  0.068908  1
  Y  Y1  1  0.259006  0.978614  0.752232  1
  Y  Y2  1  0.745362  0.022003  0.251239  1
  Y  Y3  1  0.317293  0.506940  0.757269  1
  Y  Y4  1  0.189158  0.221984  0.417960  1
  Y  Y5  1  0.692967  0.498910  0.244458  1
  Y  Y6  1  0.819301  0.198496  0.924767  1
  Y  Y7  1  0.803367  0.776150  0.585411  1
  Ta  Ta8  1  0.746806  0.717052  0.888964  1
  I  I9  1  0.254994  0.734715  0.381277  1
  I  I10  1  0.746729  0.265873  0.620667  1
  I  I11  1  0.261457  0.291302  0.106935  1
  O  O12  1  0.865080  0.366863  0.470616  1
  O  O13  1  0.469940  0.848833  0.927903  1
  O  O14  1  0.861346  0.631698  0.051467  1
  O  O15  1  0.020872  0.293155  0.720328  1
  O  O16  1  0.941669  0.280148  0.261251  1
  O  O17  1  0.165589  0.354338  0.937456  1
  O  O18  1  0.645847  0.481286  0.882873  1
  O  O19  1  0.533151  0.164732  0.069285  1
  O  O20  1  0.145735  0.642248  0.536916  1
  O  O21  1  0.017775  0.709445  0.763370  1
  O  O22  1  0.454310  0.227603  0.272534  1
  O  O23  1  0.069054  0.944131  0.393223  1
  O  O24  1  0.468673  0.162522  0.565712  1
  O  O25  1  0.977966  0.702421  0.284995  1
  O  O26  1  0.934035  0.054282  0.607022  1
  O  O27  1  0.573528  0.180464  0.768484  1
  O  O28  1  0.530555  0.777286  0.725019  1
  O  O29  1  0.993748  0.043405  0.100109  1
  O  O30  1  0.621166  0.491098  0.622719  1
  O  O31  1  0.385974  0.522493  0.103605  1
  O  O32  1  0.420368  0.821195  0.230607  1
  O  O33  1  0.378810  0.509600  0.378839  1
  O  O34  1  0.538241  0.837921  0.433281  1
  O  O35  1  0.971012  0.936393  0.892297  1
