# generated using pymatgen
data_Cs3Rb(SiTe3)4
_symmetry_space_group_name_H-M   'P 1'
_cell_length_a   8.30850681
_cell_length_b   8.32611326
_cell_length_c   13.74245012
_cell_angle_alpha   84.69136758
_cell_angle_beta   83.34429672
_cell_angle_gamma   116.91247035
_symmetry_Int_Tables_number   1
_chemical_formula_structural   Cs3Rb(SiTe3)4
_chemical_formula_sum   'Cs3 Rb1 Si4 Te12'
_cell_volume   830.64028966
_cell_formula_units_Z   1
loop_
 _symmetry_equiv_pos_site_id
 _symmetry_equiv_pos_as_xyz
  1  'x, y, z'
loop_
 _atom_site_type_symbol
 _atom_site_label
 _atom_site_symmetry_multiplicity
 _atom_site_fract_x
 _atom_site_fract_y
 _atom_site_fract_z
 _atom_site_occupancy
  Cs  Cs0  1  0.476777  0.656143  0.411752  1
  Cs  Cs1  1  0.225998  0.724727  0.690636  1
  Cs  Cs2  1  0.654781  0.477735  0.914963  1
  Rb  Rb3  1  0.736979  0.226535  0.193866  1
  Si  Si4  1  0.170843  0.055959  0.386498  1
  Si  Si5  1  0.049849  0.900689  0.131874  1
  Si  Si6  1  0.901794  0.052028  0.632929  1
  Si  Si7  1  0.054069  0.166227  0.889092  1
  Te  Te8  1  0.211124  0.196635  0.203602  1
  Te  Te9  1  0.131778  0.677299  0.222306  1
  Te  Te10  1  0.461392  0.147334  0.447336  1
  Te  Te11  1  0.965055  0.704699  0.415809  1
  Te  Te12  1  0.140432  0.451513  0.956292  1
  Te  Te13  1  0.713873  0.783284  0.133672  1
  Te  Te14  1  0.197701  0.204644  0.704841  1
  Te  Te15  1  0.770625  0.716430  0.633258  1
  Te  Te16  1  0.683714  0.141631  0.726765  1
  Te  Te17  1  0.202882  0.972333  0.950238  1
  Te  Te18  1  0.976726  0.205269  0.452714  1
  Te  Te19  1  0.701607  0.966884  0.917355  1
