# generated using pymatgen
data_CrFe6Tc5Mo
_symmetry_space_group_name_H-M   'P 1'
_cell_length_a   8.98717240
_cell_length_b   8.98717223
_cell_length_c   8.98717221
_cell_angle_alpha   30.28207382
_cell_angle_beta   30.28207770
_cell_angle_gamma   30.28208078
_symmetry_Int_Tables_number   1
_chemical_formula_structural   CrFe6Tc5Mo
_chemical_formula_sum   'Cr1 Fe6 Tc5 Mo1'
_cell_volume   163.56229966
_cell_formula_units_Z   1
loop_
 _symmetry_equiv_pos_site_id
 _symmetry_equiv_pos_as_xyz
  1  'x, y, z'
loop_
 _atom_site_type_symbol
 _atom_site_label
 _atom_site_symmetry_multiplicity
 _atom_site_fract_x
 _atom_site_fract_y
 _atom_site_fract_z
 _atom_site_occupancy
  Cr  Cr0  1  0.000533  0.000533  0.000533  1
  Fe  Fe1  1  0.585760  0.093464  0.093464  1
  Fe  Fe2  1  0.093464  0.093464  0.585760  1
  Fe  Fe3  1  0.907283  0.907283  0.413244  1
  Fe  Fe4  1  0.907283  0.413244  0.907283  1
  Fe  Fe5  1  0.093464  0.585760  0.093464  1
  Fe  Fe6  1  0.413244  0.907283  0.907283  1
  Tc  Tc7  1  0.347739  0.347739  0.347739  1
  Tc  Tc8  1  0.164408  0.164408  0.164408  1
  Tc  Tc9  1  0.547850  0.547850  0.547850  1
  Tc  Tc10  1  0.652022  0.652022  0.652022  1
  Tc  Tc11  1  0.452009  0.452009  0.452009  1
  Mo  Mo12  1  0.834943  0.834943  0.834943  1
