# generated using pymatgen
data_Mn26ReRu2
_symmetry_space_group_name_H-M   'P 1'
_cell_length_a   7.51249733
_cell_length_b   7.51247288
_cell_length_c   7.53355740
_cell_angle_alpha   109.44228430
_cell_angle_beta   109.49232990
_cell_angle_gamma   109.35943473
_symmetry_Int_Tables_number   1
_chemical_formula_structural   Mn26ReRu2
_chemical_formula_sum   'Mn26 Re1 Ru2'
_cell_volume   327.78151478
_cell_formula_units_Z   1
loop_
 _symmetry_equiv_pos_site_id
 _symmetry_equiv_pos_as_xyz
  1  'x, y, z'
loop_
 _atom_site_type_symbol
 _atom_site_label
 _atom_site_symmetry_multiplicity
 _atom_site_fract_x
 _atom_site_fract_y
 _atom_site_fract_z
 _atom_site_occupancy
  Mn  Mn0  1  0.000425  0.000642  0.635197  1
  Mn  Mn1  1  0.365470  0.365363  0.365012  1
  Mn  Mn2  1  0.389813  0.677808  0.999760  1
  Mn  Mn3  1  0.711927  0.324715  0.322843  1
  Mn  Mn4  1  0.389263  0.002314  0.677321  1
  Mn  Mn5  1  0.677876  0.390088  0.000179  1
  Mn  Mn6  1  0.001922  0.389109  0.677147  1
  Mn  Mn7  1  0.324981  0.711907  0.322666  1
  Mn  Mn8  1  0.322702  0.322800  0.714015  1
  Mn  Mn9  1  0.001398  0.678999  0.392560  1
  Mn  Mn10  1  0.679304  0.001966  0.392721  1
  Mn  Mn11  1  0.608748  0.608599  0.285963  1
  Mn  Mn12  1  0.286415  0.608774  0.607413  1
  Mn  Mn13  1  0.609215  0.286540  0.607285  1
  Mn  Mn14  1  0.370844  0.191247  0.000293  1
  Mn  Mn15  1  0.177244  0.806476  0.803267  1
  Mn  Mn16  1  0.374369  0.003757  0.197070  1
  Mn  Mn17  1  0.191020  0.370544  0.999686  1
  Mn  Mn18  1  0.003234  0.373889  0.196745  1
  Mn  Mn19  1  0.806697  0.177264  0.802932  1
  Mn  Mn20  1  0.804851  0.804944  0.180807  1
  Mn  Mn21  1  0.002425  0.194511  0.376455  1
  Mn  Mn22  1  0.194600  0.002701  0.376074  1
  Mn  Mn23  1  0.624038  0.623996  0.819151  1
  Mn  Mn24  1  0.818062  0.625920  0.623561  1
  Mn  Mn25  1  0.626569  0.818491  0.623927  1
  Re  Re26  1  0.998164  0.998176  0.999984  1
  Ru  Ru27  1  0.636684  0.001809  0.000006  1
  Ru  Ru28  1  0.001738  0.636654  0.999959  1
