# generated using pymatgen
data_Er8Ti11Si16Ru
_symmetry_space_group_name_H-M   'P 1'
_cell_length_a   7.00230589
_cell_length_b   7.00230589
_cell_length_c   12.83543477
_cell_angle_alpha   90.02814881
_cell_angle_beta   89.97185119
_cell_angle_gamma   89.88255306
_symmetry_Int_Tables_number   1
_chemical_formula_structural   Er8Ti11Si16Ru
_chemical_formula_sum   'Er8 Ti11 Si16 Ru1'
_cell_volume   629.34925713
_cell_formula_units_Z   1
loop_
 _symmetry_equiv_pos_site_id
 _symmetry_equiv_pos_as_xyz
  1  'x, y, z'
loop_
 _atom_site_type_symbol
 _atom_site_label
 _atom_site_symmetry_multiplicity
 _atom_site_fract_x
 _atom_site_fract_y
 _atom_site_fract_z
 _atom_site_occupancy
  Er  Er0  1  0.340913  0.003678  0.467414  1
  Er  Er1  1  0.496727  0.841225  0.717878  1
  Er  Er2  1  0.500340  0.158888  0.215052  1
  Er  Er3  1  0.841225  0.496727  0.282122  1
  Er  Er4  1  0.158888  0.500340  0.784948  1
  Er  Er5  1  0.657888  0.998594  0.968551  1
  Er  Er6  1  0.003678  0.340913  0.532586  1
  Er  Er7  1  0.998594  0.657888  0.031449  1
  Ti  Ti8  1  0.174799  0.827413  0.248410  1
  Ti  Ti9  1  0.827413  0.174799  0.751590  1
  Ti  Ti10  1  0.674064  0.674064  0.500000  1
  Ti  Ti11  1  0.149852  0.002901  0.875185  1
  Ti  Ti12  1  0.492928  0.655350  0.125014  1
  Ti  Ti13  1  0.506840  0.349536  0.627953  1
  Ti  Ti14  1  0.655350  0.492928  0.874986  1
  Ti  Ti15  1  0.349536  0.506840  0.372047  1
  Ti  Ti16  1  0.849177  0.994458  0.374977  1
  Ti  Ti17  1  0.002901  0.149852  0.124815  1
  Ti  Ti18  1  0.994458  0.849177  0.625023  1
  Si  Si19  1  0.203128  0.132948  0.684546  1
  Si  Si20  1  0.371893  0.700893  0.933152  1
  Si  Si21  1  0.631679  0.296285  0.433975  1
  Si  Si22  1  0.700893  0.371893  0.066848  1
  Si  Si23  1  0.296285  0.631679  0.566025  1
  Si  Si24  1  0.796100  0.867409  0.183420  1
  Si  Si25  1  0.132948  0.203128  0.315454  1
  Si  Si26  1  0.867409  0.796100  0.816580  1
  Si  Si27  1  0.287494  0.953968  0.064350  1
  Si  Si28  1  0.547087  0.792915  0.315582  1
  Si  Si29  1  0.449980  0.208660  0.818124  1
  Si  Si30  1  0.792915  0.547087  0.684418  1
  Si  Si31  1  0.208660  0.449980  0.181876  1
  Si  Si32  1  0.708081  0.048101  0.565617  1
  Si  Si33  1  0.953968  0.287494  0.935650  1
  Si  Si34  1  0.048101  0.708081  0.434383  1
  Ru  Ru35  1  0.327809  0.327809  0.000000  1
