# generated using pymatgen
data_Dy10Pb6Cl
_symmetry_space_group_name_H-M   'P 1'
_cell_length_a   9.12918600
_cell_length_b   9.12918601
_cell_length_c   6.64031500
_cell_angle_alpha   90.00000000
_cell_angle_beta   90.00000000
_cell_angle_gamma   119.99999997
_symmetry_Int_Tables_number   1
_chemical_formula_structural   Dy10Pb6Cl
_chemical_formula_sum   'Dy10 Pb6 Cl1'
_cell_volume   479.27350923
_cell_formula_units_Z   1
loop_
 _symmetry_equiv_pos_site_id
 _symmetry_equiv_pos_as_xyz
  1  'x, y, z'
loop_
 _atom_site_type_symbol
 _atom_site_label
 _atom_site_symmetry_multiplicity
 _atom_site_fract_x
 _atom_site_fract_y
 _atom_site_fract_z
 _atom_site_occupancy
  Dy  Dy0  1  0.333333  0.666667  0.500000  1
  Dy  Dy1  1  0.666667  0.333333  0.500000  1
  Dy  Dy2  1  0.666667  0.333333  0.000000  1
  Dy  Dy3  1  0.333333  0.666667  0.000000  1
  Dy  Dy4  1  0.000000  0.750590  0.238776  1
  Dy  Dy5  1  0.249410  0.249410  0.238776  1
  Dy  Dy6  1  0.750590  0.000000  0.238776  1
  Dy  Dy7  1  0.000000  0.249410  0.761224  1
  Dy  Dy8  1  0.750590  0.750590  0.761224  1
  Dy  Dy9  1  0.249410  0.000000  0.761224  1
  Pb  Pb10  1  0.000000  0.391514  0.249321  1
  Pb  Pb11  1  0.608486  0.608486  0.249321  1
  Pb  Pb12  1  0.391514  0.000000  0.249321  1
  Pb  Pb13  1  0.000000  0.608486  0.750679  1
  Pb  Pb14  1  0.391514  0.391514  0.750679  1
  Pb  Pb15  1  0.608486  0.000000  0.750679  1
  Cl  Cl16  1  0.000000  0.000000  0.500000  1
