# generated using pymatgen
data_Dy3YAl18(PtRh2)2
_symmetry_space_group_name_H-M   'P 1'
_cell_length_a   7.57542510
_cell_length_b   7.57538773
_cell_length_c   9.46305907
_cell_angle_alpha   90.00530625
_cell_angle_beta   90.00551564
_cell_angle_gamma   119.59741860
_symmetry_Int_Tables_number   1
_chemical_formula_structural   Dy3YAl18(PtRh2)2
_chemical_formula_sum   'Dy3 Y1 Al18 Pt2 Rh4'
_cell_volume   472.19522090
_cell_formula_units_Z   1
loop_
 _symmetry_equiv_pos_site_id
 _symmetry_equiv_pos_as_xyz
  1  'x, y, z'
loop_
 _atom_site_type_symbol
 _atom_site_label
 _atom_site_symmetry_multiplicity
 _atom_site_fract_x
 _atom_site_fract_y
 _atom_site_fract_z
 _atom_site_occupancy
  Dy  Dy0  1  0.995157  0.670024  0.250206  1
  Dy  Dy1  1  0.004848  0.329978  0.749795  1
  Dy  Dy2  1  0.670028  0.995158  0.250206  1
  Y  Y3  1  0.329979  0.004854  0.749787  1
  Al  Al4  1  0.126692  0.126691  0.251173  1
  Al  Al5  1  0.873298  0.873313  0.748828  1
  Al  Al6  1  0.000725  0.330564  0.077754  1
  Al  Al7  1  0.999262  0.669426  0.922253  1
  Al  Al8  1  0.000329  0.665260  0.574069  1
  Al  Al9  1  0.334727  0.999657  0.425914  1
  Al  Al10  1  0.999657  0.334728  0.425929  1
  Al  Al11  1  0.665286  0.000343  0.574069  1
  Al  Al12  1  0.669450  0.999275  0.922253  1
  Al  Al13  1  0.330562  0.000724  0.077767  1
  Al  Al14  1  0.331911  0.331922  0.550989  1
  Al  Al15  1  0.668088  0.668088  0.449009  1
  Al  Al16  1  0.669791  0.669792  0.055793  1
  Al  Al17  1  0.330208  0.330219  0.944212  1
  Al  Al18  1  0.340268  0.546878  0.254286  1
  Al  Al19  1  0.659746  0.453134  0.745715  1
  Al  Al20  1  0.546875  0.340268  0.254285  1
  Al  Al21  1  0.453117  0.659717  0.745716  1
  Pt  Pt22  1  0.672011  0.327993  0.000006  1
  Pt  Pt23  1  0.327990  0.672007  0.000006  1
  Rh  Rh24  1  0.328010  0.671995  0.499994  1
  Rh  Rh25  1  0.672003  0.328008  0.499992  1
  Rh  Rh26  1  0.999995  0.999993  0.000007  1
  Rh  Rh27  1  0.999985  0.999992  0.499987  1
