# generated using pymatgen
data_UPa3Ga6Tc7
_symmetry_space_group_name_H-M   'P 1'
_cell_length_a   7.31048129
_cell_length_b   7.27469950
_cell_length_c   7.27469803
_cell_angle_alpha   109.37136645
_cell_angle_beta   109.57088918
_cell_angle_gamma   109.57089388
_symmetry_Int_Tables_number   1
_chemical_formula_structural   UPa3Ga6Tc7
_chemical_formula_sum   'U1 Pa3 Ga6 Tc7'
_cell_volume   297.45304111
_cell_formula_units_Z   1
loop_
 _symmetry_equiv_pos_site_id
 _symmetry_equiv_pos_as_xyz
  1  'x, y, z'
loop_
 _atom_site_type_symbol
 _atom_site_label
 _atom_site_symmetry_multiplicity
 _atom_site_fract_x
 _atom_site_fract_y
 _atom_site_fract_z
 _atom_site_occupancy
  U  U0  1  0.500000  0.000000  0.000000  1
  Pa  Pa1  1  0.500000  0.500000  0.500000  1
  Pa  Pa2  1  0.000000  0.000000  0.500000  1
  Pa  Pa3  1  0.000000  0.500000  0.000000  1
  Ga  Ga4  1  0.307484  0.306051  0.000000  1
  Ga  Ga5  1  0.998567  0.306051  0.306051  1
  Ga  Ga6  1  0.001433  0.693949  0.693949  1
  Ga  Ga7  1  0.692516  0.000000  0.693949  1
  Ga  Ga8  1  0.307484  0.000000  0.306051  1
  Ga  Ga9  1  0.692516  0.693949  0.000000  1
  Tc  Tc10  1  0.747273  0.247273  0.494545  1
  Tc  Tc11  1  0.500000  0.247273  0.752727  1
  Tc  Tc12  1  0.500000  0.752727  0.247273  1
  Tc  Tc13  1  0.252727  0.505455  0.752727  1
  Tc  Tc14  1  0.747273  0.494545  0.247273  1
  Tc  Tc15  1  0.252727  0.752727  0.505455  1
  Tc  Tc16  1  0.000000  0.000000  0.000000  1
