# generated using pymatgen
data_Ba(AcB8)3
_symmetry_space_group_name_H-M   'P 1'
_cell_length_a   7.30450887
_cell_length_b   7.30450838
_cell_length_c   5.96694900
_cell_angle_alpha   90.00000000
_cell_angle_beta   90.00000000
_cell_angle_gamma   109.45023732
_symmetry_Int_Tables_number   1
_chemical_formula_structural   Ba(AcB8)3
_chemical_formula_sum   'Ba1 Ac3 B24'
_cell_volume   300.20248088
_cell_formula_units_Z   1
loop_
 _symmetry_equiv_pos_site_id
 _symmetry_equiv_pos_as_xyz
  1  'x, y, z'
loop_
 _atom_site_type_symbol
 _atom_site_label
 _atom_site_symmetry_multiplicity
 _atom_site_fract_x
 _atom_site_fract_y
 _atom_site_fract_z
 _atom_site_occupancy
  Ba  Ba0  1  0.000000  0.000000  0.000000  1
  Ac  Ac1  1  0.751573  0.248427  0.500000  1
  Ac  Ac2  1  0.500000  0.500000  0.000000  1
  Ac  Ac3  1  0.248427  0.751573  0.500000  1
  B  B4  1  0.176066  0.325492  0.648884  1
  B  B5  1  0.924855  0.573894  0.149434  1
  B  B6  1  0.674508  0.823934  0.648884  1
  B  B7  1  0.426106  0.075145  0.149434  1
  B  B8  1  0.176066  0.325492  0.351116  1
  B  B9  1  0.924855  0.573894  0.850566  1
  B  B10  1  0.674508  0.823934  0.351116  1
  B  B11  1  0.426106  0.075145  0.850566  1
  B  B12  1  0.399522  0.399522  0.500000  1
  B  B13  1  0.148754  0.649130  0.000000  1
  B  B14  1  0.898449  0.898449  0.500000  1
  B  B15  1  0.649130  0.148754  0.000000  1
  B  B16  1  0.325492  0.176066  0.648884  1
  B  B17  1  0.075145  0.426106  0.149434  1
  B  B18  1  0.823934  0.674508  0.648884  1
  B  B19  1  0.573894  0.924855  0.149434  1
  B  B20  1  0.101551  0.101551  0.500000  1
  B  B21  1  0.851246  0.350870  0.000000  1
  B  B22  1  0.600478  0.600478  0.500000  1
  B  B23  1  0.350870  0.851246  0.000000  1
  B  B24  1  0.325492  0.176066  0.351116  1
  B  B25  1  0.075145  0.426106  0.850566  1
  B  B26  1  0.823934  0.674508  0.351116  1
  B  B27  1  0.573894  0.924855  0.850566  1
