# generated using pymatgen
data_Sc8Al15Rh7
_symmetry_space_group_name_H-M   'P 1'
_cell_length_a   8.89567633
_cell_length_b   8.89567666
_cell_length_c   8.89567638
_cell_angle_alpha   120.13252163
_cell_angle_beta   119.94879616
_cell_angle_gamma   89.92966457
_symmetry_Int_Tables_number   1
_chemical_formula_structural   Sc8Al15Rh7
_chemical_formula_sum   'Sc8 Al15 Rh7'
_cell_volume   497.45431994
_cell_formula_units_Z   1
loop_
 _symmetry_equiv_pos_site_id
 _symmetry_equiv_pos_as_xyz
  1  'x, y, z'
loop_
 _atom_site_type_symbol
 _atom_site_label
 _atom_site_symmetry_multiplicity
 _atom_site_fract_x
 _atom_site_fract_y
 _atom_site_fract_z
 _atom_site_occupancy
  Sc  Sc0  1  0.790357  0.283908  0.064135  1
  Sc  Sc1  1  0.219773  0.283908  0.493551  1
  Sc  Sc2  1  0.208576  0.708576  0.500000  1
  Sc  Sc3  1  0.219773  0.726222  0.935865  1
  Sc  Sc4  1  0.790357  0.726222  0.506449  1
  Sc  Sc5  1  0.772592  0.272592  0.500000  1
  Sc  Sc6  1  0.379204  0.119825  0.740621  1
  Sc  Sc7  1  0.379204  0.638582  0.259379  1
  Al  Al8  1  0.990730  0.490730  0.500000  1
  Al  Al9  1  0.159581  0.336826  0.177244  1
  Al  Al10  1  0.159581  0.982337  0.822756  1
  Al  Al11  1  0.153301  0.342840  0.810461  1
  Al  Al12  1  0.532379  0.342840  0.189539  1
  Al  Al13  1  0.841257  0.655928  0.814671  1
  Al  Al14  1  0.841257  0.026586  0.185329  1
  Al  Al15  1  0.837827  0.659099  0.178729  1
  Al  Al16  1  0.480370  0.659099  0.821271  1
  Al  Al17  1  0.378809  0.123262  0.255548  1
  Al  Al18  1  0.867715  0.123262  0.744452  1
  Al  Al19  1  0.621648  0.874109  0.252462  1
  Al  Al20  1  0.621648  0.369186  0.747538  1
  Al  Al21  1  0.622038  0.876797  0.745240  1
  Al  Al22  1  0.131556  0.876797  0.254760  1
  Rh  Rh23  1  0.995161  0.998556  0.497869  1
  Rh  Rh24  1  0.500687  0.998556  0.003395  1
  Rh  Rh25  1  0.501138  0.501138  0.000000  1
  Rh  Rh26  1  0.500687  0.497292  0.502131  1
  Rh  Rh27  1  0.995161  0.497292  0.996605  1
  Rh  Rh28  1  0.999793  0.999793  0.000000  1
  Rh  Rh29  1  0.507839  0.007839  0.500000  1
