# generated using pymatgen
data_Sr2Dy2As7Ir8
_symmetry_space_group_name_H-M   'P 1'
_cell_length_a   4.10089800
_cell_length_b   13.29063830
_cell_length_c   13.71034249
_cell_angle_alpha   81.42893332
_cell_angle_beta   90.00000000
_cell_angle_gamma   90.00000000
_symmetry_Int_Tables_number   1
_chemical_formula_structural   Sr2Dy2As7Ir8
_chemical_formula_sum   'Sr4 Dy4 As14 Ir16'
_cell_volume   738.91676521
_cell_formula_units_Z   2
loop_
 _symmetry_equiv_pos_site_id
 _symmetry_equiv_pos_as_xyz
  1  'x, y, z'
loop_
 _atom_site_type_symbol
 _atom_site_label
 _atom_site_symmetry_multiplicity
 _atom_site_fract_x
 _atom_site_fract_y
 _atom_site_fract_z
 _atom_site_occupancy
  Sr  Sr0  1  0.250000  0.105175  0.790578  1
  Sr  Sr1  1  0.750000  0.894825  0.209422  1
  Sr  Sr2  1  0.250000  0.285657  0.104225  1
  Sr  Sr3  1  0.750000  0.714343  0.895775  1
  Dy  Dy4  1  0.250000  0.520072  0.292909  1
  Dy  Dy5  1  0.750000  0.479928  0.707091  1
  Dy  Dy6  1  0.250000  0.207839  0.440345  1
  Dy  Dy7  1  0.750000  0.792161  0.559655  1
  As  As8  1  0.250000  0.057483  0.101869  1
  As  As9  1  0.750000  0.942517  0.898131  1
  As  As10  1  0.250000  0.315855  0.685262  1
  As  As11  1  0.750000  0.684145  0.314738  1
  As  As12  1  0.250000  0.607086  0.567181  1
  As  As13  1  0.750000  0.392914  0.432819  1
  As  As14  1  0.250000  0.843154  0.718735  1
  As  As15  1  0.750000  0.156846  0.281265  1
  As  As16  1  0.750000  0.257326  0.916994  1
  As  As17  1  0.250000  0.742674  0.083006  1
  As  As18  1  0.750000  0.096181  0.584923  1
  As  As19  1  0.250000  0.903819  0.415077  1
  As  As20  1  0.750000  0.469589  0.130116  1
  As  As21  1  0.250000  0.530411  0.869884  1
  Ir  Ir22  1  0.250000  0.985547  0.573525  1
  Ir  Ir23  1  0.750000  0.014453  0.426475  1
  Ir  Ir24  1  0.250000  0.661421  0.726253  1
  Ir  Ir25  1  0.750000  0.338579  0.273747  1
  Ir  Ir26  1  0.250000  0.550595  0.050797  1
  Ir  Ir27  1  0.750000  0.449405  0.949203  1
  Ir  Ir28  1  0.250000  0.059665  0.280918  1
  Ir  Ir29  1  0.750000  0.940335  0.719082  1
  Ir  Ir30  1  0.250000  0.425554  0.521975  1
  Ir  Ir31  1  0.750000  0.574446  0.478025  1
  Ir  Ir32  1  0.250000  0.920253  0.998687  1
  Ir  Ir33  1  0.750000  0.079747  0.001313  1
  Ir  Ir34  1  0.250000  0.721396  0.405184  1
  Ir  Ir35  1  0.750000  0.278604  0.594816  1
  Ir  Ir36  1  0.250000  0.347786  0.856092  1
  Ir  Ir37  1  0.750000  0.652214  0.143908  1
