# generated using pymatgen
data_Lu2NpCo2Si7
_symmetry_space_group_name_H-M   'P 1'
_cell_length_a   3.92811622
_cell_length_b   3.96126200
_cell_length_c   12.35523176
_cell_angle_alpha   90.00000000
_cell_angle_beta   99.14688157
_cell_angle_gamma   90.00000000
_symmetry_Int_Tables_number   1
_chemical_formula_structural   Lu2NpCo2Si7
_chemical_formula_sum   'Lu2 Np1 Co2 Si7'
_cell_volume   189.80642970
_cell_formula_units_Z   1
loop_
 _symmetry_equiv_pos_site_id
 _symmetry_equiv_pos_as_xyz
  1  'x, y, z'
loop_
 _atom_site_type_symbol
 _atom_site_label
 _atom_site_symmetry_multiplicity
 _atom_site_fract_x
 _atom_site_fract_y
 _atom_site_fract_z
 _atom_site_occupancy
  Lu  Lu0  1  0.317498  0.000000  0.634997  1
  Lu  Lu1  1  0.682502  0.000000  0.365003  1
  Np  Np2  1  0.000000  0.500000  0.000000  1
  Co  Co3  1  0.129767  0.500000  0.259535  1
  Co  Co4  1  0.870233  0.500000  0.740465  1
  Si  Si5  1  0.500000  0.000000  0.000000  1
  Si  Si6  1  0.413962  0.500000  0.827924  1
  Si  Si7  1  0.586038  0.500000  0.172076  1
  Si  Si8  1  0.086164  0.000000  0.172327  1
  Si  Si9  1  0.913836  0.000000  0.827673  1
  Si  Si10  1  0.220863  0.500000  0.441725  1
  Si  Si11  1  0.779137  0.500000  0.558275  1
