# generated using pymatgen
data_Li8Ho7TmSn7Bi
_symmetry_space_group_name_H-M   'P 1'
_cell_length_a   9.40971252
_cell_length_b   9.40971311
_cell_length_c   7.20558202
_cell_angle_alpha   90.08032730
_cell_angle_beta   89.91967295
_cell_angle_gamma   119.98054393
_symmetry_Int_Tables_number   1
_chemical_formula_structural   Li8Ho7TmSn7Bi
_chemical_formula_sum   'Li8 Ho7 Tm1 Sn7 Bi1'
_cell_volume   552.63320706
_cell_formula_units_Z   1
loop_
 _symmetry_equiv_pos_site_id
 _symmetry_equiv_pos_as_xyz
  1  'x, y, z'
loop_
 _atom_site_type_symbol
 _atom_site_label
 _atom_site_symmetry_multiplicity
 _atom_site_fract_x
 _atom_site_fract_y
 _atom_site_fract_z
 _atom_site_occupancy
  Li  Li0  1  0.829606  0.664668  0.711613  1
  Li  Li1  1  0.833264  0.166736  0.713158  1
  Li  Li2  1  0.335138  0.664862  0.821994  1
  Li  Li3  1  0.666419  0.333581  0.321246  1
  Li  Li4  1  0.666114  0.832784  0.212995  1
  Li  Li5  1  0.167216  0.333886  0.212995  1
  Li  Li6  1  0.166749  0.833251  0.214830  1
  Li  Li7  1  0.335332  0.170394  0.711613  1
  Ho  Ho8  1  0.997484  0.002516  0.003705  1
  Ho  Ho9  1  0.998043  0.001957  0.498354  1
  Ho  Ho10  1  0.511313  0.488687  0.006508  1
  Ho  Ho11  1  0.019626  0.506397  0.503539  1
  Ho  Ho12  1  0.493603  0.980374  0.503539  1
  Ho  Ho13  1  0.515862  0.024379  0.009237  1
  Ho  Ho14  1  0.975621  0.484138  0.009237  1
  Tm  Tm15  1  0.488662  0.511338  0.506019  1
  Sn  Sn16  1  0.666769  0.333231  0.740195  1
  Sn  Sn17  1  0.332957  0.667043  0.241042  1
  Sn  Sn18  1  0.833330  0.166670  0.269369  1
  Sn  Sn19  1  0.166459  0.333369  0.769458  1
  Sn  Sn20  1  0.333270  0.166180  0.269848  1
  Sn  Sn21  1  0.833820  0.666730  0.269848  1
  Sn  Sn22  1  0.666631  0.833541  0.769458  1
  Bi  Bi23  1  0.166711  0.833289  0.768200  1
