# generated using pymatgen
data_Pa4Ga20Pt11
_symmetry_space_group_name_H-M   'P 1'
_cell_length_a   4.19844198
_cell_length_b   10.96161159
_cell_length_c   13.80976067
_cell_angle_alpha   82.50998949
_cell_angle_beta   81.25711144
_cell_angle_gamma   78.95905110
_symmetry_Int_Tables_number   1
_chemical_formula_structural   Pa4Ga20Pt11
_chemical_formula_sum   'Pa4 Ga20 Pt11'
_cell_volume   613.16983532
_cell_formula_units_Z   1
loop_
 _symmetry_equiv_pos_site_id
 _symmetry_equiv_pos_as_xyz
  1  'x, y, z'
loop_
 _atom_site_type_symbol
 _atom_site_label
 _atom_site_symmetry_multiplicity
 _atom_site_fract_x
 _atom_site_fract_y
 _atom_site_fract_z
 _atom_site_occupancy
  Pa  Pa0  1  0.121894  0.086637  0.669634  1
  Pa  Pa1  1  0.878106  0.913363  0.330366  1
  Pa  Pa2  1  0.773551  0.629875  0.823055  1
  Pa  Pa3  1  0.226449  0.370125  0.176945  1
  Ga  Ga4  1  0.012100  0.062413  0.913298  1
  Ga  Ga5  1  0.987900  0.937587  0.086702  1
  Ga  Ga6  1  0.064715  0.675135  0.195507  1
  Ga  Ga7  1  0.935285  0.324865  0.804493  1
  Ga  Ga8  1  0.100352  0.344147  0.455074  1
  Ga  Ga9  1  0.899648  0.655853  0.544926  1
  Ga  Ga10  1  0.199930  0.607529  0.992593  1
  Ga  Ga11  1  0.800070  0.392471  0.007407  1
  Ga  Ga12  1  0.263220  0.776891  0.696637  1
  Ga  Ga13  1  0.736780  0.223109  0.303363  1
  Ga  Ga14  1  0.302802  0.900522  0.493777  1
  Ga  Ga15  1  0.697198  0.099478  0.506223  1
  Ga  Ga16  1  0.388914  0.524757  0.697461  1
  Ga  Ga17  1  0.611086  0.475243  0.302539  1
  Ga  Ga18  1  0.397704  0.203886  0.000618  1
  Ga  Ga19  1  0.602296  0.796114  0.999382  1
  Ga  Ga20  1  0.543538  0.285945  0.627050  1
  Ga  Ga21  1  0.456462  0.714055  0.372950  1
  Ga  Ga22  1  0.636771  0.932802  0.793705  1
  Ga  Ga23  1  0.363229  0.067198  0.206295  1
  Pt  Pt24  1  0.500000  0.500000  0.500000  1
  Pt  Pt25  1  0.027442  0.575681  0.369397  1
  Pt  Pt26  1  0.972558  0.424319  0.630603  1
  Pt  Pt27  1  0.144414  0.828362  0.882940  1
  Pt  Pt28  1  0.855586  0.171638  0.117060  1
  Pt  Pt29  1  0.238762  0.129750  0.392862  1
  Pt  Pt30  1  0.761238  0.870250  0.607138  1
  Pt  Pt31  1  0.344384  0.421043  0.890284  1
  Pt  Pt32  1  0.655616  0.578957  0.109716  1
  Pt  Pt33  1  0.506079  0.169994  0.817635  1
  Pt  Pt34  1  0.493921  0.830006  0.182365  1
