# generated using pymatgen
data_La11PrOs2(PtBr6)2
_symmetry_space_group_name_H-M   'P 1'
_cell_length_a   10.73513296
_cell_length_b   10.73595385
_cell_length_c   10.60415578
_cell_angle_alpha   108.83489828
_cell_angle_beta   109.28908250
_cell_angle_gamma   110.57297552
_symmetry_Int_Tables_number   1
_chemical_formula_structural   La11PrOs2(PtBr6)2
_chemical_formula_sum   'La11 Pr1 Os2 Pt2 Br12'
_cell_volume   937.33265107
_cell_formula_units_Z   1
loop_
 _symmetry_equiv_pos_site_id
 _symmetry_equiv_pos_as_xyz
  1  'x, y, z'
loop_
 _atom_site_type_symbol
 _atom_site_label
 _atom_site_symmetry_multiplicity
 _atom_site_fract_x
 _atom_site_fract_y
 _atom_site_fract_z
 _atom_site_occupancy
  La  La0  1  0.468258  0.490590  0.230279  1
  La  La1  1  0.756192  0.237019  0.266269  1
  La  La2  1  0.762235  0.022879  0.490609  1
  La  La3  1  0.228682  0.467521  0.490166  1
  La  La4  1  0.262950  0.743851  0.233858  1
  La  La5  1  0.032518  0.271246  0.009865  1
  La  La6  1  0.009397  0.031722  0.269600  1
  La  La7  1  0.477076  0.737635  0.009298  1
  La  La8  1  0.485372  0.236085  0.471836  1
  La  La9  1  0.016026  0.484085  0.750152  1
  La  La10  1  0.264045  0.014436  0.028103  1
  Pr  Pr11  1  0.235629  0.264250  0.749992  1
  Os  Os12  1  0.999076  0.249699  0.498032  1
  Os  Os13  1  0.250479  0.501064  0.002091  1
  Pt  Pt14  1  0.251070  0.249947  0.250190  1
  Pt  Pt15  1  0.499324  0.000047  0.249728  1
  Br  Br16  1  0.250233  0.755454  0.745727  1
  Br  Br17  1  0.508841  0.501030  0.754159  1
  Br  Br18  1  0.994606  0.747413  0.997922  1
  Br  Br19  1  0.744531  0.249824  0.754338  1
  Br  Br20  1  0.998937  0.991057  0.745733  1
  Br  Br21  1  0.249961  0.997615  0.504629  1
  Br  Br22  1  0.752530  0.505437  0.502080  1
  Br  Br23  1  0.502440  0.249943  0.995375  1
  Br  Br24  1  0.754224  0.745619  0.249934  1
  Br  Br25  1  0.746127  0.996178  0.992668  1
  Br  Br26  1  0.995444  0.504479  0.250054  1
  Br  Br27  1  0.503795  0.753874  0.507316  1
