# generated using pymatgen
data_Zr20AlZn2Sb9
_symmetry_space_group_name_H-M   'P 1'
_cell_length_a   5.53136000
_cell_length_b   8.38186689
_cell_length_c   15.87078600
_cell_angle_alpha   90.00000000
_cell_angle_beta   90.00000000
_cell_angle_gamma   109.26634188
_symmetry_Int_Tables_number   1
_chemical_formula_structural   Zr20AlZn2Sb9
_chemical_formula_sum   'Zr20 Al1 Zn2 Sb9'
_cell_volume   694.60961437
_cell_formula_units_Z   1
loop_
 _symmetry_equiv_pos_site_id
 _symmetry_equiv_pos_as_xyz
  1  'x, y, z'
loop_
 _atom_site_type_symbol
 _atom_site_label
 _atom_site_symmetry_multiplicity
 _atom_site_fract_x
 _atom_site_fract_y
 _atom_site_fract_z
 _atom_site_occupancy
  Zr  Zr0  1  0.430094  0.858945  0.354688  1
  Zr  Zr1  1  0.921944  0.858462  0.851805  1
  Zr  Zr2  1  0.063482  0.141538  0.148195  1
  Zr  Zr3  1  0.571149  0.141055  0.645312  1
  Zr  Zr4  1  0.654483  0.295314  0.072342  1
  Zr  Zr5  1  0.146516  0.292333  0.569304  1
  Zr  Zr6  1  0.854183  0.707667  0.430696  1
  Zr  Zr7  1  0.359170  0.704686  0.927658  1
  Zr  Zr8  1  0.845517  0.704686  0.072342  1
  Zr  Zr9  1  0.353484  0.707667  0.569304  1
  Zr  Zr10  1  0.645817  0.292333  0.430696  1
  Zr  Zr11  1  0.140830  0.295314  0.927658  1
  Zr  Zr12  1  0.069906  0.141055  0.354688  1
  Zr  Zr13  1  0.578056  0.141538  0.851805  1
  Zr  Zr14  1  0.436518  0.858462  0.148195  1
  Zr  Zr15  1  0.928851  0.858945  0.645312  1
  Zr  Zr16  1  0.500410  0.502535  0.249747  1
  Zr  Zr17  1  0.997875  0.497465  0.750253  1
  Zr  Zr18  1  0.999590  0.497465  0.249747  1
  Zr  Zr19  1  0.502125  0.502535  0.750253  1
  Al  Al20  1  0.250000  0.000000  0.500000  1
  Zn  Zn21  1  0.750000  0.000000  0.500000  1
  Zn  Zn22  1  0.750000  0.000000  0.000000  1
  Sb  Sb23  1  0.915862  0.827938  0.251917  1
  Sb  Sb24  1  0.412076  0.827938  0.748083  1
  Sb  Sb25  1  0.584138  0.172062  0.251917  1
  Sb  Sb26  1  0.087924  0.172062  0.748083  1
  Sb  Sb27  1  0.250000  0.500000  0.085951  1
  Sb  Sb28  1  0.750000  0.500000  0.586183  1
  Sb  Sb29  1  0.250000  0.500000  0.413817  1
  Sb  Sb30  1  0.750000  0.500000  0.914049  1
  Sb  Sb31  1  0.250000  0.000000  0.000000  1
