# generated using pymatgen
data_Er5CuSe4
_symmetry_space_group_name_H-M   'P 1'
_cell_length_a   6.99327530
_cell_length_b   6.99331493
_cell_length_c   6.99328600
_cell_angle_alpha   99.66797383
_cell_angle_beta   99.66703165
_cell_angle_gamma   131.61654808
_symmetry_Int_Tables_number   1
_chemical_formula_structural   Er5CuSe4
_chemical_formula_sum   'Er5 Cu1 Se4'
_cell_volume   233.23700828
_cell_formula_units_Z   1
loop_
 _symmetry_equiv_pos_site_id
 _symmetry_equiv_pos_as_xyz
  1  'x, y, z'
loop_
 _atom_site_type_symbol
 _atom_site_label
 _atom_site_symmetry_multiplicity
 _atom_site_fract_x
 _atom_site_fract_y
 _atom_site_fract_z
 _atom_site_occupancy
  Er  Er0  1  0.402833  0.787928  0.190748  1
  Er  Er1  1  0.000000  0.000000  0.000000  1
  Er  Er2  1  0.597167  0.212072  0.809252  1
  Er  Er3  1  0.212075  0.402827  0.614900  1
  Er  Er4  1  0.787925  0.597173  0.385100  1
  Cu  Cu5  1  0.500000  0.500000  0.000000  1
  Se  Se6  1  0.093840  0.695255  0.789114  1
  Se  Se7  1  0.695269  0.906160  0.601413  1
  Se  Se8  1  0.304731  0.093840  0.398587  1
  Se  Se9  1  0.906160  0.304745  0.210886  1
