# generated using pymatgen
data_CaAc(Al5Os)4
_symmetry_space_group_name_H-M   'P 1'
_cell_length_a   6.92814355
_cell_length_b   6.92814351
_cell_length_c   9.25074900
_cell_angle_alpha   90.00000000
_cell_angle_beta   90.00000000
_cell_angle_gamma   96.38424231
_symmetry_Int_Tables_number   1
_chemical_formula_structural   CaAc(Al5Os)4
_chemical_formula_sum   'Ca1 Ac1 Al20 Os4'
_cell_volume   441.27467507
_cell_formula_units_Z   1
loop_
 _symmetry_equiv_pos_site_id
 _symmetry_equiv_pos_as_xyz
  1  'x, y, z'
loop_
 _atom_site_type_symbol
 _atom_site_label
 _atom_site_symmetry_multiplicity
 _atom_site_fract_x
 _atom_site_fract_y
 _atom_site_fract_z
 _atom_site_occupancy
  Ca  Ca0  1  0.875032  0.124968  0.750000  1
  Ac  Ac1  1  0.122358  0.877642  0.250000  1
  Al  Al2  1  0.622911  0.377089  0.547411  1
  Al  Al3  1  0.379006  0.620994  0.452692  1
  Al  Al4  1  0.379006  0.620994  0.047308  1
  Al  Al5  1  0.622911  0.377089  0.952589  1
  Al  Al6  1  0.224330  0.227536  0.506115  1
  Al  Al7  1  0.772464  0.775670  0.506115  1
  Al  Al8  1  0.772464  0.775670  0.993885  1
  Al  Al9  1  0.224330  0.227536  0.993885  1
  Al  Al10  1  0.836839  0.163161  0.099433  1
  Al  Al11  1  0.162119  0.837881  0.894931  1
  Al  Al12  1  0.162119  0.837881  0.605069  1
  Al  Al13  1  0.836839  0.163161  0.400567  1
  Al  Al14  1  0.856187  0.581753  0.750000  1
  Al  Al15  1  0.142020  0.406337  0.250000  1
  Al  Al16  1  0.418247  0.143813  0.750000  1
  Al  Al17  1  0.593663  0.857980  0.250000  1
  Al  Al18  1  0.216449  0.478890  0.750000  1
  Al  Al19  1  0.778413  0.515470  0.250000  1
  Al  Al20  1  0.521110  0.783551  0.750000  1
  Al  Al21  1  0.484530  0.221587  0.250000  1
  Os  Os22  1  0.999366  0.501039  0.501204  1
  Os  Os23  1  0.999366  0.501039  0.998796  1
  Os  Os24  1  0.498961  0.000634  0.998796  1
  Os  Os25  1  0.498961  0.000634  0.501204  1
