# generated using pymatgen
data_Sm4Y2Cd23Ge
_symmetry_space_group_name_H-M   'P 1'
_cell_length_a   9.99360765
_cell_length_b   10.01615289
_cell_length_c   10.01615266
_cell_angle_alpha   60.07157141
_cell_angle_beta   60.07443259
_cell_angle_gamma   60.07443145
_symmetry_Int_Tables_number   1
_chemical_formula_structural   Sm4Y2Cd23Ge
_chemical_formula_sum   'Sm4 Y2 Cd23 Ge1'
_cell_volume   710.12000657
_cell_formula_units_Z   1
loop_
 _symmetry_equiv_pos_site_id
 _symmetry_equiv_pos_as_xyz
  1  'x, y, z'
loop_
 _atom_site_type_symbol
 _atom_site_label
 _atom_site_symmetry_multiplicity
 _atom_site_fract_x
 _atom_site_fract_y
 _atom_site_fract_z
 _atom_site_occupancy
  Sm  Sm0  1  0.794022  0.205692  0.206265  1
  Sm  Sm1  1  0.206474  0.205741  0.794259  1
  Sm  Sm2  1  0.793526  0.205741  0.794259  1
  Sm  Sm3  1  0.205978  0.793735  0.794308  1
  Y  Y4  1  0.795020  0.795265  0.204735  1
  Y  Y5  1  0.204980  0.795265  0.204735  1
  Cd  Cd6  1  0.838815  0.835643  0.486725  1
  Cd  Cd7  1  0.836580  0.491869  0.834969  1
  Cd  Cd8  1  0.488022  0.836414  0.838183  1
  Cd  Cd9  1  0.837379  0.836414  0.838183  1
  Cd  Cd10  1  0.163420  0.165031  0.508131  1
  Cd  Cd11  1  0.161185  0.513275  0.164357  1
  Cd  Cd12  1  0.511978  0.161817  0.163586  1
  Cd  Cd13  1  0.162621  0.161817  0.163586  1
  Cd  Cd14  1  0.621263  0.623410  0.134065  1
  Cd  Cd15  1  0.623120  0.131202  0.622559  1
  Cd  Cd16  1  0.133202  0.623996  0.621147  1
  Cd  Cd17  1  0.621657  0.623996  0.621147  1
  Cd  Cd18  1  0.376880  0.377441  0.868798  1
  Cd  Cd19  1  0.378737  0.865935  0.376590  1
  Cd  Cd20  1  0.866798  0.378853  0.376004  1
  Cd  Cd21  1  0.378343  0.378853  0.376004  1
  Cd  Cd22  1  0.999773  0.999423  0.500483  1
  Cd  Cd23  1  0.500321  0.999423  0.500483  1
  Cd  Cd24  1  0.000000  0.499822  0.500178  1
  Cd  Cd25  1  0.499679  0.499517  0.000577  1
  Cd  Cd26  1  0.000227  0.499517  0.000577  1
  Cd  Cd27  1  0.500000  0.999625  0.000375  1
  Cd  Cd28  1  0.500000  0.498366  0.501634  1
  Ge  Ge29  1  0.000000  0.996902  0.003098  1
