# generated using pymatgen
data_Nd(EuP)3
_symmetry_space_group_name_H-M   'P 1'
_cell_length_a   7.74573202
_cell_length_b   7.74573267
_cell_length_c   7.72787361
_cell_angle_alpha   109.58278895
_cell_angle_beta   109.58279073
_cell_angle_gamma   109.16899955
_symmetry_Int_Tables_number   1
_chemical_formula_structural   Nd(EuP)3
_chemical_formula_sum   'Nd2 Eu6 P6'
_cell_volume   357.25685930
_cell_formula_units_Z   2
loop_
 _symmetry_equiv_pos_site_id
 _symmetry_equiv_pos_as_xyz
  1  'x, y, z'
loop_
 _atom_site_type_symbol
 _atom_site_label
 _atom_site_symmetry_multiplicity
 _atom_site_fract_x
 _atom_site_fract_y
 _atom_site_fract_z
 _atom_site_occupancy
  Nd  Nd0  1  0.000783  0.632201  0.500378  1
  Nd  Nd1  1  0.132201  0.500783  0.000378  1
  Eu  Eu2  1  0.996620  0.126243  0.494024  1
  Eu  Eu3  1  0.371064  0.369460  0.373945  1
  Eu  Eu4  1  0.626243  0.496620  0.994024  1
  Eu  Eu5  1  0.502308  0.006103  0.131979  1
  Eu  Eu6  1  0.869460  0.871064  0.873945  1
  Eu  Eu7  1  0.506103  0.002308  0.631979  1
  P  P8  1  0.880632  0.258516  0.128559  1
  P  P9  1  0.365694  0.624175  0.750480  1
  P  P10  1  0.124175  0.865694  0.250480  1
  P  P11  1  0.622340  0.743861  0.370635  1
  P  P12  1  0.243861  0.122340  0.870635  1
  P  P13  1  0.758516  0.380632  0.628559  1
