# generated using pymatgen
data_Tb6CoSi24Os7
_symmetry_space_group_name_H-M   'P 1'
_cell_length_a   10.12973158
_cell_length_b   10.12973167
_cell_length_c   8.16685914
_cell_angle_alpha   89.89985302
_cell_angle_beta   89.89984736
_cell_angle_gamma   132.46802636
_symmetry_Int_Tables_number   1
_chemical_formula_structural   Tb6CoSi24Os7
_chemical_formula_sum   'Tb6 Co1 Si24 Os7'
_cell_volume   618.15828904
_cell_formula_units_Z   1
loop_
 _symmetry_equiv_pos_site_id
 _symmetry_equiv_pos_as_xyz
  1  'x, y, z'
loop_
 _atom_site_type_symbol
 _atom_site_label
 _atom_site_symmetry_multiplicity
 _atom_site_fract_x
 _atom_site_fract_y
 _atom_site_fract_z
 _atom_site_occupancy
  Tb  Tb0  1  0.500637  0.500637  0.498125  1
  Tb  Tb1  1  0.002703  0.002703  0.998139  1
  Tb  Tb2  1  0.501300  0.000917  0.750124  1
  Tb  Tb3  1  0.998347  0.498893  0.249977  1
  Tb  Tb4  1  0.498893  0.998347  0.249977  1
  Tb  Tb5  1  0.000917  0.501300  0.750124  1
  Co  Co6  1  0.629441  0.629441  0.872841  1
  Si  Si7  1  0.795041  0.204330  0.500454  1
  Si  Si8  1  0.294395  0.703532  0.001377  1
  Si  Si9  1  0.204330  0.795041  0.500454  1
  Si  Si10  1  0.703532  0.294395  0.001377  1
  Si  Si11  1  0.342548  0.342548  0.829718  1
  Si  Si12  1  0.669938  0.669938  0.158449  1
  Si  Si13  1  0.166621  0.166621  0.331959  1
  Si  Si14  1  0.827586  0.827586  0.672769  1
  Si  Si15  1  0.119024  0.886352  0.728137  1
  Si  Si16  1  0.113150  0.878263  0.271470  1
  Si  Si17  1  0.610926  0.376119  0.228825  1
  Si  Si18  1  0.620827  0.391326  0.773215  1
  Si  Si19  1  0.878263  0.113150  0.271470  1
  Si  Si20  1  0.886352  0.119024  0.728137  1
  Si  Si21  1  0.391326  0.620827  0.773215  1
  Si  Si22  1  0.376119  0.610926  0.228825  1
  Si  Si23  1  0.345399  0.111013  0.504212  1
  Si  Si24  1  0.887337  0.654706  0.496738  1
  Si  Si25  1  0.389009  0.154252  0.008136  1
  Si  Si26  1  0.842052  0.612062  0.992853  1
  Si  Si27  1  0.654706  0.887337  0.496738  1
  Si  Si28  1  0.111013  0.345399  0.504212  1
  Si  Si29  1  0.612062  0.842052  0.992853  1
  Si  Si30  1  0.154252  0.389009  0.008136  1
  Os  Os31  1  0.669868  0.332094  0.501979  1
  Os  Os32  1  0.167742  0.829935  0.998184  1
  Os  Os33  1  0.332094  0.669868  0.501979  1
  Os  Os34  1  0.829935  0.167742  0.998184  1
  Os  Os35  1  0.126971  0.126971  0.627178  1
  Os  Os36  1  0.871492  0.871492  0.373541  1
  Os  Os37  1  0.373852  0.373852  0.125920  1
