# generated using pymatgen
data_Yb3Pr(Er3Ru2)2
_symmetry_space_group_name_H-M   'P 1'
_cell_length_a   6.40491324
_cell_length_b   7.24479064
_cell_length_c   8.50708089
_cell_angle_alpha   97.03480303
_cell_angle_beta   112.15493655
_cell_angle_gamma   90.17422051
_symmetry_Int_Tables_number   1
_chemical_formula_structural   Yb3Pr(Er3Ru2)2
_chemical_formula_sum   'Yb3 Pr1 Er6 Ru4'
_cell_volume   362.32953492
_cell_formula_units_Z   1
loop_
 _symmetry_equiv_pos_site_id
 _symmetry_equiv_pos_as_xyz
  1  'x, y, z'
loop_
 _atom_site_type_symbol
 _atom_site_label
 _atom_site_symmetry_multiplicity
 _atom_site_fract_x
 _atom_site_fract_y
 _atom_site_fract_z
 _atom_site_occupancy
  Yb  Yb0  1  0.796671  0.581261  0.816727  1
  Yb  Yb1  1  0.981671  0.918391  0.189999  1
  Yb  Yb2  1  0.208383  0.421184  0.187650  1
  Pr  Pr3  1  0.021801  0.080949  0.814078  1
  Er  Er4  1  0.194857  0.686654  0.565031  1
  Er  Er5  1  0.632742  0.816705  0.430734  1
  Er  Er6  1  0.800117  0.314850  0.432303  1
  Er  Er7  1  0.365821  0.184418  0.567023  1
  Er  Er8  1  0.433984  0.749906  0.001751  1
  Er  Er9  1  0.573816  0.250701  0.002192  1
  Ru  Ru10  1  0.581721  0.923864  0.766137  1
  Ru  Ru11  1  0.812626  0.572257  0.230858  1
  Ru  Ru12  1  0.411573  0.073367  0.224591  1
  Ru  Ru13  1  0.184219  0.425494  0.770928  1
