# generated using pymatgen
data_Cs3Ho(PSe4)2
_symmetry_space_group_name_H-M   'P 1'
_cell_length_a   10.31243051
_cell_length_b   7.22351700
_cell_length_c   12.33669600
_cell_angle_alpha   90.00000000
_cell_angle_beta   89.23820107
_cell_angle_gamma   90.00000000
_symmetry_Int_Tables_number   1
_chemical_formula_structural   Cs3Ho(PSe4)2
_chemical_formula_sum   'Cs6 Ho2 P4 Se16'
_cell_volume   918.90414079
_cell_formula_units_Z   2
loop_
 _symmetry_equiv_pos_site_id
 _symmetry_equiv_pos_as_xyz
  1  'x, y, z'
loop_
 _atom_site_type_symbol
 _atom_site_label
 _atom_site_symmetry_multiplicity
 _atom_site_fract_x
 _atom_site_fract_y
 _atom_site_fract_z
 _atom_site_occupancy
  Cs  Cs0  1  0.371226  0.801724  0.088779  1
  Cs  Cs1  1  0.397300  0.307850  0.341702  1
  Cs  Cs2  1  0.842828  0.309039  0.435975  1
  Cs  Cs3  1  0.157172  0.809039  0.564026  1
  Cs  Cs4  1  0.602700  0.807850  0.658298  1
  Cs  Cs5  1  0.628775  0.301724  0.911221  1
  Ho  Ho6  1  0.890156  0.785886  0.146004  1
  Ho  Ho7  1  0.109844  0.285886  0.853996  1
  P  P8  1  0.084991  0.328921  0.151553  1
  P  P9  1  0.642547  0.807798  0.309259  1
  P  P10  1  0.357453  0.307797  0.690741  1
  P  P11  1  0.915009  0.828921  0.848447  1
  Se  Se12  1  0.934598  0.406698  0.030461  1
  Se  Se13  1  0.265759  0.304411  0.052066  1
  Se  Se14  1  0.674326  0.048770  0.199345  1
  Se  Se15  1  0.669144  0.553137  0.207048  1
  Se  Se16  1  0.053108  0.074416  0.250507  1
  Se  Se17  1  0.089644  0.574448  0.261022  1
  Se  Se18  1  0.450795  0.812390  0.387747  1
  Se  Se19  1  0.815190  0.806795  0.414594  1
  Se  Se20  1  0.184811  0.306794  0.585406  1
  Se  Se21  1  0.549204  0.312389  0.612253  1
  Se  Se22  1  0.910356  0.074447  0.738978  1
  Se  Se23  1  0.946892  0.574416  0.749493  1
  Se  Se24  1  0.330856  0.053138  0.792952  1
  Se  Se25  1  0.325674  0.548768  0.800655  1
  Se  Se26  1  0.734240  0.804412  0.947934  1
  Se  Se27  1  0.065402  0.906698  0.969538  1
