# generated using pymatgen
data_Tb13Y3Cd4PdRu3
_symmetry_space_group_name_H-M   'P 1'
_cell_length_a   9.72750632
_cell_length_b   9.67687837
_cell_length_c   9.72750629
_cell_angle_alpha   59.52265900
_cell_angle_beta   59.85239760
_cell_angle_gamma   59.52266104
_symmetry_Int_Tables_number   1
_chemical_formula_structural   Tb13Y3Cd4PdRu3
_chemical_formula_sum   'Tb13 Y3 Cd4 Pd1 Ru3'
_cell_volume   642.05499446
_cell_formula_units_Z   1
loop_
 _symmetry_equiv_pos_site_id
 _symmetry_equiv_pos_as_xyz
  1  'x, y, z'
loop_
 _atom_site_type_symbol
 _atom_site_label
 _atom_site_symmetry_multiplicity
 _atom_site_fract_x
 _atom_site_fract_y
 _atom_site_fract_z
 _atom_site_occupancy
  Tb  Tb0  1  0.439040  0.436009  0.062146  1
  Tb  Tb1  1  0.066773  0.056996  0.438088  1
  Tb  Tb2  1  0.438088  0.056996  0.066773  1
  Tb  Tb3  1  0.851947  0.844659  0.851947  1
  Tb  Tb4  1  0.689688  0.316046  0.303707  1
  Tb  Tb5  1  0.062146  0.436009  0.439040  1
  Tb  Tb6  1  0.311266  0.687056  0.689139  1
  Tb  Tb7  1  0.303707  0.316046  0.689688  1
  Tb  Tb8  1  0.852536  0.845175  0.452488  1
  Tb  Tb9  1  0.689139  0.687056  0.311266  1
  Tb  Tb10  1  0.452488  0.845175  0.852536  1
  Tb  Tb11  1  0.062471  0.435845  0.062471  1
  Tb  Tb12  1  0.844464  0.465221  0.844464  1
  Y  Y13  1  0.438241  0.057161  0.438241  1
  Y  Y14  1  0.311094  0.685700  0.311094  1
  Y  Y15  1  0.689940  0.314702  0.689940  1
  Cd  Cd16  1  0.081338  0.755292  0.081338  1
  Cd  Cd17  1  0.079556  0.081336  0.758446  1
  Cd  Cd18  1  0.758446  0.081336  0.079556  1
  Cd  Cd19  1  0.080083  0.080602  0.080083  1
  Pd  Pd20  1  0.642554  0.073562  0.642554  1
  Ru  Ru21  1  0.636945  0.648252  0.636945  1
  Ru  Ru22  1  0.641288  0.646884  0.076761  1
  Ru  Ru23  1  0.076761  0.646884  0.641288  1
