# generated using pymatgen
data_Np3MoF24
_symmetry_space_group_name_H-M   'P 1'
_cell_length_a   5.41895800
_cell_length_b   9.36610900
_cell_length_c   10.47509501
_cell_angle_alpha   90.00000000
_cell_angle_beta   90.00456906
_cell_angle_gamma   90.00000000
_symmetry_Int_Tables_number   1
_chemical_formula_structural   Np3MoF24
_chemical_formula_sum   'Np3 Mo1 F24'
_cell_volume   531.65874565
_cell_formula_units_Z   1
loop_
 _symmetry_equiv_pos_site_id
 _symmetry_equiv_pos_as_xyz
  1  'x, y, z'
loop_
 _atom_site_type_symbol
 _atom_site_label
 _atom_site_symmetry_multiplicity
 _atom_site_fract_x
 _atom_site_fract_y
 _atom_site_fract_z
 _atom_site_occupancy
  Np  Np0  1  0.068237  0.250000  0.866069  1
  Np  Np1  1  0.568216  0.750000  0.633964  1
  Np  Np2  1  0.931923  0.750000  0.133829  1
  Mo  Mo3  1  0.431834  0.250000  0.366095  1
  F  F4  1  0.209067  0.750000  0.006795  1
  F  F5  1  0.393695  0.901751  0.734610  1
  F  F6  1  0.106249  0.598252  0.234601  1
  F  F7  1  0.290890  0.750000  0.506789  1
  F  F8  1  0.655795  0.750000  0.262110  1
  F  F9  1  0.893687  0.401765  0.765368  1
  F  F10  1  0.175078  0.250000  0.246704  1
  F  F11  1  0.393695  0.598249  0.734610  1
  F  F12  1  0.844226  0.750000  0.762139  1
  F  F13  1  0.268563  0.109343  0.460252  1
  F  F14  1  0.594174  0.391309  0.272333  1
  F  F15  1  0.743540  0.901098  0.532799  1
  F  F16  1  0.344167  0.250000  0.737909  1
  F  F17  1  0.106249  0.901748  0.234601  1
  F  F18  1  0.268563  0.390657  0.460252  1
  F  F19  1  0.243490  0.098871  0.967225  1
  F  F20  1  0.689816  0.250000  0.484403  1
  F  F21  1  0.790988  0.250000  0.993212  1
  F  F22  1  0.893687  0.098235  0.765368  1
  F  F23  1  0.243490  0.401129  0.967225  1
  F  F24  1  0.756483  0.598861  0.032804  1
  F  F25  1  0.756483  0.901139  0.032804  1
  F  F26  1  0.743540  0.598902  0.532799  1
  F  F27  1  0.594174  0.108691  0.272333  1
