# generated using pymatgen
data_Lu8Re3OsC8
_symmetry_space_group_name_H-M   'P 1'
_cell_length_a   4.98203500
_cell_length_b   6.45362004
_cell_length_c   9.65631251
_cell_angle_alpha   90.14304123
_cell_angle_beta   90.00000000
_cell_angle_gamma   90.00000000
_symmetry_Int_Tables_number   1
_chemical_formula_structural   Lu8Re3OsC8
_chemical_formula_sum   'Lu8 Re3 Os1 C8'
_cell_volume   310.47034598
_cell_formula_units_Z   1
loop_
 _symmetry_equiv_pos_site_id
 _symmetry_equiv_pos_as_xyz
  1  'x, y, z'
loop_
 _atom_site_type_symbol
 _atom_site_label
 _atom_site_symmetry_multiplicity
 _atom_site_fract_x
 _atom_site_fract_y
 _atom_site_fract_z
 _atom_site_occupancy
  Lu  Lu0  1  0.250000  0.824649  0.941975  1
  Lu  Lu1  1  0.250000  0.323539  0.558850  1
  Lu  Lu2  1  0.750000  0.175633  0.057694  1
  Lu  Lu3  1  0.750000  0.674140  0.442324  1
  Lu  Lu4  1  0.250000  0.464044  0.217703  1
  Lu  Lu5  1  0.250000  0.966083  0.284604  1
  Lu  Lu6  1  0.750000  0.534654  0.782786  1
  Lu  Lu7  1  0.750000  0.034077  0.717483  1
  Re  Re8  1  0.250000  0.285274  0.871287  1
  Re  Re9  1  0.250000  0.784532  0.629424  1
  Re  Re10  1  0.750000  0.714675  0.130195  1
  Os  Os11  1  0.750000  0.215374  0.369427  1
  C  C12  1  0.250000  0.052373  0.740392  1
  C  C13  1  0.250000  0.552614  0.759484  1
  C  C14  1  0.750000  0.948247  0.257854  1
  C  C15  1  0.750000  0.448416  0.240379  1
  C  C16  1  0.250000  0.672724  0.442610  1
  C  C17  1  0.250000  0.172985  0.057263  1
  C  C18  1  0.750000  0.328289  0.554222  1
  C  C19  1  0.750000  0.827680  0.944044  1
