# generated using pymatgen
data_Ba2SrGa2FeF14
_symmetry_space_group_name_H-M   'P 1'
_cell_length_a   7.52560869
_cell_length_b   7.52560751
_cell_length_c   15.31930295
_cell_angle_alpha   88.56336865
_cell_angle_beta   88.56336862
_cell_angle_gamma   42.76045013
_symmetry_Int_Tables_number   1
_chemical_formula_structural   Ba2SrGa2FeF14
_chemical_formula_sum   'Ba4 Sr2 Ga4 Fe2 F28'
_cell_volume   588.83378036
_cell_formula_units_Z   2
loop_
 _symmetry_equiv_pos_site_id
 _symmetry_equiv_pos_as_xyz
  1  'x, y, z'
loop_
 _atom_site_type_symbol
 _atom_site_label
 _atom_site_symmetry_multiplicity
 _atom_site_fract_x
 _atom_site_fract_y
 _atom_site_fract_z
 _atom_site_occupancy
  Ba  Ba0  1  0.646400  0.738873  0.880407  1
  Ba  Ba1  1  0.353600  0.261127  0.119593  1
  Ba  Ba2  1  0.261127  0.353600  0.619593  1
  Ba  Ba3  1  0.738873  0.646400  0.380407  1
  Sr  Sr4  1  0.937876  0.062124  0.750000  1
  Sr  Sr5  1  0.062124  0.937876  0.250000  1
  Ga  Ga6  1  0.612028  0.630871  0.622358  1
  Ga  Ga7  1  0.387972  0.369129  0.377642  1
  Ga  Ga8  1  0.369129  0.387972  0.877642  1
  Ga  Ga9  1  0.630871  0.612028  0.122358  1
  Fe  Fe10  1  0.000000  0.000000  0.500000  1
  Fe  Fe11  1  0.000000  0.000000  0.000000  1
  F  F12  1  0.855671  0.022795  0.114701  1
  F  F13  1  0.144329  0.977205  0.885299  1
  F  F14  1  0.977205  0.144329  0.385299  1
  F  F15  1  0.022795  0.855671  0.614701  1
  F  F16  1  0.665894  0.084099  0.948405  1
  F  F17  1  0.334106  0.915901  0.051595  1
  F  F18  1  0.915901  0.334106  0.551595  1
  F  F19  1  0.084099  0.665894  0.448405  1
  F  F20  1  0.403930  0.773828  0.518368  1
  F  F21  1  0.596070  0.226172  0.481632  1
  F  F22  1  0.226172  0.596070  0.981632  1
  F  F23  1  0.773828  0.403930  0.018368  1
  F  F24  1  0.347019  0.915800  0.698230  1
  F  F25  1  0.652981  0.084200  0.301770  1
  F  F26  1  0.084200  0.652981  0.801770  1
  F  F27  1  0.915800  0.347019  0.198230  1
  F  F28  1  0.555971  0.430352  0.655149  1
  F  F29  1  0.444029  0.569648  0.344851  1
  F  F30  1  0.569648  0.444029  0.844851  1
  F  F31  1  0.430352  0.555971  0.155149  1
  F  F32  1  0.535508  0.141449  0.779248  1
  F  F33  1  0.464492  0.858551  0.220752  1
  F  F34  1  0.858551  0.464492  0.720752  1
  F  F35  1  0.141449  0.535508  0.279248  1
  F  F36  1  0.701610  0.801318  0.587722  1
  F  F37  1  0.298390  0.198682  0.412278  1
  F  F38  1  0.198682  0.298390  0.912278  1
  F  F39  1  0.801318  0.701610  0.087722  1
