# generated using pymatgen
data_Rb2Ga2Bi2O7
_symmetry_space_group_name_H-M   'P 1'
_cell_length_a   5.95143600
_cell_length_b   5.95143570
_cell_length_c   8.79610500
_cell_angle_alpha   90.00000000
_cell_angle_beta   90.00000000
_cell_angle_gamma   119.99999053
_symmetry_Int_Tables_number   1
_chemical_formula_structural   Rb2Ga2Bi2O7
_chemical_formula_sum   'Rb2 Ga2 Bi2 O7'
_cell_volume   269.81406920
_cell_formula_units_Z   1
loop_
 _symmetry_equiv_pos_site_id
 _symmetry_equiv_pos_as_xyz
  1  'x, y, z'
loop_
 _atom_site_type_symbol
 _atom_site_label
 _atom_site_symmetry_multiplicity
 _atom_site_fract_x
 _atom_site_fract_y
 _atom_site_fract_z
 _atom_site_occupancy
  Rb  Rb0  1  0.666667  0.333333  0.412141  1
  Rb  Rb1  1  0.333333  0.666667  0.587859  1
  Ga  Ga2  1  0.000000  0.000000  0.792053  1
  Ga  Ga3  1  0.000000  0.000000  0.207947  1
  Bi  Bi4  1  0.333333  0.666667  0.149246  1
  Bi  Bi5  1  0.666667  0.333333  0.850754  1
  O  O6  1  0.336294  0.168147  0.712650  1
  O  O7  1  0.168147  0.831853  0.287350  1
  O  O8  1  0.831853  0.168147  0.712650  1
  O  O9  1  0.831853  0.663706  0.712650  1
  O  O10  1  0.663706  0.831853  0.287350  1
  O  O11  1  0.000000  0.000000  0.000000  1
  O  O12  1  0.168147  0.336294  0.287350  1
