# generated using pymatgen
data_YTmFe3P7Ru9
_symmetry_space_group_name_H-M   'P 1'
_cell_length_a   9.29331000
_cell_length_b   9.29331089
_cell_length_c   3.84986100
_cell_angle_alpha   90.00000000
_cell_angle_beta   90.00000000
_cell_angle_gamma   120.00000394
_symmetry_Int_Tables_number   1
_chemical_formula_structural   YTmFe3P7Ru9
_chemical_formula_sum   'Y1 Tm1 Fe3 P7 Ru9'
_cell_volume   287.94964956
_cell_formula_units_Z   1
loop_
 _symmetry_equiv_pos_site_id
 _symmetry_equiv_pos_as_xyz
  1  'x, y, z'
loop_
 _atom_site_type_symbol
 _atom_site_label
 _atom_site_symmetry_multiplicity
 _atom_site_fract_x
 _atom_site_fract_y
 _atom_site_fract_z
 _atom_site_occupancy
  Y  Y0  1  0.333333  0.666667  0.000000  1
  Tm  Tm1  1  0.000000  0.000000  0.500000  1
  Fe  Fe2  1  0.934612  0.443627  0.000000  1
  Fe  Fe3  1  0.509016  0.065388  0.000000  1
  Fe  Fe4  1  0.556373  0.490984  0.000000  1
  P  P5  1  0.970822  0.223978  0.000000  1
  P  P6  1  0.253156  0.029178  0.000000  1
  P  P7  1  0.776022  0.746844  0.000000  1
  P  P8  1  0.062750  0.613581  0.500000  1
  P  P9  1  0.550831  0.937250  0.500000  1
  P  P10  1  0.386419  0.449169  0.500000  1
  P  P11  1  0.666667  0.333333  0.000000  1
  Ru  Ru12  1  0.727987  0.972861  0.000000  1
  Ru  Ru13  1  0.244875  0.272013  0.000000  1
  Ru  Ru14  1  0.027139  0.755125  0.000000  1
  Ru  Ru15  1  0.104349  0.384769  0.500000  1
  Ru  Ru16  1  0.280420  0.895651  0.500000  1
  Ru  Ru17  1  0.615231  0.719580  0.500000  1
  Ru  Ru18  1  0.754717  0.216891  0.500000  1
  Ru  Ru19  1  0.462175  0.245283  0.500000  1
  Ru  Ru20  1  0.783109  0.537825  0.500000  1
