# generated using pymatgen
data_Pr2DySn2Hg3
_symmetry_space_group_name_H-M   'P 1'
_cell_length_a   6.46183027
_cell_length_b   6.46182960
_cell_length_c   10.67798400
_cell_angle_alpha   90.00000000
_cell_angle_beta   90.00000000
_cell_angle_gamma   102.38486370
_symmetry_Int_Tables_number   1
_chemical_formula_structural   Pr2DySn2Hg3
_chemical_formula_sum   'Pr4 Dy2 Sn4 Hg6'
_cell_volume   435.48618645
_cell_formula_units_Z   2
loop_
 _symmetry_equiv_pos_site_id
 _symmetry_equiv_pos_as_xyz
  1  'x, y, z'
loop_
 _atom_site_type_symbol
 _atom_site_label
 _atom_site_symmetry_multiplicity
 _atom_site_fract_x
 _atom_site_fract_y
 _atom_site_fract_z
 _atom_site_occupancy
  Pr  Pr0  1  0.201430  0.798570  0.500000  1
  Pr  Pr1  1  0.201430  0.798570  0.000000  1
  Pr  Pr2  1  0.798570  0.201430  0.500000  1
  Pr  Pr3  1  0.798570  0.201430  0.000000  1
  Dy  Dy4  1  0.634031  0.634031  0.250000  1
  Dy  Dy5  1  0.365969  0.365969  0.750000  1
  Sn  Sn6  1  0.318648  0.318648  0.045739  1
  Sn  Sn7  1  0.681352  0.681352  0.954261  1
  Sn  Sn8  1  0.318648  0.318648  0.454261  1
  Sn  Sn9  1  0.681352  0.681352  0.545739  1
  Hg  Hg10  1  0.012816  0.012816  0.250000  1
  Hg  Hg11  1  0.987184  0.987184  0.750000  1
  Hg  Hg12  1  0.507858  0.073089  0.250000  1
  Hg  Hg13  1  0.926911  0.492142  0.750000  1
  Hg  Hg14  1  0.492142  0.926911  0.750000  1
  Hg  Hg15  1  0.073089  0.507858  0.250000  1
