# generated using pymatgen
data_Al3Ga3(NiPt4)2
_symmetry_space_group_name_H-M   'P 1'
_cell_length_a   3.98680000
_cell_length_b   5.38286469
_cell_length_c   10.82177988
_cell_angle_alpha   95.35610556
_cell_angle_beta   90.00000000
_cell_angle_gamma   90.00000000
_symmetry_Int_Tables_number   1
_chemical_formula_structural   Al3Ga3(NiPt4)2
_chemical_formula_sum   'Al3 Ga3 Ni2 Pt8'
_cell_volume   231.22576586
_cell_formula_units_Z   1
loop_
 _symmetry_equiv_pos_site_id
 _symmetry_equiv_pos_as_xyz
  1  'x, y, z'
loop_
 _atom_site_type_symbol
 _atom_site_label
 _atom_site_symmetry_multiplicity
 _atom_site_fract_x
 _atom_site_fract_y
 _atom_site_fract_z
 _atom_site_occupancy
  Al  Al0  1  0.500000  0.288806  0.355126  1
  Al  Al1  1  0.500000  0.288882  0.855364  1
  Al  Al2  1  0.500000  0.711493  0.144163  1
  Ga  Ga3  1  0.500000  0.706954  0.647339  1
  Ga  Ga4  1  0.000000  0.001952  0.000916  1
  Ga  Ga5  1  0.000000  0.998131  0.498753  1
  Ni  Ni6  1  0.000000  0.499600  0.248670  1
  Ni  Ni7  1  0.000000  0.504362  0.749715  1
  Pt  Pt8  1  0.500000  0.777536  0.385407  1
  Pt  Pt9  1  0.500000  0.778653  0.892081  1
  Pt  Pt10  1  0.500000  0.224551  0.112605  1
  Pt  Pt11  1  0.500000  0.216059  0.610572  1
  Pt  Pt12  1  0.000000  0.999593  0.248636  1
  Pt  Pt13  1  0.000000  0.008788  0.754451  1
  Pt  Pt14  1  0.000000  0.499295  0.999890  1
  Pt  Pt15  1  0.000000  0.495343  0.496310  1
