# generated using pymatgen
data_Co2ReMo3N
_symmetry_space_group_name_H-M   'P 1'
_cell_length_a   7.92869004
_cell_length_b   7.92868987
_cell_length_c   7.92869000
_cell_angle_alpha   59.99999948
_cell_angle_beta   60.00000015
_cell_angle_gamma   59.99999702
_symmetry_Int_Tables_number   1
_chemical_formula_structural   Co2ReMo3N
_chemical_formula_sum   'Co8 Re4 Mo12 N4'
_cell_volume   352.44333328
_cell_formula_units_Z   4
loop_
 _symmetry_equiv_pos_site_id
 _symmetry_equiv_pos_as_xyz
  1  'x, y, z'
loop_
 _atom_site_type_symbol
 _atom_site_label
 _atom_site_symmetry_multiplicity
 _atom_site_fract_x
 _atom_site_fract_y
 _atom_site_fract_z
 _atom_site_occupancy
  Co  Co0  1  0.832324  0.503027  0.832324  1
  Co  Co1  1  0.417676  0.417676  0.746973  1
  Co  Co2  1  0.746973  0.417676  0.417676  1
  Co  Co3  1  0.417676  0.417676  0.417676  1
  Co  Co4  1  0.503027  0.832324  0.832324  1
  Co  Co5  1  0.832324  0.832324  0.832324  1
  Co  Co6  1  0.832324  0.832324  0.503027  1
  Co  Co7  1  0.417676  0.746973  0.417676  1
  Re  Re8  1  0.625000  0.125000  0.625000  1
  Re  Re9  1  0.625000  0.625000  0.125000  1
  Re  Re10  1  0.125000  0.625000  0.625000  1
  Re  Re11  1  0.625000  0.625000  0.625000  1
  Mo  Mo12  1  0.194885  0.194885  0.805115  1
  Mo  Mo13  1  0.444885  0.055115  0.055115  1
  Mo  Mo14  1  0.055115  0.444885  0.444885  1
  Mo  Mo15  1  0.444885  0.444885  0.055115  1
  Mo  Mo16  1  0.444885  0.055115  0.444885  1
  Mo  Mo17  1  0.055115  0.444885  0.055115  1
  Mo  Mo18  1  0.805115  0.194885  0.805115  1
  Mo  Mo19  1  0.805115  0.194885  0.194885  1
  Mo  Mo20  1  0.194885  0.805115  0.805115  1
  Mo  Mo21  1  0.194885  0.805115  0.194885  1
  Mo  Mo22  1  0.055115  0.055115  0.444885  1
  Mo  Mo23  1  0.805115  0.805115  0.194885  1
  N  N24  1  0.125000  0.625000  0.125000  1
  N  N25  1  0.125000  0.125000  0.625000  1
  N  N26  1  0.625000  0.125000  0.125000  1
  N  N27  1  0.125000  0.125000  0.125000  1
