# generated using pymatgen
data_YHo3(Tm3In4)2
_symmetry_space_group_name_H-M   'P 1'
_cell_length_a   9.20707800
_cell_length_b   9.20258090
_cell_length_c   6.59038300
_cell_angle_alpha   90.00000000
_cell_angle_beta   90.00000000
_cell_angle_gamma   119.88319012
_symmetry_Int_Tables_number   1
_chemical_formula_structural   YHo3(Tm3In4)2
_chemical_formula_sum   'Y1 Ho3 Tm6 In8'
_cell_volume   484.15312345
_cell_formula_units_Z   1
loop_
 _symmetry_equiv_pos_site_id
 _symmetry_equiv_pos_as_xyz
  1  'x, y, z'
loop_
 _atom_site_type_symbol
 _atom_site_label
 _atom_site_symmetry_multiplicity
 _atom_site_fract_x
 _atom_site_fract_y
 _atom_site_fract_z
 _atom_site_occupancy
  Y  Y0  1  0.999913  0.710312  0.250000  1
  Ho  Ho1  1  0.290104  0.000093  0.750000  1
  Ho  Ho2  1  0.709964  0.999753  0.250000  1
  Ho  Ho3  1  0.000155  0.290214  0.750000  1
  Tm  Tm4  1  0.334164  0.666126  0.500136  1
  Tm  Tm5  1  0.665857  0.333600  0.500132  1
  Tm  Tm6  1  0.665857  0.333600  0.999868  1
  Tm  Tm7  1  0.334164  0.666126  0.999864  1
  Tm  Tm8  1  0.710152  0.710110  0.750000  1
  Tm  Tm9  1  0.289833  0.289727  0.250000  1
  In  In10  1  0.000033  0.000422  0.500350  1
  In  In11  1  0.000033  0.000422  0.999650  1
  In  In12  1  0.628748  0.999001  0.750000  1
  In  In13  1  0.371977  0.001409  0.250000  1
  In  In14  1  0.999001  0.628749  0.750000  1
  In  In15  1  0.000890  0.370514  0.250000  1
  In  In16  1  0.373188  0.373237  0.750000  1
  In  In17  1  0.625964  0.626584  0.250000  1
