# generated using pymatgen
data_Ac4B4I5
_symmetry_space_group_name_H-M   'P 1'
_cell_length_a   10.28490665
_cell_length_b   10.28490715
_cell_length_c   10.82901032
_cell_angle_alpha   72.12764996
_cell_angle_beta   72.12764806
_cell_angle_gamma   24.90128706
_symmetry_Int_Tables_number   1
_chemical_formula_structural   Ac4B4I5
_chemical_formula_sum   'Ac4 B4 I5'
_cell_volume   457.87357346
_cell_formula_units_Z   1
loop_
 _symmetry_equiv_pos_site_id
 _symmetry_equiv_pos_as_xyz
  1  'x, y, z'
loop_
 _atom_site_type_symbol
 _atom_site_label
 _atom_site_symmetry_multiplicity
 _atom_site_fract_x
 _atom_site_fract_y
 _atom_site_fract_z
 _atom_site_occupancy
  Ac  Ac0  1  0.510006  0.510006  0.748920  1
  Ac  Ac1  1  0.490435  0.490435  0.250962  1
  Ac  Ac2  1  0.137032  0.137032  0.932136  1
  Ac  Ac3  1  0.863024  0.863024  0.067702  1
  B  B4  1  0.315528  0.684563  0.000086  1
  B  B5  1  0.684563  0.315528  0.000086  1
  B  B6  1  0.997098  0.997098  0.088968  1
  B  B7  1  0.002764  0.002764  0.911341  1
  I  I8  1  0.685233  0.685233  0.680759  1
  I  I9  1  0.315081  0.315081  0.319765  1
  I  I10  1  0.330571  0.330571  0.849242  1
  I  I11  1  0.670168  0.670168  0.148753  1
  I  I12  1  0.012799  0.012799  0.491478  1
