# generated using pymatgen
data_Tb16In2Ag2Ir3Rh
_symmetry_space_group_name_H-M   'P 1'
_cell_length_a   9.62852896
_cell_length_b   9.65695368
_cell_length_c   9.66134900
_cell_angle_alpha   59.98494619
_cell_angle_beta   59.88718283
_cell_angle_gamma   59.99529355
_symmetry_Int_Tables_number   1
_chemical_formula_structural   Tb16In2Ag2Ir3Rh
_chemical_formula_sum   'Tb16 In2 Ag2 Ir3 Rh1'
_cell_volume   634.58008364
_cell_formula_units_Z   1
loop_
 _symmetry_equiv_pos_site_id
 _symmetry_equiv_pos_as_xyz
  1  'x, y, z'
loop_
 _atom_site_type_symbol
 _atom_site_label
 _atom_site_symmetry_multiplicity
 _atom_site_fract_x
 _atom_site_fract_y
 _atom_site_fract_z
 _atom_site_occupancy
  Tb  Tb0  1  0.808141  0.807743  0.192058  1
  Tb  Tb1  1  0.810778  0.190268  0.808373  1
  Tb  Tb2  1  0.188346  0.188872  0.811391  1
  Tb  Tb3  1  0.649474  0.051418  0.649554  1
  Tb  Tb4  1  0.062425  0.062503  0.437536  1
  Tb  Tb5  1  0.440098  0.438383  0.060759  1
  Tb  Tb6  1  0.650397  0.649903  0.649857  1
  Tb  Tb7  1  0.810778  0.190268  0.190580  1
  Tb  Tb8  1  0.189809  0.810653  0.808781  1
  Tb  Tb9  1  0.050848  0.649163  0.649995  1
  Tb  Tb10  1  0.439284  0.065638  0.059140  1
  Tb  Tb11  1  0.439284  0.065638  0.435938  1
  Tb  Tb12  1  0.064912  0.439423  0.058436  1
  Tb  Tb13  1  0.650397  0.649903  0.049844  1
  Tb  Tb14  1  0.189809  0.810653  0.190755  1
  Tb  Tb15  1  0.064912  0.439423  0.437230  1
  In  In16  1  0.416724  0.742269  0.420503  1
  In  In17  1  0.742174  0.416621  0.420602  1
  Ag  Ag18  1  0.416634  0.416562  0.417815  1
  Ag  Ag19  1  0.416634  0.416562  0.748987  1
  Ir  Ir20  1  0.857488  0.425518  0.858497  1
  Ir  Ir21  1  0.857587  0.857417  0.859557  1
  Ir  Ir22  1  0.857587  0.857417  0.425440  1
  Rh  Rh23  1  0.425478  0.857778  0.858372  1
