# generated using pymatgen
data_Pr4IrWO12
_symmetry_space_group_name_H-M   'P 1'
_cell_length_a   5.49422644
_cell_length_b   9.48830816
_cell_length_c   10.30551300
_cell_angle_alpha   90.00000000
_cell_angle_beta   90.00000000
_cell_angle_gamma   90.19272879
_symmetry_Int_Tables_number   1
_chemical_formula_structural   Pr4IrWO12
_chemical_formula_sum   'Pr8 Ir2 W2 O24'
_cell_volume   537.23276784
_cell_formula_units_Z   2
loop_
 _symmetry_equiv_pos_site_id
 _symmetry_equiv_pos_as_xyz
  1  'x, y, z'
loop_
 _atom_site_type_symbol
 _atom_site_label
 _atom_site_symmetry_multiplicity
 _atom_site_fract_x
 _atom_site_fract_y
 _atom_site_fract_z
 _atom_site_occupancy
  Pr  Pr0  1  0.032922  0.218548  0.133850  1
  Pr  Pr1  1  0.467078  0.781452  0.633850  1
  Pr  Pr2  1  0.966678  0.718681  0.368217  1
  Pr  Pr3  1  0.533322  0.281319  0.868217  1
  Pr  Pr4  1  0.024653  0.104861  0.539192  1
  Pr  Pr5  1  0.475347  0.895139  0.039192  1
  Pr  Pr6  1  0.977520  0.602025  0.962116  1
  Pr  Pr7  1  0.522480  0.397975  0.462116  1
  Ir  Ir8  1  0.457126  0.503276  0.143623  1
  Ir  Ir9  1  0.042874  0.496724  0.643623  1
  W  W10  1  0.541987  0.003991  0.354022  1
  W  W11  1  0.958013  0.996009  0.854022  1
  O  O12  1  0.427943  0.151454  0.474310  1
  O  O13  1  0.072057  0.848546  0.974310  1
  O  O14  1  0.569324  0.648152  0.021945  1
  O  O15  1  0.930676  0.351848  0.521945  1
  O  O16  1  0.722649  0.386891  0.066061  1
  O  O17  1  0.777351  0.613109  0.566061  1
  O  O18  1  0.280206  0.888123  0.436265  1
  O  O19  1  0.219794  0.111877  0.936265  1
  O  O20  1  0.248753  0.412028  0.007196  1
  O  O21  1  0.251247  0.587972  0.507196  1
  O  O22  1  0.749804  0.912461  0.491921  1
  O  O23  1  0.750196  0.087539  0.991921  1
  O  O24  1  0.190155  0.633098  0.180221  1
  O  O25  1  0.309845  0.366902  0.680221  1
  O  O26  1  0.808464  0.135388  0.323114  1
  O  O27  1  0.691536  0.864612  0.823114  1
  O  O28  1  0.330452  0.049480  0.214279  1
  O  O29  1  0.169548  0.950520  0.714279  1
  O  O30  1  0.664322  0.556318  0.284730  1
  O  O31  1  0.835678  0.443682  0.784730  1
  O  O32  1  0.321711  0.361525  0.257673  1
  O  O33  1  0.178289  0.638475  0.757673  1
  O  O34  1  0.684465  0.864404  0.241266  1
  O  O35  1  0.815535  0.135596  0.741266  1
