# generated using pymatgen
data_Hf4GePRh10
_symmetry_space_group_name_H-M   'P 1'
_cell_length_a   4.02611700
_cell_length_b   5.59840126
_cell_length_c   10.87606455
_cell_angle_alpha   90.36518187
_cell_angle_beta   90.00000000
_cell_angle_gamma   90.00000000
_symmetry_Int_Tables_number   1
_chemical_formula_structural   Hf4GePRh10
_chemical_formula_sum   'Hf4 Ge1 P1 Rh10'
_cell_volume   245.13954165
_cell_formula_units_Z   1
loop_
 _symmetry_equiv_pos_site_id
 _symmetry_equiv_pos_as_xyz
  1  'x, y, z'
loop_
 _atom_site_type_symbol
 _atom_site_label
 _atom_site_symmetry_multiplicity
 _atom_site_fract_x
 _atom_site_fract_y
 _atom_site_fract_z
 _atom_site_occupancy
  Hf  Hf0  1  0.500000  0.173649  0.641977  1
  Hf  Hf1  1  0.500000  0.826351  0.358023  1
  Hf  Hf2  1  0.500000  0.679052  0.858734  1
  Hf  Hf3  1  0.500000  0.320948  0.141266  1
  Ge  Ge4  1  0.000000  0.000000  0.000000  1
  P  P5  1  0.000000  0.500000  0.500000  1
  Rh  Rh6  1  0.500000  0.190082  0.892362  1
  Rh  Rh7  1  0.500000  0.809918  0.107638  1
  Rh  Rh8  1  0.500000  0.679523  0.600005  1
  Rh  Rh9  1  0.500000  0.320477  0.399995  1
  Rh  Rh10  1  0.000000  0.433184  0.737978  1
  Rh  Rh11  1  0.000000  0.566816  0.262022  1
  Rh  Rh12  1  0.000000  0.000000  0.500000  1
  Rh  Rh13  1  0.000000  0.500000  0.000000  1
  Rh  Rh14  1  0.000000  0.069071  0.244681  1
  Rh  Rh15  1  0.000000  0.930929  0.755319  1
