# generated using pymatgen
data_Pr3Y3Zn4Pd13
_symmetry_space_group_name_H-M   'P 1'
_cell_length_a   8.34933636
_cell_length_b   8.34933655
_cell_length_c   8.34303600
_cell_angle_alpha   109.45593500
_cell_angle_beta   109.45593546
_cell_angle_gamma   109.48650789
_symmetry_Int_Tables_number   1
_chemical_formula_structural   Pr3Y3Zn4Pd13
_chemical_formula_sum   'Pr3 Y3 Zn4 Pd13'
_cell_volume   447.80404245
_cell_formula_units_Z   1
loop_
 _symmetry_equiv_pos_site_id
 _symmetry_equiv_pos_as_xyz
  1  'x, y, z'
loop_
 _atom_site_type_symbol
 _atom_site_label
 _atom_site_symmetry_multiplicity
 _atom_site_fract_x
 _atom_site_fract_y
 _atom_site_fract_z
 _atom_site_occupancy
  Pr  Pr0  1  0.298876  0.298876  0.000673  1
  Pr  Pr1  1  0.701124  0.000000  0.701797  1
  Pr  Pr2  1  0.000000  0.701124  0.701797  1
  Y  Y3  1  0.695160  0.695160  0.000630  1
  Y  Y4  1  0.304840  0.000000  0.305470  1
  Y  Y5  1  0.000000  0.304840  0.305470  1
  Zn  Zn6  1  0.000000  0.000000  0.485847  1
  Zn  Zn7  1  0.000000  0.504538  0.000560  1
  Zn  Zn8  1  0.504538  0.000000  0.000560  1
  Zn  Zn9  1  0.495462  0.495462  0.496021  1
  Pd  Pd10  1  0.331275  0.331275  0.660800  1
  Pd  Pd11  1  0.668725  0.000000  0.329525  1
  Pd  Pd12  1  0.000000  0.668725  0.329525  1
  Pd  Pd13  1  0.669541  0.333532  0.001256  1
  Pd  Pd14  1  0.330459  0.663992  0.331715  1
  Pd  Pd15  1  0.000000  0.332878  0.665168  1
  Pd  Pd16  1  0.333532  0.669541  0.001256  1
  Pd  Pd17  1  0.332878  0.000000  0.665168  1
  Pd  Pd18  1  0.663992  0.330459  0.331715  1
  Pd  Pd19  1  0.667122  0.667122  0.332289  1
  Pd  Pd20  1  0.666468  0.336008  0.667724  1
  Pd  Pd21  1  0.336008  0.666468  0.667724  1
  Pd  Pd22  1  0.000000  0.000000  0.017313  1
