# generated using pymatgen
data_Pr5(ThS4)3
_symmetry_space_group_name_H-M   'P 1'
_cell_length_a   4.05218900
_cell_length_b   10.72327216
_cell_length_c   10.99063413
_cell_angle_alpha   89.81178702
_cell_angle_beta   90.00000000
_cell_angle_gamma   90.00000000
_symmetry_Int_Tables_number   1
_chemical_formula_structural   Pr5(ThS4)3
_chemical_formula_sum   'Pr5 Th3 S12'
_cell_volume   477.57043104
_cell_formula_units_Z   1
loop_
 _symmetry_equiv_pos_site_id
 _symmetry_equiv_pos_as_xyz
  1  'x, y, z'
loop_
 _atom_site_type_symbol
 _atom_site_label
 _atom_site_symmetry_multiplicity
 _atom_site_fract_x
 _atom_site_fract_y
 _atom_site_fract_z
 _atom_site_occupancy
  Pr  Pr0  1  0.250000  0.005804  0.308315  1
  Pr  Pr1  1  0.750000  0.992203  0.691529  1
  Pr  Pr2  1  0.750000  0.505254  0.189931  1
  Pr  Pr3  1  0.250000  0.495845  0.806931  1
  Pr  Pr4  1  0.250000  0.687710  0.486824  1
  Th  Th5  1  0.750000  0.314346  0.513543  1
  Th  Th6  1  0.750000  0.186149  0.013271  1
  Th  Th7  1  0.250000  0.813647  0.986682  1
  S  S8  1  0.250000  0.057018  0.881628  1
  S  S9  1  0.750000  0.944387  0.119051  1
  S  S10  1  0.750000  0.551752  0.620335  1
  S  S11  1  0.250000  0.443213  0.379663  1
  S  S12  1  0.250000  0.131756  0.549654  1
  S  S13  1  0.750000  0.874118  0.451730  1
  S  S14  1  0.750000  0.630058  0.951021  1
  S  S15  1  0.250000  0.369552  0.048470  1
  S  S16  1  0.250000  0.703836  0.222235  1
  S  S17  1  0.750000  0.293349  0.774400  1
  S  S18  1  0.750000  0.204867  0.273694  1
  S  S19  1  0.250000  0.795133  0.731092  1
