# generated using pymatgen
data_Pr4PI5
_symmetry_space_group_name_H-M   'P 1'
_cell_length_a   4.29652200
_cell_length_b   9.05046100
_cell_length_c   19.06045600
_cell_angle_alpha   90.00000000
_cell_angle_beta   90.00000000
_cell_angle_gamma   90.00000000
_symmetry_Int_Tables_number   1
_chemical_formula_structural   Pr4PI5
_chemical_formula_sum   'Pr8 P2 I10'
_cell_volume   741.17545321
_cell_formula_units_Z   2
loop_
 _symmetry_equiv_pos_site_id
 _symmetry_equiv_pos_as_xyz
  1  'x, y, z'
loop_
 _atom_site_type_symbol
 _atom_site_label
 _atom_site_symmetry_multiplicity
 _atom_site_fract_x
 _atom_site_fract_y
 _atom_site_fract_z
 _atom_site_occupancy
  Pr  Pr0  1  0.000000  0.371320  0.854531  1
  Pr  Pr1  1  0.500000  0.580824  0.000000  1
  Pr  Pr2  1  0.000000  0.371320  0.145469  1
  Pr  Pr3  1  0.000000  0.837105  0.500000  1
  Pr  Pr4  1  0.500000  0.628680  0.354531  1
  Pr  Pr5  1  0.000000  0.419176  0.500000  1
  Pr  Pr6  1  0.500000  0.628680  0.645469  1
  Pr  Pr7  1  0.500000  0.162895  0.000000  1
  P  P8  1  0.500000  0.628053  0.500000  1
  P  P9  1  0.000000  0.371947  0.000000  1
  I  I10  1  0.500000  0.112019  0.167797  1
  I  I11  1  0.000000  0.363876  0.669898  1
  I  I12  1  0.000000  0.870843  0.000000  1
  I  I13  1  0.000000  0.887981  0.332203  1
  I  I14  1  0.500000  0.112019  0.832203  1
  I  I15  1  0.500000  0.636124  0.830102  1
  I  I16  1  0.000000  0.887981  0.667797  1
  I  I17  1  0.000000  0.363876  0.330102  1
  I  I18  1  0.500000  0.636124  0.169898  1
  I  I19  1  0.500000  0.129157  0.500000  1
