# generated using pymatgen
data_Nd4Sc4Re(B8Ru)3
_symmetry_space_group_name_H-M   'P 1'
_cell_length_a   3.62884500
_cell_length_b   9.06649624
_cell_length_c   11.50560358
_cell_angle_alpha   90.06002795
_cell_angle_beta   90.00000000
_cell_angle_gamma   90.00000000
_symmetry_Int_Tables_number   1
_chemical_formula_structural   Nd4Sc4Re(B8Ru)3
_chemical_formula_sum   'Nd4 Sc4 Re1 B24 Ru3'
_cell_volume   378.54461505
_cell_formula_units_Z   1
loop_
 _symmetry_equiv_pos_site_id
 _symmetry_equiv_pos_as_xyz
  1  'x, y, z'
loop_
 _atom_site_type_symbol
 _atom_site_label
 _atom_site_symmetry_multiplicity
 _atom_site_fract_x
 _atom_site_fract_y
 _atom_site_fract_z
 _atom_site_occupancy
  Nd  Nd0  1  0.000000  0.321617  0.415911  1
  Nd  Nd1  1  0.000000  0.679572  0.585640  1
  Nd  Nd2  1  0.000000  0.821354  0.083920  1
  Nd  Nd3  1  0.000000  0.178054  0.914258  1
  Sc  Sc4  1  0.000000  0.945063  0.371980  1
  Sc  Sc5  1  0.000000  0.053729  0.628221  1
  Sc  Sc6  1  0.000000  0.444621  0.127723  1
  Sc  Sc7  1  0.000000  0.555830  0.872488  1
  Re  Re8  1  0.000000  0.858527  0.816982  1
  B  B9  1  0.500000  0.557413  0.429800  1
  B  B10  1  0.500000  0.442414  0.570238  1
  B  B11  1  0.500000  0.057187  0.070581  1
  B  B12  1  0.500000  0.943823  0.929976  1
  B  B13  1  0.500000  0.754141  0.415814  1
  B  B14  1  0.500000  0.245816  0.584131  1
  B  B15  1  0.500000  0.254399  0.084369  1
  B  B16  1  0.500000  0.745296  0.915919  1
  B  B17  1  0.500000  0.793388  0.265309  1
  B  B18  1  0.500000  0.206448  0.734019  1
  B  B19  1  0.500000  0.293582  0.234595  1
  B  B20  1  0.500000  0.705516  0.765239  1
  B  B21  1  0.500000  0.628116  0.183124  1
  B  B22  1  0.500000  0.371779  0.816582  1
  B  B23  1  0.500000  0.128566  0.317000  1
  B  B24  1  0.500000  0.871553  0.683130  1
  B  B25  1  0.500000  0.984046  0.215594  1
  B  B26  1  0.500000  0.017322  0.784468  1
  B  B27  1  0.500000  0.483941  0.284803  1
  B  B28  1  0.500000  0.515849  0.715347  1
  B  B29  1  0.500000  0.595848  0.026080  1
  B  B30  1  0.500000  0.403266  0.974640  1
  B  B31  1  0.500000  0.096559  0.474030  1
  B  B32  1  0.500000  0.903686  0.525013  1
  Ru  Ru33  1  0.000000  0.641577  0.316653  1
  Ru  Ru34  1  0.000000  0.358513  0.682939  1
  Ru  Ru35  1  0.000000  0.141587  0.183483  1
