# generated using pymatgen
data_NaCe2CrF11
_symmetry_space_group_name_H-M   'P 1'
_cell_length_a   5.92072478
_cell_length_b   5.92072512
_cell_length_c   8.36678500
_cell_angle_alpha   68.82438670
_cell_angle_beta   68.82437505
_cell_angle_gamma   72.53782457
_symmetry_Int_Tables_number   1
_chemical_formula_structural   NaCe2CrF11
_chemical_formula_sum   'Na1 Ce2 Cr1 F11'
_cell_volume   250.12869440
_cell_formula_units_Z   1
loop_
 _symmetry_equiv_pos_site_id
 _symmetry_equiv_pos_as_xyz
  1  'x, y, z'
loop_
 _atom_site_type_symbol
 _atom_site_label
 _atom_site_symmetry_multiplicity
 _atom_site_fract_x
 _atom_site_fract_y
 _atom_site_fract_z
 _atom_site_occupancy
  Na  Na0  1  0.000000  0.000000  0.000000  1
  Ce  Ce1  1  0.505582  0.505582  0.764152  1
  Ce  Ce2  1  0.494418  0.494418  0.235848  1
  Cr  Cr3  1  0.000000  0.000000  0.500000  1
  F  F4  1  0.200686  0.832038  0.667174  1
  F  F5  1  0.167962  0.799314  0.332826  1
  F  F6  1  0.799314  0.167962  0.332826  1
  F  F7  1  0.832038  0.200686  0.667174  1
  F  F8  1  0.500000  0.500000  0.500000  1
  F  F9  1  0.683220  0.316780  0.000000  1
  F  F10  1  0.316780  0.683220  0.000000  1
  F  F11  1  0.226796  0.226796  0.362135  1
  F  F12  1  0.773204  0.773204  0.637865  1
  F  F13  1  0.258075  0.258075  0.893016  1
  F  F14  1  0.741925  0.741925  0.106984  1
