# generated using pymatgen
data_BaNbF7
_symmetry_space_group_name_H-M   'P 1'
_cell_length_a   7.63108000
_cell_length_b   5.13241666
_cell_length_c   7.11787624
_cell_angle_alpha   85.79372437
_cell_angle_beta   90.00000000
_cell_angle_gamma   90.00000000
_symmetry_Int_Tables_number   1
_chemical_formula_structural   BaNbF7
_chemical_formula_sum   'Ba2 Nb2 F14'
_cell_volume   278.02699948
_cell_formula_units_Z   2
loop_
 _symmetry_equiv_pos_site_id
 _symmetry_equiv_pos_as_xyz
  1  'x, y, z'
loop_
 _atom_site_type_symbol
 _atom_site_label
 _atom_site_symmetry_multiplicity
 _atom_site_fract_x
 _atom_site_fract_y
 _atom_site_fract_z
 _atom_site_occupancy
  Ba  Ba0  1  0.250000  0.029227  0.685741  1
  Ba  Ba1  1  0.750000  0.970773  0.314259  1
  Nb  Nb2  1  0.750000  0.536290  0.782173  1
  Nb  Nb3  1  0.250000  0.463710  0.217827  1
  F  F4  1  0.250000  0.638173  0.958016  1
  F  F5  1  0.465481  0.669026  0.212738  1
  F  F6  1  0.965481  0.330974  0.787262  1
  F  F7  1  0.580568  0.796549  0.645787  1
  F  F8  1  0.750000  0.414584  0.518125  1
  F  F9  1  0.250000  0.585416  0.481875  1
  F  F10  1  0.750000  0.361827  0.041984  1
  F  F11  1  0.919432  0.796549  0.645787  1
  F  F12  1  0.419432  0.203451  0.354213  1
  F  F13  1  0.250000  0.173486  0.054082  1
  F  F14  1  0.080568  0.203451  0.354213  1
  F  F15  1  0.534519  0.330974  0.787262  1
  F  F16  1  0.750000  0.826514  0.945918  1
  F  F17  1  0.034519  0.669026  0.212738  1
