# generated using pymatgen
data_Li2Er3CdSn3
_symmetry_space_group_name_H-M   'P 1'
_cell_length_a   7.39252500
_cell_length_b   7.26261699
_cell_length_c   4.61162300
_cell_angle_alpha   90.00000000
_cell_angle_beta   90.00000000
_cell_angle_gamma   120.59348506
_symmetry_Int_Tables_number   1
_chemical_formula_structural   Li2Er3CdSn3
_chemical_formula_sum   'Li2 Er3 Cd1 Sn3'
_cell_volume   213.12870644
_cell_formula_units_Z   1
loop_
 _symmetry_equiv_pos_site_id
 _symmetry_equiv_pos_as_xyz
  1  'x, y, z'
loop_
 _atom_site_type_symbol
 _atom_site_label
 _atom_site_symmetry_multiplicity
 _atom_site_fract_x
 _atom_site_fract_y
 _atom_site_fract_z
 _atom_site_occupancy
  Li  Li0  1  0.000204  0.235664  0.500000  1
  Li  Li1  1  0.764540  0.764336  0.500000  1
  Er  Er2  1  0.004219  0.563006  0.000000  1
  Er  Er3  1  0.441213  0.436994  0.000000  1
  Er  Er4  1  0.560711  0.000000  0.000000  1
  Cd  Cd5  1  0.232860  0.000000  0.500000  1
  Sn  Sn6  1  0.981047  0.000000  0.000000  1
  Sn  Sn7  1  0.678952  0.342698  0.500000  1
  Sn  Sn8  1  0.336253  0.657302  0.500000  1
