# generated using pymatgen
data_NdSm(Tm2Rh9)2
_symmetry_space_group_name_H-M   'P 1'
_cell_length_a   5.27230900
_cell_length_b   5.27230916
_cell_length_c   17.52618900
_cell_angle_alpha   90.00000000
_cell_angle_beta   90.00000000
_cell_angle_gamma   119.99999274
_symmetry_Int_Tables_number   1
_chemical_formula_structural   NdSm(Tm2Rh9)2
_chemical_formula_sum   'Nd1 Sm1 Tm4 Rh18'
_cell_volume   421.91005739
_cell_formula_units_Z   1
loop_
 _symmetry_equiv_pos_site_id
 _symmetry_equiv_pos_as_xyz
  1  'x, y, z'
loop_
 _atom_site_type_symbol
 _atom_site_label
 _atom_site_symmetry_multiplicity
 _atom_site_fract_x
 _atom_site_fract_y
 _atom_site_fract_z
 _atom_site_occupancy
  Nd  Nd0  1  0.333333  0.666667  0.750000  1
  Sm  Sm1  1  0.666667  0.333333  0.250000  1
  Tm  Tm2  1  0.333333  0.666667  0.958871  1
  Tm  Tm3  1  0.666667  0.333333  0.041116  1
  Tm  Tm4  1  0.666667  0.333333  0.458884  1
  Tm  Tm5  1  0.333333  0.666667  0.541129  1
  Rh  Rh6  1  0.167523  0.832477  0.375458  1
  Rh  Rh7  1  0.167523  0.335046  0.375458  1
  Rh  Rh8  1  0.664954  0.832477  0.375458  1
  Rh  Rh9  1  0.832469  0.167531  0.624068  1
  Rh  Rh10  1  0.832469  0.664938  0.624068  1
  Rh  Rh11  1  0.335062  0.167531  0.624068  1
  Rh  Rh12  1  0.832469  0.167531  0.875932  1
  Rh  Rh13  1  0.832469  0.664938  0.875932  1
  Rh  Rh14  1  0.335062  0.167531  0.875932  1
  Rh  Rh15  1  0.167523  0.832477  0.124542  1
  Rh  Rh16  1  0.167523  0.335046  0.124542  1
  Rh  Rh17  1  0.664954  0.832477  0.124542  1
  Rh  Rh18  1  0.333333  0.666667  0.250000  1
  Rh  Rh19  1  0.666667  0.333333  0.750000  1
  Rh  Rh20  1  0.000000  0.000000  0.250000  1
  Rh  Rh21  1  0.000000  0.000000  0.750000  1
  Rh  Rh22  1  0.000000  0.000000  0.499860  1
  Rh  Rh23  1  0.000000  0.000000  0.000140  1
