# generated using pymatgen
data_DyTm7(Ge4Mo3)4
_symmetry_space_group_name_H-M   'P 1'
_cell_length_a   6.89553822
_cell_length_b   7.02400172
_cell_length_c   13.08510422
_cell_angle_alpha   89.99760086
_cell_angle_beta   89.96606120
_cell_angle_gamma   89.99301147
_symmetry_Int_Tables_number   1
_chemical_formula_structural   DyTm7(Ge4Mo3)4
_chemical_formula_sum   'Dy1 Tm7 Ge16 Mo12'
_cell_volume   633.76738482
_cell_formula_units_Z   1
loop_
 _symmetry_equiv_pos_site_id
 _symmetry_equiv_pos_as_xyz
  1  'x, y, z'
loop_
 _atom_site_type_symbol
 _atom_site_label
 _atom_site_symmetry_multiplicity
 _atom_site_fract_x
 _atom_site_fract_y
 _atom_site_fract_z
 _atom_site_occupancy
  Dy  Dy0  1  0.988413  0.829523  0.591501  1
  Tm  Tm1  1  0.488212  0.670379  0.591923  1
  Tm  Tm2  1  0.988335  0.829583  0.908042  1
  Tm  Tm3  1  0.511997  0.329325  0.092021  1
  Tm  Tm4  1  0.011735  0.170962  0.408023  1
  Tm  Tm5  1  0.511514  0.329378  0.408287  1
  Tm  Tm6  1  0.011764  0.170774  0.091950  1
  Tm  Tm7  1  0.488100  0.670752  0.908010  1
  Ge  Ge8  1  0.670941  0.955032  0.452281  1
  Ge  Ge9  1  0.171701  0.545403  0.047617  1
  Ge  Ge10  1  0.328746  0.045924  0.952235  1
  Ge  Ge11  1  0.827676  0.453310  0.547655  1
  Ge  Ge12  1  0.328765  0.045447  0.547460  1
  Ge  Ge13  1  0.828545  0.454649  0.952343  1
  Ge  Ge14  1  0.671723  0.954423  0.047795  1
  Ge  Ge15  1  0.172136  0.545132  0.452050  1
  Ge  Ge16  1  0.468591  0.369436  0.750264  1
  Ge  Ge17  1  0.968777  0.130964  0.749804  1
  Ge  Ge18  1  0.531369  0.630379  0.249819  1
  Ge  Ge19  1  0.031363  0.869624  0.250204  1
  Ge  Ge20  1  0.688007  0.853665  0.750245  1
  Ge  Ge21  1  0.188777  0.645841  0.750276  1
  Ge  Ge22  1  0.311581  0.146625  0.250075  1
  Ge  Ge23  1  0.811471  0.353475  0.250228  1
  Mo  Mo24  1  0.667595  0.156110  0.627127  1
  Mo  Mo25  1  0.168376  0.344231  0.873162  1
  Mo  Mo26  1  0.330938  0.844467  0.126423  1
  Mo  Mo27  1  0.830726  0.655537  0.373255  1
  Mo  Mo28  1  0.331718  0.844097  0.373080  1
  Mo  Mo29  1  0.831621  0.655748  0.126712  1
  Mo  Mo30  1  0.669408  0.155666  0.873501  1
  Mo  Mo31  1  0.169209  0.344263  0.626520  1
  Mo  Mo32  1  0.832469  0.495360  0.749999  1
  Mo  Mo33  1  0.332984  0.004522  0.749970  1
  Mo  Mo34  1  0.167332  0.504329  0.249988  1
  Mo  Mo35  1  0.667386  0.995665  0.250154  1
