# generated using pymatgen
data_Tb4Fe3(Cu2H11)2
_symmetry_space_group_name_H-M   'P 1'
_cell_length_a   6.40404400
_cell_length_b   6.40404400
_cell_length_c   6.40404400
_cell_angle_alpha   90.00000000
_cell_angle_beta   90.00000000
_cell_angle_gamma   90.00000000
_symmetry_Int_Tables_number   1
_chemical_formula_structural   Tb4Fe3(Cu2H11)2
_chemical_formula_sum   'Tb4 Fe3 Cu4 H22'
_cell_volume   262.64124078
_cell_formula_units_Z   1
loop_
 _symmetry_equiv_pos_site_id
 _symmetry_equiv_pos_as_xyz
  1  'x, y, z'
loop_
 _atom_site_type_symbol
 _atom_site_label
 _atom_site_symmetry_multiplicity
 _atom_site_fract_x
 _atom_site_fract_y
 _atom_site_fract_z
 _atom_site_occupancy
  Tb  Tb0  1  0.279208  0.279208  0.720792  1
  Tb  Tb1  1  0.279208  0.720792  0.279208  1
  Tb  Tb2  1  0.720792  0.279208  0.279208  1
  Tb  Tb3  1  0.720792  0.720792  0.720792  1
  Fe  Fe4  1  0.000000  0.000000  0.500000  1
  Fe  Fe5  1  0.000000  0.500000  0.000000  1
  Fe  Fe6  1  0.500000  0.000000  0.000000  1
  Cu  Cu7  1  0.778610  0.778610  0.221390  1
  Cu  Cu8  1  0.778610  0.221390  0.778610  1
  Cu  Cu9  1  0.221390  0.778610  0.778610  1
  Cu  Cu10  1  0.221390  0.221390  0.221390  1
  H  H11  1  0.000000  0.500000  0.245570  1
  H  H12  1  0.500000  0.754430  0.000000  1
  H  H13  1  0.754430  0.000000  0.500000  1
  H  H14  1  0.000000  0.754430  0.500000  1
  H  H15  1  0.500000  0.000000  0.245570  1
  H  H16  1  0.754430  0.500000  0.000000  1
  H  H17  1  0.000000  0.500000  0.754430  1
  H  H18  1  0.500000  0.245570  0.000000  1
  H  H19  1  0.000000  0.245570  0.500000  1
  H  H20  1  0.500000  0.000000  0.754430  1
  H  H21  1  0.245570  0.000000  0.500000  1
  H  H22  1  0.245570  0.500000  0.000000  1
  H  H23  1  0.000000  0.000000  0.250490  1
  H  H24  1  0.000000  0.749510  0.000000  1
  H  H25  1  0.749510  0.000000  0.000000  1
  H  H26  1  0.000000  0.000000  0.749510  1
  H  H27  1  0.000000  0.250490  0.000000  1
  H  H28  1  0.250490  0.000000  0.000000  1
  H  H29  1  0.627125  0.627125  0.372875  1
  H  H30  1  0.627125  0.372875  0.627125  1
  H  H31  1  0.372875  0.627125  0.627125  1
  H  H32  1  0.372875  0.372875  0.372875  1
