# generated using pymatgen
data_DyHo3LuInAu4
_symmetry_space_group_name_H-M   'P 1'
_cell_length_a   8.04812008
_cell_length_b   8.04846108
_cell_length_c   3.73300400
_cell_angle_alpha   90.00000000
_cell_angle_beta   90.00000000
_cell_angle_gamma   89.98369749
_symmetry_Int_Tables_number   1
_chemical_formula_structural   DyHo3LuInAu4
_chemical_formula_sum   'Dy1 Ho3 Lu1 In1 Au4'
_cell_volume   241.80525433
_cell_formula_units_Z   1
loop_
 _symmetry_equiv_pos_site_id
 _symmetry_equiv_pos_as_xyz
  1  'x, y, z'
loop_
 _atom_site_type_symbol
 _atom_site_label
 _atom_site_symmetry_multiplicity
 _atom_site_fract_x
 _atom_site_fract_y
 _atom_site_fract_z
 _atom_site_occupancy
  Dy  Dy0  1  0.682728  0.145773  0.500000  1
  Ho  Ho1  1  0.317227  0.854221  0.500000  1
  Ho  Ho2  1  0.145787  0.317378  0.500000  1
  Ho  Ho3  1  0.854333  0.682572  0.500000  1
  Lu  Lu4  1  0.499948  0.500105  0.000000  1
  In  In5  1  0.000201  0.999910  0.000000  1
  Au  Au6  1  0.146137  0.619373  0.000000  1
  Au  Au7  1  0.854099  0.381007  0.000000  1
  Au  Au8  1  0.619265  0.853548  0.000000  1
  Au  Au9  1  0.380274  0.146114  0.000000  1
