# generated using pymatgen
data_Tm6Pb5
_symmetry_space_group_name_H-M   'P 1'
_cell_length_a   6.54765413
_cell_length_b   9.36192817
_cell_length_c   11.65146608
_cell_angle_alpha   113.68756128
_cell_angle_beta   106.31869686
_cell_angle_gamma   89.99999823
_symmetry_Int_Tables_number   1
_chemical_formula_structural   Tm6Pb5
_chemical_formula_sum   'Tm12 Pb10'
_cell_volume   622.49780823
_cell_formula_units_Z   2
loop_
 _symmetry_equiv_pos_site_id
 _symmetry_equiv_pos_as_xyz
  1  'x, y, z'
loop_
 _atom_site_type_symbol
 _atom_site_label
 _atom_site_symmetry_multiplicity
 _atom_site_fract_x
 _atom_site_fract_y
 _atom_site_fract_z
 _atom_site_occupancy
  Tm  Tm0  1  0.559934  0.326097  0.119870  1
  Tm  Tm1  1  0.059935  0.793773  0.119870  1
  Tm  Tm2  1  0.641733  0.030553  0.283467  1
  Tm  Tm3  1  0.141733  0.252914  0.283467  1
  Tm  Tm4  1  0.445163  0.695163  0.390327  1
  Tm  Tm5  1  0.945162  0.695163  0.390327  1
  Tm  Tm6  1  0.054837  0.304837  0.609673  1
  Tm  Tm7  1  0.554837  0.304837  0.609673  1
  Tm  Tm8  1  0.858267  0.747086  0.716533  1
  Tm  Tm9  1  0.358267  0.969447  0.716533  1
  Tm  Tm10  1  0.940065  0.206227  0.880130  1
  Tm  Tm11  1  0.440066  0.673903  0.880130  1
  Pb  Pb12  1  0.250000  0.000000  0.000000  1
  Pb  Pb13  1  0.750000  0.000000  0.000000  1
  Pb  Pb14  1  0.075084  0.474813  0.150169  1
  Pb  Pb15  1  0.575084  0.675356  0.150169  1
  Pb  Pb16  1  0.206898  0.009617  0.413795  1
  Pb  Pb17  1  0.706898  0.404177  0.413795  1
  Pb  Pb18  1  0.293102  0.595822  0.586204  1
  Pb  Pb19  1  0.793102  0.990383  0.586204  1
  Pb  Pb20  1  0.424916  0.324644  0.849832  1
  Pb  Pb21  1  0.924916  0.525188  0.849832  1
