# generated using pymatgen
data_LuHf(Ni2P)4
_symmetry_space_group_name_H-M   'P 1'
_cell_length_a   3.57547700
_cell_length_b   6.96608905
_cell_length_c   6.96608905
_cell_angle_alpha   89.59715725
_cell_angle_beta   90.00000000
_cell_angle_gamma   90.00000000
_symmetry_Int_Tables_number   1
_chemical_formula_structural   LuHf(Ni2P)4
_chemical_formula_sum   'Lu1 Hf1 Ni8 P4'
_cell_volume   173.50072638
_cell_formula_units_Z   1
loop_
 _symmetry_equiv_pos_site_id
 _symmetry_equiv_pos_as_xyz
  1  'x, y, z'
loop_
 _atom_site_type_symbol
 _atom_site_label
 _atom_site_symmetry_multiplicity
 _atom_site_fract_x
 _atom_site_fract_y
 _atom_site_fract_z
 _atom_site_occupancy
  Lu  Lu0  1  0.000000  0.500000  0.500000  1
  Hf  Hf1  1  0.500000  0.000000  0.000000  1
  Ni  Ni2  1  0.500000  0.164923  0.584867  1
  Ni  Ni3  1  0.500000  0.835077  0.415133  1
  Ni  Ni4  1  0.000000  0.333015  0.083690  1
  Ni  Ni5  1  0.000000  0.666985  0.916310  1
  Ni  Ni6  1  0.500000  0.584867  0.164923  1
  Ni  Ni7  1  0.500000  0.415133  0.835077  1
  Ni  Ni8  1  0.000000  0.083690  0.333015  1
  Ni  Ni9  1  0.000000  0.916310  0.666985  1
  P  P10  1  0.500000  0.725433  0.725433  1
  P  P11  1  0.500000  0.274567  0.274567  1
  P  P12  1  0.000000  0.786271  0.213729  1
  P  P13  1  0.000000  0.213729  0.786271  1
