# generated using pymatgen
data_CaEr3Ir8
_symmetry_space_group_name_H-M   'P 1'
_cell_length_a   5.34546800
_cell_length_b   5.34546793
_cell_length_c   8.69728100
_cell_angle_alpha   90.00000000
_cell_angle_beta   90.00000000
_cell_angle_gamma   120.00000045
_symmetry_Int_Tables_number   1
_chemical_formula_structural   CaEr3Ir8
_chemical_formula_sum   'Ca1 Er3 Ir8'
_cell_volume   215.22147025
_cell_formula_units_Z   1
loop_
 _symmetry_equiv_pos_site_id
 _symmetry_equiv_pos_as_xyz
  1  'x, y, z'
loop_
 _atom_site_type_symbol
 _atom_site_label
 _atom_site_symmetry_multiplicity
 _atom_site_fract_x
 _atom_site_fract_y
 _atom_site_fract_z
 _atom_site_occupancy
  Ca  Ca0  1  0.333334  0.666667  0.066126  1
  Er  Er1  1  0.333334  0.666667  0.428820  1
  Er  Er2  1  0.666667  0.333333  0.567618  1
  Er  Er3  1  0.666667  0.333333  0.935591  1
  Ir  Ir4  1  0.000000  0.000000  0.000525  1
  Ir  Ir5  1  0.340161  0.170081  0.251961  1
  Ir  Ir6  1  0.829918  0.170081  0.251961  1
  Ir  Ir7  1  0.829919  0.659837  0.251961  1
  Ir  Ir8  1  0.000000  0.000000  0.499920  1
  Ir  Ir9  1  0.169870  0.339739  0.748506  1
  Ir  Ir10  1  0.169871  0.830131  0.748506  1
  Ir  Ir11  1  0.660261  0.830131  0.748506  1
