# generated using pymatgen
data_Tb3Pa(Cu5Sn)4
_symmetry_space_group_name_H-M   'P 1'
_cell_length_a   5.04366400
_cell_length_b   8.24578346
_cell_length_c   10.56270315
_cell_angle_alpha   90.19980837
_cell_angle_beta   90.00000000
_cell_angle_gamma   90.00000000
_symmetry_Int_Tables_number   1
_chemical_formula_structural   Tb3Pa(Cu5Sn)4
_chemical_formula_sum   'Tb3 Pa1 Cu20 Sn4'
_cell_volume   439.28918031
_cell_formula_units_Z   1
loop_
 _symmetry_equiv_pos_site_id
 _symmetry_equiv_pos_as_xyz
  1  'x, y, z'
loop_
 _atom_site_type_symbol
 _atom_site_label
 _atom_site_symmetry_multiplicity
 _atom_site_fract_x
 _atom_site_fract_y
 _atom_site_fract_z
 _atom_site_occupancy
  Tb  Tb0  1  0.750000  0.249543  0.938263  1
  Tb  Tb1  1  0.750000  0.749551  0.560119  1
  Tb  Tb2  1  0.250000  0.249630  0.440911  1
  Pa  Pa3  1  0.250000  0.749158  0.059641  1
  Cu  Cu4  1  0.250000  0.816108  0.745743  1
  Cu  Cu5  1  0.750000  0.184360  0.256200  1
  Cu  Cu6  1  0.750000  0.685447  0.242582  1
  Cu  Cu7  1  0.250000  0.315292  0.755766  1
  Cu  Cu8  1  0.501250  0.567770  0.813023  1
  Cu  Cu9  1  0.498393  0.432404  0.187362  1
  Cu  Cu10  1  0.498507  0.933181  0.312365  1
  Cu  Cu11  1  0.001607  0.432404  0.187362  1
  Cu  Cu12  1  0.501511  0.067565  0.687670  1
  Cu  Cu13  1  0.998750  0.567770  0.813023  1
  Cu  Cu14  1  0.998489  0.067565  0.687670  1
  Cu  Cu15  1  0.001493  0.933181  0.312365  1
  Cu  Cu16  1  0.250000  0.915619  0.517691  1
  Cu  Cu17  1  0.750000  0.083133  0.483213  1
  Cu  Cu18  1  0.750000  0.582702  0.017259  1
  Cu  Cu19  1  0.250000  0.416974  0.982495  1
  Cu  Cu20  1  0.250000  0.561027  0.602852  1
  Cu  Cu21  1  0.750000  0.439222  0.397002  1
  Cu  Cu22  1  0.750000  0.938136  0.102425  1
  Cu  Cu23  1  0.250000  0.059656  0.897930  1
  Sn  Sn24  1  0.250000  0.639780  0.360048  1
  Sn  Sn25  1  0.750000  0.362153  0.639270  1
  Sn  Sn26  1  0.750000  0.862259  0.859823  1
  Sn  Sn27  1  0.250000  0.138411  0.139928  1
