# generated using pymatgen
data_CeNd3(Y3Ru2)2
_symmetry_space_group_name_H-M   'P 1'
_cell_length_a   6.46556386
_cell_length_b   7.25894748
_cell_length_c   8.78632614
_cell_angle_alpha   97.09885272
_cell_angle_beta   111.65526223
_cell_angle_gamma   88.27746733
_symmetry_Int_Tables_number   1
_chemical_formula_structural   CeNd3(Y3Ru2)2
_chemical_formula_sum   'Ce1 Nd3 Y6 Ru4'
_cell_volume   380.27363425
_cell_formula_units_Z   1
loop_
 _symmetry_equiv_pos_site_id
 _symmetry_equiv_pos_as_xyz
  1  'x, y, z'
loop_
 _atom_site_type_symbol
 _atom_site_label
 _atom_site_symmetry_multiplicity
 _atom_site_fract_x
 _atom_site_fract_y
 _atom_site_fract_z
 _atom_site_occupancy
  Ce  Ce0  1  0.195802  0.396846  0.194108  1
  Nd  Nd1  1  0.977435  0.914289  0.187177  1
  Nd  Nd2  1  0.794896  0.583026  0.813930  1
  Nd  Nd3  1  0.014287  0.082793  0.806998  1
  Y  Y4  1  0.638974  0.814204  0.432561  1
  Y  Y5  1  0.214096  0.686125  0.569998  1
  Y  Y6  1  0.365277  0.187886  0.571379  1
  Y  Y7  1  0.795790  0.318622  0.433767  1
  Y  Y8  1  0.423441  0.747324  0.000046  1
  Y  Y9  1  0.568214  0.250628  0.997665  1
  Ru  Ru10  1  0.857794  0.564373  0.224916  1
  Ru  Ru11  1  0.595185  0.924368  0.774641  1
  Ru  Ru12  1  0.176461  0.426300  0.773267  1
  Ru  Ru13  1  0.382349  0.103217  0.219546  1
