# generated using pymatgen
data_Tb(Nd2Ir)2
_symmetry_space_group_name_H-M   'P 1'
_cell_length_a   6.68456509
_cell_length_b   7.28574378
_cell_length_c   8.91940175
_cell_angle_alpha   96.27912301
_cell_angle_beta   112.00704539
_cell_angle_gamma   89.99999946
_symmetry_Int_Tables_number   1
_chemical_formula_structural   Tb(Nd2Ir)2
_chemical_formula_sum   'Tb2 Nd8 Ir4'
_cell_volume   399.92996020
_cell_formula_units_Z   2
loop_
 _symmetry_equiv_pos_site_id
 _symmetry_equiv_pos_as_xyz
  1  'x, y, z'
loop_
 _atom_site_type_symbol
 _atom_site_label
 _atom_site_symmetry_multiplicity
 _atom_site_fract_x
 _atom_site_fract_y
 _atom_site_fract_z
 _atom_site_occupancy
  Tb  Tb0  1  0.434505  0.750000  0.000000  1
  Tb  Tb1  1  0.565495  0.250000  0.000000  1
  Nd  Nd2  1  0.974224  0.921688  0.181038  1
  Nd  Nd3  1  0.793186  0.578312  0.818962  1
  Nd  Nd4  1  0.025776  0.078312  0.818962  1
  Nd  Nd5  1  0.206814  0.421688  0.181038  1
  Nd  Nd6  1  0.650563  0.815317  0.434701  1
  Nd  Nd7  1  0.215862  0.684683  0.565299  1
  Nd  Nd8  1  0.349437  0.184683  0.565299  1
  Nd  Nd9  1  0.784138  0.315317  0.434701  1
  Ir  Ir10  1  0.814442  0.570622  0.215068  1
  Ir  Ir11  1  0.599374  0.929378  0.784932  1
  Ir  Ir12  1  0.185558  0.429378  0.784932  1
  Ir  Ir13  1  0.400626  0.070622  0.215068  1
