# generated using pymatgen
data_Pr7Nd9Cd4(IrOs)2
_symmetry_space_group_name_H-M   'P 1'
_cell_length_a   9.99453508
_cell_length_b   9.99453816
_cell_length_c   10.03936404
_cell_angle_alpha   59.84326202
_cell_angle_beta   59.84329052
_cell_angle_gamma   59.72489560
_symmetry_Int_Tables_number   1
_chemical_formula_structural   Pr7Nd9Cd4(IrOs)2
_chemical_formula_sum   'Pr7 Nd9 Cd4 Ir2 Os2'
_cell_volume   705.95475252
_cell_formula_units_Z   1
loop_
 _symmetry_equiv_pos_site_id
 _symmetry_equiv_pos_as_xyz
  1  'x, y, z'
loop_
 _atom_site_type_symbol
 _atom_site_label
 _atom_site_symmetry_multiplicity
 _atom_site_fract_x
 _atom_site_fract_y
 _atom_site_fract_z
 _atom_site_occupancy
  Pr  Pr0  1  0.808990  0.808990  0.191016  1
  Pr  Pr1  1  0.939766  0.558275  0.561728  1
  Pr  Pr2  1  0.558280  0.939768  0.940224  1
  Pr  Pr3  1  0.558275  0.939766  0.561728  1
  Pr  Pr4  1  0.939768  0.558280  0.940224  1
  Pr  Pr5  1  0.561065  0.561064  0.938930  1
  Pr  Pr6  1  0.941117  0.941117  0.558884  1
  Nd  Nd7  1  0.346361  0.346361  0.348306  1
  Nd  Nd8  1  0.346400  0.346400  0.958948  1
  Nd  Nd9  1  0.345124  0.960366  0.347302  1
  Nd  Nd10  1  0.960366  0.345124  0.347302  1
  Nd  Nd11  1  0.810571  0.190883  0.190747  1
  Nd  Nd12  1  0.190881  0.810642  0.807745  1
  Nd  Nd13  1  0.190882  0.810571  0.190747  1
  Nd  Nd14  1  0.810642  0.190882  0.807746  1
  Nd  Nd15  1  0.190724  0.190724  0.809215  1
  Cd  Cd16  1  0.579140  0.579140  0.579873  1
  Cd  Cd17  1  0.579139  0.579139  0.261850  1
  Cd  Cd18  1  0.579102  0.261132  0.579883  1
  Cd  Cd19  1  0.261132  0.579101  0.579883  1
  Ir  Ir20  1  0.142392  0.579009  0.139304  1
  Ir  Ir21  1  0.579009  0.142392  0.139304  1
  Os  Os22  1  0.140430  0.140430  0.137633  1
  Os  Os23  1  0.140444  0.140444  0.581475  1
