# generated using pymatgen
data_Er12Ir3Os
_symmetry_space_group_name_H-M   'P 1'
_cell_length_a   6.39352843
_cell_length_b   7.24459669
_cell_length_c   8.98285700
_cell_angle_alpha   90.00000000
_cell_angle_beta   90.00000000
_cell_angle_gamma   89.98916938
_symmetry_Int_Tables_number   1
_chemical_formula_structural   Er12Ir3Os
_chemical_formula_sum   'Er12 Ir3 Os1'
_cell_volume   416.07276754
_cell_formula_units_Z   1
loop_
 _symmetry_equiv_pos_site_id
 _symmetry_equiv_pos_as_xyz
  1  'x, y, z'
loop_
 _atom_site_type_symbol
 _atom_site_label
 _atom_site_symmetry_multiplicity
 _atom_site_fract_x
 _atom_site_fract_y
 _atom_site_fract_z
 _atom_site_occupancy
  Er  Er0  1  0.330746  0.676988  0.059520  1
  Er  Er1  1  0.172436  0.177609  0.438171  1
  Er  Er2  1  0.671826  0.323986  0.562896  1
  Er  Er3  1  0.825359  0.821044  0.936581  1
  Er  Er4  1  0.671826  0.323986  0.937104  1
  Er  Er5  1  0.825359  0.821044  0.563419  1
  Er  Er6  1  0.330746  0.676988  0.440480  1
  Er  Er7  1  0.172436  0.177609  0.061829  1
  Er  Er8  1  0.874152  0.536165  0.250000  1
  Er  Er9  1  0.628013  0.035408  0.250000  1
  Er  Er10  1  0.124258  0.464750  0.750000  1
  Er  Er11  1  0.374820  0.965290  0.750000  1
  Ir  Ir12  1  0.039804  0.885852  0.250000  1
  Ir  Ir13  1  0.462246  0.385101  0.250000  1
  Ir  Ir14  1  0.962416  0.113741  0.750000  1
  Os  Os15  1  0.533555  0.614439  0.750000  1
