# generated using pymatgen
data_RbMg2In7Rh2
_symmetry_space_group_name_H-M   'P 1'
_cell_length_a   9.19860100
_cell_length_b   9.18859292
_cell_length_c   4.05568400
_cell_angle_alpha   90.00000000
_cell_angle_beta   90.00000000
_cell_angle_gamma   120.03603290
_symmetry_Int_Tables_number   1
_chemical_formula_structural   RbMg2In7Rh2
_chemical_formula_sum   'Rb1 Mg2 In7 Rh2'
_cell_volume   296.76161831
_cell_formula_units_Z   1
loop_
 _symmetry_equiv_pos_site_id
 _symmetry_equiv_pos_as_xyz
  1  'x, y, z'
loop_
 _atom_site_type_symbol
 _atom_site_label
 _atom_site_symmetry_multiplicity
 _atom_site_fract_x
 _atom_site_fract_y
 _atom_site_fract_z
 _atom_site_occupancy
  Rb  Rb0  1  0.000000  0.000000  0.000000  1
  Mg  Mg1  1  0.000000  0.500000  0.000000  1
  Mg  Mg2  1  0.500000  0.500000  0.000000  1
  In  In3  1  0.586900  0.786177  0.500000  1
  In  In4  1  0.199278  0.786177  0.500000  1
  In  In5  1  0.208800  0.417599  0.500000  1
  In  In6  1  0.791200  0.582401  0.500000  1
  In  In7  1  0.800722  0.213823  0.500000  1
  In  In8  1  0.413100  0.213823  0.500000  1
  In  In9  1  0.500000  0.000000  0.000000  1
  Rh  Rh10  1  0.333663  0.667327  0.000000  1
  Rh  Rh11  1  0.666337  0.332673  0.000000  1
