# generated using pymatgen
data_DyHo2InSi2Ag3
_symmetry_space_group_name_H-M   'P 1'
_cell_length_a   7.21201305
_cell_length_b   7.21054872
_cell_length_c   4.24963900
_cell_angle_alpha   90.00000000
_cell_angle_beta   90.00000000
_cell_angle_gamma   119.99329277
_symmetry_Int_Tables_number   1
_chemical_formula_structural   DyHo2InSi2Ag3
_chemical_formula_sum   'Dy1 Ho2 In1 Si2 Ag3'
_cell_volume   191.39775474
_cell_formula_units_Z   1
loop_
 _symmetry_equiv_pos_site_id
 _symmetry_equiv_pos_as_xyz
  1  'x, y, z'
loop_
 _atom_site_type_symbol
 _atom_site_label
 _atom_site_symmetry_multiplicity
 _atom_site_fract_x
 _atom_site_fract_y
 _atom_site_fract_z
 _atom_site_occupancy
  Dy  Dy0  1  0.000000  0.567370  0.500000  1
  Ho  Ho1  1  0.432674  0.432662  0.500000  1
  Ho  Ho2  1  0.567326  0.999988  0.500000  1
  In  In3  1  0.000000  0.000085  0.500000  1
  Si  Si4  1  0.666568  0.333257  0.000000  1
  Si  Si5  1  0.333432  0.666690  0.000000  1
  Ag  Ag6  1  0.736561  0.736597  0.000000  1
  Ag  Ag7  1  0.263439  0.000036  0.000000  1
  Ag  Ag8  1  0.000000  0.263315  0.000000  1
