# generated using pymatgen
data_Ac2NiIrO6
_symmetry_space_group_name_H-M   'P 1'
_cell_length_a   5.75453800
_cell_length_b   5.69342270
_cell_length_c   9.89975862
_cell_angle_alpha   55.18061585
_cell_angle_beta   90.00000000
_cell_angle_gamma   90.00000000
_symmetry_Int_Tables_number   1
_chemical_formula_structural   Ac2NiIrO6
_chemical_formula_sum   'Ac4 Ni2 Ir2 O12'
_cell_volume   266.27379015
_cell_formula_units_Z   2
loop_
 _symmetry_equiv_pos_site_id
 _symmetry_equiv_pos_as_xyz
  1  'x, y, z'
loop_
 _atom_site_type_symbol
 _atom_site_label
 _atom_site_symmetry_multiplicity
 _atom_site_fract_x
 _atom_site_fract_y
 _atom_site_fract_z
 _atom_site_occupancy
  Ac  Ac0  1  0.959370  0.242211  0.750742  1
  Ac  Ac1  1  0.459370  0.757789  0.749258  1
  Ac  Ac2  1  0.540630  0.242211  0.250742  1
  Ac  Ac3  1  0.040630  0.757789  0.249258  1
  Ni  Ni4  1  0.500000  0.000000  0.000000  1
  Ni  Ni5  1  0.000000  0.000000  0.500000  1
  Ir  Ir6  1  0.500000  0.500000  0.500000  1
  Ir  Ir7  1  0.000000  0.500000  0.000000  1
  O  O8  1  0.487417  0.678528  0.252664  1
  O  O9  1  0.208084  0.824931  0.961753  1
  O  O10  1  0.213543  0.256536  0.537773  1
  O  O11  1  0.713543  0.743464  0.962227  1
  O  O12  1  0.708084  0.175069  0.538247  1
  O  O13  1  0.987417  0.321472  0.247336  1
  O  O14  1  0.012583  0.678528  0.752664  1
  O  O15  1  0.291916  0.824931  0.461753  1
  O  O16  1  0.286457  0.256536  0.037773  1
  O  O17  1  0.791916  0.175069  0.038247  1
  O  O18  1  0.786457  0.743464  0.462227  1
  O  O19  1  0.512583  0.321472  0.747336  1
