# generated using pymatgen
data_Ho2Co12Si5P2
_symmetry_space_group_name_H-M   'P 1'
_cell_length_a   9.09840607
_cell_length_b   9.08210309
_cell_length_c   3.60067800
_cell_angle_alpha   90.00000000
_cell_angle_beta   90.00000000
_cell_angle_gamma   119.98202012
_symmetry_Int_Tables_number   1
_chemical_formula_structural   Ho2Co12Si5P2
_chemical_formula_sum   'Ho2 Co12 Si5 P2'
_cell_volume   257.71833427
_cell_formula_units_Z   1
loop_
 _symmetry_equiv_pos_site_id
 _symmetry_equiv_pos_as_xyz
  1  'x, y, z'
loop_
 _atom_site_type_symbol
 _atom_site_label
 _atom_site_symmetry_multiplicity
 _atom_site_fract_x
 _atom_site_fract_y
 _atom_site_fract_z
 _atom_site_occupancy
  Ho  Ho0  1  0.666537  0.335232  0.500000  1
  Ho  Ho1  1  0.331387  0.665783  0.000000  1
  Co  Co2  1  0.130206  0.848469  0.000000  1
  Co  Co3  1  0.375391  0.432740  0.500000  1
  Co  Co4  1  0.723656  0.874593  0.000000  1
  Co  Co5  1  0.561692  0.946725  0.500000  1
  Co  Co6  1  0.233236  0.101627  0.500000  1
  Co  Co7  1  0.876261  0.768301  0.500000  1
  Co  Co8  1  0.894907  0.131433  0.500000  1
  Co  Co9  1  0.946369  0.381439  0.000000  1
  Co  Co10  1  0.619701  0.563268  0.000000  1
  Co  Co11  1  0.434571  0.054741  0.000000  1
  Co  Co12  1  0.057985  0.619076  0.500000  1
  Co  Co13  1  0.148561  0.277456  0.000000  1
  Si  Si14  1  0.000319  0.998356  0.000000  1
  Si  Si15  1  0.598968  0.707685  0.500000  1
  Si  Si16  1  0.712506  0.113108  0.000000  1
  Si  Si17  1  0.888167  0.601576  0.000000  1
  Si  Si18  1  0.398209  0.286665  0.000000  1
  P  P19  1  0.292709  0.890975  0.500000  1
  P  P20  1  0.108660  0.400754  0.500000  1
