# generated using pymatgen
data_Li4BPPt6
_symmetry_space_group_name_H-M   'P 1'
_cell_length_a   7.06492200
_cell_length_b   6.98848452
_cell_length_c   6.98848452
_cell_angle_alpha   88.58934629
_cell_angle_beta   90.00000000
_cell_angle_gamma   90.00000000
_symmetry_Int_Tables_number   1
_chemical_formula_structural   Li4BPPt6
_chemical_formula_sum   'Li8 B2 P2 Pt12'
_cell_volume   344.93855900
_cell_formula_units_Z   2
loop_
 _symmetry_equiv_pos_site_id
 _symmetry_equiv_pos_as_xyz
  1  'x, y, z'
loop_
 _atom_site_type_symbol
 _atom_site_label
 _atom_site_symmetry_multiplicity
 _atom_site_fract_x
 _atom_site_fract_y
 _atom_site_fract_z
 _atom_site_occupancy
  Li  Li0  1  0.300755  0.296375  0.299706  1
  Li  Li1  1  0.048492  0.449612  0.552962  1
  Li  Li2  1  0.548492  0.050388  0.447038  1
  Li  Li3  1  0.449245  0.549706  0.046375  1
  Li  Li4  1  0.201508  0.697038  0.800388  1
  Li  Li5  1  0.949245  0.950294  0.953625  1
  Li  Li6  1  0.800755  0.203625  0.700294  1
  Li  Li7  1  0.701508  0.802962  0.199612  1
  B  B8  1  0.875000  0.372009  0.122009  1
  B  B9  1  0.375000  0.127991  0.877991  1
  P  P10  1  0.625000  0.620903  0.629097  1
  P  P11  1  0.125000  0.879097  0.370903  1
  Pt  Pt12  1  0.184487  0.067526  0.637563  1
  Pt  Pt13  1  0.427352  0.363508  0.685037  1
  Pt  Pt14  1  0.065513  0.612437  0.182474  1
  Pt  Pt15  1  0.927352  0.136492  0.314963  1
  Pt  Pt16  1  0.322648  0.935037  0.113508  1
  Pt  Pt17  1  0.684487  0.432474  0.362437  1
  Pt  Pt18  1  0.565513  0.887563  0.817526  1
  Pt  Pt19  1  0.625000  0.193734  0.056266  1
  Pt  Pt20  1  0.375000  0.669886  0.419886  1
  Pt  Pt21  1  0.875000  0.830114  0.580114  1
  Pt  Pt22  1  0.125000  0.306266  0.943734  1
  Pt  Pt23  1  0.822648  0.564963  0.886492  1
