# generated using pymatgen
data_Hf3TaMn2
_symmetry_space_group_name_H-M   'P 1'
_cell_length_a   8.43531685
_cell_length_b   8.43553570
_cell_length_c   8.43522700
_cell_angle_alpha   60.00031171
_cell_angle_beta   59.99971903
_cell_angle_gamma   60.00047732
_symmetry_Int_Tables_number   1
_chemical_formula_structural   Hf3TaMn2
_chemical_formula_sum   'Hf12 Ta4 Mn8'
_cell_volume   424.42163297
_cell_formula_units_Z   4
loop_
 _symmetry_equiv_pos_site_id
 _symmetry_equiv_pos_as_xyz
  1  'x, y, z'
loop_
 _atom_site_type_symbol
 _atom_site_label
 _atom_site_symmetry_multiplicity
 _atom_site_fract_x
 _atom_site_fract_y
 _atom_site_fract_z
 _atom_site_occupancy
  Hf  Hf0  1  0.808597  0.808590  0.191401  1
  Hf  Hf1  1  0.191401  0.191406  0.808599  1
  Hf  Hf2  1  0.808600  0.191403  0.808597  1
  Hf  Hf3  1  0.191411  0.808593  0.191401  1
  Hf  Hf4  1  0.191401  0.808596  0.808601  1
  Hf  Hf5  1  0.808600  0.191411  0.191398  1
  Hf  Hf6  1  0.441403  0.441410  0.058599  1
  Hf  Hf7  1  0.058599  0.058594  0.441401  1
  Hf  Hf8  1  0.441400  0.058597  0.441403  1
  Hf  Hf9  1  0.058589  0.441407  0.058599  1
  Hf  Hf10  1  0.058599  0.441404  0.441399  1
  Hf  Hf11  1  0.441400  0.058589  0.058602  1
  Ta  Ta12  1  0.125000  0.625000  0.625000  1
  Ta  Ta13  1  0.625000  0.125000  0.625000  1
  Ta  Ta14  1  0.625000  0.625000  0.125000  1
  Ta  Ta15  1  0.625000  0.625000  0.625000  1
  Mn  Mn16  1  0.748807  0.417064  0.417066  1
  Mn  Mn17  1  0.417062  0.748795  0.417075  1
  Mn  Mn18  1  0.417073  0.417071  0.748788  1
  Mn  Mn19  1  0.417070  0.417068  0.417068  1
  Mn  Mn20  1  0.501193  0.832936  0.832934  1
  Mn  Mn21  1  0.832938  0.501205  0.832925  1
  Mn  Mn22  1  0.832927  0.832929  0.501212  1
  Mn  Mn23  1  0.832930  0.832932  0.832932  1
