# generated using pymatgen
data_YLu3Re3PN12
_symmetry_space_group_name_H-M   'P 1'
_cell_length_a   7.24553501
_cell_length_b   7.21395528
_cell_length_c   6.03618785
_cell_angle_alpha   73.68839929
_cell_angle_beta   73.81589213
_cell_angle_gamma   82.43043272
_symmetry_Int_Tables_number   1
_chemical_formula_structural   YLu3Re3PN12
_chemical_formula_sum   'Y1 Lu3 Re3 P1 N12'
_cell_volume   290.31651943
_cell_formula_units_Z   1
loop_
 _symmetry_equiv_pos_site_id
 _symmetry_equiv_pos_as_xyz
  1  'x, y, z'
loop_
 _atom_site_type_symbol
 _atom_site_label
 _atom_site_symmetry_multiplicity
 _atom_site_fract_x
 _atom_site_fract_y
 _atom_site_fract_z
 _atom_site_occupancy
  Y  Y0  1  0.300599  0.708967  0.737113  1
  Lu  Lu1  1  0.901996  0.085498  0.762865  1
  Lu  Lu2  1  0.104388  0.905851  0.249264  1
  Lu  Lu3  1  0.707057  0.273505  0.259237  1
  Re  Re4  1  0.197756  0.379080  0.225150  1
  Re  Re5  1  0.381821  0.197709  0.723919  1
  Re  Re6  1  0.784957  0.628072  0.785362  1
  P  P7  1  0.615612  0.812214  0.276194  1
  N  N8  1  0.668891  0.648725  0.096929  1
  N  N9  1  0.388502  0.868580  0.326846  1
  N  N10  1  0.369230  0.340801  0.419696  1
  N  N11  1  0.121914  0.629866  0.157167  1
  N  N12  1  0.000843  0.213454  0.341137  1
  N  N13  1  0.770945  0.980010  0.162523  1
  N  N14  1  0.211831  0.005380  0.842099  1
  N  N15  1  0.635179  0.117881  0.656805  1
  N  N16  1  0.346702  0.365453  0.920086  1
  N  N17  1  0.861945  0.377218  0.843962  1
  N  N18  1  0.640325  0.682083  0.555098  1
  N  N19  1  0.989506  0.779654  0.658549  1
