# generated using pymatgen
data_HoEr7GePd24
_symmetry_space_group_name_H-M   'P 1'
_cell_length_a   8.31645300
_cell_length_b   8.31645300
_cell_length_c   8.31645300
_cell_angle_alpha   90.00084051
_cell_angle_beta   90.00084051
_cell_angle_gamma   90.00084051
_symmetry_Int_Tables_number   1
_chemical_formula_structural   HoEr7GePd24
_chemical_formula_sum   'Ho1 Er7 Ge1 Pd24'
_cell_volume   575.19408633
_cell_formula_units_Z   1
loop_
 _symmetry_equiv_pos_site_id
 _symmetry_equiv_pos_as_xyz
  1  'x, y, z'
loop_
 _atom_site_type_symbol
 _atom_site_label
 _atom_site_symmetry_multiplicity
 _atom_site_fract_x
 _atom_site_fract_y
 _atom_site_fract_z
 _atom_site_occupancy
  Ho  Ho0  1  0.253309  0.253309  0.253309  1
  Er  Er1  1  0.746681  0.746681  0.746681  1
  Er  Er2  1  0.746670  0.746670  0.253325  1
  Er  Er3  1  0.746670  0.253325  0.746670  1
  Er  Er4  1  0.253322  0.253322  0.746676  1
  Er  Er5  1  0.253322  0.746676  0.253322  1
  Er  Er6  1  0.253325  0.746670  0.746670  1
  Er  Er7  1  0.746676  0.253322  0.253322  1
  Ge  Ge8  1  0.000008  0.000008  0.000008  1
  Pd  Pd9  1  0.259887  0.500105  0.999887  1
  Pd  Pd10  1  0.740113  0.500001  0.999991  1
  Pd  Pd11  1  0.999887  0.259887  0.500105  1
  Pd  Pd12  1  0.500105  0.259887  0.999887  1
  Pd  Pd13  1  0.999991  0.740113  0.500001  1
  Pd  Pd14  1  0.500001  0.740113  0.999991  1
  Pd  Pd15  1  0.500105  0.999887  0.259887  1
  Pd  Pd16  1  0.259887  0.999887  0.500105  1
  Pd  Pd17  1  0.500001  0.999991  0.740113  1
  Pd  Pd18  1  0.740113  0.999991  0.500001  1
  Pd  Pd19  1  0.999887  0.500105  0.259887  1
  Pd  Pd20  1  0.999991  0.500001  0.740113  1
  Pd  Pd21  1  0.253279  0.500124  0.500124  1
  Pd  Pd22  1  0.746715  0.500008  0.500008  1
  Pd  Pd23  1  0.500124  0.253279  0.500124  1
  Pd  Pd24  1  0.500008  0.746715  0.500008  1
  Pd  Pd25  1  0.500124  0.500124  0.253279  1
  Pd  Pd26  1  0.500008  0.500008  0.746715  1
  Pd  Pd27  1  0.289314  0.999887  0.999887  1
  Pd  Pd28  1  0.710706  0.999997  0.999997  1
  Pd  Pd29  1  0.999887  0.289314  0.999887  1
  Pd  Pd30  1  0.999997  0.710706  0.999997  1
  Pd  Pd31  1  0.999887  0.999887  0.289314  1
  Pd  Pd32  1  0.999997  0.999997  0.710706  1
