# generated using pymatgen
data_TbCe4Pr11(CdIr)4
_symmetry_space_group_name_H-M   'P 1'
_cell_length_a   9.92999754
_cell_length_b   9.96929074
_cell_length_c   9.96929104
_cell_angle_alpha   60.22592956
_cell_angle_beta   60.13029840
_cell_angle_gamma   60.13029608
_symmetry_Int_Tables_number   1
_chemical_formula_structural   TbCe4Pr11(CdIr)4
_chemical_formula_sum   'Tb1 Ce4 Pr11 Cd4 Ir4'
_cell_volume   700.41295982
_cell_formula_units_Z   1
loop_
 _symmetry_equiv_pos_site_id
 _symmetry_equiv_pos_as_xyz
  1  'x, y, z'
loop_
 _atom_site_type_symbol
 _atom_site_label
 _atom_site_symmetry_multiplicity
 _atom_site_fract_x
 _atom_site_fract_y
 _atom_site_fract_z
 _atom_site_occupancy
  Tb  Tb0  1  0.809063  0.190937  0.190937  1
  Ce  Ce1  1  0.347611  0.344554  0.344554  1
  Ce  Ce2  1  0.345377  0.346068  0.963176  1
  Ce  Ce3  1  0.345377  0.963176  0.346068  1
  Ce  Ce4  1  0.963279  0.344554  0.344554  1
  Pr  Pr5  1  0.191869  0.808131  0.808131  1
  Pr  Pr6  1  0.189719  0.809921  0.191644  1
  Pr  Pr7  1  0.808715  0.191644  0.809921  1
  Pr  Pr8  1  0.189719  0.191644  0.809921  1
  Pr  Pr9  1  0.808715  0.809921  0.191644  1
  Pr  Pr10  1  0.940398  0.559602  0.559602  1
  Pr  Pr11  1  0.559904  0.940096  0.940096  1
  Pr  Pr12  1  0.561065  0.942175  0.557975  1
  Pr  Pr13  1  0.938785  0.557975  0.942175  1
  Pr  Pr14  1  0.561065  0.557975  0.942175  1
  Pr  Pr15  1  0.938785  0.942175  0.557975  1
  Cd  Cd16  1  0.578915  0.579296  0.579296  1
  Cd  Cd17  1  0.579959  0.578142  0.261939  1
  Cd  Cd18  1  0.579959  0.261939  0.578142  1
  Cd  Cd19  1  0.262492  0.579296  0.579296  1
  Ir  Ir20  1  0.140757  0.146581  0.146581  1
  Ir  Ir21  1  0.146194  0.144879  0.562734  1
  Ir  Ir22  1  0.146194  0.562734  0.144879  1
  Ir  Ir23  1  0.566081  0.146581  0.146581  1
