# generated using pymatgen
data_DyLuThNi9
_symmetry_space_group_name_H-M   'P 1'
_cell_length_a   4.95050297
_cell_length_b   4.95050373
_cell_length_c   8.61797216
_cell_angle_alpha   73.30841704
_cell_angle_beta   73.30841523
_cell_angle_gamma   60.00001184
_symmetry_Int_Tables_number   1
_chemical_formula_structural   DyLuThNi9
_chemical_formula_sum   'Dy1 Lu1 Th1 Ni9'
_cell_volume   172.55638771
_cell_formula_units_Z   1
loop_
 _symmetry_equiv_pos_site_id
 _symmetry_equiv_pos_as_xyz
  1  'x, y, z'
loop_
 _atom_site_type_symbol
 _atom_site_label
 _atom_site_symmetry_multiplicity
 _atom_site_fract_x
 _atom_site_fract_y
 _atom_site_fract_z
 _atom_site_occupancy
  Dy  Dy0  1  0.859175  0.859175  0.422476  1
  Lu  Lu1  1  0.140196  0.140196  0.579412  1
  Th  Th2  1  0.000700  0.000700  0.997899  1
  Ni  Ni3  1  0.082371  0.584603  0.748426  1
  Ni  Ni4  1  0.584603  0.584603  0.748426  1
  Ni  Ni5  1  0.584603  0.082371  0.748426  1
  Ni  Ni6  1  0.918446  0.415133  0.251288  1
  Ni  Ni7  1  0.415133  0.415133  0.251288  1
  Ni  Ni8  1  0.415133  0.918446  0.251288  1
  Ni  Ni9  1  0.333232  0.333232  0.000305  1
  Ni  Ni10  1  0.666611  0.666611  0.000169  1
  Ni  Ni11  1  0.499801  0.499801  0.500599  1
