# generated using pymatgen
data_Tb6NdTm13Pt16
_symmetry_space_group_name_H-M   'P 1'
_cell_length_a   7.42189494
_cell_length_b   7.51882927
_cell_length_c   14.72626914
_cell_angle_alpha   90.03985019
_cell_angle_beta   90.21205645
_cell_angle_gamma   89.83083181
_symmetry_Int_Tables_number   1
_chemical_formula_structural   Tb6NdTm13Pt16
_chemical_formula_sum   'Tb6 Nd1 Tm13 Pt16'
_cell_volume   821.77474403
_cell_formula_units_Z   1
loop_
 _symmetry_equiv_pos_site_id
 _symmetry_equiv_pos_as_xyz
  1  'x, y, z'
loop_
 _atom_site_type_symbol
 _atom_site_label
 _atom_site_symmetry_multiplicity
 _atom_site_fract_x
 _atom_site_fract_y
 _atom_site_fract_z
 _atom_site_occupancy
  Tb  Tb0  1  0.517295  0.325623  0.095337  1
  Tb  Tb1  1  0.018975  0.173273  0.403989  1
  Tb  Tb2  1  0.517942  0.328355  0.405177  1
  Tb  Tb3  1  0.017295  0.175587  0.096413  1
  Tb  Tb4  1  0.482950  0.672833  0.904287  1
  Tb  Tb5  1  0.981327  0.826028  0.595424  1
  Nd  Nd6  1  0.981966  0.827619  0.905085  1
  Tm  Tm7  1  0.637960  0.168837  0.621008  1
  Tm  Tm8  1  0.139574  0.330827  0.877905  1
  Tm  Tm9  1  0.360915  0.830299  0.122217  1
  Tm  Tm10  1  0.861636  0.668645  0.378609  1
  Tm  Tm11  1  0.362993  0.830497  0.378983  1
  Tm  Tm12  1  0.859783  0.668095  0.122361  1
  Tm  Tm13  1  0.637418  0.170322  0.877096  1
  Tm  Tm14  1  0.139319  0.331573  0.620466  1
  Tm  Tm15  1  0.480587  0.673525  0.596326  1
  Tm  Tm16  1  0.800611  0.509370  0.748356  1
  Tm  Tm17  1  0.300881  0.989720  0.748422  1
  Tm  Tm18  1  0.199464  0.490230  0.250460  1
  Tm  Tm19  1  0.699384  0.009948  0.250522  1
  Pt  Pt20  1  0.694824  0.971791  0.457225  1
  Pt  Pt21  1  0.193650  0.527333  0.042904  1
  Pt  Pt22  1  0.312488  0.032211  0.958696  1
  Pt  Pt23  1  0.801566  0.474076  0.543258  1
  Pt  Pt24  1  0.307074  0.024728  0.543772  1
  Pt  Pt25  1  0.805760  0.466314  0.958876  1
  Pt  Pt26  1  0.691169  0.973185  0.044089  1
  Pt  Pt27  1  0.194262  0.530854  0.458872  1
  Pt  Pt28  1  0.433506  0.380748  0.749069  1
  Pt  Pt29  1  0.931734  0.121307  0.748397  1
  Pt  Pt30  1  0.567373  0.619156  0.250401  1
  Pt  Pt31  1  0.067658  0.880049  0.250449  1
  Pt  Pt32  1  0.660044  0.858586  0.747366  1
  Pt  Pt33  1  0.165336  0.638498  0.746894  1
  Pt  Pt34  1  0.337452  0.140259  0.250764  1
  Pt  Pt35  1  0.837830  0.359698  0.250523  1
