# generated using pymatgen
data_Ho13Er4(TmBi4)3
_symmetry_space_group_name_H-M   'P 1'
_cell_length_a   8.21090519
_cell_length_b   9.46908801
_cell_length_c   11.98062315
_cell_angle_alpha   90.00083859
_cell_angle_beta   90.02130949
_cell_angle_gamma   89.99587868
_symmetry_Int_Tables_number   1
_chemical_formula_structural   Ho13Er4(TmBi4)3
_chemical_formula_sum   'Ho13 Er4 Tm3 Bi12'
_cell_volume   931.49079405
_cell_formula_units_Z   1
loop_
 _symmetry_equiv_pos_site_id
 _symmetry_equiv_pos_as_xyz
  1  'x, y, z'
loop_
 _atom_site_type_symbol
 _atom_site_label
 _atom_site_symmetry_multiplicity
 _atom_site_fract_x
 _atom_site_fract_y
 _atom_site_fract_z
 _atom_site_occupancy
  Ho  Ho0  1  0.353633  0.750071  0.216394  1
  Ho  Ho1  1  0.853464  0.750018  0.283538  1
  Ho  Ho2  1  0.646379  0.249964  0.783606  1
  Ho  Ho3  1  0.146531  0.249966  0.716456  1
  Ho  Ho4  1  0.191903  0.564390  0.440993  1
  Ho  Ho5  1  0.476638  0.249935  0.488891  1
  Ho  Ho6  1  0.976716  0.249995  0.011081  1
  Ho  Ho7  1  0.523339  0.750109  0.511101  1
  Ho  Ho8  1  0.023265  0.749953  0.988908  1
  Ho  Ho9  1  0.314311  0.249958  0.218053  1
  Ho  Ho10  1  0.814353  0.249991  0.281909  1
  Ho  Ho11  1  0.685679  0.749963  0.781958  1
  Ho  Ho12  1  0.185643  0.750084  0.718098  1
  Er  Er13  1  0.808210  0.435516  0.559008  1
  Er  Er14  1  0.308137  0.435432  0.940978  1
  Er  Er15  1  0.808137  0.064434  0.559037  1
  Er  Er16  1  0.691868  0.935475  0.058996  1
  Tm  Tm17  1  0.691922  0.564719  0.058990  1
  Tm  Tm18  1  0.191887  0.935384  0.441003  1
  Tm  Tm19  1  0.308053  0.064701  0.941017  1
  Bi  Bi20  1  0.405535  0.750188  0.957477  1
  Bi  Bi21  1  0.905488  0.750216  0.542536  1
  Bi  Bi22  1  0.594464  0.250184  0.042521  1
  Bi  Bi23  1  0.094457  0.249361  0.457483  1
  Bi  Bi24  1  0.566110  0.996154  0.325671  1
  Bi  Bi25  1  0.066107  0.503851  0.174235  1
  Bi  Bi26  1  0.433830  0.496151  0.674370  1
  Bi  Bi27  1  0.933876  0.003847  0.825718  1
  Bi  Bi28  1  0.433835  0.003872  0.674318  1
  Bi  Bi29  1  0.933817  0.496125  0.825754  1
  Bi  Bi30  1  0.566246  0.503855  0.325629  1
  Bi  Bi31  1  0.066166  0.996139  0.174272  1
