# generated using pymatgen
data_La6Al24CuOs6Pd
_symmetry_space_group_name_H-M   'P 1'
_cell_length_a   8.99412241
_cell_length_b   8.96174610
_cell_length_c   9.71703422
_cell_angle_alpha   90.02682494
_cell_angle_beta   89.85077282
_cell_angle_gamma   119.69158950
_symmetry_Int_Tables_number   1
_chemical_formula_structural   La6Al24CuOs6Pd
_chemical_formula_sum   'La6 Al24 Cu1 Os6 Pd1'
_cell_volume   680.38609951
_cell_formula_units_Z   1
loop_
 _symmetry_equiv_pos_site_id
 _symmetry_equiv_pos_as_xyz
  1  'x, y, z'
loop_
 _atom_site_type_symbol
 _atom_site_label
 _atom_site_symmetry_multiplicity
 _atom_site_fract_x
 _atom_site_fract_y
 _atom_site_fract_z
 _atom_site_occupancy
  La  La0  1  0.188474  0.383233  0.254014  1
  La  La1  1  0.811526  0.616767  0.745986  1
  La  La2  1  0.621089  0.810961  0.250160  1
  La  La3  1  0.378911  0.189039  0.749840  1
  La  La4  1  0.188807  0.807641  0.251566  1
  La  La5  1  0.811193  0.192359  0.748434  1
  Al  Al6  1  0.329086  0.666593  0.013917  1
  Al  Al7  1  0.670914  0.333407  0.986083  1
  Al  Al8  1  0.666209  0.332608  0.512404  1
  Al  Al9  1  0.333791  0.667392  0.487596  1
  Al  Al10  1  0.164339  0.328059  0.574187  1
  Al  Al11  1  0.835661  0.671941  0.425813  1
  Al  Al12  1  0.672746  0.836295  0.571216  1
  Al  Al13  1  0.842606  0.674437  0.076987  1
  Al  Al14  1  0.327254  0.163705  0.428784  1
  Al  Al15  1  0.157394  0.325563  0.923013  1
  Al  Al16  1  0.164055  0.836929  0.574369  1
  Al  Al17  1  0.323170  0.163594  0.079168  1
  Al  Al18  1  0.835945  0.163071  0.425631  1
  Al  Al19  1  0.676830  0.836406  0.920832  1
  Al  Al20  1  0.844983  0.170181  0.078307  1
  Al  Al21  1  0.155017  0.829819  0.921693  1
  Al  Al22  1  0.564011  0.127774  0.251582  1
  Al  Al23  1  0.435989  0.872226  0.748418  1
  Al  Al24  1  0.873412  0.437632  0.249154  1
  Al  Al25  1  0.126588  0.562368  0.750846  1
  Al  Al26  1  0.564207  0.437343  0.252541  1
  Al  Al27  1  0.435793  0.562657  0.747459  1
  Al  Al28  1  0.998167  0.000585  0.250739  1
  Al  Al29  1  0.001833  0.999415  0.749261  1
  Cu  Cu30  1  0.500000  0.000000  0.000000  1
  Os  Os31  1  0.000000  0.500000  0.000000  1
  Os  Os32  1  0.500000  0.000000  0.500000  1
  Os  Os33  1  0.000000  0.500000  0.500000  1
  Os  Os34  1  0.500000  0.500000  0.500000  1
  Os  Os35  1  0.000000  0.000000  0.000000  1
  Os  Os36  1  0.000000  0.000000  0.500000  1
  Pd  Pd37  1  0.500000  0.500000  0.000000  1
