# generated using pymatgen
data_Hf6Zn16Cu6SiNi
_symmetry_space_group_name_H-M   'P 1'
_cell_length_a   8.60513039
_cell_length_b   8.58605518
_cell_length_c   8.58605557
_cell_angle_alpha   59.92385354
_cell_angle_beta   59.92647974
_cell_angle_gamma   59.92647827
_symmetry_Int_Tables_number   1
_chemical_formula_structural   Hf6Zn16Cu6SiNi
_chemical_formula_sum   'Hf6 Zn16 Cu6 Si1 Ni1'
_cell_volume   447.81261288
_cell_formula_units_Z   1
loop_
 _symmetry_equiv_pos_site_id
 _symmetry_equiv_pos_as_xyz
  1  'x, y, z'
loop_
 _atom_site_type_symbol
 _atom_site_label
 _atom_site_symmetry_multiplicity
 _atom_site_fract_x
 _atom_site_fract_y
 _atom_site_fract_z
 _atom_site_occupancy
  Hf  Hf0  1  0.712014  0.287986  0.287986  1
  Hf  Hf1  1  0.287986  0.712014  0.712014  1
  Hf  Hf2  1  0.287020  0.709355  0.290645  1
  Hf  Hf3  1  0.712980  0.290645  0.709355  1
  Hf  Hf4  1  0.287020  0.290645  0.709355  1
  Hf  Hf5  1  0.712980  0.709355  0.290645  1
  Zn  Zn6  1  0.121728  0.121833  0.121833  1
  Zn  Zn7  1  0.878272  0.878167  0.878167  1
  Zn  Zn8  1  0.120763  0.125261  0.633215  1
  Zn  Zn9  1  0.120763  0.633215  0.125261  1
  Zn  Zn10  1  0.879237  0.874739  0.366785  1
  Zn  Zn11  1  0.879237  0.366785  0.874739  1
  Zn  Zn12  1  0.634604  0.121833  0.121833  1
  Zn  Zn13  1  0.365396  0.878167  0.878167  1
  Zn  Zn14  1  0.333740  0.337391  0.337391  1
  Zn  Zn15  1  0.666260  0.662609  0.662609  1
  Zn  Zn16  1  0.336882  0.336398  0.989838  1
  Zn  Zn17  1  0.336882  0.989838  0.336398  1
  Zn  Zn18  1  0.663118  0.663602  0.010162  1
  Zn  Zn19  1  0.663118  0.010162  0.663602  1
  Zn  Zn20  1  0.991477  0.337391  0.337391  1
  Zn  Zn21  1  0.008523  0.662609  0.662609  1
  Cu  Cu22  1  0.500000  0.000000  0.000000  1
  Cu  Cu23  1  0.000000  0.500000  0.000000  1
  Cu  Cu24  1  0.500000  0.000000  0.500000  1
  Cu  Cu25  1  0.000000  0.000000  0.500000  1
  Cu  Cu26  1  0.500000  0.500000  0.000000  1
  Cu  Cu27  1  0.000000  0.000000  0.000000  1
  Si  Si28  1  0.500000  0.500000  0.500000  1
  Ni  Ni29  1  0.000000  0.500000  0.500000  1
