# generated using pymatgen
data_CeDy3(Si5Os3)2
_symmetry_space_group_name_H-M   'P 1'
_cell_length_a   8.14194215
_cell_length_b   8.14644026
_cell_length_c   5.82235076
_cell_angle_alpha   70.57203701
_cell_angle_beta   70.46244469
_cell_angle_gamma   93.94712050
_symmetry_Int_Tables_number   1
_chemical_formula_structural   CeDy3(Si5Os3)2
_chemical_formula_sum   'Ce1 Dy3 Si10 Os6'
_cell_volume   336.10668766
_cell_formula_units_Z   1
loop_
 _symmetry_equiv_pos_site_id
 _symmetry_equiv_pos_as_xyz
  1  'x, y, z'
loop_
 _atom_site_type_symbol
 _atom_site_label
 _atom_site_symmetry_multiplicity
 _atom_site_fract_x
 _atom_site_fract_y
 _atom_site_fract_z
 _atom_site_occupancy
  Ce  Ce0  1  0.868436  0.600420  0.756290  1
  Dy  Dy1  1  0.398437  0.132038  0.745528  1
  Dy  Dy2  1  0.132208  0.398410  0.244461  1
  Dy  Dy3  1  0.601589  0.868881  0.253393  1
  Si  Si4  1  0.067180  0.261757  0.834119  1
  Si  Si5  1  0.737797  0.935174  0.665204  1
  Si  Si6  1  0.934045  0.738475  0.165957  1
  Si  Si7  1  0.260643  0.067013  0.334877  1
  Si  Si8  1  0.208352  0.795416  0.750724  1
  Si  Si9  1  0.793540  0.206478  0.248087  1
  Si  Si10  1  0.511074  0.485334  0.752453  1
  Si  Si11  1  0.485963  0.513429  0.250445  1
  Si  Si12  1  0.774593  0.224689  0.751071  1
  Si  Si13  1  0.228167  0.773754  0.246799  1
  Os  Os14  1  0.255772  0.545697  0.631364  1
  Os  Os15  1  0.457406  0.743580  0.865914  1
  Os  Os16  1  0.743402  0.455071  0.368931  1
  Os  Os17  1  0.542555  0.255529  0.132023  1
  Os  Os18  1  0.001861  0.996947  0.751434  1
  Os  Os19  1  0.996980  0.001906  0.250925  1
