# generated using pymatgen
data_Tb16In3AgIr4
_symmetry_space_group_name_H-M   'P 1'
_cell_length_a   9.68172226
_cell_length_b   9.68172195
_cell_length_c   9.68172200
_cell_angle_alpha   59.99849546
_cell_angle_beta   59.99849764
_cell_angle_gamma   59.99849519
_symmetry_Int_Tables_number   1
_chemical_formula_structural   Tb16In3AgIr4
_chemical_formula_sum   'Tb16 In3 Ag1 Ir4'
_cell_volume   641.69407274
_cell_formula_units_Z   1
loop_
 _symmetry_equiv_pos_site_id
 _symmetry_equiv_pos_as_xyz
  1  'x, y, z'
loop_
 _atom_site_type_symbol
 _atom_site_label
 _atom_site_symmetry_multiplicity
 _atom_site_fract_x
 _atom_site_fract_y
 _atom_site_fract_z
 _atom_site_occupancy
  Tb  Tb0  1  0.099744  0.701720  0.099744  1
  Tb  Tb1  1  0.941518  0.941518  0.557836  1
  Tb  Tb2  1  0.941518  0.557836  0.941518  1
  Tb  Tb3  1  0.310892  0.687625  0.310892  1
  Tb  Tb4  1  0.939902  0.559073  0.559073  1
  Tb  Tb5  1  0.310892  0.310892  0.687625  1
  Tb  Tb6  1  0.099158  0.099158  0.099158  1
  Tb  Tb7  1  0.559073  0.559073  0.939902  1
  Tb  Tb8  1  0.099744  0.099744  0.701720  1
  Tb  Tb9  1  0.689705  0.310188  0.689705  1
  Tb  Tb10  1  0.689705  0.689705  0.310188  1
  Tb  Tb11  1  0.687625  0.310892  0.310892  1
  Tb  Tb12  1  0.310188  0.689705  0.689705  1
  Tb  Tb13  1  0.559073  0.939902  0.559073  1
  Tb  Tb14  1  0.701720  0.099744  0.099744  1
  Tb  Tb15  1  0.557836  0.941518  0.941518  1
  In  In16  1  0.004080  0.332132  0.332132  1
  In  In17  1  0.332132  0.004080  0.332132  1
  In  In18  1  0.332132  0.332132  0.004080  1
  Ag  Ag19  1  0.332541  0.332541  0.332541  1
  Ir  Ir20  1  0.892035  0.892035  0.892035  1
  Ir  Ir21  1  0.891550  0.891550  0.325685  1
  Ir  Ir22  1  0.325685  0.891550  0.891550  1
  Ir  Ir23  1  0.891550  0.325685  0.891550  1
