# generated using pymatgen
data_HoTa5(B2Os5)2
_symmetry_space_group_name_H-M   'P 1'
_cell_length_a   9.58917443
_cell_length_b   9.58917419
_cell_length_c   3.06194300
_cell_angle_alpha   90.00000000
_cell_angle_beta   90.00000000
_cell_angle_gamma   90.42650089
_symmetry_Int_Tables_number   1
_chemical_formula_structural   HoTa5(B2Os5)2
_chemical_formula_sum   'Ho1 Ta5 B4 Os10'
_cell_volume   281.54479020
_cell_formula_units_Z   1
loop_
 _symmetry_equiv_pos_site_id
 _symmetry_equiv_pos_as_xyz
  1  'x, y, z'
loop_
 _atom_site_type_symbol
 _atom_site_label
 _atom_site_symmetry_multiplicity
 _atom_site_fract_x
 _atom_site_fract_y
 _atom_site_fract_z
 _atom_site_occupancy
  Ho  Ho0  1  0.823975  0.676025  0.000000  1
  Ta  Ta1  1  0.179778  0.320222  0.000000  1
  Ta  Ta2  1  0.324189  0.822540  0.000000  1
  Ta  Ta3  1  0.677460  0.175811  0.000000  1
  Ta  Ta4  1  0.501641  0.500967  0.000000  1
  Ta  Ta5  1  0.999033  0.998359  0.000000  1
  B  B6  1  0.619764  0.880236  0.000000  1
  B  B7  1  0.377642  0.122358  0.000000  1
  B  B8  1  0.121529  0.620045  0.000000  1
  B  B9  1  0.879955  0.378471  0.000000  1
  Os  Os10  1  0.557739  0.725322  0.500000  1
  Os  Os11  1  0.426373  0.283342  0.500000  1
  Os  Os12  1  0.082083  0.782385  0.500000  1
  Os  Os13  1  0.930063  0.216248  0.500000  1
  Os  Os14  1  0.283752  0.569937  0.500000  1
  Os  Os15  1  0.717615  0.417917  0.500000  1
  Os  Os16  1  0.216658  0.073627  0.500000  1
  Os  Os17  1  0.774678  0.942261  0.500000  1
  Os  Os18  1  0.495698  0.004302  0.500000  1
  Os  Os19  1  0.010375  0.489625  0.500000  1
