# generated using pymatgen
data_LiLu3(B4Ru5)2
_symmetry_space_group_name_H-M   'P 1'
_cell_length_a   3.02765500
_cell_length_b   8.54073482
_cell_length_c   10.11330854
_cell_angle_alpha   88.73736507
_cell_angle_beta   90.00000000
_cell_angle_gamma   90.00000000
_symmetry_Int_Tables_number   1
_chemical_formula_structural   LiLu3(B4Ru5)2
_chemical_formula_sum   'Li1 Lu3 B8 Ru10'
_cell_volume   261.45046451
_cell_formula_units_Z   1
loop_
 _symmetry_equiv_pos_site_id
 _symmetry_equiv_pos_as_xyz
  1  'x, y, z'
loop_
 _atom_site_type_symbol
 _atom_site_label
 _atom_site_symmetry_multiplicity
 _atom_site_fract_x
 _atom_site_fract_y
 _atom_site_fract_z
 _atom_site_occupancy
  Li  Li0  1  0.500000  0.853851  0.195508  1
  Lu  Lu1  1  0.500000  0.153861  0.828959  1
  Lu  Lu2  1  0.500000  0.658846  0.677009  1
  Lu  Lu3  1  0.500000  0.347110  0.309385  1
  B  B4  1  0.500000  0.965496  0.590463  1
  B  B5  1  0.500000  0.035018  0.410780  1
  B  B6  1  0.500000  0.848049  0.904545  1
  B  B7  1  0.500000  0.134308  0.103638  1
  B  B8  1  0.500000  0.655747  0.388807  1
  B  B9  1  0.500000  0.352621  0.596873  1
  B  B10  1  0.500000  0.463499  0.910113  1
  B  B11  1  0.500000  0.541764  0.087510  1
  Ru  Ru12  1  0.000000  0.651347  0.948174  1
  Ru  Ru13  1  0.000000  0.337585  0.046196  1
  Ru  Ru14  1  0.000000  0.844013  0.457285  1
  Ru  Ru15  1  0.000000  0.159401  0.546173  1
  Ru  Ru16  1  0.000000  0.981885  0.010466  1
  Ru  Ru17  1  0.000000  0.402679  0.758252  1
  Ru  Ru18  1  0.000000  0.616744  0.231715  1
  Ru  Ru19  1  0.000000  0.501752  0.494422  1
  Ru  Ru20  1  0.000000  0.904516  0.742209  1
  Ru  Ru21  1  0.000000  0.089906  0.261520  1
