# generated using pymatgen
data_Mn2Co4SnSb
_symmetry_space_group_name_H-M   'P 1'
_cell_length_a   7.37122922
_cell_length_b   7.37122947
_cell_length_c   7.37122988
_cell_angle_alpha   33.47823294
_cell_angle_beta   33.47822899
_cell_angle_gamma   33.47822749
_symmetry_Int_Tables_number   1
_chemical_formula_structural   Mn2Co4SnSb
_chemical_formula_sum   'Mn2 Co4 Sn1 Sb1'
_cell_volume   108.53916686
_cell_formula_units_Z   1
loop_
 _symmetry_equiv_pos_site_id
 _symmetry_equiv_pos_as_xyz
  1  'x, y, z'
loop_
 _atom_site_type_symbol
 _atom_site_label
 _atom_site_symmetry_multiplicity
 _atom_site_fract_x
 _atom_site_fract_y
 _atom_site_fract_z
 _atom_site_occupancy
  Mn  Mn0  1  0.248653  0.248653  0.248653  1
  Mn  Mn1  1  0.751347  0.751347  0.751347  1
  Co  Co2  1  0.626196  0.626196  0.626196  1
  Co  Co3  1  0.123541  0.123541  0.123541  1
  Co  Co4  1  0.876459  0.876459  0.876459  1
  Co  Co5  1  0.373804  0.373804  0.373804  1
  Sn  Sn6  1  0.500000  0.500000  0.500000  1
  Sb  Sb7  1  0.000000  0.000000  0.000000  1
