# generated using pymatgen
data_Ho3TmAl12(GaIr)6
_symmetry_space_group_name_H-M   'P 1'
_cell_length_a   7.51970412
_cell_length_b   7.52114516
_cell_length_c   9.55702100
_cell_angle_alpha   90.00000000
_cell_angle_beta   90.00000000
_cell_angle_gamma   119.73708704
_symmetry_Int_Tables_number   1
_chemical_formula_structural   Ho3TmAl12(GaIr)6
_chemical_formula_sum   'Ho3 Tm1 Al12 Ga6 Ir6'
_cell_volume   469.33439190
_cell_formula_units_Z   1
loop_
 _symmetry_equiv_pos_site_id
 _symmetry_equiv_pos_as_xyz
  1  'x, y, z'
loop_
 _atom_site_type_symbol
 _atom_site_label
 _atom_site_symmetry_multiplicity
 _atom_site_fract_x
 _atom_site_fract_y
 _atom_site_fract_z
 _atom_site_occupancy
  Ho  Ho0  1  0.997076  0.669635  0.250000  1
  Ho  Ho1  1  0.002998  0.330190  0.750000  1
  Ho  Ho2  1  0.669670  0.997049  0.250000  1
  Tm  Tm3  1  0.329965  0.002773  0.750000  1
  Al  Al4  1  0.002046  0.334493  0.073023  1
  Al  Al5  1  0.998369  0.665783  0.926489  1
  Al  Al6  1  0.998369  0.665783  0.573511  1
  Al  Al7  1  0.334456  0.001932  0.427554  1
  Al  Al8  1  0.002046  0.334493  0.426977  1
  Al  Al9  1  0.665177  0.998199  0.573543  1
  Al  Al10  1  0.665177  0.998199  0.926457  1
  Al  Al11  1  0.334456  0.001932  0.072446  1
  Al  Al12  1  0.334147  0.333871  0.558375  1
  Al  Al13  1  0.665919  0.665942  0.442634  1
  Al  Al14  1  0.665919  0.665942  0.057366  1
  Al  Al15  1  0.334147  0.333871  0.941625  1
  Ga  Ga16  1  0.128052  0.127743  0.250000  1
  Ga  Ga17  1  0.872385  0.871627  0.750000  1
  Ga  Ga18  1  0.338712  0.547777  0.250000  1
  Ga  Ga19  1  0.660587  0.451636  0.750000  1
  Ga  Ga20  1  0.547310  0.338286  0.250000  1
  Ga  Ga21  1  0.452808  0.662472  0.750000  1
  Ir  Ir22  1  0.671771  0.328126  0.999808  1
  Ir  Ir23  1  0.328086  0.671830  0.999767  1
  Ir  Ir24  1  0.328086  0.671830  0.500233  1
  Ir  Ir25  1  0.671771  0.328126  0.500192  1
  Ir  Ir26  1  0.000248  0.000231  0.999788  1
  Ir  Ir27  1  0.000248  0.000231  0.500212  1
