# generated using pymatgen
data_AgIr2Rh2Pb3O14
_symmetry_space_group_name_H-M   'P 1'
_cell_length_a   7.33576175
_cell_length_b   7.24238694
_cell_length_c   7.33576245
_cell_angle_alpha   59.68886116
_cell_angle_beta   59.93087552
_cell_angle_gamma   59.68885649
_symmetry_Int_Tables_number   1
_chemical_formula_structural   AgIr2Rh2Pb3O14
_chemical_formula_sum   'Ag1 Ir2 Rh2 Pb3 O14'
_cell_volume   274.14064894
_cell_formula_units_Z   1
loop_
 _symmetry_equiv_pos_site_id
 _symmetry_equiv_pos_as_xyz
  1  'x, y, z'
loop_
 _atom_site_type_symbol
 _atom_site_label
 _atom_site_symmetry_multiplicity
 _atom_site_fract_x
 _atom_site_fract_y
 _atom_site_fract_z
 _atom_site_occupancy
  Ag  Ag0  1  0.125000  0.625000  0.125000  1
  Ir  Ir1  1  0.125000  0.625000  0.625000  1
  Ir  Ir2  1  0.625000  0.625000  0.125000  1
  Rh  Rh3  1  0.625000  0.125000  0.625000  1
  Rh  Rh4  1  0.625000  0.625000  0.625000  1
  Pb  Pb5  1  0.625000  0.125000  0.125000  1
  Pb  Pb6  1  0.125000  0.125000  0.625000  1
  Pb  Pb7  1  0.125000  0.125000  0.125000  1
  O  O8  1  0.691551  0.706748  0.296728  1
  O  O9  1  0.292725  0.292922  0.708992  1
  O  O10  1  0.708963  0.289540  0.708963  1
  O  O11  1  0.302469  0.706858  0.302469  1
  O  O12  1  0.296728  0.706748  0.691551  1
  O  O13  1  0.708992  0.292922  0.292725  1
  O  O14  1  0.558449  0.543252  0.953272  1
  O  O15  1  0.957275  0.957078  0.541008  1
  O  O16  1  0.541037  0.960460  0.541037  1
  O  O17  1  0.947531  0.543142  0.947531  1
  O  O18  1  0.953272  0.543252  0.558449  1
  O  O19  1  0.541008  0.957078  0.957275  1
  O  O20  1  0.242636  0.272016  0.242636  1
  O  O21  1  0.007364  0.977984  0.007364  1
