# generated using pymatgen
data_CeHo7(WC2)4
_symmetry_space_group_name_H-M   'P 1'
_cell_length_a   5.73317008
_cell_length_b   5.73317008
_cell_length_c   9.90025442
_cell_angle_alpha   89.61856358
_cell_angle_beta   89.61856358
_cell_angle_gamma   90.02878400
_symmetry_Int_Tables_number   1
_chemical_formula_structural   CeHo7(WC2)4
_chemical_formula_sum   'Ce1 Ho7 W4 C8'
_cell_volume   325.39935930
_cell_formula_units_Z   1
loop_
 _symmetry_equiv_pos_site_id
 _symmetry_equiv_pos_as_xyz
  1  'x, y, z'
loop_
 _atom_site_type_symbol
 _atom_site_label
 _atom_site_symmetry_multiplicity
 _atom_site_fract_x
 _atom_site_fract_y
 _atom_site_fract_z
 _atom_site_occupancy
  Ce  Ce0  1  0.801944  0.801944  0.659005  1
  Ho  Ho1  1  0.199586  0.199586  0.341620  1
  Ho  Ho2  1  0.301527  0.700210  0.842764  1
  Ho  Ho3  1  0.700210  0.301527  0.842764  1
  Ho  Ho4  1  0.701096  0.300273  0.158186  1
  Ho  Ho5  1  0.300273  0.701096  0.158186  1
  Ho  Ho6  1  0.199584  0.199584  0.657408  1
  Ho  Ho7  1  0.798496  0.798496  0.342734  1
  W  W8  1  0.318909  0.676389  0.498006  1
  W  W9  1  0.822573  0.822573  0.002219  1
  W  W10  1  0.179939  0.179939  0.001373  1
  W  W11  1  0.676389  0.318909  0.498006  1
  C  C12  1  0.999919  0.999919  0.155453  1
  C  C13  1  0.498095  0.498095  0.652379  1
  C  C14  1  0.494732  0.000334  0.496913  1
  C  C15  1  0.499052  0.499052  0.344144  1
  C  C16  1  0.004356  0.004356  0.849507  1
  C  C17  1  0.501327  0.001662  0.001208  1
  C  C18  1  0.001662  0.501327  0.001208  1
  C  C19  1  0.000334  0.494732  0.496913  1
