# generated using pymatgen
data_Tb2Mo3P7Ru5Rh4
_symmetry_space_group_name_H-M   'P 1'
_cell_length_a   3.94786066
_cell_length_b   9.54264609
_cell_length_c   9.47992608
_cell_angle_alpha   119.89274228
_cell_angle_beta   90.00385172
_cell_angle_gamma   89.99372802
_symmetry_Int_Tables_number   1
_chemical_formula_structural   Tb2Mo3P7Ru5Rh4
_chemical_formula_sum   'Tb2 Mo3 P7 Ru5 Rh4'
_cell_volume   309.62397679
_cell_formula_units_Z   1
loop_
 _symmetry_equiv_pos_site_id
 _symmetry_equiv_pos_as_xyz
  1  'x, y, z'
loop_
 _atom_site_type_symbol
 _atom_site_label
 _atom_site_symmetry_multiplicity
 _atom_site_fract_x
 _atom_site_fract_y
 _atom_site_fract_z
 _atom_site_occupancy
  Tb  Tb0  1  0.261945  0.666751  0.333065  1
  Tb  Tb1  1  0.761965  0.334491  0.666745  1
  Mo  Mo2  1  0.761954  0.095110  0.878274  1
  Mo  Mo3  1  0.761952  0.119071  0.216561  1
  Mo  Mo4  1  0.761980  0.785462  0.904166  1
  P  P5  1  0.261965  0.998806  0.998516  1
  P  P6  1  0.761936  0.881575  0.598913  1
  P  P7  1  0.761905  0.397702  0.286976  1
  P  P8  1  0.761872  0.711994  0.112006  1
  P  P9  1  0.261929  0.123494  0.412275  1
  P  P10  1  0.261940  0.587129  0.708202  1
  P  P11  1  0.261881  0.297759  0.882543  1
  Ru  Ru12  1  0.261864  0.888238  0.160870  1
  Ru  Ru13  1  0.261759  0.839074  0.724586  1
  Ru  Ru14  1  0.261878  0.270054  0.111676  1
  Ru  Ru15  1  0.261894  0.374608  0.436721  1
  Ru  Ru16  1  0.261829  0.566380  0.939676  1
  Rh  Rh17  1  0.761859  0.612878  0.556485  1
  Rh  Rh18  1  0.761845  0.440995  0.055633  1
  Rh  Rh19  1  0.761938  0.940921  0.387254  1
  Rh  Rh20  1  0.261910  0.067508  0.628860  1
