# generated using pymatgen
data_Nd5Zn2Ir2Ru
_symmetry_space_group_name_H-M   'P 1'
_cell_length_a   8.62305808
_cell_length_b   8.58846208
_cell_length_c   8.55491400
_cell_angle_alpha   109.21409561
_cell_angle_beta   109.33907174
_cell_angle_gamma   109.86555152
_symmetry_Int_Tables_number   1
_chemical_formula_structural   Nd5Zn2Ir2Ru
_chemical_formula_sum   'Nd10 Zn4 Ir4 Ru2'
_cell_volume   487.67611685
_cell_formula_units_Z   2
loop_
 _symmetry_equiv_pos_site_id
 _symmetry_equiv_pos_as_xyz
  1  'x, y, z'
loop_
 _atom_site_type_symbol
 _atom_site_label
 _atom_site_symmetry_multiplicity
 _atom_site_fract_x
 _atom_site_fract_y
 _atom_site_fract_z
 _atom_site_occupancy
  Nd  Nd0  1  0.779266  0.998904  0.996601  1
  Nd  Nd1  1  0.246550  0.318651  0.066912  1
  Nd  Nd2  1  0.722694  0.721113  0.219594  1
  Nd  Nd3  1  0.182040  0.931273  0.251063  1
  Nd  Nd4  1  0.999628  0.499458  0.276819  1
  Nd  Nd5  1  0.751791  0.180341  0.434124  1
  Nd  Nd6  1  0.503653  0.780764  0.501708  1
  Nd  Nd7  1  0.928820  0.747264  0.681327  1
  Nd  Nd8  1  0.317369  0.568457  0.749403  1
  Nd  Nd9  1  0.570368  0.253675  0.820096  1
  Zn  Zn10  1  0.409288  0.000667  0.000388  1
  Zn  Zn11  1  0.499010  0.409002  0.500963  1
  Zn  Zn12  1  0.090529  0.089649  0.592779  1
  Zn  Zn13  1  0.998303  0.500622  0.908691  1
  Ir  Ir14  1  0.378849  0.750740  0.128497  1
  Ir  Ir15  1  0.626425  0.376273  0.249509  1
  Ir  Ir16  1  0.121429  0.249472  0.371464  1
  Ir  Ir17  1  0.250356  0.871199  0.621690  1
  Ru  Ru18  1  0.874224  0.123635  0.750032  1
  Ru  Ru19  1  0.749409  0.628840  0.878343  1
