# generated using pymatgen
data_Cs6TbHoLu2Br18
_symmetry_space_group_name_H-M   'P 1'
_cell_length_a   10.42875367
_cell_length_b   10.42875327
_cell_length_c   10.42875304
_cell_angle_alpha   83.16897524
_cell_angle_beta   83.16897650
_cell_angle_gamma   83.16898499
_symmetry_Int_Tables_number   1
_chemical_formula_structural   Cs6TbHoLu2Br18
_chemical_formula_sum   'Cs6 Tb1 Ho1 Lu2 Br18'
_cell_volume   1111.83853296
_cell_formula_units_Z   1
loop_
 _symmetry_equiv_pos_site_id
 _symmetry_equiv_pos_as_xyz
  1  'x, y, z'
loop_
 _atom_site_type_symbol
 _atom_site_label
 _atom_site_symmetry_multiplicity
 _atom_site_fract_x
 _atom_site_fract_y
 _atom_site_fract_z
 _atom_site_occupancy
  Cs  Cs0  1  0.587923  0.912106  0.249978  1
  Cs  Cs1  1  0.249978  0.587923  0.912106  1
  Cs  Cs2  1  0.912106  0.249978  0.587923  1
  Cs  Cs3  1  0.749974  0.411082  0.088799  1
  Cs  Cs4  1  0.088799  0.749974  0.411082  1
  Cs  Cs5  1  0.411082  0.088799  0.749974  1
  Tb  Tb6  1  0.847572  0.847572  0.847572  1
  Ho  Ho7  1  0.652755  0.652755  0.652755  1
  Lu  Lu8  1  0.345488  0.345488  0.345488  1
  Lu  Lu9  1  0.154472  0.154472  0.154472  1
  Br  Br10  1  0.096890  0.403057  0.249917  1
  Br  Br11  1  0.249917  0.096890  0.403057  1
  Br  Br12  1  0.403057  0.249917  0.096890  1
  Br  Br13  1  0.749386  0.905549  0.593271  1
  Br  Br14  1  0.593271  0.749386  0.905549  1
  Br  Br15  1  0.905549  0.593271  0.749386  1
  Br  Br16  1  0.236766  0.413539  0.575578  1
  Br  Br17  1  0.575578  0.236766  0.413539  1
  Br  Br18  1  0.413539  0.575578  0.236766  1
  Br  Br19  1  0.082332  0.915998  0.733712  1
  Br  Br20  1  0.733712  0.082332  0.915998  1
  Br  Br21  1  0.915998  0.733712  0.082332  1
  Br  Br22  1  0.765140  0.584888  0.419890  1
  Br  Br23  1  0.419890  0.765140  0.584888  1
  Br  Br24  1  0.584888  0.419890  0.765140  1
  Br  Br25  1  0.924360  0.086386  0.263195  1
  Br  Br26  1  0.263195  0.924360  0.086386  1
  Br  Br27  1  0.086386  0.263195  0.924360  1
