# generated using pymatgen
data_Ta3SiRu3Pt2
_symmetry_space_group_name_H-M   'P 1'
_cell_length_a   7.24826700
_cell_length_b   7.24826644
_cell_length_c   3.08301500
_cell_angle_alpha   90.00000000
_cell_angle_beta   90.00000000
_cell_angle_gamma   119.99999798
_symmetry_Int_Tables_number   1
_chemical_formula_structural   Ta3SiRu3Pt2
_chemical_formula_sum   'Ta3 Si1 Ru3 Pt2'
_cell_volume   140.27316962
_cell_formula_units_Z   1
loop_
 _symmetry_equiv_pos_site_id
 _symmetry_equiv_pos_as_xyz
  1  'x, y, z'
loop_
 _atom_site_type_symbol
 _atom_site_label
 _atom_site_symmetry_multiplicity
 _atom_site_fract_x
 _atom_site_fract_y
 _atom_site_fract_z
 _atom_site_occupancy
  Ta  Ta0  1  0.388954  0.388954  0.500000  1
  Ta  Ta1  1  0.611046  0.000000  0.500000  1
  Ta  Ta2  1  0.000000  0.611046  0.500000  1
  Si  Si3  1  0.000000  0.000000  0.500000  1
  Ru  Ru4  1  0.000000  0.247111  0.000000  1
  Ru  Ru5  1  0.247111  0.000000  0.000000  1
  Ru  Ru6  1  0.752889  0.752889  0.000000  1
  Pt  Pt7  1  0.666667  0.333333  0.000000  1
  Pt  Pt8  1  0.333333  0.666667  0.000000  1
