# generated using pymatgen
data_Lu2Al6(GaIr)3
_symmetry_space_group_name_H-M   'P 1'
_cell_length_a   7.50172615
_cell_length_b   7.50172602
_cell_length_c   9.52709600
_cell_angle_alpha   90.00000000
_cell_angle_beta   90.00000000
_cell_angle_gamma   119.72949501
_symmetry_Int_Tables_number   1
_chemical_formula_structural   Lu2Al6(GaIr)3
_chemical_formula_sum   'Lu4 Al12 Ga6 Ir6'
_cell_volume   465.57637114
_cell_formula_units_Z   2
loop_
 _symmetry_equiv_pos_site_id
 _symmetry_equiv_pos_as_xyz
  1  'x, y, z'
loop_
 _atom_site_type_symbol
 _atom_site_label
 _atom_site_symmetry_multiplicity
 _atom_site_fract_x
 _atom_site_fract_y
 _atom_site_fract_z
 _atom_site_occupancy
  Lu  Lu0  1  0.996561  0.670378  0.250000  1
  Lu  Lu1  1  0.003439  0.329622  0.750000  1
  Lu  Lu2  1  0.670378  0.996561  0.250000  1
  Lu  Lu3  1  0.329622  0.003439  0.750000  1
  Al  Al4  1  0.001447  0.334426  0.072716  1
  Al  Al5  1  0.998553  0.665574  0.927284  1
  Al  Al6  1  0.998553  0.665574  0.572716  1
  Al  Al7  1  0.334426  0.001447  0.427284  1
  Al  Al8  1  0.001447  0.334426  0.427284  1
  Al  Al9  1  0.665574  0.998553  0.572716  1
  Al  Al10  1  0.665574  0.998553  0.927284  1
  Al  Al11  1  0.334426  0.001447  0.072716  1
  Al  Al12  1  0.333887  0.333887  0.558367  1
  Al  Al13  1  0.666113  0.666113  0.441633  1
  Al  Al14  1  0.666113  0.666113  0.058367  1
  Al  Al15  1  0.333887  0.333887  0.941633  1
  Ga  Ga16  1  0.127144  0.127144  0.250000  1
  Ga  Ga17  1  0.872856  0.872856  0.750000  1
  Ga  Ga18  1  0.338509  0.548160  0.250000  1
  Ga  Ga19  1  0.661491  0.451840  0.750000  1
  Ga  Ga20  1  0.548160  0.338509  0.250000  1
  Ga  Ga21  1  0.451840  0.661491  0.750000  1
  Ir  Ir22  1  0.672499  0.327501  0.000000  1
  Ir  Ir23  1  0.327501  0.672499  0.000000  1
  Ir  Ir24  1  0.327501  0.672499  0.500000  1
  Ir  Ir25  1  0.672499  0.327501  0.500000  1
  Ir  Ir26  1  0.000000  0.000000  0.000000  1
  Ir  Ir27  1  0.000000  0.000000  0.500000  1
