# generated using pymatgen
data_La2P7PdRu11
_symmetry_space_group_name_H-M   'P 1'
_cell_length_a   9.49185235
_cell_length_b   9.58595519
_cell_length_c   3.97703400
_cell_angle_alpha   90.00000000
_cell_angle_beta   90.00000000
_cell_angle_gamma   119.61657786
_symmetry_Int_Tables_number   1
_chemical_formula_structural   La2P7PdRu11
_chemical_formula_sum   'La2 P7 Pd1 Ru11'
_cell_volume   314.58739578
_cell_formula_units_Z   1
loop_
 _symmetry_equiv_pos_site_id
 _symmetry_equiv_pos_as_xyz
  1  'x, y, z'
loop_
 _atom_site_type_symbol
 _atom_site_label
 _atom_site_symmetry_multiplicity
 _atom_site_fract_x
 _atom_site_fract_y
 _atom_site_fract_z
 _atom_site_occupancy
  La  La0  1  0.669233  0.335431  0.500000  1
  La  La1  1  0.330771  0.661795  0.000000  1
  P  P2  1  0.603878  0.700819  0.500000  1
  P  P3  1  0.997065  0.999968  0.000000  1
  P  P4  1  0.274948  0.887778  0.500000  1
  P  P5  1  0.110054  0.396957  0.500000  1
  P  P6  1  0.893781  0.583928  0.000000  1
  P  P7  1  0.419489  0.308282  0.000000  1
  P  P8  1  0.705578  0.119977  0.000000  1
  Pd  Pd9  1  0.554228  0.945116  0.500000  1
  Ru  Ru10  1  0.386264  0.433672  0.500000  1
  Ru  Ru11  1  0.909491  0.126974  0.500000  1
  Ru  Ru12  1  0.208629  0.087991  0.500000  1
  Ru  Ru13  1  0.878105  0.793518  0.500000  1
  Ru  Ru14  1  0.726953  0.890502  0.000000  1
  Ru  Ru15  1  0.110774  0.843125  0.000000  1
  Ru  Ru16  1  0.158615  0.265939  0.000000  1
  Ru  Ru17  1  0.428926  0.063736  0.000000  1
  Ru  Ru18  1  0.941315  0.365869  0.000000  1
  Ru  Ru19  1  0.640711  0.575461  0.000000  1
  Ru  Ru20  1  0.051192  0.613161  0.500000  1
