# generated using pymatgen
data_InAg(RhS2)4
_symmetry_space_group_name_H-M   'P 1'
_cell_length_a   7.25742489
_cell_length_b   7.25742546
_cell_length_c   7.25742500
_cell_angle_alpha   59.99999752
_cell_angle_beta   59.99999494
_cell_angle_gamma   59.99999921
_symmetry_Int_Tables_number   1
_chemical_formula_structural   InAg(RhS2)4
_chemical_formula_sum   'In1 Ag1 Rh4 S8'
_cell_volume   270.29167198
_cell_formula_units_Z   1
loop_
 _symmetry_equiv_pos_site_id
 _symmetry_equiv_pos_as_xyz
  1  'x, y, z'
loop_
 _atom_site_type_symbol
 _atom_site_label
 _atom_site_symmetry_multiplicity
 _atom_site_fract_x
 _atom_site_fract_y
 _atom_site_fract_z
 _atom_site_occupancy
  In  In0  1  0.000000  0.000000  0.000000  1
  Ag  Ag1  1  0.750000  0.750000  0.750000  1
  Rh  Rh2  1  0.377550  0.377550  0.377550  1
  Rh  Rh3  1  0.377550  0.867350  0.377550  1
  Rh  Rh4  1  0.867350  0.377550  0.377550  1
  Rh  Rh5  1  0.377550  0.377550  0.867350  1
  S  S6  1  0.142526  0.142526  0.142526  1
  S  S7  1  0.142526  0.572420  0.142526  1
  S  S8  1  0.572420  0.142526  0.142526  1
  S  S9  1  0.142526  0.142526  0.572420  1
  S  S10  1  0.607279  0.607279  0.607279  1
  S  S11  1  0.607279  0.178165  0.607279  1
  S  S12  1  0.178165  0.607279  0.607279  1
  S  S13  1  0.607279  0.607279  0.178165  1
