# generated using pymatgen
data_CrSn2P6BrN12
_symmetry_space_group_name_H-M   'P 1'
_cell_length_a   7.45687573
_cell_length_b   7.47286788
_cell_length_c   7.45687461
_cell_angle_alpha   110.72452374
_cell_angle_beta   109.02619918
_cell_angle_gamma   110.72450701
_symmetry_Int_Tables_number   1
_chemical_formula_structural   CrSn2P6BrN12
_chemical_formula_sum   'Cr1 Sn2 P6 Br1 N12'
_cell_volume   311.40269351
_cell_formula_units_Z   1
loop_
 _symmetry_equiv_pos_site_id
 _symmetry_equiv_pos_as_xyz
  1  'x, y, z'
loop_
 _atom_site_type_symbol
 _atom_site_label
 _atom_site_symmetry_multiplicity
 _atom_site_fract_x
 _atom_site_fract_y
 _atom_site_fract_z
 _atom_site_occupancy
  Cr  Cr0  1  0.045708  0.442433  0.045708  1
  Sn  Sn1  1  0.015888  0.991947  0.326043  1
  Sn  Sn2  1  0.326043  0.991947  0.015888  1
  P  P3  1  0.519247  0.259042  0.764109  1
  P  P4  1  0.255605  0.739684  0.504559  1
  P  P5  1  0.742963  0.492360  0.267565  1
  P  P6  1  0.764109  0.259042  0.519247  1
  P  P7  1  0.504559  0.739684  0.255605  1
  P  P8  1  0.267565  0.492360  0.742963  1
  Br  Br9  1  0.901974  0.050807  0.901974  1
  N  N10  1  0.352034  0.639973  0.352034  1
  N  N11  1  0.701632  0.404858  0.424774  1
  N  N12  1  0.424774  0.404858  0.701632  1
  N  N13  1  0.754391  0.324336  0.754391  1
  N  N14  1  0.991133  0.572615  0.295038  1
  N  N15  1  0.295038  0.572615  0.991133  1
  N  N16  1  0.311110  0.994250  0.580565  1
  N  N17  1  0.005814  0.281506  0.566935  1
  N  N18  1  0.721047  0.714959  0.311860  1
  N  N19  1  0.580565  0.994250  0.311110  1
  N  N20  1  0.311860  0.714959  0.721047  1
  N  N21  1  0.566935  0.281506  0.005814  1
