# generated using pymatgen
data_Y3Ho9Si11Ge
_symmetry_space_group_name_H-M   'P 1'
_cell_length_a   3.85837400
_cell_length_b   5.70776163
_cell_length_c   24.03763600
_cell_angle_alpha   82.52480912
_cell_angle_beta   90.00000000
_cell_angle_gamma   90.00000000
_symmetry_Int_Tables_number   1
_chemical_formula_structural   Y3Ho9Si11Ge
_chemical_formula_sum   'Y3 Ho9 Si11 Ge1'
_cell_volume   524.87415266
_cell_formula_units_Z   1
loop_
 _symmetry_equiv_pos_site_id
 _symmetry_equiv_pos_as_xyz
  1  'x, y, z'
loop_
 _atom_site_type_symbol
 _atom_site_label
 _atom_site_symmetry_multiplicity
 _atom_site_fract_x
 _atom_site_fract_y
 _atom_site_fract_z
 _atom_site_occupancy
  Y  Y0  1  0.500000  0.082705  0.059922  1
  Y  Y1  1  0.500000  0.083430  0.559862  1
  Y  Y2  1  0.000000  0.920613  0.438952  1
  Ho  Ho3  1  0.000000  0.915977  0.939374  1
  Ho  Ho4  1  0.500000  0.447184  0.392964  1
  Ho  Ho5  1  0.500000  0.441291  0.893419  1
  Ho  Ho6  1  0.000000  0.556955  0.105844  1
  Ho  Ho7  1  0.000000  0.558279  0.606830  1
  Ho  Ho8  1  0.500000  0.255590  0.225972  1
  Ho  Ho9  1  0.500000  0.250875  0.728789  1
  Ho  Ho10  1  0.000000  0.748736  0.272819  1
  Ho  Ho11  1  0.000000  0.741169  0.774772  1
  Si  Si12  1  0.500000  0.621089  0.012107  1
  Si  Si13  1  0.500000  0.624024  0.512707  1
  Si  Si14  1  0.000000  0.380938  0.487031  1
  Si  Si15  1  0.000000  0.377831  0.986719  1
  Si  Si16  1  0.500000  0.767806  0.179032  1
  Si  Si17  1  0.500000  0.755708  0.681535  1
  Si  Si18  1  0.000000  0.236711  0.319834  1
  Si  Si19  1  0.000000  0.228660  0.821393  1
  Si  Si20  1  0.500000  0.961004  0.345004  1
  Si  Si21  1  0.500000  0.953347  0.846562  1
  Si  Si22  1  0.000000  0.043086  0.153829  1
  Ge  Ge23  1  0.000000  0.046986  0.654724  1
