# generated using pymatgen
data_Tm4Al18ZnOs5
_symmetry_space_group_name_H-M   'P 1'
_cell_length_a   7.54203322
_cell_length_b   7.54203419
_cell_length_c   9.52941747
_cell_angle_alpha   90.24427652
_cell_angle_beta   90.24427193
_cell_angle_gamma   119.21782375
_symmetry_Int_Tables_number   1
_chemical_formula_structural   Tm4Al18ZnOs5
_chemical_formula_sum   'Tm4 Al18 Zn1 Os5'
_cell_volume   473.07261970
_cell_formula_units_Z   1
loop_
 _symmetry_equiv_pos_site_id
 _symmetry_equiv_pos_as_xyz
  1  'x, y, z'
loop_
 _atom_site_type_symbol
 _atom_site_label
 _atom_site_symmetry_multiplicity
 _atom_site_fract_x
 _atom_site_fract_y
 _atom_site_fract_z
 _atom_site_occupancy
  Tm  Tm0  1  0.998425  0.675778  0.251688  1
  Tm  Tm1  1  0.001575  0.324222  0.748312  1
  Tm  Tm2  1  0.675778  0.998425  0.251688  1
  Tm  Tm3  1  0.324222  0.001575  0.748312  1
  Al  Al4  1  0.135279  0.135279  0.254848  1
  Al  Al5  1  0.864721  0.864721  0.745152  1
  Al  Al6  1  0.003329  0.345267  0.076383  1
  Al  Al7  1  0.996671  0.654733  0.923617  1
  Al  Al8  1  0.996907  0.662363  0.572013  1
  Al  Al9  1  0.337637  0.003093  0.427987  1
  Al  Al10  1  0.003093  0.337637  0.427987  1
  Al  Al11  1  0.662363  0.996907  0.572013  1
  Al  Al12  1  0.654733  0.996671  0.923617  1
  Al  Al13  1  0.345267  0.003329  0.076383  1
  Al  Al14  1  0.335070  0.335070  0.545695  1
  Al  Al15  1  0.664930  0.664930  0.454305  1
  Al  Al16  1  0.657852  0.657852  0.050869  1
  Al  Al17  1  0.342148  0.342148  0.949131  1
  Al  Al18  1  0.337603  0.552021  0.249733  1
  Al  Al19  1  0.662397  0.447979  0.750267  1
  Al  Al20  1  0.552021  0.337603  0.249733  1
  Al  Al21  1  0.447979  0.662397  0.750267  1
  Zn  Zn22  1  0.000000  0.000000  0.000000  1
  Os  Os23  1  0.672241  0.327759  0.000000  1
  Os  Os24  1  0.327759  0.672241  0.000000  1
  Os  Os25  1  0.327108  0.672892  0.500000  1
  Os  Os26  1  0.672892  0.327108  0.500000  1
  Os  Os27  1  0.000000  0.000000  0.500000  1
