# generated using pymatgen
data_K2Rb4ErInAs4
_symmetry_space_group_name_H-M   'P 1'
_cell_length_a   9.65071079
_cell_length_b   9.65071111
_cell_length_c   9.65071021
_cell_angle_alpha   131.48295374
_cell_angle_beta   66.52685987
_cell_angle_gamma   137.38517463
_symmetry_Int_Tables_number   1
_chemical_formula_structural   K2Rb4ErInAs4
_chemical_formula_sum   'K2 Rb4 Er1 In1 As4'
_cell_volume   448.81280212
_cell_formula_units_Z   1
loop_
 _symmetry_equiv_pos_site_id
 _symmetry_equiv_pos_as_xyz
  1  'x, y, z'
loop_
 _atom_site_type_symbol
 _atom_site_label
 _atom_site_symmetry_multiplicity
 _atom_site_fract_x
 _atom_site_fract_y
 _atom_site_fract_z
 _atom_site_occupancy
  K  K0  1  0.750000  0.250000  0.500000  1
  K  K1  1  0.250000  0.750000  0.500001  1
  Rb  Rb2  1  0.804360  0.205810  0.032990  1
  Rb  Rb3  1  0.695641  0.728631  0.401451  1
  Rb  Rb4  1  0.327180  0.294190  0.598550  1
  Rb  Rb5  1  0.172821  0.771369  0.967010  1
  Er  Er6  1  0.250000  0.250000  0.000000  1
  In  In7  1  0.750000  0.750000  0.000000  1
  As  As8  1  0.405984  0.698054  0.097451  1
  As  As9  1  0.094017  0.191469  0.292070  1
  As  As10  1  0.899398  0.801948  0.707930  1
  As  As11  1  0.600602  0.308532  0.902550  1
