# generated using pymatgen
data_SrLiNd(As3Pd10)2
_symmetry_space_group_name_H-M   'P 1'
_cell_length_a   8.89935481
_cell_length_b   8.89935545
_cell_length_c   8.89935500
_cell_angle_alpha   59.99999796
_cell_angle_beta   59.99999558
_cell_angle_gamma   59.99999514
_symmetry_Int_Tables_number   1
_chemical_formula_structural   SrLiNd(As3Pd10)2
_chemical_formula_sum   'Sr1 Li1 Nd1 As6 Pd20'
_cell_volume   498.37996107
_cell_formula_units_Z   1
loop_
 _symmetry_equiv_pos_site_id
 _symmetry_equiv_pos_as_xyz
  1  'x, y, z'
loop_
 _atom_site_type_symbol
 _atom_site_label
 _atom_site_symmetry_multiplicity
 _atom_site_fract_x
 _atom_site_fract_y
 _atom_site_fract_z
 _atom_site_occupancy
  Sr  Sr0  1  0.250000  0.250000  0.250001  1
  Li  Li1  1  0.000000  0.000000  0.000000  1
  Nd  Nd2  1  0.750000  0.750000  0.750001  1
  As  As3  1  0.738493  0.261513  0.261502  1
  As  As4  1  0.261506  0.738487  0.738498  1
  As  As5  1  0.261512  0.738493  0.261503  1
  As  As6  1  0.738488  0.261507  0.738498  1
  As  As7  1  0.261509  0.261510  0.738496  1
  As  As8  1  0.738491  0.738490  0.261504  1
  Pd  Pd9  1  0.387771  0.387771  0.387771  1
  Pd  Pd10  1  0.616538  0.616538  0.616538  1
  Pd  Pd11  1  0.387771  0.387771  0.836687  1
  Pd  Pd12  1  0.387771  0.836688  0.387771  1
  Pd  Pd13  1  0.616537  0.616537  0.150388  1
  Pd  Pd14  1  0.616538  0.150387  0.616537  1
  Pd  Pd15  1  0.836688  0.387771  0.387771  1
  Pd  Pd16  1  0.150387  0.616538  0.616538  1
  Pd  Pd17  1  0.353243  0.995561  0.995560  1
  Pd  Pd18  1  0.655637  0.995560  0.995561  1
  Pd  Pd19  1  0.995561  0.353242  0.655637  1
  Pd  Pd20  1  0.995561  0.655637  0.353242  1
  Pd  Pd21  1  0.995561  0.353243  0.995560  1
  Pd  Pd22  1  0.655636  0.995561  0.353242  1
  Pd  Pd23  1  0.995561  0.655637  0.995561  1
  Pd  Pd24  1  0.353242  0.995561  0.655637  1
  Pd  Pd25  1  0.995560  0.995561  0.353243  1
  Pd  Pd26  1  0.995560  0.995559  0.655638  1
  Pd  Pd27  1  0.655637  0.353244  0.995560  1
  Pd  Pd28  1  0.353244  0.655637  0.995559  1
