# generated using pymatgen
data_PrZn10Ni
_symmetry_space_group_name_H-M   'P 1'
_cell_length_a   8.22278229
_cell_length_b   8.22278161
_cell_length_c   8.22278132
_cell_angle_alpha   99.68846297
_cell_angle_beta   99.74243981
_cell_angle_gamma   131.49002740
_symmetry_Int_Tables_number   1
_chemical_formula_structural   PrZn10Ni
_chemical_formula_sum   'Pr2 Zn20 Ni2'
_cell_volume   379.70271381
_cell_formula_units_Z   2
loop_
 _symmetry_equiv_pos_site_id
 _symmetry_equiv_pos_as_xyz
  1  'x, y, z'
loop_
 _atom_site_type_symbol
 _atom_site_label
 _atom_site_symmetry_multiplicity
 _atom_site_fract_x
 _atom_site_fract_y
 _atom_site_fract_z
 _atom_site_occupancy
  Pr  Pr0  1  0.500220  0.500220  0.000000  1
  Pr  Pr1  1  0.749780  0.249780  0.500000  1
  Zn  Zn2  1  0.856367  0.432620  0.174954  1
  Zn  Zn3  1  0.321343  0.148630  0.588616  1
  Zn  Zn4  1  0.257666  0.432620  0.576253  1
  Zn  Zn5  1  0.321343  0.732728  0.172713  1
  Zn  Zn6  1  0.992334  0.317380  0.923747  1
  Zn  Zn7  1  0.257666  0.681413  0.825046  1
  Zn  Zn8  1  0.235775  0.735775  0.500000  1
  Zn  Zn9  1  0.992334  0.068587  0.674954  1
  Zn  Zn10  1  0.014225  0.014225  0.000000  1
  Zn  Zn11  1  0.689985  0.017272  0.088616  1
  Zn  Zn12  1  0.625000  0.875000  0.750000  1
  Zn  Zn13  1  0.393633  0.317380  0.325046  1
  Zn  Zn14  1  0.928657  0.017272  0.327287  1
  Zn  Zn15  1  0.856367  0.681413  0.423747  1
  Zn  Zn16  1  0.560015  0.732728  0.411384  1
  Zn  Zn17  1  0.689985  0.601370  0.672713  1
  Zn  Zn18  1  0.393633  0.068587  0.076253  1
  Zn  Zn19  1  0.928657  0.601370  0.911384  1
  Zn  Zn20  1  0.560015  0.148630  0.827287  1
  Zn  Zn21  1  0.125000  0.875000  0.250000  1
  Ni  Ni22  1  0.125000  0.875000  0.750000  1
  Ni  Ni23  1  0.125000  0.375000  0.250000  1
