# generated using pymatgen
data_K4Si2Au7
_symmetry_space_group_name_H-M   'P 1'
_cell_length_a   9.95720254
_cell_length_b   9.95720229
_cell_length_c   9.95720309
_cell_angle_alpha   38.47761443
_cell_angle_beta   38.47761678
_cell_angle_gamma   38.47761516
_symmetry_Int_Tables_number   1
_chemical_formula_structural   K4Si2Au7
_chemical_formula_sum   'K4 Si2 Au7'
_cell_volume   343.37796350
_cell_formula_units_Z   1
loop_
 _symmetry_equiv_pos_site_id
 _symmetry_equiv_pos_as_xyz
  1  'x, y, z'
loop_
 _atom_site_type_symbol
 _atom_site_label
 _atom_site_symmetry_multiplicity
 _atom_site_fract_x
 _atom_site_fract_y
 _atom_site_fract_z
 _atom_site_occupancy
  K  K0  1  0.682479  0.682479  0.682479  1
  K  K1  1  0.317521  0.317521  0.317521  1
  K  K2  1  0.809134  0.809134  0.809134  1
  K  K3  1  0.190866  0.190866  0.190866  1
  Si  Si4  1  0.544146  0.544146  0.544146  1
  Si  Si5  1  0.455854  0.455854  0.455854  1
  Au  Au6  1  0.000000  0.000000  0.000000  1
  Au  Au7  1  0.228561  0.228561  0.795218  1
  Au  Au8  1  0.795218  0.228561  0.228561  1
  Au  Au9  1  0.228561  0.795218  0.228561  1
  Au  Au10  1  0.771439  0.204782  0.771439  1
  Au  Au11  1  0.771439  0.771439  0.204782  1
  Au  Au12  1  0.204782  0.771439  0.771439  1
