# generated using pymatgen
data_TbHo5(BiO7)2
_symmetry_space_group_name_H-M   'P 1'
_cell_length_a   6.55072509
_cell_length_b   6.52669587
_cell_length_c   7.69572519
_cell_angle_alpha   106.90285669
_cell_angle_beta   89.70818705
_cell_angle_gamma   98.82294841
_symmetry_Int_Tables_number   1
_chemical_formula_structural   TbHo5(BiO7)2
_chemical_formula_sum   'Tb1 Ho5 Bi2 O14'
_cell_volume   310.81647055
_cell_formula_units_Z   1
loop_
 _symmetry_equiv_pos_site_id
 _symmetry_equiv_pos_as_xyz
  1  'x, y, z'
loop_
 _atom_site_type_symbol
 _atom_site_label
 _atom_site_symmetry_multiplicity
 _atom_site_fract_x
 _atom_site_fract_y
 _atom_site_fract_z
 _atom_site_occupancy
  Tb  Tb0  1  0.266099  0.523965  0.387166  1
  Ho  Ho1  1  0.462693  0.005716  0.251548  1
  Ho  Ho2  1  0.537946  0.994339  0.748424  1
  Ho  Ho3  1  0.273734  0.538057  0.882872  1
  Ho  Ho4  1  0.726717  0.462278  0.116742  1
  Ho  Ho5  1  0.730701  0.473780  0.612288  1
  Bi  Bi6  1  0.999630  0.000199  0.500260  1
  Bi  Bi7  1  0.999899  0.999728  0.999796  1
  O  O8  1  0.447523  0.649599  0.165734  1
  O  O9  1  0.553974  0.350601  0.832619  1
  O  O10  1  0.302853  0.920739  0.950721  1
  O  O11  1  0.697123  0.079442  0.048954  1
  O  O12  1  0.299799  0.924497  0.513337  1
  O  O13  1  0.699940  0.076775  0.487391  1
  O  O14  1  0.546833  0.362469  0.344695  1
  O  O15  1  0.456637  0.637406  0.656795  1
  O  O16  1  0.925466  0.665773  0.961950  1
  O  O17  1  0.074882  0.334138  0.038211  1
  O  O18  1  0.069140  0.351952  0.622440  1
  O  O19  1  0.928277  0.649263  0.378119  1
  O  O20  1  0.871894  0.898802  0.724171  1
  O  O21  1  0.128240  0.100483  0.275766  1
