# generated using pymatgen
data_Pr2B4Ir3Rh2
_symmetry_space_group_name_H-M   'P 1'
_cell_length_a   7.62300767
_cell_length_b   6.34372588
_cell_length_c   5.76136014
_cell_angle_alpha   77.89727439
_cell_angle_beta   54.45753628
_cell_angle_gamma   47.64519610
_symmetry_Int_Tables_number   1
_chemical_formula_structural   Pr2B4Ir3Rh2
_chemical_formula_sum   'Pr2 B4 Ir3 Rh2'
_cell_volume   159.67282242
_cell_formula_units_Z   1
loop_
 _symmetry_equiv_pos_site_id
 _symmetry_equiv_pos_as_xyz
  1  'x, y, z'
loop_
 _atom_site_type_symbol
 _atom_site_label
 _atom_site_symmetry_multiplicity
 _atom_site_fract_x
 _atom_site_fract_y
 _atom_site_fract_z
 _atom_site_occupancy
  Pr  Pr0  1  0.857079  0.857079  0.142921  1
  Pr  Pr1  1  0.142921  0.142921  0.857079  1
  B  B2  1  0.209680  0.526511  0.473489  1
  B  B3  1  0.790320  0.473489  0.526511  1
  B  B4  1  0.526511  0.209680  0.790320  1
  B  B5  1  0.473489  0.790320  0.209680  1
  Ir  Ir6  1  0.750000  0.750000  0.750000  1
  Ir  Ir7  1  0.250000  0.250000  0.250000  1
  Ir  Ir8  1  0.500000  0.500000  0.500000  1
  Rh  Rh9  1  0.500000  0.500000  0.000000  1
  Rh  Rh10  1  0.000000  0.000000  0.500000  1
