# generated using pymatgen
data_Be4VCr
_symmetry_space_group_name_H-M   'P 1'
_cell_length_a   4.29081800
_cell_length_b   4.29081853
_cell_length_c   6.95739200
_cell_angle_alpha   90.00000000
_cell_angle_beta   90.00000000
_cell_angle_gamma   119.99999593
_symmetry_Int_Tables_number   1
_chemical_formula_structural   Be4VCr
_chemical_formula_sum   'Be8 V2 Cr2'
_cell_volume   110.93213308
_cell_formula_units_Z   2
loop_
 _symmetry_equiv_pos_site_id
 _symmetry_equiv_pos_as_xyz
  1  'x, y, z'
loop_
 _atom_site_type_symbol
 _atom_site_label
 _atom_site_symmetry_multiplicity
 _atom_site_fract_x
 _atom_site_fract_y
 _atom_site_fract_z
 _atom_site_occupancy
  Be  Be0  1  0.000000  0.000000  0.000846  1
  Be  Be1  1  0.000000  0.000000  0.500846  1
  Be  Be2  1  0.829234  0.658467  0.249791  1
  Be  Be3  1  0.170766  0.829234  0.749791  1
  Be  Be4  1  0.658467  0.829234  0.749791  1
  Be  Be5  1  0.341533  0.170766  0.249791  1
  Be  Be6  1  0.829234  0.170766  0.249791  1
  Be  Be7  1  0.170766  0.341533  0.749791  1
  V  V8  1  0.666667  0.333333  0.934208  1
  V  V9  1  0.333333  0.666667  0.434208  1
  Cr  Cr10  1  0.333333  0.666667  0.065571  1
  Cr  Cr11  1  0.666667  0.333333  0.565571  1
