# generated using pymatgen
data_Nd7Lu13Si15Au
_symmetry_space_group_name_H-M   'P 1'
_cell_length_a   7.66393925
_cell_length_b   7.68397639
_cell_length_c   14.12319199
_cell_angle_alpha   89.80354993
_cell_angle_beta   89.57692340
_cell_angle_gamma   90.11674464
_symmetry_Int_Tables_number   1
_chemical_formula_structural   Nd7Lu13Si15Au
_chemical_formula_sum   'Nd7 Lu13 Si15 Au1'
_cell_volume   831.67878013
_cell_formula_units_Z   1
loop_
 _symmetry_equiv_pos_site_id
 _symmetry_equiv_pos_as_xyz
  1  'x, y, z'
loop_
 _atom_site_type_symbol
 _atom_site_label
 _atom_site_symmetry_multiplicity
 _atom_site_fract_x
 _atom_site_fract_y
 _atom_site_fract_z
 _atom_site_occupancy
  Nd  Nd0  1  0.357768  0.006676  0.960442  1
  Nd  Nd1  1  0.987054  0.641304  0.537345  1
  Nd  Nd2  1  0.491289  0.854648  0.211124  1
  Nd  Nd3  1  0.513629  0.147421  0.711074  1
  Nd  Nd4  1  0.857580  0.492402  0.791566  1
  Nd  Nd5  1  0.141435  0.506238  0.290499  1
  Nd  Nd6  1  0.007573  0.354681  0.040979  1
  Lu  Lu7  1  0.491949  0.358705  0.124684  1
  Lu  Lu8  1  0.988838  0.142786  0.627609  1
  Lu  Lu9  1  0.859209  0.005523  0.875192  1
  Lu  Lu10  1  0.138022  0.990202  0.373919  1
  Lu  Lu11  1  0.511715  0.640801  0.620920  1
  Lu  Lu12  1  0.360647  0.492412  0.877243  1
  Lu  Lu13  1  0.643364  0.506951  0.375425  1
  Lu  Lu14  1  0.004930  0.861153  0.126379  1
  Lu  Lu15  1  0.641171  0.997373  0.457319  1
  Lu  Lu16  1  0.316761  0.316289  0.500488  1
  Lu  Lu17  1  0.186986  0.822199  0.748028  1
  Lu  Lu18  1  0.816288  0.181513  0.251096  1
  Lu  Lu19  1  0.681347  0.681661  0.000494  1
  Si  Si20  1  0.709123  0.060445  0.062812  1
  Si  Si21  1  0.936587  0.287942  0.436826  1
  Si  Si22  1  0.440553  0.209728  0.312985  1
  Si  Si23  1  0.562730  0.788294  0.811684  1
  Si  Si24  1  0.212287  0.439855  0.688750  1
  Si  Si25  1  0.787943  0.562813  0.187187  1
  Si  Si26  1  0.061995  0.710291  0.937989  1
  Si  Si27  1  0.798096  0.847576  0.689675  1
  Si  Si28  1  0.203307  0.148367  0.187212  1
  Si  Si29  1  0.844743  0.801099  0.314062  1
  Si  Si30  1  0.355787  0.703452  0.432829  1
  Si  Si31  1  0.650514  0.296284  0.939172  1
  Si  Si32  1  0.702236  0.345066  0.559142  1
  Si  Si33  1  0.295327  0.650139  0.062063  1
  Si  Si34  1  0.149768  0.207026  0.813417  1
  Au  Au35  1  0.291445  0.940683  0.562372  1
