# generated using pymatgen
data_Pr2Tm2P7Ir8
_symmetry_space_group_name_H-M   'P 1'
_cell_length_a   3.94861900
_cell_length_b   12.79571370
_cell_length_c   13.17167770
_cell_angle_alpha   80.86234376
_cell_angle_beta   90.00000000
_cell_angle_gamma   90.00000000
_symmetry_Int_Tables_number   1
_chemical_formula_structural   Pr2Tm2P7Ir8
_chemical_formula_sum   'Pr4 Tm4 P14 Ir16'
_cell_volume   657.05877787
_cell_formula_units_Z   2
loop_
 _symmetry_equiv_pos_site_id
 _symmetry_equiv_pos_as_xyz
  1  'x, y, z'
loop_
 _atom_site_type_symbol
 _atom_site_label
 _atom_site_symmetry_multiplicity
 _atom_site_fract_x
 _atom_site_fract_y
 _atom_site_fract_z
 _atom_site_occupancy
  Pr  Pr0  1  0.750000  0.720114  0.898335  1
  Pr  Pr1  1  0.250000  0.106347  0.787194  1
  Pr  Pr2  1  0.750000  0.893653  0.212806  1
  Pr  Pr3  1  0.250000  0.279886  0.101665  1
  Tm  Tm4  1  0.750000  0.792020  0.559668  1
  Tm  Tm5  1  0.250000  0.207980  0.440332  1
  Tm  Tm6  1  0.750000  0.479394  0.705565  1
  Tm  Tm7  1  0.250000  0.520606  0.294435  1
  P  P8  1  0.250000  0.906782  0.412434  1
  P  P9  1  0.750000  0.472140  0.130493  1
  P  P10  1  0.250000  0.527860  0.869507  1
  P  P11  1  0.750000  0.093218  0.587566  1
  P  P12  1  0.250000  0.741872  0.083118  1
  P  P13  1  0.750000  0.258128  0.916882  1
  P  P14  1  0.750000  0.159042  0.285217  1
  P  P15  1  0.250000  0.840958  0.714783  1
  P  P16  1  0.250000  0.051306  0.100750  1
  P  P17  1  0.750000  0.948694  0.899250  1
  P  P18  1  0.250000  0.317637  0.686273  1
  P  P19  1  0.750000  0.682363  0.313727  1
  P  P20  1  0.250000  0.608059  0.566058  1
  P  P21  1  0.750000  0.391941  0.433942  1
  Ir  Ir22  1  0.250000  0.990701  0.575532  1
  Ir  Ir23  1  0.750000  0.009299  0.424468  1
  Ir  Ir24  1  0.250000  0.660208  0.726511  1
  Ir  Ir25  1  0.750000  0.339792  0.273489  1
  Ir  Ir26  1  0.250000  0.549237  0.050325  1
  Ir  Ir27  1  0.750000  0.450763  0.949675  1
  Ir  Ir28  1  0.250000  0.064912  0.274287  1
  Ir  Ir29  1  0.750000  0.935088  0.725713  1
  Ir  Ir30  1  0.250000  0.422475  0.521741  1
  Ir  Ir31  1  0.750000  0.577525  0.478259  1
  Ir  Ir32  1  0.250000  0.914645  0.997757  1
  Ir  Ir33  1  0.750000  0.085355  0.002243  1
  Ir  Ir34  1  0.250000  0.728152  0.397662  1
  Ir  Ir35  1  0.750000  0.271848  0.602338  1
  Ir  Ir36  1  0.250000  0.344746  0.854889  1
  Ir  Ir37  1  0.750000  0.655254  0.145111  1
