# generated using pymatgen
data_MnNb5GeB4Ru9
_symmetry_space_group_name_H-M   'P 1'
_cell_length_a   9.35699350
_cell_length_b   9.33296572
_cell_length_c   3.01103500
_cell_angle_alpha   90.00000000
_cell_angle_beta   90.00000000
_cell_angle_gamma   90.25756607
_symmetry_Int_Tables_number   1
_chemical_formula_structural   MnNb5GeB4Ru9
_chemical_formula_sum   'Mn1 Nb5 Ge1 B4 Ru9'
_cell_volume   262.94651161
_cell_formula_units_Z   1
loop_
 _symmetry_equiv_pos_site_id
 _symmetry_equiv_pos_as_xyz
  1  'x, y, z'
loop_
 _atom_site_type_symbol
 _atom_site_label
 _atom_site_symmetry_multiplicity
 _atom_site_fract_x
 _atom_site_fract_y
 _atom_site_fract_z
 _atom_site_occupancy
  Mn  Mn0  1  0.500000  0.000000  0.500000  1
  Nb  Nb1  1  0.820555  0.676528  0.000000  1
  Nb  Nb2  1  0.179445  0.323472  0.000000  1
  Nb  Nb3  1  0.331884  0.830399  0.000000  1
  Nb  Nb4  1  0.668116  0.169601  0.000000  1
  Nb  Nb5  1  0.000000  0.000000  0.000000  1
  Ge  Ge6  1  0.500000  0.500000  0.000000  1
  B  B7  1  0.609660  0.880963  0.000000  1
  B  B8  1  0.390340  0.119037  0.000000  1
  B  B9  1  0.128965  0.618240  0.000000  1
  B  B10  1  0.871035  0.381760  0.000000  1
  Ru  Ru11  1  0.000000  0.500000  0.500000  1
  Ru  Ru12  1  0.567652  0.716300  0.500000  1
  Ru  Ru13  1  0.432348  0.283700  0.500000  1
  Ru  Ru14  1  0.073262  0.781172  0.500000  1
  Ru  Ru15  1  0.926738  0.218828  0.500000  1
  Ru  Ru16  1  0.288034  0.570205  0.500000  1
  Ru  Ru17  1  0.711966  0.429795  0.500000  1
  Ru  Ru18  1  0.223097  0.070517  0.500000  1
  Ru  Ru19  1  0.776903  0.929483  0.500000  1
