# generated using pymatgen
data_LiCaUO4
_symmetry_space_group_name_H-M   'P 1'
_cell_length_a   5.20308900
_cell_length_b   6.47059800
_cell_length_c   11.32144100
_cell_angle_alpha   90.00000000
_cell_angle_beta   90.00000000
_cell_angle_gamma   90.00000000
_symmetry_Int_Tables_number   1
_chemical_formula_structural   LiCaUO4
_chemical_formula_sum   'Li4 Ca4 U4 O16'
_cell_volume   381.16005547
_cell_formula_units_Z   4
loop_
 _symmetry_equiv_pos_site_id
 _symmetry_equiv_pos_as_xyz
  1  'x, y, z'
loop_
 _atom_site_type_symbol
 _atom_site_label
 _atom_site_symmetry_multiplicity
 _atom_site_fract_x
 _atom_site_fract_y
 _atom_site_fract_z
 _atom_site_occupancy
  Li  Li0  1  0.545573  0.750000  0.906091  1
  Li  Li1  1  0.045573  0.250000  0.593909  1
  Li  Li2  1  0.454427  0.250000  0.093909  1
  Li  Li3  1  0.954427  0.750000  0.406091  1
  Ca  Ca4  1  0.500000  0.000000  0.500000  1
  Ca  Ca5  1  0.000000  0.000000  0.000000  1
  Ca  Ca6  1  0.500000  0.500000  0.500000  1
  Ca  Ca7  1  0.000000  0.500000  0.000000  1
  U  U8  1  0.992571  0.750000  0.728598  1
  U  U9  1  0.492571  0.250000  0.771402  1
  U  U10  1  0.007429  0.250000  0.271402  1
  U  U11  1  0.507429  0.750000  0.228598  1
  O  O12  1  0.186943  0.750000  0.887234  1
  O  O13  1  0.206762  0.250000  0.429046  1
  O  O14  1  0.293238  0.250000  0.929046  1
  O  O15  1  0.706762  0.750000  0.070954  1
  O  O16  1  0.259598  0.018249  0.173524  1
  O  O17  1  0.759598  0.981751  0.326476  1
  O  O18  1  0.740402  0.518249  0.826476  1
  O  O19  1  0.240402  0.481751  0.673524  1
  O  O20  1  0.740402  0.981751  0.826476  1
  O  O21  1  0.240402  0.018249  0.673524  1
  O  O22  1  0.259598  0.481751  0.173524  1
  O  O23  1  0.759598  0.518249  0.326476  1
  O  O24  1  0.813057  0.250000  0.112766  1
  O  O25  1  0.313057  0.750000  0.387234  1
  O  O26  1  0.793238  0.750000  0.570954  1
  O  O27  1  0.686943  0.250000  0.612766  1
