# generated using pymatgen
data_Sm2Zn2GaPt4
_symmetry_space_group_name_H-M   'P 1'
_cell_length_a   8.08518300
_cell_length_b   8.08518119
_cell_length_c   7.64713800
_cell_angle_alpha   90.00000000
_cell_angle_beta   90.00000000
_cell_angle_gamma   139.44112357
_symmetry_Int_Tables_number   1
_chemical_formula_structural   Sm2Zn2GaPt4
_chemical_formula_sum   'Sm4 Zn4 Ga2 Pt8'
_cell_volume   325.04608016
_cell_formula_units_Z   2
loop_
 _symmetry_equiv_pos_site_id
 _symmetry_equiv_pos_as_xyz
  1  'x, y, z'
loop_
 _atom_site_type_symbol
 _atom_site_label
 _atom_site_symmetry_multiplicity
 _atom_site_fract_x
 _atom_site_fract_y
 _atom_site_fract_z
 _atom_site_occupancy
  Sm  Sm0  1  0.112783  0.887217  0.411008  1
  Sm  Sm1  1  0.887217  0.112783  0.588992  1
  Sm  Sm2  1  0.387217  0.612783  0.911008  1
  Sm  Sm3  1  0.612783  0.387217  0.088992  1
  Zn  Zn4  1  0.022631  0.477369  0.250000  1
  Zn  Zn5  1  0.477369  0.022631  0.750000  1
  Zn  Zn6  1  0.977369  0.522631  0.750000  1
  Zn  Zn7  1  0.522631  0.977369  0.250000  1
  Ga  Ga8  1  0.000000  0.000000  0.000000  1
  Ga  Ga9  1  0.500000  0.500000  0.500000  1
  Pt  Pt10  1  0.192717  0.307283  0.250000  1
  Pt  Pt11  1  0.307283  0.192717  0.750000  1
  Pt  Pt12  1  0.807283  0.692717  0.750000  1
  Pt  Pt13  1  0.692717  0.807283  0.250000  1
  Pt  Pt14  1  0.177707  0.822293  0.025173  1
  Pt  Pt15  1  0.822293  0.177707  0.974827  1
  Pt  Pt16  1  0.322293  0.677707  0.525173  1
  Pt  Pt17  1  0.677707  0.322293  0.474827  1
