# generated using pymatgen
data_La2Tm2Al18RePd5
_symmetry_space_group_name_H-M   'P 1'
_cell_length_a   7.69821843
_cell_length_b   7.66696585
_cell_length_c   9.58184898
_cell_angle_alpha   89.74585908
_cell_angle_beta   89.87032266
_cell_angle_gamma   119.32441949
_symmetry_Int_Tables_number   1
_chemical_formula_structural   La2Tm2Al18RePd5
_chemical_formula_sum   'La2 Tm2 Al18 Re1 Pd5'
_cell_volume   493.06054136
_cell_formula_units_Z   1
loop_
 _symmetry_equiv_pos_site_id
 _symmetry_equiv_pos_as_xyz
  1  'x, y, z'
loop_
 _atom_site_type_symbol
 _atom_site_label
 _atom_site_symmetry_multiplicity
 _atom_site_fract_x
 _atom_site_fract_y
 _atom_site_fract_z
 _atom_site_occupancy
  La  La0  1  0.672850  0.996147  0.247985  1
  La  La1  1  0.327150  0.003853  0.752015  1
  Tm  Tm2  1  0.995190  0.674367  0.248303  1
  Tm  Tm3  1  0.004810  0.325633  0.751697  1
  Al  Al4  1  0.133450  0.133093  0.247070  1
  Al  Al5  1  0.866550  0.866907  0.752930  1
  Al  Al6  1  0.002841  0.334866  0.071273  1
  Al  Al7  1  0.997159  0.665134  0.928727  1
  Al  Al8  1  0.996021  0.659474  0.575838  1
  Al  Al9  1  0.333460  0.001969  0.420280  1
  Al  Al10  1  0.003979  0.340526  0.424162  1
  Al  Al11  1  0.666540  0.998031  0.579720  1
  Al  Al12  1  0.672747  0.000455  0.923307  1
  Al  Al13  1  0.327253  0.999545  0.076693  1
  Al  Al14  1  0.333389  0.336036  0.553170  1
  Al  Al15  1  0.666611  0.663965  0.446830  1
  Al  Al16  1  0.671284  0.668303  0.048619  1
  Al  Al17  1  0.328716  0.331698  0.951381  1
  Al  Al18  1  0.337400  0.545524  0.249673  1
  Al  Al19  1  0.662600  0.454476  0.750327  1
  Al  Al20  1  0.550339  0.348605  0.249012  1
  Al  Al21  1  0.449661  0.651395  0.750988  1
  Re  Re22  1  0.000000  0.000000  0.000000  1
  Pd  Pd23  1  0.671752  0.328978  0.999963  1
  Pd  Pd24  1  0.328248  0.671022  0.000037  1
  Pd  Pd25  1  0.327698  0.671772  0.500379  1
  Pd  Pd26  1  0.672302  0.328228  0.499621  1
  Pd  Pd27  1  0.000000  0.000000  0.500000  1
