# generated using pymatgen
data_Zr4Pd11Rh
_symmetry_space_group_name_H-M   'P 1'
_cell_length_a   5.68475400
_cell_length_b   5.71435692
_cell_length_c   9.30614208
_cell_angle_alpha   90.85573497
_cell_angle_beta   90.00000000
_cell_angle_gamma   119.82876813
_symmetry_Int_Tables_number   1
_chemical_formula_structural   Zr4Pd11Rh
_chemical_formula_sum   'Zr4 Pd11 Rh1'
_cell_volume   262.21754703
_cell_formula_units_Z   1
loop_
 _symmetry_equiv_pos_site_id
 _symmetry_equiv_pos_as_xyz
  1  'x, y, z'
loop_
 _atom_site_type_symbol
 _atom_site_label
 _atom_site_symmetry_multiplicity
 _atom_site_fract_x
 _atom_site_fract_y
 _atom_site_fract_z
 _atom_site_occupancy
  Zr  Zr0  1  0.000000  0.000000  0.500000  1
  Zr  Zr1  1  0.000000  0.000000  0.000000  1
  Zr  Zr2  1  0.336998  0.673996  0.255359  1
  Zr  Zr3  1  0.663002  0.326004  0.744641  1
  Pd  Pd4  1  0.500000  0.500000  0.500000  1
  Pd  Pd5  1  0.000000  0.500000  0.500000  1
  Pd  Pd6  1  0.500000  0.500000  0.000000  1
  Pd  Pd7  1  0.500000  0.000000  0.000000  1
  Pd  Pd8  1  0.000000  0.500000  0.000000  1
  Pd  Pd9  1  0.832105  0.172383  0.249355  1
  Pd  Pd10  1  0.831434  0.662868  0.249013  1
  Pd  Pd11  1  0.340279  0.172383  0.249355  1
  Pd  Pd12  1  0.167895  0.827617  0.750645  1
  Pd  Pd13  1  0.168566  0.337132  0.750987  1
  Pd  Pd14  1  0.659721  0.827617  0.750645  1
  Rh  Rh15  1  0.500000  0.000000  0.500000  1
