# generated using pymatgen
data_Ce8Al8IrOs7
_symmetry_space_group_name_H-M   'P 1'
_cell_length_a   4.14527900
_cell_length_b   7.13993611
_cell_length_c   15.91369994
_cell_angle_alpha   90.35708295
_cell_angle_beta   90.00000000
_cell_angle_gamma   90.00000000
_symmetry_Int_Tables_number   1
_chemical_formula_structural   Ce8Al8IrOs7
_chemical_formula_sum   'Ce8 Al8 Ir1 Os7'
_cell_volume   470.98906352
_cell_formula_units_Z   1
loop_
 _symmetry_equiv_pos_site_id
 _symmetry_equiv_pos_as_xyz
  1  'x, y, z'
loop_
 _atom_site_type_symbol
 _atom_site_label
 _atom_site_symmetry_multiplicity
 _atom_site_fract_x
 _atom_site_fract_y
 _atom_site_fract_z
 _atom_site_occupancy
  Ce  Ce0  1  0.750000  0.958481  0.218530  1
  Ce  Ce1  1  0.250000  0.166873  0.560958  1
  Ce  Ce2  1  0.750000  0.836197  0.436886  1
  Ce  Ce3  1  0.750000  0.457857  0.281033  1
  Ce  Ce4  1  0.750000  0.333376  0.061336  1
  Ce  Ce5  1  0.250000  0.666416  0.938972  1
  Ce  Ce6  1  0.250000  0.042266  0.781350  1
  Ce  Ce7  1  0.250000  0.540248  0.721286  1
  Al  Al8  1  0.750000  0.503773  0.563759  1
  Al  Al9  1  0.750000  0.366356  0.849924  1
  Al  Al10  1  0.750000  0.002574  0.936303  1
  Al  Al11  1  0.750000  0.866639  0.650534  1
  Al  Al12  1  0.250000  0.497478  0.436463  1
  Al  Al13  1  0.250000  0.997229  0.063581  1
  Al  Al14  1  0.250000  0.633052  0.150446  1
  Al  Al15  1  0.250000  0.133004  0.349404  1
  Ir  Ir16  1  0.250000  0.735093  0.566278  1
  Os  Os17  1  0.750000  0.741964  0.815326  1
  Os  Os18  1  0.250000  0.235655  0.934078  1
  Os  Os19  1  0.750000  0.264738  0.434409  1
  Os  Os20  1  0.250000  0.755423  0.316441  1
  Os  Os21  1  0.750000  0.764015  0.065600  1
  Os  Os22  1  0.750000  0.243739  0.683066  1
  Os  Os23  1  0.250000  0.257554  0.184040  1
