# generated using pymatgen
data_Hf18FeCuMo8
_symmetry_space_group_name_H-M   'P 1'
_cell_length_a   8.49040500
_cell_length_b   8.67763293
_cell_length_c   8.67763250
_cell_angle_alpha   120.00169094
_cell_angle_beta   90.00000000
_cell_angle_gamma   90.00000000
_symmetry_Int_Tables_number   1
_chemical_formula_structural   Hf18FeCuMo8
_chemical_formula_sum   'Hf18 Fe1 Cu1 Mo8'
_cell_volume   553.67404774
_cell_formula_units_Z   1
loop_
 _symmetry_equiv_pos_site_id
 _symmetry_equiv_pos_as_xyz
  1  'x, y, z'
loop_
 _atom_site_type_symbol
 _atom_site_label
 _atom_site_symmetry_multiplicity
 _atom_site_fract_x
 _atom_site_fract_y
 _atom_site_fract_z
 _atom_site_occupancy
  Hf  Hf0  1  0.553876  0.802290  0.604581  1
  Hf  Hf1  1  0.553887  0.802289  0.197711  1
  Hf  Hf2  1  0.553876  0.395419  0.197710  1
  Hf  Hf3  1  0.441269  0.202612  0.405224  1
  Hf  Hf4  1  0.441232  0.202616  0.797384  1
  Hf  Hf5  1  0.441269  0.594776  0.797388  1
  Hf  Hf6  1  0.058731  0.202612  0.405224  1
  Hf  Hf7  1  0.058768  0.202616  0.797384  1
  Hf  Hf8  1  0.058731  0.594776  0.797388  1
  Hf  Hf9  1  0.946124  0.802290  0.604581  1
  Hf  Hf10  1  0.946113  0.802289  0.197711  1
  Hf  Hf11  1  0.946124  0.395419  0.197710  1
  Hf  Hf12  1  0.750000  0.458171  0.916389  1
  Hf  Hf13  1  0.750000  0.458199  0.541801  1
  Hf  Hf14  1  0.750000  0.083611  0.541829  1
  Hf  Hf15  1  0.250000  0.541288  0.082548  1
  Hf  Hf16  1  0.250000  0.541276  0.458724  1
  Hf  Hf17  1  0.250000  0.917452  0.458712  1
  Fe  Fe18  1  0.250000  0.333370  0.666630  1
  Cu  Cu19  1  0.750000  0.666652  0.333348  1
  Mo  Mo20  1  0.750000  0.112127  0.224270  1
  Mo  Mo21  1  0.750000  0.112121  0.887879  1
  Mo  Mo22  1  0.750000  0.775730  0.887873  1
  Mo  Mo23  1  0.250000  0.887901  0.775795  1
  Mo  Mo24  1  0.250000  0.887901  0.112099  1
  Mo  Mo25  1  0.250000  0.224205  0.112099  1
  Mo  Mo26  1  0.497837  0.999995  0.000005  1
  Mo  Mo27  1  0.002163  0.999995  0.000005  1
