# generated using pymatgen
data_Tb2Dy2Al24Pt7Au2
_symmetry_space_group_name_H-M   'P 1'
_cell_length_a   7.56865491
_cell_length_b   7.58540206
_cell_length_c   13.16259702
_cell_angle_alpha   84.53017136
_cell_angle_beta   78.98288046
_cell_angle_gamma   59.92723959
_symmetry_Int_Tables_number   1
_chemical_formula_structural   Tb2Dy2Al24Pt7Au2
_chemical_formula_sum   'Tb2 Dy2 Al24 Pt7 Au2'
_cell_volume   641.90671253
_cell_formula_units_Z   1
loop_
 _symmetry_equiv_pos_site_id
 _symmetry_equiv_pos_as_xyz
  1  'x, y, z'
loop_
 _atom_site_type_symbol
 _atom_site_label
 _atom_site_symmetry_multiplicity
 _atom_site_fract_x
 _atom_site_fract_y
 _atom_site_fract_z
 _atom_site_occupancy
  Tb  Tb0  1  0.392359  0.169450  0.809256  1
  Tb  Tb1  1  0.607641  0.830550  0.190744  1
  Dy  Dy2  1  0.733693  0.498985  0.810055  1
  Dy  Dy3  1  0.266307  0.501015  0.189945  1
  Al  Al4  1  0.683187  0.834313  0.944990  1
  Al  Al5  1  0.316813  0.165687  0.055010  1
  Al  Al6  1  0.145912  0.839068  0.562258  1
  Al  Al7  1  0.854088  0.160932  0.437742  1
  Al  Al8  1  0.487906  0.159498  0.559586  1
  Al  Al9  1  0.512094  0.840502  0.440414  1
  Al  Al10  1  0.222755  0.160562  0.326492  1
  Al  Al11  1  0.777245  0.839438  0.673508  1
  Al  Al12  1  0.440378  0.506631  0.673721  1
  Al  Al13  1  0.559622  0.493369  0.326279  1
  Al  Al14  1  0.109305  0.154672  0.672461  1
  Al  Al15  1  0.890695  0.845328  0.327539  1
  Al  Al16  1  0.352929  0.499141  0.944727  1
  Al  Al17  1  0.647071  0.500859  0.055273  1
  Al  Al18  1  0.015419  0.167269  0.953655  1
  Al  Al19  1  0.984581  0.832731  0.046345  1
  Al  Al20  1  0.195203  0.499331  0.437432  1
  Al  Al21  1  0.804797  0.500669  0.562568  1
  Al  Al22  1  0.732666  0.164720  0.183278  1
  Al  Al23  1  0.267334  0.835280  0.816722  1
  Al  Al24  1  0.060373  0.633752  0.817696  1
  Al  Al25  1  0.939627  0.366248  0.182304  1
  Al  Al26  1  0.854346  0.042265  0.816227  1
  Al  Al27  1  0.145654  0.957735  0.183773  1
  Pt  Pt28  1  0.657426  0.171655  0.999759  1
  Pt  Pt29  1  0.342574  0.828345  0.000241  1
  Pt  Pt30  1  0.537301  0.166856  0.362213  1
  Pt  Pt31  1  0.462699  0.833144  0.637787  1
  Pt  Pt32  1  0.779945  0.175193  0.636576  1
  Pt  Pt33  1  0.220055  0.824807  0.363424  1
  Pt  Pt34  1  0.000000  0.500000  0.000000  1
  Au  Au35  1  0.120173  0.490772  0.637881  1
  Au  Au36  1  0.879827  0.509228  0.362119  1
