# generated using pymatgen
data_Tm4Mg(SiB4)2
_symmetry_space_group_name_H-M   'P 1'
_cell_length_a   7.11029000
_cell_length_b   7.11029000
_cell_length_c   7.71533300
_cell_angle_alpha   90.00000000
_cell_angle_beta   90.00000000
_cell_angle_gamma   90.00000000
_symmetry_Int_Tables_number   1
_chemical_formula_structural   Tm4Mg(SiB4)2
_chemical_formula_sum   'Tm8 Mg2 Si4 B16'
_cell_volume   390.05810249
_cell_formula_units_Z   2
loop_
 _symmetry_equiv_pos_site_id
 _symmetry_equiv_pos_as_xyz
  1  'x, y, z'
loop_
 _atom_site_type_symbol
 _atom_site_label
 _atom_site_symmetry_multiplicity
 _atom_site_fract_x
 _atom_site_fract_y
 _atom_site_fract_z
 _atom_site_occupancy
  Tm  Tm0  1  0.682105  0.182105  0.231471  1
  Tm  Tm1  1  0.317895  0.817895  0.768529  1
  Tm  Tm2  1  0.317895  0.817895  0.231471  1
  Tm  Tm3  1  0.817895  0.682105  0.231471  1
  Tm  Tm4  1  0.817895  0.682105  0.768529  1
  Tm  Tm5  1  0.682105  0.182105  0.768529  1
  Tm  Tm6  1  0.182105  0.317895  0.768529  1
  Tm  Tm7  1  0.182105  0.317895  0.231471  1
  Mg  Mg8  1  0.000000  0.000000  0.500000  1
  Mg  Mg9  1  0.500000  0.500000  0.500000  1
  Si  Si10  1  0.115679  0.615679  0.500000  1
  Si  Si11  1  0.884321  0.384321  0.500000  1
  Si  Si12  1  0.384321  0.115679  0.500000  1
  Si  Si13  1  0.615679  0.884321  0.500000  1
  B  B14  1  0.174074  0.039354  0.000000  1
  B  B15  1  0.825926  0.960646  0.000000  1
  B  B16  1  0.960646  0.174074  0.000000  1
  B  B17  1  0.325926  0.539354  0.000000  1
  B  B18  1  0.039354  0.825926  0.000000  1
  B  B19  1  0.674074  0.460646  0.000000  1
  B  B20  1  0.539354  0.674074  0.000000  1
  B  B21  1  0.460646  0.325926  0.000000  1
  B  B22  1  0.088639  0.588639  0.000000  1
  B  B23  1  0.911361  0.411361  0.000000  1
  B  B24  1  0.411361  0.088639  0.000000  1
  B  B25  1  0.588639  0.911361  0.000000  1
  B  B26  1  0.000000  0.000000  0.166365  1
  B  B27  1  0.000000  0.000000  0.833635  1
  B  B28  1  0.500000  0.500000  0.833635  1
  B  B29  1  0.500000  0.500000  0.166365  1
