# generated using pymatgen
data_Ho2TmIn3CoPt2
_symmetry_space_group_name_H-M   'P 1'
_cell_length_a   7.64050041
_cell_length_b   7.65471332
_cell_length_c   3.78778200
_cell_angle_alpha   90.00000000
_cell_angle_beta   90.00000000
_cell_angle_gamma   120.06155438
_symmetry_Int_Tables_number   1
_chemical_formula_structural   Ho2TmIn3CoPt2
_chemical_formula_sum   'Ho2 Tm1 In3 Co1 Pt2'
_cell_volume   191.73289528
_cell_formula_units_Z   1
loop_
 _symmetry_equiv_pos_site_id
 _symmetry_equiv_pos_as_xyz
  1  'x, y, z'
loop_
 _atom_site_type_symbol
 _atom_site_label
 _atom_site_symmetry_multiplicity
 _atom_site_fract_x
 _atom_site_fract_y
 _atom_site_fract_z
 _atom_site_occupancy
  Ho  Ho0  1  0.405169  0.404933  0.500000  1
  Ho  Ho1  1  0.594831  0.999765  0.500000  1
  Tm  Tm2  1  0.000000  0.595288  0.500000  1
  In  In3  1  0.000000  0.248629  0.000000  1
  In  In4  1  0.751939  0.751416  0.000000  1
  In  In5  1  0.248061  0.999477  0.000000  1
  Co  Co6  1  0.000000  0.999294  0.500000  1
  Pt  Pt7  1  0.668646  0.334921  0.000000  1
  Pt  Pt8  1  0.331354  0.666276  0.000000  1
