# generated using pymatgen
data_Y2Er2Ga5Ir9
_symmetry_space_group_name_H-M   'P 1'
_cell_length_a   5.56643800
_cell_length_b   5.56643775
_cell_length_c   23.63938400
_cell_angle_alpha   90.00000000
_cell_angle_beta   90.00000000
_cell_angle_gamma   119.99998963
_symmetry_Int_Tables_number   1
_chemical_formula_structural   Y2Er2Ga5Ir9
_chemical_formula_sum   'Y4 Er4 Ga10 Ir18'
_cell_volume   634.33922171
_cell_formula_units_Z   2
loop_
 _symmetry_equiv_pos_site_id
 _symmetry_equiv_pos_as_xyz
  1  'x, y, z'
loop_
 _atom_site_type_symbol
 _atom_site_label
 _atom_site_symmetry_multiplicity
 _atom_site_fract_x
 _atom_site_fract_y
 _atom_site_fract_z
 _atom_site_occupancy
  Y  Y0  1  0.333333  0.666667  0.677560  1
  Y  Y1  1  0.666667  0.333333  0.322440  1
  Y  Y2  1  0.666667  0.333333  0.177560  1
  Y  Y3  1  0.333333  0.666667  0.822440  1
  Er  Er4  1  0.333333  0.666667  0.529498  1
  Er  Er5  1  0.666667  0.333333  0.470502  1
  Er  Er6  1  0.666667  0.333333  0.029498  1
  Er  Er7  1  0.333333  0.666667  0.970502  1
  Ga  Ga8  1  0.000000  0.000000  0.000000  1
  Ga  Ga9  1  0.000000  0.000000  0.500000  1
  Ga  Ga10  1  0.333333  0.666667  0.167871  1
  Ga  Ga11  1  0.666667  0.333333  0.832129  1
  Ga  Ga12  1  0.666667  0.333333  0.667871  1
  Ga  Ga13  1  0.333333  0.666667  0.332129  1
  Ga  Ga14  1  0.000000  0.000000  0.165136  1
  Ga  Ga15  1  0.000000  0.000000  0.834864  1
  Ga  Ga16  1  0.000000  0.000000  0.665136  1
  Ga  Ga17  1  0.000000  0.000000  0.334864  1
  Ir  Ir18  1  0.170778  0.341554  0.082970  1
  Ir  Ir19  1  0.829222  0.658446  0.917030  1
  Ir  Ir20  1  0.658446  0.829222  0.082970  1
  Ir  Ir21  1  0.829222  0.658446  0.582970  1
  Ir  Ir22  1  0.341554  0.170778  0.917030  1
  Ir  Ir23  1  0.170778  0.341554  0.417030  1
  Ir  Ir24  1  0.170778  0.829222  0.082970  1
  Ir  Ir25  1  0.341554  0.170778  0.582970  1
  Ir  Ir26  1  0.829222  0.170778  0.917030  1
  Ir  Ir27  1  0.658446  0.829222  0.417030  1
  Ir  Ir28  1  0.829222  0.170778  0.582970  1
  Ir  Ir29  1  0.170778  0.829222  0.417030  1
  Ir  Ir30  1  0.165303  0.330603  0.250000  1
  Ir  Ir31  1  0.834697  0.669397  0.750000  1
  Ir  Ir32  1  0.669397  0.834697  0.250000  1
  Ir  Ir33  1  0.330603  0.165303  0.750000  1
  Ir  Ir34  1  0.165303  0.834697  0.250000  1
  Ir  Ir35  1  0.834697  0.165303  0.750000  1
