# generated using pymatgen
data_Sc4NbSi8Tc5
_symmetry_space_group_name_H-M   'P 1'
_cell_length_a   6.66086700
_cell_length_b   6.66279133
_cell_length_c   12.50467613
_cell_angle_alpha   89.97200174
_cell_angle_beta   90.00000000
_cell_angle_gamma   90.00000000
_symmetry_Int_Tables_number   1
_chemical_formula_structural   Sc4NbSi8Tc5
_chemical_formula_sum   'Sc8 Nb2 Si16 Tc10'
_cell_volume   554.95704677
_cell_formula_units_Z   2
loop_
 _symmetry_equiv_pos_site_id
 _symmetry_equiv_pos_as_xyz
  1  'x, y, z'
loop_
 _atom_site_type_symbol
 _atom_site_label
 _atom_site_symmetry_multiplicity
 _atom_site_fract_x
 _atom_site_fract_y
 _atom_site_fract_z
 _atom_site_occupancy
  Sc  Sc0  1  0.007385  0.660102  0.032312  1
  Sc  Sc1  1  0.993166  0.342111  0.530139  1
  Sc  Sc2  1  0.341344  0.991166  0.467635  1
  Sc  Sc3  1  0.158308  0.494496  0.781257  1
  Sc  Sc4  1  0.841344  0.508834  0.282365  1
  Sc  Sc5  1  0.493166  0.157889  0.219861  1
  Sc  Sc6  1  0.507385  0.839898  0.717688  1
  Sc  Sc7  1  0.658308  0.005504  0.968743  1
  Nb  Nb8  1  0.335039  0.335042  0.001531  1
  Nb  Nb9  1  0.835039  0.164958  0.748469  1
  Si  Si10  1  0.024063  0.725363  0.438449  1
  Si  Si11  1  0.621362  0.304051  0.429309  1
  Si  Si12  1  0.374362  0.704499  0.929076  1
  Si  Si13  1  0.202890  0.126471  0.678253  1
  Si  Si14  1  0.304581  0.620540  0.570497  1
  Si  Si15  1  0.702890  0.373529  0.071747  1
  Si  Si16  1  0.804581  0.879460  0.179503  1
  Si  Si17  1  0.121362  0.195949  0.320691  1
  Si  Si18  1  0.967435  0.286826  0.939777  1
  Si  Si19  1  0.721284  0.021197  0.555488  1
  Si  Si20  1  0.221284  0.478803  0.194512  1
  Si  Si21  1  0.782459  0.533837  0.683933  1
  Si  Si22  1  0.467435  0.213174  0.810223  1
  Si  Si23  1  0.524063  0.774637  0.311551  1
  Si  Si24  1  0.282459  0.966163  0.066067  1
  Si  Si25  1  0.874362  0.795501  0.820924  1
  Tc  Tc26  1  0.668197  0.666066  0.498434  1
  Tc  Tc27  1  0.168197  0.833934  0.251566  1
  Tc  Tc28  1  0.016216  0.822864  0.632306  1
  Tc  Tc29  1  0.992939  0.185309  0.135034  1
  Tc  Tc30  1  0.813488  0.017918  0.363513  1
  Tc  Tc31  1  0.313488  0.482082  0.386487  1
  Tc  Tc32  1  0.675481  0.504638  0.880112  1
  Tc  Tc33  1  0.492939  0.314691  0.614966  1
  Tc  Tc34  1  0.516216  0.677136  0.117694  1
  Tc  Tc35  1  0.175481  0.995362  0.869888  1
