# generated using pymatgen
data_Hf4ZrZnSn2Bi
_symmetry_space_group_name_H-M   'P 1'
_cell_length_a   8.71694428
_cell_length_b   8.69421308
_cell_length_c   5.84989100
_cell_angle_alpha   90.00000000
_cell_angle_beta   90.00000000
_cell_angle_gamma   119.91376277
_symmetry_Int_Tables_number   1
_chemical_formula_structural   Hf4ZrZnSn2Bi
_chemical_formula_sum   'Hf8 Zr2 Zn2 Sn4 Bi2'
_cell_volume   384.28169261
_cell_formula_units_Z   2
loop_
 _symmetry_equiv_pos_site_id
 _symmetry_equiv_pos_as_xyz
  1  'x, y, z'
loop_
 _atom_site_type_symbol
 _atom_site_label
 _atom_site_symmetry_multiplicity
 _atom_site_fract_x
 _atom_site_fract_y
 _atom_site_fract_z
 _atom_site_occupancy
  Hf  Hf0  1  0.005893  0.271764  0.250000  1
  Hf  Hf1  1  0.005893  0.734128  0.750000  1
  Hf  Hf2  1  0.264108  0.265622  0.750000  1
  Hf  Hf3  1  0.264108  0.998486  0.250000  1
  Hf  Hf4  1  0.326290  0.663145  0.500000  1
  Hf  Hf5  1  0.667338  0.333668  0.000000  1
  Hf  Hf6  1  0.667338  0.333668  0.500000  1
  Hf  Hf7  1  0.326290  0.663145  0.000000  1
  Zr  Zr8  1  0.736116  0.729888  0.250000  1
  Zr  Zr9  1  0.736116  0.006227  0.750000  1
  Zn  Zn10  1  0.002013  0.001007  0.000000  1
  Zn  Zn11  1  0.002013  0.001007  0.500000  1
  Sn  Sn12  1  0.384639  0.000913  0.750000  1
  Sn  Sn13  1  0.384639  0.383725  0.250000  1
  Sn  Sn14  1  0.999290  0.612702  0.250000  1
  Sn  Sn15  1  0.999290  0.386588  0.750000  1
  Bi  Bi16  1  0.614316  0.615111  0.750000  1
  Bi  Bi17  1  0.614316  0.999204  0.250000  1
