# generated using pymatgen
data_Sr2In3SnPt4
_symmetry_space_group_name_H-M   'P 1'
_cell_length_a   4.86635661
_cell_length_b   4.67083700
_cell_length_c   10.60763700
_cell_angle_alpha   90.00000000
_cell_angle_beta   93.20901698
_cell_angle_gamma   90.00000000
_symmetry_Int_Tables_number   1
_chemical_formula_structural   Sr2In3SnPt4
_chemical_formula_sum   'Sr2 In3 Sn1 Pt4'
_cell_volume   240.73307854
_cell_formula_units_Z   1
loop_
 _symmetry_equiv_pos_site_id
 _symmetry_equiv_pos_as_xyz
  1  'x, y, z'
loop_
 _atom_site_type_symbol
 _atom_site_label
 _atom_site_symmetry_multiplicity
 _atom_site_fract_x
 _atom_site_fract_y
 _atom_site_fract_z
 _atom_site_occupancy
  Sr  Sr0  1  0.732312  0.249999  0.241752  1
  Sr  Sr1  1  0.261135  0.749999  0.758938  1
  In  In2  1  0.196775  0.749999  0.114904  1
  In  In3  1  0.743089  0.749999  0.497281  1
  In  In4  1  0.252447  0.249999  0.504638  1
  Sn  Sn5  1  0.812389  0.249999  0.886836  1
  Pt  Pt6  1  0.325145  0.249999  0.995952  1
  Pt  Pt7  1  0.227219  0.749999  0.368759  1
  Pt  Pt8  1  0.768579  0.249999  0.635858  1
  Pt  Pt9  1  0.680910  0.749999  0.995077  1
