# generated using pymatgen
data_PuNb6SbS12
_symmetry_space_group_name_H-M   'P 1'
_cell_length_a   5.80189637
_cell_length_b   5.81143783
_cell_length_c   14.20113200
_cell_angle_alpha   89.81760560
_cell_angle_beta   90.09134706
_cell_angle_gamma   120.05443082
_symmetry_Int_Tables_number   1
_chemical_formula_structural   PuNb6SbS12
_chemical_formula_sum   'Pu1 Nb6 Sb1 S12'
_cell_volume   414.44460937
_cell_formula_units_Z   1
loop_
 _symmetry_equiv_pos_site_id
 _symmetry_equiv_pos_as_xyz
  1  'x, y, z'
loop_
 _atom_site_type_symbol
 _atom_site_label
 _atom_site_symmetry_multiplicity
 _atom_site_fract_x
 _atom_site_fract_y
 _atom_site_fract_z
 _atom_site_occupancy
  Pu  Pu0  1  0.000000  0.000000  0.000000  1
  Nb  Nb1  1  0.333339  0.667086  0.250992  1
  Nb  Nb2  1  0.666661  0.332914  0.749008  1
  Nb  Nb3  1  0.666661  0.333746  0.250992  1
  Nb  Nb4  1  0.333339  0.666254  0.749008  1
  Nb  Nb5  1  0.000000  0.999920  0.250433  1
  Nb  Nb6  1  0.000000  0.000080  0.749567  1
  Sb  Sb7  1  0.000000  0.000000  0.500000  1
  S  S8  1  0.335168  0.000568  0.138968  1
  S  S9  1  0.000000  0.338089  0.138511  1
  S  S10  1  0.664832  0.665401  0.138968  1
  S  S11  1  0.336927  0.337750  0.637317  1
  S  S12  1  0.663073  0.662250  0.362683  1
  S  S13  1  0.663073  0.000823  0.637317  1
  S  S14  1  0.000000  0.664127  0.637577  1
  S  S15  1  0.000000  0.661911  0.861489  1
  S  S16  1  0.335168  0.334599  0.861032  1
  S  S17  1  0.000000  0.335873  0.362423  1
  S  S18  1  0.336927  0.999177  0.362683  1
  S  S19  1  0.664832  0.999432  0.861032  1
