# generated using pymatgen
data_MnIr3O8
_symmetry_space_group_name_H-M   'P 1'
_cell_length_a   4.54803318
_cell_length_b   5.55133166
_cell_length_c   5.54904901
_cell_angle_alpha   70.26036030
_cell_angle_beta   89.75957219
_cell_angle_gamma   89.73898266
_symmetry_Int_Tables_number   1
_chemical_formula_structural   MnIr3O8
_chemical_formula_sum   'Mn1 Ir3 O8'
_cell_volume   131.86579589
_cell_formula_units_Z   1
loop_
 _symmetry_equiv_pos_site_id
 _symmetry_equiv_pos_as_xyz
  1  'x, y, z'
loop_
 _atom_site_type_symbol
 _atom_site_label
 _atom_site_symmetry_multiplicity
 _atom_site_fract_x
 _atom_site_fract_y
 _atom_site_fract_z
 _atom_site_occupancy
  Mn  Mn0  1  0.500000  0.000000  0.500000  1
  Ir  Ir1  1  0.000000  0.500000  0.500000  1
  Ir  Ir2  1  0.500000  0.500000  0.000000  1
  Ir  Ir3  1  0.000000  0.000000  0.000000  1
  O  O4  1  0.303121  0.161576  0.140158  1
  O  O5  1  0.303094  0.640082  0.661645  1
  O  O6  1  0.183697  0.149851  0.649869  1
  O  O7  1  0.196230  0.657859  0.157879  1
  O  O8  1  0.696906  0.359918  0.338355  1
  O  O9  1  0.696879  0.838424  0.859842  1
  O  O10  1  0.816303  0.850149  0.350131  1
  O  O11  1  0.803770  0.342141  0.842121  1
