# generated using pymatgen
data_Tm20IrRh11
_symmetry_space_group_name_H-M   'P 1'
_cell_length_a   10.65727118
_cell_length_b   10.65727135
_cell_length_c   6.27642200
_cell_angle_alpha   90.01062340
_cell_angle_beta   90.01062878
_cell_angle_gamma   90.05643754
_symmetry_Int_Tables_number   1
_chemical_formula_structural   Tm20IrRh11
_chemical_formula_sum   'Tm20 Ir1 Rh11'
_cell_volume   712.85951558
_cell_formula_units_Z   1
loop_
 _symmetry_equiv_pos_site_id
 _symmetry_equiv_pos_as_xyz
  1  'x, y, z'
loop_
 _atom_site_type_symbol
 _atom_site_label
 _atom_site_symmetry_multiplicity
 _atom_site_fract_x
 _atom_site_fract_y
 _atom_site_fract_z
 _atom_site_occupancy
  Tm  Tm0  1  0.290962  0.088067  0.377838  1
  Tm  Tm1  1  0.291286  0.910478  0.877806  1
  Tm  Tm2  1  0.708942  0.087880  0.877596  1
  Tm  Tm3  1  0.708748  0.911781  0.377469  1
  Tm  Tm4  1  0.586510  0.790454  0.877269  1
  Tm  Tm5  1  0.588191  0.208957  0.378101  1
  Tm  Tm6  1  0.411473  0.790643  0.378394  1
  Tm  Tm7  1  0.411674  0.208640  0.877380  1
  Tm  Tm8  1  0.209546  0.413490  0.622731  1
  Tm  Tm9  1  0.209357  0.588527  0.121606  1
  Tm  Tm10  1  0.791043  0.411809  0.121899  1
  Tm  Tm11  1  0.791360  0.588326  0.622620  1
  Tm  Tm12  1  0.911933  0.709038  0.122162  1
  Tm  Tm13  1  0.912120  0.291058  0.622404  1
  Tm  Tm14  1  0.089522  0.708714  0.622194  1
  Tm  Tm15  1  0.088219  0.291252  0.122531  1
  Tm  Tm16  1  0.999740  0.999937  0.500179  1
  Tm  Tm17  1  0.000063  0.000260  0.999821  1
  Tm  Tm18  1  0.499957  0.499810  0.000256  1
  Tm  Tm19  1  0.500190  0.500043  0.499744  1
  Ir  Ir20  1  0.346119  0.653881  0.750000  1
  Rh  Rh21  1  0.845985  0.154015  0.250000  1
  Rh  Rh22  1  0.845546  0.846164  0.750280  1
  Rh  Rh23  1  0.153836  0.154454  0.749720  1
  Rh  Rh24  1  0.153374  0.846626  0.250000  1
  Rh  Rh25  1  0.653980  0.346020  0.750000  1
  Rh  Rh26  1  0.654935  0.653921  0.249992  1
  Rh  Rh27  1  0.346079  0.345065  0.250008  1
  Rh  Rh28  1  0.500222  0.000571  0.125994  1
  Rh  Rh29  1  0.500313  0.000648  0.625339  1
  Rh  Rh30  1  0.999352  0.499687  0.874661  1
  Rh  Rh31  1  0.999429  0.499778  0.374006  1
