# generated using pymatgen
data_Al6Cu6Pd5Pt7
_symmetry_space_group_name_H-M   'P 1'
_cell_length_a   4.04292300
_cell_length_b   6.88796212
_cell_length_c   12.13002122
_cell_angle_alpha   90.02165367
_cell_angle_beta   89.99993859
_cell_angle_gamma   89.99996920
_symmetry_Int_Tables_number   1
_chemical_formula_structural   Al6Cu6Pd5Pt7
_chemical_formula_sum   'Al6 Cu6 Pd5 Pt7'
_cell_volume   337.79074765
_cell_formula_units_Z   1
loop_
 _symmetry_equiv_pos_site_id
 _symmetry_equiv_pos_as_xyz
  1  'x, y, z'
loop_
 _atom_site_type_symbol
 _atom_site_label
 _atom_site_symmetry_multiplicity
 _atom_site_fract_x
 _atom_site_fract_y
 _atom_site_fract_z
 _atom_site_occupancy
  Al  Al0  1  0.000001  0.500039  0.000821  1
  Al  Al1  1  0.499989  0.999935  0.166536  1
  Al  Al2  1  0.999992  0.499932  0.333097  1
  Al  Al3  1  0.500001  0.000897  0.498900  1
  Al  Al4  1  0.000011  0.499427  0.665898  1
  Al  Al5  1  0.500013  0.999851  0.834685  1
  Cu  Cu6  1  0.000003  0.999984  0.999316  1
  Cu  Cu7  1  0.499948  0.499984  0.166740  1
  Cu  Cu8  1  0.999989  0.999422  0.333820  1
  Cu  Cu9  1  0.500018  0.500506  0.500526  1
  Cu  Cu10  1  0.000008  0.999937  0.666660  1
  Cu  Cu11  1  0.500019  0.500081  0.833113  1
  Pd  Pd12  1  0.000002  0.749832  0.500515  1
  Pd  Pd13  1  0.500014  0.249709  0.667140  1
  Pd  Pd14  1  0.500016  0.750282  0.666797  1
  Pd  Pd15  1  0.000011  0.250290  0.832875  1
  Pd  Pd16  1  0.000014  0.749904  0.832720  1
  Pt  Pt17  1  0.500001  0.250184  0.999354  1
  Pt  Pt18  1  0.500001  0.749839  0.999349  1
  Pt  Pt19  1  0.999987  0.249787  0.166664  1
  Pt  Pt20  1  0.999989  0.750461  0.166628  1
  Pt  Pt21  1  0.499987  0.250253  0.333234  1
  Pt  Pt22  1  0.499986  0.749755  0.333971  1
  Pt  Pt23  1  0.000002  0.249710  0.500639  1
