# generated using pymatgen
data_Mn2BePd5
_symmetry_space_group_name_H-M   'P 1'
_cell_length_a   4.03915800
_cell_length_b   5.38427600
_cell_length_c   10.45818900
_cell_angle_alpha   90.00000000
_cell_angle_beta   90.00000000
_cell_angle_gamma   90.00000000
_symmetry_Int_Tables_number   1
_chemical_formula_structural   Mn2BePd5
_chemical_formula_sum   'Mn4 Be2 Pd10'
_cell_volume   227.44408235
_cell_formula_units_Z   2
loop_
 _symmetry_equiv_pos_site_id
 _symmetry_equiv_pos_as_xyz
  1  'x, y, z'
loop_
 _atom_site_type_symbol
 _atom_site_label
 _atom_site_symmetry_multiplicity
 _atom_site_fract_x
 _atom_site_fract_y
 _atom_site_fract_z
 _atom_site_occupancy
  Mn  Mn0  1  0.500000  0.175628  0.361631  1
  Mn  Mn1  1  0.500000  0.824372  0.638369  1
  Mn  Mn2  1  0.500000  0.675628  0.138369  1
  Mn  Mn3  1  0.500000  0.324372  0.861631  1
  Be  Be4  1  0.000000  0.000000  0.000000  1
  Be  Be5  1  0.000000  0.500000  0.500000  1
  Pd  Pd6  1  0.500000  0.177858  0.102856  1
  Pd  Pd7  1  0.500000  0.822142  0.897144  1
  Pd  Pd8  1  0.500000  0.677858  0.397144  1
  Pd  Pd9  1  0.500000  0.322142  0.602856  1
  Pd  Pd10  1  0.000000  0.000000  0.500000  1
  Pd  Pd11  1  0.000000  0.500000  0.000000  1
  Pd  Pd12  1  0.000000  0.921196  0.235227  1
  Pd  Pd13  1  0.000000  0.078804  0.764773  1
  Pd  Pd14  1  0.000000  0.421196  0.264773  1
  Pd  Pd15  1  0.000000  0.578804  0.735227  1
