# generated using pymatgen
data_Tb4TmRu2
_symmetry_space_group_name_H-M   'P 1'
_cell_length_a   6.36916493
_cell_length_b   7.27275670
_cell_length_c   8.49485661
_cell_angle_alpha   96.58624894
_cell_angle_beta   112.01712317
_cell_angle_gamma   89.99999767
_symmetry_Int_Tables_number   1
_chemical_formula_structural   Tb4TmRu2
_chemical_formula_sum   'Tb8 Tm2 Ru4'
_cell_volume   361.99404701
_cell_formula_units_Z   2
loop_
 _symmetry_equiv_pos_site_id
 _symmetry_equiv_pos_as_xyz
  1  'x, y, z'
loop_
 _atom_site_type_symbol
 _atom_site_label
 _atom_site_symmetry_multiplicity
 _atom_site_fract_x
 _atom_site_fract_y
 _atom_site_fract_z
 _atom_site_occupancy
  Tb  Tb0  1  0.791480  0.084093  0.814619  1
  Tb  Tb1  1  0.976861  0.415907  0.185381  1
  Tb  Tb2  1  0.208520  0.915907  0.185381  1
  Tb  Tb3  1  0.023139  0.584093  0.814619  1
  Tb  Tb4  1  0.206744  0.185149  0.567047  1
  Tb  Tb5  1  0.639697  0.314851  0.432953  1
  Tb  Tb6  1  0.793256  0.814851  0.432953  1
  Tb  Tb7  1  0.360303  0.685149  0.567047  1
  Tm  Tm8  1  0.421700  0.250000  0.000000  1
  Tm  Tm9  1  0.578300  0.750000  0.000000  1
  Ru  Ru10  1  0.602897  0.424547  0.781911  1
  Ru  Ru11  1  0.820985  0.075453  0.218089  1
  Ru  Ru12  1  0.397103  0.575453  0.218089  1
  Ru  Ru13  1  0.179015  0.924547  0.781911  1
