# generated using pymatgen
data_Tm3Zr7(Si5Ir2)4
_symmetry_space_group_name_H-M   'P 1'
_cell_length_a   12.47126700
_cell_length_b   12.47126692
_cell_length_c   4.14276100
_cell_angle_alpha   90.00000000
_cell_angle_beta   90.00000000
_cell_angle_gamma   90.09979576
_symmetry_Int_Tables_number   1
_chemical_formula_structural   Tm3Zr7(Si5Ir2)4
_chemical_formula_sum   'Tm3 Zr7 Si20 Ir8'
_cell_volume   644.33299601
_cell_formula_units_Z   1
loop_
 _symmetry_equiv_pos_site_id
 _symmetry_equiv_pos_as_xyz
  1  'x, y, z'
loop_
 _atom_site_type_symbol
 _atom_site_label
 _atom_site_symmetry_multiplicity
 _atom_site_fract_x
 _atom_site_fract_y
 _atom_site_fract_z
 _atom_site_occupancy
  Tm  Tm0  1  0.115337  0.615337  0.500000  1
  Tm  Tm1  1  0.384044  0.116011  0.500000  1
  Tm  Tm2  1  0.616011  0.884044  0.500000  1
  Zr  Zr3  1  0.499663  0.500408  0.000000  1
  Zr  Zr4  1  0.000408  0.999663  0.000000  1
  Zr  Zr5  1  0.677360  0.177360  0.500000  1
  Zr  Zr6  1  0.324717  0.824717  0.500000  1
  Zr  Zr7  1  0.174191  0.324139  0.500000  1
  Zr  Zr8  1  0.824139  0.674191  0.500000  1
  Zr  Zr9  1  0.883241  0.383241  0.500000  1
  Si  Si10  1  0.567291  0.067291  0.000000  1
  Si  Si11  1  0.433752  0.933752  0.000000  1
  Si  Si12  1  0.064951  0.432994  0.000000  1
  Si  Si13  1  0.932994  0.564951  0.000000  1
  Si  Si14  1  0.664694  0.699156  0.000000  1
  Si  Si15  1  0.335390  0.300511  0.000000  1
  Si  Si16  1  0.164792  0.800204  0.000000  1
  Si  Si17  1  0.836597  0.201172  0.000000  1
  Si  Si18  1  0.300204  0.664792  0.000000  1
  Si  Si19  1  0.701172  0.336597  0.000000  1
  Si  Si20  1  0.199156  0.164694  0.000000  1
  Si  Si21  1  0.800511  0.835390  0.000000  1
  Si  Si22  1  0.653660  0.504859  0.500000  1
  Si  Si23  1  0.346352  0.492612  0.500000  1
  Si  Si24  1  0.153417  0.993777  0.500000  1
  Si  Si25  1  0.847051  0.006268  0.500000  1
  Si  Si26  1  0.493777  0.653417  0.500000  1
  Si  Si27  1  0.506268  0.347051  0.500000  1
  Si  Si28  1  0.004859  0.153660  0.500000  1
  Si  Si29  1  0.992612  0.846352  0.500000  1
  Ir  Ir30  1  0.744788  0.520161  0.000000  1
  Ir  Ir31  1  0.254954  0.479431  0.000000  1
  Ir  Ir32  1  0.244097  0.979872  0.000000  1
  Ir  Ir33  1  0.756596  0.021492  0.000000  1
  Ir  Ir34  1  0.479872  0.744097  0.000000  1
  Ir  Ir35  1  0.521492  0.256596  0.000000  1
  Ir  Ir36  1  0.020161  0.244788  0.000000  1
  Ir  Ir37  1  0.979431  0.754954  0.000000  1
