# generated using pymatgen
data_La2TiRuO8
_symmetry_space_group_name_H-M   'P 1'
_cell_length_a   5.01013400
_cell_length_b   5.41933816
_cell_length_c   13.26644513
_cell_angle_alpha   71.53590348
_cell_angle_beta   90.00000000
_cell_angle_gamma   90.00000000
_symmetry_Int_Tables_number   1
_chemical_formula_structural   La2TiRuO8
_chemical_formula_sum   'La4 Ti2 Ru2 O16'
_cell_volume   341.66280745
_cell_formula_units_Z   2
loop_
 _symmetry_equiv_pos_site_id
 _symmetry_equiv_pos_as_xyz
  1  'x, y, z'
loop_
 _atom_site_type_symbol
 _atom_site_label
 _atom_site_symmetry_multiplicity
 _atom_site_fract_x
 _atom_site_fract_y
 _atom_site_fract_z
 _atom_site_occupancy
  La  La0  1  0.811040  0.644972  0.350011  1
  La  La1  1  0.688960  0.644972  0.850011  1
  La  La2  1  0.202738  0.353574  0.657303  1
  La  La3  1  0.297262  0.353574  0.157303  1
  Ti  Ti4  1  0.243569  0.096653  0.918684  1
  Ti  Ti5  1  0.256431  0.096653  0.418684  1
  Ru  Ru6  1  0.745263  0.916056  0.073541  1
  Ru  Ru7  1  0.754737  0.916056  0.573541  1
  O  O8  1  0.463004  0.754772  0.021988  1
  O  O9  1  0.036996  0.754772  0.521988  1
  O  O10  1  0.544897  0.242052  0.978835  1
  O  O11  1  0.955103  0.242052  0.478835  1
  O  O12  1  0.601459  0.981070  0.190788  1
  O  O13  1  0.898541  0.981070  0.690788  1
  O  O14  1  0.393713  0.016459  0.806676  1
  O  O15  1  0.106287  0.016459  0.306676  1
  O  O16  1  0.046200  0.131553  0.058693  1
  O  O17  1  0.453800  0.131553  0.558693  1
  O  O18  1  0.943560  0.858809  0.946123  1
  O  O19  1  0.556440  0.858809  0.446123  1
  O  O20  1  0.876535  0.592466  0.168795  1
  O  O21  1  0.623465  0.592466  0.668795  1
  O  O22  1  0.116606  0.411561  0.828563  1
  O  O23  1  0.383394  0.411561  0.328563  1
