# generated using pymatgen
data_Dy5GaRuO12
_symmetry_space_group_name_H-M   'P 1'
_cell_length_a   6.82553773
_cell_length_b   6.82553793
_cell_length_c   7.29941752
_cell_angle_alpha   74.41410114
_cell_angle_beta   74.41410332
_cell_angle_gamma   51.03586484
_symmetry_Int_Tables_number   1
_chemical_formula_structural   Dy5GaRuO12
_chemical_formula_sum   'Dy5 Ga1 Ru1 O12'
_cell_volume   252.42327100
_cell_formula_units_Z   1
loop_
 _symmetry_equiv_pos_site_id
 _symmetry_equiv_pos_as_xyz
  1  'x, y, z'
loop_
 _atom_site_type_symbol
 _atom_site_label
 _atom_site_symmetry_multiplicity
 _atom_site_fract_x
 _atom_site_fract_y
 _atom_site_fract_z
 _atom_site_occupancy
  Dy  Dy0  1  0.309723  0.295873  0.359621  1
  Dy  Dy1  1  0.704127  0.690277  0.640379  1
  Dy  Dy2  1  0.306887  0.310113  0.830034  1
  Dy  Dy3  1  0.689887  0.693113  0.169966  1
  Dy  Dy4  1  0.003599  0.996401  0.500000  1
  Ga  Ga5  1  0.752479  0.247521  0.000000  1
  Ru  Ru6  1  0.240514  0.759486  0.000000  1
  O  O7  1  0.900300  0.427921  0.917500  1
  O  O8  1  0.424350  0.900798  0.917331  1
  O  O9  1  0.099202  0.575650  0.082669  1
  O  O10  1  0.572079  0.099700  0.082500  1
  O  O11  1  0.098823  0.596804  0.572820  1
  O  O12  1  0.597975  0.094691  0.576151  1
  O  O13  1  0.905309  0.402025  0.423849  1
  O  O14  1  0.403196  0.901177  0.427180  1
  O  O15  1  0.006973  0.992501  0.816789  1
  O  O16  1  0.007499  0.993027  0.183211  1
  O  O17  1  0.488334  0.511256  0.813802  1
  O  O18  1  0.488744  0.511666  0.186198  1
