# generated using pymatgen
data_TbY4In2(HgPd)2
_symmetry_space_group_name_H-M   'P 1'
_cell_length_a   8.05370563
_cell_length_b   18.38326579
_cell_length_c   3.64385700
_cell_angle_alpha   90.00000000
_cell_angle_beta   90.00000000
_cell_angle_gamma   90.07324183
_symmetry_Int_Tables_number   1
_chemical_formula_structural   TbY4In2(HgPd)2
_chemical_formula_sum   'Tb2 Y8 In4 Hg4 Pd4'
_cell_volume   539.48501794
_cell_formula_units_Z   2
loop_
 _symmetry_equiv_pos_site_id
 _symmetry_equiv_pos_as_xyz
  1  'x, y, z'
loop_
 _atom_site_type_symbol
 _atom_site_label
 _atom_site_symmetry_multiplicity
 _atom_site_fract_x
 _atom_site_fract_y
 _atom_site_fract_z
 _atom_site_occupancy
  Tb  Tb0  1  0.890398  0.583894  0.000000  1
  Tb  Tb1  1  0.109602  0.416106  0.000000  1
  Y  Y2  1  0.500000  0.500000  0.000000  1
  Y  Y3  1  0.000000  0.000000  0.000000  1
  Y  Y4  1  0.745033  0.284563  0.000000  1
  Y  Y5  1  0.254967  0.715437  0.000000  1
  Y  Y6  1  0.754015  0.785186  0.000000  1
  Y  Y7  1  0.245985  0.214814  0.000000  1
  Y  Y8  1  0.610473  0.083368  0.000000  1
  Y  Y9  1  0.389527  0.916632  0.000000  1
  In  In10  1  0.578693  0.649186  0.500000  1
  In  In11  1  0.421307  0.350814  0.500000  1
  In  In12  1  0.920571  0.148973  0.500000  1
  In  In13  1  0.079429  0.851027  0.500000  1
  Hg  Hg14  1  0.711791  0.933002  0.500000  1
  Hg  Hg15  1  0.288209  0.066998  0.500000  1
  Hg  Hg16  1  0.787212  0.432625  0.500000  1
  Hg  Hg17  1  0.212788  0.567375  0.500000  1
  Pd  Pd18  1  0.533358  0.198338  0.500000  1
  Pd  Pd19  1  0.466642  0.801662  0.500000  1
  Pd  Pd20  1  0.966259  0.698013  0.500000  1
  Pd  Pd21  1  0.033741  0.301987  0.500000  1
