# generated using pymatgen
data_Ta2Ti5P4
_symmetry_space_group_name_H-M   'P 1'
_cell_length_a   7.58414591
_cell_length_b   7.58414579
_cell_length_c   13.68027310
_cell_angle_alpha   75.90053426
_cell_angle_beta   75.90053445
_cell_angle_gamma   25.80860117
_symmetry_Int_Tables_number   1
_chemical_formula_structural   Ta2Ti5P4
_chemical_formula_sum   'Ta4 Ti10 P8'
_cell_volume   331.70959682
_cell_formula_units_Z   2
loop_
 _symmetry_equiv_pos_site_id
 _symmetry_equiv_pos_as_xyz
  1  'x, y, z'
loop_
 _atom_site_type_symbol
 _atom_site_label
 _atom_site_symmetry_multiplicity
 _atom_site_fract_x
 _atom_site_fract_y
 _atom_site_fract_z
 _atom_site_occupancy
  Ta  Ta0  1  0.000000  0.000000  0.000000  1
  Ta  Ta1  1  0.500000  0.500000  0.500000  1
  Ta  Ta2  1  0.428389  0.428389  0.173896  1
  Ta  Ta3  1  0.571611  0.571611  0.826104  1
  Ti  Ti4  1  0.197814  0.197814  0.689812  1
  Ti  Ti5  1  0.802186  0.802186  0.310188  1
  Ti  Ti6  1  0.207966  0.207966  0.205823  1
  Ti  Ti7  1  0.792034  0.792034  0.794177  1
  Ti  Ti8  1  0.339415  0.339415  0.969406  1
  Ti  Ti9  1  0.660585  0.660585  0.030594  1
  Ti  Ti10  1  0.003364  0.003364  0.336675  1
  Ti  Ti11  1  0.996636  0.996636  0.663325  1
  Ti  Ti12  1  0.177549  0.177549  0.459067  1
  Ti  Ti13  1  0.822451  0.822451  0.540933  1
  P  P14  1  0.179942  0.179942  0.889642  1
  P  P15  1  0.820058  0.820058  0.110358  1
  P  P16  1  0.372943  0.372943  0.394936  1
  P  P17  1  0.627057  0.627057  0.605064  1
  P  P18  1  0.368627  0.368627  0.660338  1
  P  P19  1  0.631373  0.631373  0.339662  1
  P  P20  1  0.064655  0.064655  0.153415  1
  P  P21  1  0.935345  0.935345  0.846585  1
