# generated using pymatgen
data_Sb12Pd4Br
_symmetry_space_group_name_H-M   'P 1'
_cell_length_a   8.27825870
_cell_length_b   8.27826039
_cell_length_c   8.27826000
_cell_angle_alpha   109.47121967
_cell_angle_beta   109.47122381
_cell_angle_gamma   109.47122370
_symmetry_Int_Tables_number   1
_chemical_formula_structural   Sb12Pd4Br
_chemical_formula_sum   'Sb12 Pd4 Br1'
_cell_volume   436.71209566
_cell_formula_units_Z   1
loop_
 _symmetry_equiv_pos_site_id
 _symmetry_equiv_pos_as_xyz
  1  'x, y, z'
loop_
 _atom_site_type_symbol
 _atom_site_label
 _atom_site_symmetry_multiplicity
 _atom_site_fract_x
 _atom_site_fract_y
 _atom_site_fract_z
 _atom_site_occupancy
  Sb  Sb0  1  0.847142  0.655886  0.503028  1
  Sb  Sb1  1  0.152858  0.344114  0.496972  1
  Sb  Sb2  1  0.152858  0.655886  0.808746  1
  Sb  Sb3  1  0.847142  0.344114  0.191254  1
  Sb  Sb4  1  0.655886  0.503028  0.847142  1
  Sb  Sb5  1  0.344114  0.496972  0.152858  1
  Sb  Sb6  1  0.655886  0.808746  0.152858  1
  Sb  Sb7  1  0.344114  0.191254  0.847142  1
  Sb  Sb8  1  0.503028  0.847142  0.655886  1
  Sb  Sb9  1  0.496972  0.152858  0.344114  1
  Sb  Sb10  1  0.191254  0.847142  0.344114  1
  Sb  Sb11  1  0.808746  0.152858  0.655886  1
  Pd  Pd12  1  0.500000  0.500000  0.500000  1
  Pd  Pd13  1  0.500000  0.000000  0.000000  1
  Pd  Pd14  1  0.000000  0.500000  0.000000  1
  Pd  Pd15  1  0.000000  0.000000  0.500000  1
  Br  Br16  1  0.000000  0.000000  0.000000  1
