# generated using pymatgen
data_TbTa3(AsO4)6
_symmetry_space_group_name_H-M   'P 1'
_cell_length_a   9.50850537
_cell_length_b   9.50848926
_cell_length_c   9.50849400
_cell_angle_alpha   58.12533696
_cell_angle_beta   58.12529090
_cell_angle_gamma   58.12530779
_symmetry_Int_Tables_number   1
_chemical_formula_structural   TbTa3(AsO4)6
_chemical_formula_sum   'Tb1 Ta3 As6 O24'
_cell_volume   581.76051492
_cell_formula_units_Z   1
loop_
 _symmetry_equiv_pos_site_id
 _symmetry_equiv_pos_as_xyz
  1  'x, y, z'
loop_
 _atom_site_type_symbol
 _atom_site_label
 _atom_site_symmetry_multiplicity
 _atom_site_fract_x
 _atom_site_fract_y
 _atom_site_fract_z
 _atom_site_occupancy
  Tb  Tb0  1  0.862367  0.862368  0.862367  1
  Ta  Ta1  1  0.141296  0.141295  0.141296  1
  Ta  Ta2  1  0.359215  0.359215  0.359215  1
  Ta  Ta3  1  0.642085  0.642084  0.642084  1
  As  As4  1  0.035160  0.464544  0.749323  1
  As  As5  1  0.464544  0.749322  0.035161  1
  As  As6  1  0.749322  0.035161  0.464544  1
  As  As7  1  0.270354  0.967110  0.511681  1
  As  As8  1  0.511680  0.270355  0.967110  1
  As  As9  1  0.967111  0.511681  0.270354  1
  O  O10  1  0.125833  0.466568  0.337962  1
  O  O11  1  0.337963  0.125831  0.466569  1
  O  O12  1  0.041086  0.292787  0.949388  1
  O  O13  1  0.466569  0.337963  0.125831  1
  O  O14  1  0.230520  0.388696  0.592669  1
  O  O15  1  0.026024  0.649021  0.740089  1
  O  O16  1  0.292788  0.949388  0.041086  1
  O  O17  1  0.388695  0.592670  0.230521  1
  O  O18  1  0.592669  0.230521  0.388695  1
  O  O19  1  0.259651  0.992880  0.323282  1
  O  O20  1  0.081857  0.971455  0.682685  1
  O  O21  1  0.323282  0.259652  0.992879  1
  O  O22  1  0.649020  0.740088  0.026025  1
  O  O23  1  0.949388  0.041086  0.292788  1
  O  O24  1  0.740087  0.026025  0.649021  1
  O  O25  1  0.441327  0.774296  0.557901  1
  O  O26  1  0.557902  0.441326  0.774296  1
  O  O27  1  0.682684  0.081856  0.971457  1
  O  O28  1  0.992879  0.323283  0.259651  1
  O  O29  1  0.774297  0.557902  0.441326  1
  O  O30  1  0.497549  0.719327  0.854006  1
  O  O31  1  0.971457  0.682685  0.081855  1
  O  O32  1  0.719327  0.854006  0.497548  1
  O  O33  1  0.854006  0.497548  0.719328  1
