# generated using pymatgen
data_Na2CeTh(CuSe3)2
_symmetry_space_group_name_H-M   'P 1'
_cell_length_a   7.08341195
_cell_length_b   7.08341318
_cell_length_c   10.86523436
_cell_angle_alpha   89.84937304
_cell_angle_beta   90.15062663
_cell_angle_gamma   146.05139566
_symmetry_Int_Tables_number   1
_chemical_formula_structural   Na2CeTh(CuSe3)2
_chemical_formula_sum   'Na2 Ce1 Th1 Cu2 Se6'
_cell_volume   304.44304726
_cell_formula_units_Z   1
loop_
 _symmetry_equiv_pos_site_id
 _symmetry_equiv_pos_as_xyz
  1  'x, y, z'
loop_
 _atom_site_type_symbol
 _atom_site_label
 _atom_site_symmetry_multiplicity
 _atom_site_fract_x
 _atom_site_fract_y
 _atom_site_fract_z
 _atom_site_occupancy
  Na  Na0  1  0.246930  0.753070  0.749095  1
  Na  Na1  1  0.753070  0.246930  0.250905  1
  Ce  Ce2  1  0.000000  0.000000  0.500000  1
  Th  Th3  1  0.000000  0.000000  0.000000  1
  Cu  Cu4  1  0.527095  0.472905  0.749470  1
  Cu  Cu5  1  0.472905  0.527095  0.250530  1
  Se  Se6  1  0.079639  0.920361  0.251877  1
  Se  Se7  1  0.638994  0.361006  0.926629  1
  Se  Se8  1  0.920361  0.079639  0.748123  1
  Se  Se9  1  0.634816  0.365184  0.571801  1
  Se  Se10  1  0.361006  0.638994  0.073371  1
  Se  Se11  1  0.365184  0.634816  0.428199  1
