# generated using pymatgen
data_FeCo17S16
_symmetry_space_group_name_H-M   'P 1'
_cell_length_a   6.91877400
_cell_length_b   6.91877400
_cell_length_c   9.76220300
_cell_angle_alpha   90.00000000
_cell_angle_beta   90.00000000
_cell_angle_gamma   90.00000000
_symmetry_Int_Tables_number   1
_chemical_formula_structural   FeCo17S16
_chemical_formula_sum   'Fe1 Co17 S16'
_cell_volume   467.31112891
_cell_formula_units_Z   1
loop_
 _symmetry_equiv_pos_site_id
 _symmetry_equiv_pos_as_xyz
  1  'x, y, z'
loop_
 _atom_site_type_symbol
 _atom_site_label
 _atom_site_symmetry_multiplicity
 _atom_site_fract_x
 _atom_site_fract_y
 _atom_site_fract_z
 _atom_site_occupancy
  Fe  Fe0  1  0.000000  0.000000  0.500000  1
  Co  Co1  1  0.252829  0.000000  0.873095  1
  Co  Co2  1  0.752147  0.500000  0.374170  1
  Co  Co3  1  0.500000  0.247853  0.625830  1
  Co  Co4  1  0.000000  0.747171  0.126905  1
  Co  Co5  1  0.500000  0.752147  0.625830  1
  Co  Co6  1  0.000000  0.252829  0.126905  1
  Co  Co7  1  0.747171  0.000000  0.873095  1
  Co  Co8  1  0.247853  0.500000  0.374170  1
  Co  Co9  1  0.747171  0.000000  0.126905  1
  Co  Co10  1  0.247853  0.500000  0.625830  1
  Co  Co11  1  0.500000  0.752147  0.374170  1
  Co  Co12  1  0.000000  0.252829  0.873095  1
  Co  Co13  1  0.500000  0.247853  0.374170  1
  Co  Co14  1  0.000000  0.747171  0.873095  1
  Co  Co15  1  0.252829  0.000000  0.126905  1
  Co  Co16  1  0.752147  0.500000  0.625830  1
  Co  Co17  1  0.500000  0.500000  0.000000  1
  S  S18  1  0.000000  0.000000  0.735245  1
  S  S19  1  0.500000  0.500000  0.238042  1
  S  S20  1  0.764409  0.764409  0.500000  1
  S  S21  1  0.261696  0.261696  0.000000  1
  S  S22  1  0.764409  0.235591  0.500000  1
  S  S23  1  0.261696  0.738304  0.000000  1
  S  S24  1  0.000000  0.000000  0.264755  1
  S  S25  1  0.500000  0.500000  0.761958  1
  S  S26  1  0.235591  0.235591  0.500000  1
  S  S27  1  0.738304  0.738304  0.000000  1
  S  S28  1  0.235591  0.764409  0.500000  1
  S  S29  1  0.738304  0.261696  0.000000  1
  S  S30  1  0.500000  0.000000  0.748656  1
  S  S31  1  0.000000  0.500000  0.251344  1
  S  S32  1  0.500000  0.000000  0.251344  1
  S  S33  1  0.000000  0.500000  0.748656  1
