# generated using pymatgen
data_Cs2Tb10Ru2Br17
_symmetry_space_group_name_H-M   'P 1'
_cell_length_a   9.36977774
_cell_length_b   10.95943792
_cell_length_c   10.95944600
_cell_angle_alpha   107.67447570
_cell_angle_beta   93.69625973
_cell_angle_gamma   93.69532637
_symmetry_Int_Tables_number   1
_chemical_formula_structural   Cs2Tb10Ru2Br17
_chemical_formula_sum   'Cs2 Tb10 Ru2 Br17'
_cell_volume   1065.85887036
_cell_formula_units_Z   1
loop_
 _symmetry_equiv_pos_site_id
 _symmetry_equiv_pos_as_xyz
  1  'x, y, z'
loop_
 _atom_site_type_symbol
 _atom_site_label
 _atom_site_symmetry_multiplicity
 _atom_site_fract_x
 _atom_site_fract_y
 _atom_site_fract_z
 _atom_site_occupancy
  Cs  Cs0  1  0.999306  0.820798  0.178418  1
  Cs  Cs1  1  0.999290  0.178427  0.820834  1
  Tb  Tb2  1  0.438935  0.167613  0.167617  1
  Tb  Tb3  1  0.573548  0.508489  0.207816  1
  Tb  Tb4  1  0.825554  0.290875  0.290862  1
  Tb  Tb5  1  0.309389  0.438444  0.438442  1
  Tb  Tb6  1  0.426087  0.798753  0.487925  1
  Tb  Tb7  1  0.573557  0.207840  0.508502  1
  Tb  Tb8  1  0.689437  0.567581  0.567590  1
  Tb  Tb9  1  0.179942  0.707447  0.707444  1
  Tb  Tb10  1  0.426111  0.487930  0.798765  1
  Tb  Tb11  1  0.559297  0.829737  0.829748  1
  Ru  Ru12  1  0.569288  0.361564  0.361552  1
  Ru  Ru13  1  0.432114  0.638456  0.638460  1
  Br  Br14  1  0.578848  0.682032  0.020598  1
  Br  Br15  1  0.708518  0.066411  0.066403  1
  Br  Br16  1  0.853526  0.449611  0.122969  1
  Br  Br17  1  0.132787  0.208953  0.208934  1
  Br  Br18  1  0.285128  0.604996  0.254309  1
  Br  Br19  1  0.421586  0.981867  0.314753  1
  Br  Br20  1  0.714667  0.745728  0.395347  1
  Br  Br21  1  0.853557  0.123007  0.449640  1
  Br  Br22  1  0.000356  0.500424  0.500423  1
  Br  Br23  1  0.145498  0.877508  0.548434  1
  Br  Br24  1  0.285159  0.254343  0.605000  1
  Br  Br25  1  0.578845  0.020591  0.682043  1
  Br  Br26  1  0.714681  0.395380  0.745738  1
  Br  Br27  1  0.866485  0.789955  0.789986  1
  Br  Br28  1  0.145507  0.548452  0.877545  1
  Br  Br29  1  0.291428  0.932035  0.932046  1
  Br  Br30  1  0.421574  0.314753  0.981859  1
