# generated using pymatgen
data_La2Si2Tc2C
_symmetry_space_group_name_H-M   'P 1'
_cell_length_a   6.12978816
_cell_length_b   6.12978916
_cell_length_c   7.34977498
_cell_angle_alpha   126.40091481
_cell_angle_beta   126.40091884
_cell_angle_gamma   40.10150046
_symmetry_Int_Tables_number   1
_chemical_formula_structural   La2Si2Tc2C
_chemical_formula_sum   'La2 Si2 Tc2 C1'
_cell_volume   137.89842382
_cell_formula_units_Z   1
loop_
 _symmetry_equiv_pos_site_id
 _symmetry_equiv_pos_as_xyz
  1  'x, y, z'
loop_
 _atom_site_type_symbol
 _atom_site_label
 _atom_site_symmetry_multiplicity
 _atom_site_fract_x
 _atom_site_fract_y
 _atom_site_fract_z
 _atom_site_occupancy
  La  La0  1  0.560748  0.560748  0.298603  1
  La  La1  1  0.439251  0.439251  0.701397  1
  Si  Si2  1  0.826753  0.826753  0.267271  1
  Si  Si3  1  0.173247  0.173247  0.732729  1
  Tc  Tc4  1  0.197819  0.197819  0.088691  1
  Tc  Tc5  1  0.802181  0.802181  0.911309  1
  C  C6  1  0.000000  0.000000  0.000000  1
