# generated using pymatgen
data_Tb2Pr2GaPd11Pt
_symmetry_space_group_name_H-M   'P 1'
_cell_length_a   7.48556981
_cell_length_b   7.35070945
_cell_length_c   7.48556965
_cell_angle_alpha   108.70103020
_cell_angle_beta   110.72936766
_cell_angle_gamma   109.71054202
_symmetry_Int_Tables_number   1
_chemical_formula_structural   Tb2Pr2GaPd11Pt
_chemical_formula_sum   'Tb2 Pr2 Ga1 Pd11 Pt1'
_cell_volume   314.11968244
_cell_formula_units_Z   1
loop_
 _symmetry_equiv_pos_site_id
 _symmetry_equiv_pos_as_xyz
  1  'x, y, z'
loop_
 _atom_site_type_symbol
 _atom_site_label
 _atom_site_symmetry_multiplicity
 _atom_site_fract_x
 _atom_site_fract_y
 _atom_site_fract_z
 _atom_site_occupancy
  Tb  Tb0  1  0.493489  0.469636  0.469828  1
  Tb  Tb1  1  0.999808  0.469636  0.976147  1
  Pr  Pr2  1  0.507141  0.976315  0.976760  1
  Pr  Pr3  1  0.999555  0.976315  0.469173  1
  Ga  Ga4  1  0.999362  0.455314  0.455952  1
  Pd  Pd5  1  0.248050  0.965607  0.214224  1
  Pd  Pd6  1  0.992829  0.734395  0.741568  1
  Pd  Pd7  1  0.288104  0.760942  0.472838  1
  Pd  Pd8  1  0.710946  0.479279  0.190112  1
  Pd  Pd9  1  0.503441  0.230662  0.727221  1
  Pd  Pd10  1  0.712432  0.198047  0.485616  1
  Pd  Pd11  1  0.753336  0.715261  0.961925  1
  Pd  Pd12  1  0.751383  0.965607  0.717557  1
  Pd  Pd13  1  0.289167  0.479279  0.768333  1
  Pd  Pd14  1  0.494469  0.722828  0.228359  1
  Pd  Pd15  1  0.248933  0.218440  0.969506  1
  Pt  Pt16  1  0.007555  0.182434  0.174879  1
