# generated using pymatgen
data_Hf4ZrSnBSb2
_symmetry_space_group_name_H-M   'P 1'
_cell_length_a   8.46138702
_cell_length_b   8.46136503
_cell_length_c   5.75725403
_cell_angle_alpha   89.99436736
_cell_angle_beta   89.99484274
_cell_angle_gamma   120.00036611
_symmetry_Int_Tables_number   1
_chemical_formula_structural   Hf4ZrSnBSb2
_chemical_formula_sum   'Hf8 Zr2 Sn2 B2 Sb4'
_cell_volume   356.96563181
_cell_formula_units_Z   2
loop_
 _symmetry_equiv_pos_site_id
 _symmetry_equiv_pos_as_xyz
  1  'x, y, z'
loop_
 _atom_site_type_symbol
 _atom_site_label
 _atom_site_symmetry_multiplicity
 _atom_site_fract_x
 _atom_site_fract_y
 _atom_site_fract_z
 _atom_site_occupancy
  Hf  Hf0  1  0.666535  0.334354  0.001025  1
  Hf  Hf1  1  0.334354  0.666536  0.001022  1
  Hf  Hf2  1  0.769498  0.769498  0.750562  1
  Hf  Hf3  1  0.228812  0.999156  0.750455  1
  Hf  Hf4  1  0.999159  0.228814  0.750459  1
  Hf  Hf5  1  0.231030  0.231032  0.249354  1
  Hf  Hf6  1  0.769302  0.000969  0.249282  1
  Hf  Hf7  1  0.000968  0.769301  0.249280  1
  Zr  Zr8  1  0.334554  0.666500  0.499343  1
  Zr  Zr9  1  0.666498  0.334556  0.499344  1
  Sn  Sn10  1  0.399337  0.000212  0.248638  1
  Sn  Sn11  1  0.000216  0.399338  0.248638  1
  B  B12  1  0.999858  0.999858  0.000672  1
  B  B13  1  0.999931  0.999931  0.499248  1
  Sb  Sb14  1  0.398194  0.398195  0.751349  1
  Sb  Sb15  1  0.599109  0.000776  0.751347  1
  Sb  Sb16  1  0.000783  0.599113  0.751348  1
  Sb  Sb17  1  0.601859  0.601860  0.248634  1
