# generated using pymatgen
data_CaNb10SiO19
_symmetry_space_group_name_H-M   'P 1'
_cell_length_a   7.86315900
_cell_length_b   7.86315873
_cell_length_c   14.72364300
_cell_angle_alpha   90.00000000
_cell_angle_beta   90.00000000
_cell_angle_gamma   119.99998852
_symmetry_Int_Tables_number   1
_chemical_formula_structural   CaNb10SiO19
_chemical_formula_sum   'Ca2 Nb20 Si2 O38'
_cell_volume   788.38810064
_cell_formula_units_Z   2
loop_
 _symmetry_equiv_pos_site_id
 _symmetry_equiv_pos_as_xyz
  1  'x, y, z'
loop_
 _atom_site_type_symbol
 _atom_site_label
 _atom_site_symmetry_multiplicity
 _atom_site_fract_x
 _atom_site_fract_y
 _atom_site_fract_z
 _atom_site_occupancy
  Ca  Ca0  1  0.666667  0.333333  0.627510  1
  Ca  Ca1  1  0.333333  0.666667  0.127510  1
  Nb  Nb2  1  0.318591  0.451358  0.499263  1
  Nb  Nb3  1  0.666667  0.333333  0.333739  1
  Nb  Nb4  1  0.526837  0.640719  0.338362  1
  Nb  Nb5  1  0.548642  0.867233  0.499263  1
  Nb  Nb6  1  0.049941  0.229128  0.671364  1
  Nb  Nb7  1  0.886119  0.526837  0.838362  1
  Nb  Nb8  1  0.132767  0.681409  0.499263  1
  Nb  Nb9  1  0.229128  0.179187  0.171364  1
  Nb  Nb10  1  0.359281  0.886119  0.338362  1
  Nb  Nb11  1  0.640719  0.113881  0.838362  1
  Nb  Nb12  1  0.473163  0.359281  0.838362  1
  Nb  Nb13  1  0.820813  0.049941  0.171364  1
  Nb  Nb14  1  0.451358  0.132767  0.999263  1
  Nb  Nb15  1  0.333333  0.666667  0.833739  1
  Nb  Nb16  1  0.113881  0.473163  0.338362  1
  Nb  Nb17  1  0.681409  0.548642  0.999263  1
  Nb  Nb18  1  0.179187  0.950059  0.671364  1
  Nb  Nb19  1  0.770872  0.820813  0.671364  1
  Nb  Nb20  1  0.950059  0.770872  0.171364  1
  Nb  Nb21  1  0.867233  0.318591  0.999263  1
  Si  Si22  1  0.000000  0.000000  0.887665  1
  Si  Si23  1  0.000000  0.000000  0.387665  1
  O  O24  1  0.000000  0.000000  0.274210  1
  O  O25  1  0.916412  0.771572  0.917815  1
  O  O26  1  0.862179  0.305870  0.748473  1
  O  O27  1  0.771572  0.855160  0.417815  1
  O  O28  1  0.137821  0.694130  0.248473  1
  O  O29  1  0.694130  0.556309  0.748473  1
  O  O30  1  0.548294  0.644663  0.579900  1
  O  O31  1  0.590894  0.098708  0.418292  1
  O  O32  1  0.855160  0.083588  0.917815  1
  O  O33  1  0.492186  0.590894  0.918292  1
  O  O34  1  0.409106  0.901292  0.918292  1
  O  O35  1  0.903631  0.548294  0.079900  1
  O  O36  1  0.268138  0.212155  0.600081  1
  O  O37  1  0.578481  0.839671  0.762641  1
  O  O38  1  0.055983  0.268138  0.100081  1
  O  O39  1  0.096369  0.451706  0.579900  1
  O  O40  1  0.305870  0.443691  0.248473  1
  O  O41  1  0.443691  0.137821  0.748473  1
  O  O42  1  0.901292  0.492186  0.418292  1
  O  O43  1  0.451706  0.355337  0.079900  1
  O  O44  1  0.000000  0.000000  0.774210  1
  O  O45  1  0.944017  0.731862  0.600081  1
  O  O46  1  0.421519  0.160329  0.262641  1
  O  O47  1  0.738810  0.578481  0.262641  1
  O  O48  1  0.787845  0.055983  0.600081  1
  O  O49  1  0.731862  0.787845  0.100081  1
  O  O50  1  0.644663  0.096369  0.079900  1
  O  O51  1  0.355337  0.903631  0.579900  1
  O  O52  1  0.839671  0.261190  0.262641  1
  O  O53  1  0.556309  0.862179  0.248473  1
  O  O54  1  0.160329  0.738810  0.762641  1
  O  O55  1  0.228428  0.144840  0.917815  1
  O  O56  1  0.261190  0.421519  0.762641  1
  O  O57  1  0.098708  0.507814  0.918292  1
  O  O58  1  0.212155  0.944017  0.100081  1
  O  O59  1  0.144840  0.916412  0.417815  1
  O  O60  1  0.083588  0.228428  0.417815  1
  O  O61  1  0.507814  0.409106  0.418292  1
