# generated using pymatgen
data_La10Pr4PdRh5
_symmetry_space_group_name_H-M   'P 1'
_cell_length_a   10.21053400
_cell_length_b   10.23521431
_cell_length_c   6.57460640
_cell_angle_alpha   89.71726179
_cell_angle_beta   90.00000000
_cell_angle_gamma   119.92026641
_symmetry_Int_Tables_number   1
_chemical_formula_structural   La10Pr4PdRh5
_chemical_formula_sum   'La10 Pr4 Pd1 Rh5'
_cell_volume   595.50734102
_cell_formula_units_Z   1
loop_
 _symmetry_equiv_pos_site_id
 _symmetry_equiv_pos_as_xyz
  1  'x, y, z'
loop_
 _atom_site_type_symbol
 _atom_site_label
 _atom_site_symmetry_multiplicity
 _atom_site_fract_x
 _atom_site_fract_y
 _atom_site_fract_z
 _atom_site_occupancy
  La  La0  1  0.123817  0.247635  0.234490  1
  La  La1  1  0.865414  0.119710  0.742190  1
  La  La2  1  0.254296  0.119710  0.742190  1
  La  La3  1  0.876206  0.752410  0.743341  1
  La  La4  1  0.541369  0.462870  0.435315  1
  La  La5  1  0.921501  0.462870  0.435315  1
  La  La6  1  0.538900  0.077800  0.426971  1
  La  La7  1  0.469116  0.542486  0.937972  1
  La  La8  1  0.073370  0.542486  0.937972  1
  La  La9  1  0.459067  0.918133  0.937476  1
  Pr  Pr10  1  0.336109  0.672218  0.460910  1
  Pr  Pr11  1  0.665463  0.330923  0.964803  1
  Pr  Pr12  1  0.124395  0.873803  0.242367  1
  Pr  Pr13  1  0.749408  0.873803  0.242367  1
  Pd  Pd14  1  0.187013  0.374026  0.694901  1
  Rh  Rh15  1  0.818394  0.192989  0.199844  1
  Rh  Rh16  1  0.374595  0.192989  0.199844  1
  Rh  Rh17  1  0.809895  0.619790  0.198545  1
  Rh  Rh18  1  0.184581  0.811674  0.704488  1
  Rh  Rh19  1  0.627093  0.811674  0.704488  1
