# generated using pymatgen
data_Dy5Er(ThSn2)4
_symmetry_space_group_name_H-M   'P 1'
_cell_length_a   8.12825700
_cell_length_b   8.22437800
_cell_length_c   15.54796300
_cell_angle_alpha   90.00000000
_cell_angle_beta   90.00000000
_cell_angle_gamma   90.00000000
_symmetry_Int_Tables_number   1
_chemical_formula_structural   Dy5Er(ThSn2)4
_chemical_formula_sum   'Dy10 Er2 Th8 Sn16'
_cell_volume   1039.37911950
_cell_formula_units_Z   2
loop_
 _symmetry_equiv_pos_site_id
 _symmetry_equiv_pos_as_xyz
  1  'x, y, z'
loop_
 _atom_site_type_symbol
 _atom_site_label
 _atom_site_symmetry_multiplicity
 _atom_site_fract_x
 _atom_site_fract_y
 _atom_site_fract_z
 _atom_site_occupancy
  Dy  Dy0  1  0.361501  0.837257  0.876319  1
  Dy  Dy1  1  0.861501  0.662743  0.623681  1
  Dy  Dy2  1  0.638596  0.162693  0.375980  1
  Dy  Dy3  1  0.138596  0.337307  0.124020  1
  Dy  Dy4  1  0.638596  0.162693  0.124020  1
  Dy  Dy5  1  0.138596  0.337307  0.375980  1
  Dy  Dy6  1  0.361501  0.837257  0.623681  1
  Dy  Dy7  1  0.861501  0.662743  0.876319  1
  Dy  Dy8  1  0.191028  0.497729  0.750000  1
  Dy  Dy9  1  0.691028  0.002271  0.750000  1
  Er  Er10  1  0.808789  0.501964  0.250000  1
  Er  Er11  1  0.308789  0.998036  0.250000  1
  Th  Th12  1  0.518842  0.321187  0.903737  1
  Th  Th13  1  0.018842  0.178813  0.596263  1
  Th  Th14  1  0.481056  0.678588  0.403943  1
  Th  Th15  1  0.981056  0.821412  0.096057  1
  Th  Th16  1  0.481056  0.678588  0.096057  1
  Th  Th17  1  0.981056  0.821412  0.403943  1
  Th  Th18  1  0.518842  0.321187  0.596263  1
  Th  Th19  1  0.018842  0.178813  0.903737  1
  Sn  Sn20  1  0.298740  0.039342  0.042892  1
  Sn  Sn21  1  0.798740  0.460658  0.457108  1
  Sn  Sn22  1  0.701442  0.960486  0.541977  1
  Sn  Sn23  1  0.201442  0.539514  0.958023  1
  Sn  Sn24  1  0.701442  0.960486  0.958023  1
  Sn  Sn25  1  0.201442  0.539514  0.541977  1
  Sn  Sn26  1  0.298740  0.039342  0.457108  1
  Sn  Sn27  1  0.798740  0.460658  0.042892  1
  Sn  Sn28  1  0.557122  0.621863  0.750000  1
  Sn  Sn29  1  0.057122  0.878137  0.750000  1
  Sn  Sn30  1  0.443395  0.377870  0.250000  1
  Sn  Sn31  1  0.943395  0.122130  0.250000  1
  Sn  Sn32  1  0.325148  0.142904  0.750000  1
  Sn  Sn33  1  0.825148  0.357096  0.750000  1
  Sn  Sn34  1  0.674163  0.856004  0.250000  1
  Sn  Sn35  1  0.174163  0.643996  0.250000  1
