# generated using pymatgen
data_Tb3Lu2ThGa4
_symmetry_space_group_name_H-M   'P 1'
_cell_length_a   7.59970222
_cell_length_b   7.59970222
_cell_length_c   4.39256900
_cell_angle_alpha   90.00000000
_cell_angle_beta   90.00000000
_cell_angle_gamma   90.45238416
_symmetry_Int_Tables_number   1
_chemical_formula_structural   Tb3Lu2ThGa4
_chemical_formula_sum   'Tb3 Lu2 Th1 Ga4'
_cell_volume   253.68699632
_cell_formula_units_Z   1
loop_
 _symmetry_equiv_pos_site_id
 _symmetry_equiv_pos_as_xyz
  1  'x, y, z'
loop_
 _atom_site_type_symbol
 _atom_site_label
 _atom_site_symmetry_multiplicity
 _atom_site_fract_x
 _atom_site_fract_y
 _atom_site_fract_z
 _atom_site_occupancy
  Tb  Tb0  1  0.825363  0.325411  0.500000  1
  Tb  Tb1  1  0.174588  0.674637  0.500000  1
  Tb  Tb2  1  0.675875  0.824125  0.500000  1
  Lu  Lu3  1  0.998453  0.998597  0.000000  1
  Lu  Lu4  1  0.501403  0.501547  0.000000  1
  Th  Th5  1  0.326318  0.173681  0.500000  1
  Ga  Ga6  1  0.623171  0.122078  0.000000  1
  Ga  Ga7  1  0.119147  0.380853  0.000000  1
  Ga  Ga8  1  0.877760  0.622240  0.000000  1
  Ga  Ga9  1  0.377922  0.876829  0.000000  1
