# generated using pymatgen
data_Tb4Gd2WO12
_symmetry_space_group_name_H-M   'P 1'
_cell_length_a   6.54114381
_cell_length_b   6.54516573
_cell_length_c   6.53954747
_cell_angle_alpha   98.69283779
_cell_angle_beta   98.54599266
_cell_angle_gamma   98.65328135
_symmetry_Int_Tables_number   1
_chemical_formula_structural   Tb4Gd2WO12
_chemical_formula_sum   'Tb4 Gd2 W1 O12'
_cell_volume   269.37197458
_cell_formula_units_Z   1
loop_
 _symmetry_equiv_pos_site_id
 _symmetry_equiv_pos_as_xyz
  1  'x, y, z'
loop_
 _atom_site_type_symbol
 _atom_site_label
 _atom_site_symmetry_multiplicity
 _atom_site_fract_x
 _atom_site_fract_y
 _atom_site_fract_z
 _atom_site_occupancy
  Tb  Tb0  1  0.855378  0.387333  0.685041  1
  Tb  Tb1  1  0.611951  0.313872  0.144559  1
  Tb  Tb2  1  0.315617  0.144108  0.611185  1
  Tb  Tb3  1  0.686433  0.856518  0.389135  1
  Gd  Gd4  1  0.390343  0.685279  0.855968  1
  Gd  Gd5  1  0.143400  0.610107  0.313743  1
  W  W6  1  0.999995  0.000365  0.999621  1
  O  O7  1  0.924461  0.033656  0.704033  1
  O  O8  1  0.963139  0.295479  0.072042  1
  O  O9  1  0.591640  0.176945  0.433502  1
  O  O10  1  0.821671  0.566107  0.410290  1
  O  O11  1  0.294603  0.077094  0.966303  1
  O  O12  1  0.566603  0.405345  0.822679  1
  O  O13  1  0.436186  0.590733  0.178441  1
  O  O14  1  0.705278  0.927207  0.037138  1
  O  O15  1  0.176735  0.431376  0.591560  1
  O  O16  1  0.410481  0.823650  0.566284  1
  O  O17  1  0.030340  0.705476  0.923400  1
  O  O18  1  0.075747  0.969351  0.295075  1
