# generated using pymatgen
data_Nd(Ge2Rh3)2
_symmetry_space_group_name_H-M   'P 1'
_cell_length_a   7.24337400
_cell_length_b   7.24337359
_cell_length_c   3.88900700
_cell_angle_alpha   90.00000000
_cell_angle_beta   90.00000000
_cell_angle_gamma   119.99999273
_symmetry_Int_Tables_number   1
_chemical_formula_structural   Nd(Ge2Rh3)2
_chemical_formula_sum   'Nd1 Ge4 Rh6'
_cell_volume   176.70595427
_cell_formula_units_Z   1
loop_
 _symmetry_equiv_pos_site_id
 _symmetry_equiv_pos_as_xyz
  1  'x, y, z'
loop_
 _atom_site_type_symbol
 _atom_site_label
 _atom_site_symmetry_multiplicity
 _atom_site_fract_x
 _atom_site_fract_y
 _atom_site_fract_z
 _atom_site_occupancy
  Nd  Nd0  1  0.000000  0.000000  0.000000  1
  Ge  Ge1  1  0.333333  0.666667  0.000000  1
  Ge  Ge2  1  0.801565  0.603130  0.500000  1
  Ge  Ge3  1  0.396870  0.198435  0.500000  1
  Ge  Ge4  1  0.801565  0.198435  0.500000  1
  Rh  Rh5  1  0.533394  0.066788  0.000000  1
  Rh  Rh6  1  0.933212  0.466606  0.000000  1
  Rh  Rh7  1  0.533394  0.466606  0.000000  1
  Rh  Rh8  1  0.200123  0.400245  0.500000  1
  Rh  Rh9  1  0.599755  0.799877  0.500000  1
  Rh  Rh10  1  0.200123  0.799877  0.500000  1
