# generated using pymatgen
data_Ce3Dy9Mn3Co
_symmetry_space_group_name_H-M   'P 1'
_cell_length_a   6.37239990
_cell_length_b   6.96370544
_cell_length_c   9.43363100
_cell_angle_alpha   90.00000000
_cell_angle_beta   90.00000000
_cell_angle_gamma   91.08909325
_symmetry_Int_Tables_number   1
_chemical_formula_structural   Ce3Dy9Mn3Co
_chemical_formula_sum   'Ce3 Dy9 Mn3 Co1'
_cell_volume   418.54661729
_cell_formula_units_Z   1
loop_
 _symmetry_equiv_pos_site_id
 _symmetry_equiv_pos_as_xyz
  1  'x, y, z'
loop_
 _atom_site_type_symbol
 _atom_site_label
 _atom_site_symmetry_multiplicity
 _atom_site_fract_x
 _atom_site_fract_y
 _atom_site_fract_z
 _atom_site_occupancy
  Ce  Ce0  1  0.131850  0.423634  0.750000  1
  Ce  Ce1  1  0.376324  0.925658  0.750000  1
  Ce  Ce2  1  0.864918  0.574607  0.250000  1
  Dy  Dy3  1  0.673950  0.327247  0.936606  1
  Dy  Dy4  1  0.631486  0.050710  0.250000  1
  Dy  Dy5  1  0.171500  0.170509  0.432898  1
  Dy  Dy6  1  0.831186  0.829219  0.564575  1
  Dy  Dy7  1  0.171500  0.170509  0.067102  1
  Dy  Dy8  1  0.831186  0.829219  0.935425  1
  Dy  Dy9  1  0.673950  0.327247  0.563394  1
  Dy  Dy10  1  0.329191  0.669322  0.064683  1
  Dy  Dy11  1  0.329191  0.669322  0.435317  1
  Mn  Mn12  1  0.503246  0.647230  0.750000  1
  Mn  Mn13  1  0.995710  0.145699  0.750000  1
  Mn  Mn14  1  0.010831  0.848616  0.250000  1
  Co  Co15  1  0.473979  0.391258  0.250000  1
