# generated using pymatgen
data_Ce2Co5RuC5
_symmetry_space_group_name_H-M   'P 1'
_cell_length_a   8.50303500
_cell_length_b   8.50303500
_cell_length_c   4.07641900
_cell_angle_alpha   90.00000000
_cell_angle_beta   90.00000000
_cell_angle_gamma   90.00000000
_symmetry_Int_Tables_number   1
_chemical_formula_structural   Ce2Co5RuC5
_chemical_formula_sum   'Ce4 Co10 Ru2 C10'
_cell_volume   294.73163314
_cell_formula_units_Z   2
loop_
 _symmetry_equiv_pos_site_id
 _symmetry_equiv_pos_as_xyz
  1  'x, y, z'
loop_
 _atom_site_type_symbol
 _atom_site_label
 _atom_site_symmetry_multiplicity
 _atom_site_fract_x
 _atom_site_fract_y
 _atom_site_fract_z
 _atom_site_occupancy
  Ce  Ce0  1  0.327169  0.827169  0.500000  1
  Ce  Ce1  1  0.827169  0.672831  0.500000  1
  Ce  Ce2  1  0.172831  0.327169  0.500000  1
  Ce  Ce3  1  0.672831  0.172831  0.500000  1
  Co  Co4  1  0.713744  0.430681  0.000000  1
  Co  Co5  1  0.430681  0.286256  0.000000  1
  Co  Co6  1  0.500000  0.000000  0.000000  1
  Co  Co7  1  0.000000  0.500000  0.000000  1
  Co  Co8  1  0.786256  0.930681  0.000000  1
  Co  Co9  1  0.930681  0.213744  0.000000  1
  Co  Co10  1  0.069319  0.786256  0.000000  1
  Co  Co11  1  0.213744  0.069319  0.000000  1
  Co  Co12  1  0.569319  0.713744  0.000000  1
  Co  Co13  1  0.286256  0.569319  0.000000  1
  Ru  Ru14  1  0.000000  0.000000  0.500000  1
  Ru  Ru15  1  0.500000  0.500000  0.500000  1
  C  C16  1  0.500000  0.500000  0.000000  1
  C  C17  1  0.000000  0.000000  0.000000  1
  C  C18  1  0.878305  0.378305  0.674927  1
  C  C19  1  0.121695  0.621695  0.674927  1
  C  C20  1  0.878305  0.378305  0.325073  1
  C  C21  1  0.378305  0.121695  0.325073  1
  C  C22  1  0.621695  0.878305  0.325073  1
  C  C23  1  0.121695  0.621695  0.325073  1
  C  C24  1  0.621695  0.878305  0.674927  1
  C  C25  1  0.378305  0.121695  0.674927  1
