# generated using pymatgen
data_ErTm3OsWC4
_symmetry_space_group_name_H-M   'P 1'
_cell_length_a   5.03004200
_cell_length_b   6.53978668
_cell_length_c   9.79252217
_cell_angle_alpha   89.12153690
_cell_angle_beta   90.00000000
_cell_angle_gamma   90.00000000
_symmetry_Int_Tables_number   1
_chemical_formula_structural   ErTm3OsWC4
_chemical_formula_sum   'Er2 Tm6 Os2 W2 C8'
_cell_volume   322.09108904
_cell_formula_units_Z   2
loop_
 _symmetry_equiv_pos_site_id
 _symmetry_equiv_pos_as_xyz
  1  'x, y, z'
loop_
 _atom_site_type_symbol
 _atom_site_label
 _atom_site_symmetry_multiplicity
 _atom_site_fract_x
 _atom_site_fract_y
 _atom_site_fract_z
 _atom_site_occupancy
  Er  Er0  1  0.750000  0.966516  0.716943  1
  Er  Er1  1  0.250000  0.033484  0.283057  1
  Tm  Tm2  1  0.250000  0.675618  0.558623  1
  Tm  Tm3  1  0.750000  0.324382  0.441377  1
  Tm  Tm4  1  0.750000  0.826243  0.059092  1
  Tm  Tm5  1  0.250000  0.173757  0.940908  1
  Tm  Tm6  1  0.250000  0.540832  0.218999  1
  Tm  Tm7  1  0.750000  0.459168  0.781001  1
  Os  Os8  1  0.750000  0.782025  0.368754  1
  Os  Os9  1  0.250000  0.217975  0.631246  1
  W  W10  1  0.250000  0.712715  0.870242  1
  W  W11  1  0.750000  0.287285  0.129758  1
  C  C12  1  0.250000  0.446487  0.758417  1
  C  C13  1  0.750000  0.553513  0.241583  1
  C  C14  1  0.750000  0.050674  0.259728  1
  C  C15  1  0.250000  0.949326  0.740272  1
  C  C16  1  0.250000  0.827133  0.056268  1
  C  C17  1  0.750000  0.172867  0.943732  1
  C  C18  1  0.750000  0.672745  0.551640  1
  C  C19  1  0.250000  0.327255  0.448360  1
