# generated using pymatgen
data_Li6Y4AlZn27
_symmetry_space_group_name_H-M   'P 1'
_cell_length_a   8.94319868
_cell_length_b   8.94319837
_cell_length_c   8.72931100
_cell_angle_alpha   90.02241040
_cell_angle_beta   89.97758960
_cell_angle_gamma   119.98777111
_symmetry_Int_Tables_number   1
_chemical_formula_structural   Li6Y4AlZn27
_chemical_formula_sum   'Li6 Y4 Al1 Zn27'
_cell_volume   604.71368981
_cell_formula_units_Z   1
loop_
 _symmetry_equiv_pos_site_id
 _symmetry_equiv_pos_as_xyz
  1  'x, y, z'
loop_
 _atom_site_type_symbol
 _atom_site_label
 _atom_site_symmetry_multiplicity
 _atom_site_fract_x
 _atom_site_fract_y
 _atom_site_fract_z
 _atom_site_occupancy
  Li  Li0  1  0.498786  0.997588  0.498633  1
  Li  Li1  1  0.498796  0.501204  0.498626  1
  Li  Li2  1  0.002412  0.501214  0.498633  1
  Li  Li3  1  0.500162  0.000371  0.000568  1
  Li  Li4  1  0.500210  0.499790  0.000540  1
  Li  Li5  1  0.999629  0.499838  0.000568  1
  Y  Y6  1  0.000060  0.999940  0.748820  1
  Y  Y7  1  0.999960  0.000040  0.249969  1
  Y  Y8  1  0.666742  0.333258  0.250518  1
  Y  Y9  1  0.333220  0.666780  0.749929  1
  Al  Al10  1  0.666661  0.333339  0.601704  1
  Zn  Zn11  1  0.333291  0.666709  0.403444  1
  Zn  Zn12  1  0.333290  0.666710  0.096523  1
  Zn  Zn13  1  0.666787  0.333213  0.906483  1
  Zn  Zn14  1  0.665653  0.036371  0.749603  1
  Zn  Zn15  1  0.370923  0.334266  0.749596  1
  Zn  Zn16  1  0.963794  0.629511  0.749647  1
  Zn  Zn17  1  0.370489  0.036206  0.749647  1
  Zn  Zn18  1  0.963629  0.334347  0.749603  1
  Zn  Zn19  1  0.665734  0.629077  0.749596  1
  Zn  Zn20  1  0.332749  0.963486  0.249846  1
  Zn  Zn21  1  0.630449  0.667302  0.249865  1
  Zn  Zn22  1  0.036420  0.369038  0.249860  1
  Zn  Zn23  1  0.630962  0.963580  0.249860  1
  Zn  Zn24  1  0.036514  0.667251  0.249846  1
  Zn  Zn25  1  0.332698  0.369551  0.249865  1
  Zn  Zn26  1  0.835422  0.670262  0.480555  1
  Zn  Zn27  1  0.835291  0.164709  0.480725  1
  Zn  Zn28  1  0.329738  0.164578  0.480555  1
  Zn  Zn29  1  0.162718  0.326190  0.518189  1
  Zn  Zn30  1  0.162943  0.837057  0.517935  1
  Zn  Zn31  1  0.673810  0.837282  0.518189  1
  Zn  Zn32  1  0.162773  0.326048  0.981723  1
  Zn  Zn33  1  0.162831  0.837169  0.982008  1
  Zn  Zn34  1  0.673952  0.837227  0.981723  1
  Zn  Zn35  1  0.836190  0.671745  0.018976  1
  Zn  Zn36  1  0.836057  0.163943  0.018655  1
  Zn  Zn37  1  0.328255  0.163810  0.018976  1
