# generated using pymatgen
data_Cs4Zr6MnBr18
_symmetry_space_group_name_H-M   'P 1'
_cell_length_a   10.97495626
_cell_length_b   11.30015123
_cell_length_c   11.43004957
_cell_angle_alpha   118.12640944
_cell_angle_beta   100.54908788
_cell_angle_gamma   104.73419862
_symmetry_Int_Tables_number   1
_chemical_formula_structural   Cs4Zr6MnBr18
_chemical_formula_sum   'Cs4 Zr6 Mn1 Br18'
_cell_volume   1130.17934848
_cell_formula_units_Z   1
loop_
 _symmetry_equiv_pos_site_id
 _symmetry_equiv_pos_as_xyz
  1  'x, y, z'
loop_
 _atom_site_type_symbol
 _atom_site_label
 _atom_site_symmetry_multiplicity
 _atom_site_fract_x
 _atom_site_fract_y
 _atom_site_fract_z
 _atom_site_occupancy
  Cs  Cs0  1  0.661348  0.537676  0.228320  1
  Cs  Cs1  1  0.338652  0.462324  0.771680  1
  Cs  Cs2  1  0.696966  0.229908  0.566565  1
  Cs  Cs3  1  0.303034  0.770092  0.433435  1
  Zr  Zr4  1  0.152891  0.056773  0.229923  1
  Zr  Zr5  1  0.847109  0.943227  0.770077  1
  Zr  Zr6  1  0.859758  0.122675  0.128887  1
  Zr  Zr7  1  0.140242  0.877325  0.871113  1
  Zr  Zr8  1  0.142042  0.229783  0.043745  1
  Zr  Zr9  1  0.857958  0.770217  0.956255  1
  Mn  Mn10  1  0.000000  0.000000  0.000000  1
  Br  Br11  1  0.008264  0.390621  0.186514  1
  Br  Br12  1  0.991736  0.609379  0.813486  1
  Br  Br13  1  0.322221  0.321375  0.299533  1
  Br  Br14  1  0.677779  0.678625  0.700467  1
  Br  Br15  1  0.315698  0.501427  0.099778  1
  Br  Br16  1  0.684302  0.498573  0.900222  1
  Br  Br17  1  0.004342  0.803818  0.200668  1
  Br  Br18  1  0.995658  0.196182  0.799332  1
  Br  Br19  1  0.709161  0.259107  0.272738  1
  Br  Br20  1  0.290839  0.740893  0.727262  1
  Br  Br21  1  0.309125  0.126098  0.910820  1
  Br  Br22  1  0.690875  0.873902  0.089180  1
  Br  Br23  1  0.015672  0.195422  0.390686  1
  Br  Br24  1  0.984328  0.804578  0.609314  1
  Br  Br25  1  0.315181  0.930274  0.109919  1
  Br  Br26  1  0.684819  0.069726  0.890081  1
  Br  Br27  1  0.330075  0.121525  0.485788  1
  Br  Br28  1  0.669925  0.878475  0.514212  1
