# generated using pymatgen
data_Y5TmTh2(MgCo)2
_symmetry_space_group_name_H-M   'P 1'
_cell_length_a   9.65756780
_cell_length_b   9.66253277
_cell_length_c   9.66253428
_cell_angle_alpha   59.96599887
_cell_angle_beta   60.01699671
_cell_angle_gamma   60.01699985
_symmetry_Int_Tables_number   1
_chemical_formula_structural   Y5TmTh2(MgCo)2
_chemical_formula_sum   'Y10 Tm2 Th4 Mg4 Co4'
_cell_volume   637.57980302
_cell_formula_units_Z   2
loop_
 _symmetry_equiv_pos_site_id
 _symmetry_equiv_pos_as_xyz
  1  'x, y, z'
loop_
 _atom_site_type_symbol
 _atom_site_label
 _atom_site_symmetry_multiplicity
 _atom_site_fract_x
 _atom_site_fract_y
 _atom_site_fract_z
 _atom_site_occupancy
  Y  Y0  1  0.185928  0.814072  0.185928  1
  Y  Y1  1  0.814072  0.185928  0.814072  1
  Y  Y2  1  0.185928  0.185928  0.814072  1
  Y  Y3  1  0.814072  0.814072  0.185928  1
  Y  Y4  1  0.936109  0.563891  0.563891  1
  Y  Y5  1  0.563891  0.936109  0.936109  1
  Y  Y6  1  0.563884  0.936116  0.563884  1
  Y  Y7  1  0.936116  0.563884  0.936116  1
  Y  Y8  1  0.563884  0.563884  0.936116  1
  Y  Y9  1  0.936116  0.936116  0.563884  1
  Tm  Tm10  1  0.813270  0.186730  0.186730  1
  Tm  Tm11  1  0.186730  0.813270  0.813270  1
  Th  Th12  1  0.344838  0.343458  0.343458  1
  Th  Th13  1  0.343458  0.344838  0.968246  1
  Th  Th14  1  0.343458  0.968246  0.344838  1
  Th  Th15  1  0.968246  0.343458  0.343458  1
  Mg  Mg16  1  0.579726  0.579763  0.579763  1
  Mg  Mg17  1  0.579763  0.579726  0.260747  1
  Mg  Mg18  1  0.579763  0.260747  0.579726  1
  Mg  Mg19  1  0.260747  0.579763  0.579763  1
  Co  Co20  1  0.142938  0.146880  0.146880  1
  Co  Co21  1  0.146880  0.142938  0.563300  1
  Co  Co22  1  0.146880  0.563300  0.142938  1
  Co  Co23  1  0.563300  0.146880  0.146880  1
