# generated using pymatgen
data_Ho6FeCo17P12
_symmetry_space_group_name_H-M   'P 1'
_cell_length_a   3.68195900
_cell_length_b   10.48349800
_cell_length_c   12.13577200
_cell_angle_alpha   90.00000000
_cell_angle_beta   90.00000000
_cell_angle_gamma   90.00000000
_symmetry_Int_Tables_number   1
_chemical_formula_structural   Ho6FeCo17P12
_chemical_formula_sum   'Ho6 Fe1 Co17 P12'
_cell_volume   468.43849113
_cell_formula_units_Z   1
loop_
 _symmetry_equiv_pos_site_id
 _symmetry_equiv_pos_as_xyz
  1  'x, y, z'
loop_
 _atom_site_type_symbol
 _atom_site_label
 _atom_site_symmetry_multiplicity
 _atom_site_fract_x
 _atom_site_fract_y
 _atom_site_fract_z
 _atom_site_occupancy
  Ho  Ho0  1  0.000000  0.500000  0.522020  1
  Ho  Ho1  1  0.500000  0.000000  0.477300  1
  Ho  Ho2  1  0.500000  0.817534  0.205830  1
  Ho  Ho3  1  0.500000  0.182466  0.205830  1
  Ho  Ho4  1  0.000000  0.682588  0.794814  1
  Ho  Ho5  1  0.000000  0.317412  0.794814  1
  Fe  Fe6  1  0.500000  0.500000  0.157654  1
  Co  Co7  1  0.000000  0.500000  0.985944  1
  Co  Co8  1  0.500000  0.000000  0.014234  1
  Co  Co9  1  0.500000  0.297326  0.430913  1
  Co  Co10  1  0.500000  0.702674  0.430913  1
  Co  Co11  1  0.000000  0.202598  0.569348  1
  Co  Co12  1  0.000000  0.797402  0.569348  1
  Co  Co13  1  0.500000  0.879246  0.709276  1
  Co  Co14  1  0.500000  0.120754  0.709276  1
  Co  Co15  1  0.000000  0.621253  0.290930  1
  Co  Co16  1  0.000000  0.378747  0.290930  1
  Co  Co17  1  0.500000  0.332967  0.994323  1
  Co  Co18  1  0.500000  0.667033  0.994323  1
  Co  Co19  1  0.000000  0.166656  0.005772  1
  Co  Co20  1  0.000000  0.833344  0.005772  1
  Co  Co21  1  0.000000  0.000000  0.840662  1
  Co  Co22  1  0.500000  0.500000  0.702477  1
  Co  Co23  1  0.000000  0.000000  0.297310  1
  P  P24  1  0.500000  0.310818  0.616228  1
  P  P25  1  0.500000  0.689182  0.616228  1
  P  P26  1  0.000000  0.189437  0.383868  1
  P  P27  1  0.000000  0.810563  0.383868  1
  P  P28  1  0.500000  0.500000  0.882031  1
  P  P29  1  0.000000  0.000000  0.117901  1
  P  P30  1  0.500000  0.847674  0.892764  1
  P  P31  1  0.500000  0.152326  0.892764  1
  P  P32  1  0.000000  0.652524  0.107370  1
  P  P33  1  0.000000  0.347476  0.107370  1
  P  P34  1  0.500000  0.500000  0.343800  1
  P  P35  1  0.000000  0.000000  0.655797  1
