# generated using pymatgen
data_Li4ErUSe6
_symmetry_space_group_name_H-M   'P 1'
_cell_length_a   6.97610077
_cell_length_b   6.97589104
_cell_length_c   6.81863400
_cell_angle_alpha   99.79073225
_cell_angle_beta   99.79733606
_cell_angle_gamma   119.99463044
_symmetry_Int_Tables_number   1
_chemical_formula_structural   Li4ErUSe6
_chemical_formula_sum   'Li4 Er1 U1 Se6'
_cell_volume   270.24471657
_cell_formula_units_Z   1
loop_
 _symmetry_equiv_pos_site_id
 _symmetry_equiv_pos_as_xyz
  1  'x, y, z'
loop_
 _atom_site_type_symbol
 _atom_site_label
 _atom_site_symmetry_multiplicity
 _atom_site_fract_x
 _atom_site_fract_y
 _atom_site_fract_z
 _atom_site_occupancy
  Li  Li0  1  0.500336  0.499725  0.000040  1
  Li  Li1  1  0.002304  0.997692  0.499992  1
  Li  Li2  1  0.663108  0.336887  0.500007  1
  Li  Li3  1  0.336196  0.663797  0.500000  1
  Er  Er4  1  0.833125  0.166856  0.000103  1
  U  U5  1  0.166869  0.833111  0.999938  1
  Se  Se6  1  0.926125  0.589678  0.245209  1
  Se  Se7  1  0.574954  0.920333  0.249220  1
  Se  Se8  1  0.244748  0.237738  0.250919  1
  Se  Se9  1  0.762245  0.755272  0.749053  1
  Se  Se10  1  0.079634  0.425011  0.750767  1
  Se  Se11  1  0.410361  0.073906  0.754753  1
