# generated using pymatgen
data_MnCrGaC
_symmetry_space_group_name_H-M   'P 1'
_cell_length_a   2.89140800
_cell_length_b   2.89140769
_cell_length_c   12.44201400
_cell_angle_alpha   90.00000000
_cell_angle_beta   90.00000000
_cell_angle_gamma   119.99998067
_symmetry_Int_Tables_number   1
_chemical_formula_structural   MnCrGaC
_chemical_formula_sum   'Mn2 Cr2 Ga2 C2'
_cell_volume   90.08243397
_cell_formula_units_Z   2
loop_
 _symmetry_equiv_pos_site_id
 _symmetry_equiv_pos_as_xyz
  1  'x, y, z'
loop_
 _atom_site_type_symbol
 _atom_site_label
 _atom_site_symmetry_multiplicity
 _atom_site_fract_x
 _atom_site_fract_y
 _atom_site_fract_z
 _atom_site_occupancy
  Mn  Mn0  1  0.666667  0.333333  0.915257  1
  Mn  Mn1  1  0.333333  0.666667  0.084743  1
  Cr  Cr2  1  0.333333  0.666667  0.415719  1
  Cr  Cr3  1  0.666667  0.333333  0.584281  1
  Ga  Ga4  1  0.333333  0.666667  0.748439  1
  Ga  Ga5  1  0.666667  0.333333  0.251561  1
  C  C6  1  0.000000  0.000000  0.500000  1
  C  C7  1  0.000000  0.000000  0.000000  1
