# generated using pymatgen
data_Yb9Pr8Sm3Sn16
_symmetry_space_group_name_H-M   'P 1'
_cell_length_a   7.99259538
_cell_length_b   8.50865180
_cell_length_c   16.06007343
_cell_angle_alpha   90.04200047
_cell_angle_beta   89.97635852
_cell_angle_gamma   90.02656097
_symmetry_Int_Tables_number   1
_chemical_formula_structural   Yb9Pr8Sm3Sn16
_chemical_formula_sum   'Yb9 Pr8 Sm3 Sn16'
_cell_volume   1092.18423977
_cell_formula_units_Z   1
loop_
 _symmetry_equiv_pos_site_id
 _symmetry_equiv_pos_as_xyz
  1  'x, y, z'
loop_
 _atom_site_type_symbol
 _atom_site_label
 _atom_site_symmetry_multiplicity
 _atom_site_fract_x
 _atom_site_fract_y
 _atom_site_fract_z
 _atom_site_occupancy
  Yb  Yb0  1  0.166568  0.328461  0.123543  1
  Yb  Yb1  1  0.667595  0.172238  0.123565  1
  Yb  Yb2  1  0.167433  0.327376  0.376720  1
  Yb  Yb3  1  0.332278  0.828139  0.623322  1
  Yb  Yb4  1  0.832763  0.671809  0.877012  1
  Yb  Yb5  1  0.162404  0.502486  0.750081  1
  Yb  Yb6  1  0.662409  0.997586  0.750151  1
  Yb  Yb7  1  0.838970  0.496671  0.249240  1
  Yb  Yb8  1  0.336819  0.003623  0.249173  1
  Pr  Pr9  1  0.493442  0.315521  0.903987  1
  Pr  Pr10  1  0.993819  0.184581  0.595872  1
  Pr  Pr11  1  0.505020  0.684416  0.403867  1
  Pr  Pr12  1  0.006536  0.814177  0.095927  1
  Pr  Pr13  1  0.507100  0.684284  0.096470  1
  Pr  Pr14  1  0.008161  0.815278  0.404188  1
  Pr  Pr15  1  0.492760  0.315640  0.596048  1
  Pr  Pr16  1  0.993203  0.185376  0.904601  1
  Sm  Sm17  1  0.332915  0.827441  0.875711  1
  Sm  Sm18  1  0.833345  0.672848  0.624126  1
  Sm  Sm19  1  0.665627  0.173510  0.375287  1
  Sn  Sn20  1  0.329433  0.035472  0.038648  1
  Sn  Sn21  1  0.827543  0.463373  0.461322  1
  Sn  Sn22  1  0.672493  0.963290  0.538295  1
  Sn  Sn23  1  0.171165  0.536370  0.961078  1
  Sn  Sn24  1  0.670031  0.964107  0.960697  1
  Sn  Sn25  1  0.170790  0.535985  0.539408  1
  Sn  Sn26  1  0.329390  0.036079  0.460791  1
  Sn  Sn27  1  0.829061  0.464152  0.039079  1
  Sn  Sn28  1  0.534527  0.605510  0.749766  1
  Sn  Sn29  1  0.034596  0.893949  0.750647  1
  Sn  Sn30  1  0.465446  0.394788  0.250210  1
  Sn  Sn31  1  0.964758  0.104178  0.250556  1
  Sn  Sn32  1  0.290135  0.141160  0.750256  1
  Sn  Sn33  1  0.790330  0.358878  0.749440  1
  Sn  Sn34  1  0.710193  0.859515  0.250716  1
  Sn  Sn35  1  0.210944  0.641733  0.250200  1
