# generated using pymatgen
data_Tb8In2NiRh
_symmetry_space_group_name_H-M   'P 1'
_cell_length_a   9.66611253
_cell_length_b   9.66217497
_cell_length_c   9.66611245
_cell_angle_alpha   60.01348132
_cell_angle_beta   60.16582574
_cell_angle_gamma   60.01347781
_symmetry_Int_Tables_number   1
_chemical_formula_structural   Tb8In2NiRh
_chemical_formula_sum   'Tb16 In4 Ni2 Rh2'
_cell_volume   639.28362858
_cell_formula_units_Z   2
loop_
 _symmetry_equiv_pos_site_id
 _symmetry_equiv_pos_as_xyz
  1  'x, y, z'
loop_
 _atom_site_type_symbol
 _atom_site_label
 _atom_site_symmetry_multiplicity
 _atom_site_fract_x
 _atom_site_fract_y
 _atom_site_fract_z
 _atom_site_occupancy
  Tb  Tb0  1  0.809945  0.810901  0.188225  1
  Tb  Tb1  1  0.810661  0.189339  0.810661  1
  Tb  Tb2  1  0.188225  0.190929  0.809945  1
  Tb  Tb3  1  0.652093  0.045906  0.652093  1
  Tb  Tb4  1  0.062007  0.062199  0.436757  1
  Tb  Tb5  1  0.436757  0.439037  0.062007  1
  Tb  Tb6  1  0.652093  0.649908  0.652093  1
  Tb  Tb7  1  0.809945  0.190929  0.188225  1
  Tb  Tb8  1  0.188225  0.810901  0.809945  1
  Tb  Tb9  1  0.047593  0.650062  0.652283  1
  Tb  Tb10  1  0.436757  0.062199  0.062007  1
  Tb  Tb11  1  0.437914  0.062086  0.437914  1
  Tb  Tb12  1  0.062098  0.437902  0.062098  1
  Tb  Tb13  1  0.652283  0.650062  0.047593  1
  Tb  Tb14  1  0.190131  0.809869  0.190131  1
  Tb  Tb15  1  0.062007  0.439037  0.436757  1
  In  In16  1  0.417631  0.417832  0.417631  1
  In  In17  1  0.417868  0.417744  0.746644  1
  In  In18  1  0.417631  0.746905  0.417631  1
  In  In19  1  0.746644  0.417744  0.417868  1
  Ni  Ni20  1  0.858041  0.427084  0.858041  1
  Ni  Ni21  1  0.858041  0.856834  0.858041  1
  Rh  Rh22  1  0.858384  0.857295  0.427027  1
  Rh  Rh23  1  0.427027  0.857295  0.858384  1
