# generated using pymatgen
data_Tb6Tm7Th3(CdIr)4
_symmetry_space_group_name_H-M   'P 1'
_cell_length_a   9.69574856
_cell_length_b   9.68236831
_cell_length_c   9.68236800
_cell_angle_alpha   60.00000106
_cell_angle_beta   60.04564099
_cell_angle_gamma   60.04565009
_symmetry_Int_Tables_number   1
_chemical_formula_structural   Tb6Tm7Th3(CdIr)4
_chemical_formula_sum   'Tb6 Tm7 Th3 Cd4 Ir4'
_cell_volume   643.17450836
_cell_formula_units_Z   1
loop_
 _symmetry_equiv_pos_site_id
 _symmetry_equiv_pos_as_xyz
  1  'x, y, z'
loop_
 _atom_site_type_symbol
 _atom_site_label
 _atom_site_symmetry_multiplicity
 _atom_site_fract_x
 _atom_site_fract_y
 _atom_site_fract_z
 _atom_site_occupancy
  Tb  Tb0  1  0.186855  0.812764  0.812764  1
  Tb  Tb1  1  0.814379  0.185652  0.185652  1
  Tb  Tb2  1  0.814379  0.185652  0.814316  1
  Tb  Tb3  1  0.186855  0.812764  0.187618  1
  Tb  Tb4  1  0.814379  0.814316  0.185652  1
  Tb  Tb5  1  0.186855  0.187618  0.812764  1
  Tm  Tm6  1  0.199652  0.600116  0.600116  1
  Tm  Tm7  1  0.063095  0.438165  0.438165  1
  Tm  Tm8  1  0.436661  0.063884  0.063884  1
  Tm  Tm9  1  0.436661  0.063884  0.435569  1
  Tm  Tm10  1  0.063095  0.438165  0.060574  1
  Tm  Tm11  1  0.436661  0.435569  0.063884  1
  Tm  Tm12  1  0.063095  0.060574  0.438165  1
  Th  Th13  1  0.597868  0.600228  0.600228  1
  Th  Th14  1  0.597868  0.600228  0.201679  1
  Th  Th15  1  0.597868  0.201679  0.600228  1
  Cd  Cd16  1  0.834356  0.830701  0.830701  1
  Cd  Cd17  1  0.834356  0.830701  0.504244  1
  Cd  Cd18  1  0.834356  0.504244  0.830701  1
  Cd  Cd19  1  0.501954  0.832682  0.832682  1
  Ir  Ir20  1  0.391818  0.392027  0.392027  1
  Ir  Ir21  1  0.391818  0.392027  0.824129  1
  Ir  Ir22  1  0.391818  0.824129  0.392027  1
  Ir  Ir23  1  0.823294  0.392235  0.392235  1
