# generated using pymatgen
data_CaYb14Pa5Pt16
_symmetry_space_group_name_H-M   'P 1'
_cell_length_a   7.54826070
_cell_length_b   7.65049508
_cell_length_c   14.59924800
_cell_angle_alpha   90.14692250
_cell_angle_beta   89.95154164
_cell_angle_gamma   90.10545182
_symmetry_Int_Tables_number   1
_chemical_formula_structural   CaYb14Pa5Pt16
_chemical_formula_sum   'Ca1 Yb14 Pa5 Pt16'
_cell_volume   843.07187329
_cell_formula_units_Z   1
loop_
 _symmetry_equiv_pos_site_id
 _symmetry_equiv_pos_as_xyz
  1  'x, y, z'
loop_
 _atom_site_type_symbol
 _atom_site_label
 _atom_site_symmetry_multiplicity
 _atom_site_fract_x
 _atom_site_fract_y
 _atom_site_fract_z
 _atom_site_occupancy
  Ca  Ca0  1  0.651629  0.157523  0.621991  1
  Yb  Yb1  1  0.648600  0.159742  0.880003  1
  Yb  Yb2  1  0.149970  0.336872  0.621944  1
  Yb  Yb3  1  0.496082  0.679077  0.599347  1
  Yb  Yb4  1  0.992183  0.826875  0.900210  1
  Yb  Yb5  1  0.503580  0.319252  0.090698  1
  Yb  Yb6  1  0.003505  0.178621  0.409040  1
  Yb  Yb7  1  0.502856  0.319189  0.410085  1
  Yb  Yb8  1  0.999482  0.179252  0.092468  1
  Yb  Yb9  1  0.501583  0.682516  0.900032  1
  Yb  Yb10  1  0.991451  0.817705  0.599554  1
  Yb  Yb11  1  0.806151  0.506698  0.748079  1
  Yb  Yb12  1  0.319016  0.990327  0.749405  1
  Yb  Yb13  1  0.196758  0.475018  0.249388  1
  Yb  Yb14  1  0.698315  0.023047  0.249506  1
  Pa  Pa15  1  0.153085  0.346770  0.878018  1
  Pa  Pa16  1  0.349577  0.844003  0.120409  1
  Pa  Pa17  1  0.849735  0.659630  0.377020  1
  Pa  Pa18  1  0.350104  0.838544  0.377695  1
  Pa  Pa19  1  0.852117  0.656919  0.120119  1
  Pt  Pt20  1  0.682080  0.944808  0.451343  1
  Pt  Pt21  1  0.193713  0.554318  0.039904  1
  Pt  Pt22  1  0.299569  0.051044  0.964237  1
  Pt  Pt23  1  0.809929  0.469948  0.533141  1
  Pt  Pt24  1  0.304960  0.024488  0.534514  1
  Pt  Pt25  1  0.822154  0.463946  0.960211  1
  Pt  Pt26  1  0.678274  0.944041  0.046393  1
  Pt  Pt27  1  0.181045  0.552498  0.453600  1
  Pt  Pt28  1  0.439565  0.371518  0.757005  1
  Pt  Pt29  1  0.960120  0.133203  0.762495  1
  Pt  Pt30  1  0.548673  0.641751  0.247875  1
  Pt  Pt31  1  0.051920  0.853082  0.248285  1
  Pt  Pt32  1  0.697115  0.865408  0.750814  1
  Pt  Pt33  1  0.174172  0.633005  0.754580  1
  Pt  Pt34  1  0.322058  0.118000  0.250883  1
  Pt  Pt35  1  0.818873  0.381363  0.249711  1
