# generated using pymatgen
data_Lu5NiBi2
_symmetry_space_group_name_H-M   'P 1'
_cell_length_a   8.38913405
_cell_length_b   8.38913300
_cell_length_c   8.87828762
_cell_angle_alpha   123.55257002
_cell_angle_beta   123.55256574
_cell_angle_gamma   80.22045486
_symmetry_Int_Tables_number   1
_chemical_formula_structural   Lu5NiBi2
_chemical_formula_sum   'Lu10 Ni2 Bi4'
_cell_volume   425.60467665
_cell_formula_units_Z   2
loop_
 _symmetry_equiv_pos_site_id
 _symmetry_equiv_pos_as_xyz
  1  'x, y, z'
loop_
 _atom_site_type_symbol
 _atom_site_label
 _atom_site_symmetry_multiplicity
 _atom_site_fract_x
 _atom_site_fract_y
 _atom_site_fract_z
 _atom_site_occupancy
  Lu  Lu0  1  0.000000  0.000000  0.000000  1
  Lu  Lu1  1  0.500000  0.500000  0.000000  1
  Lu  Lu2  1  0.768995  0.268995  0.761983  1
  Lu  Lu3  1  0.231005  0.731005  0.238017  1
  Lu  Lu4  1  0.507013  0.007013  0.238017  1
  Lu  Lu5  1  0.319395  0.448237  0.500000  1
  Lu  Lu6  1  0.051763  0.180605  0.500000  1
  Lu  Lu7  1  0.492987  0.992987  0.761983  1
  Lu  Lu8  1  0.680605  0.551763  0.500000  1
  Lu  Lu9  1  0.948237  0.819395  0.500000  1
  Ni  Ni10  1  0.627489  0.872511  0.500000  1
  Ni  Ni11  1  0.372511  0.127489  0.500000  1
  Bi  Bi12  1  0.250000  0.250000  0.000000  1
  Bi  Bi13  1  0.750000  0.750000  0.000000  1
  Bi  Bi14  1  0.148511  0.648511  0.797024  1
  Bi  Bi15  1  0.851489  0.351489  0.202976  1
