# generated using pymatgen
data_Na4Sr(SiSe3)2
_symmetry_space_group_name_H-M   'P 1'
_cell_length_a   7.14986320
_cell_length_b   7.14986345
_cell_length_c   8.05093676
_cell_angle_alpha   81.40026600
_cell_angle_beta   81.40026464
_cell_angle_gamma   119.85035569
_symmetry_Int_Tables_number   1
_chemical_formula_structural   Na4Sr(SiSe3)2
_chemical_formula_sum   'Na4 Sr1 Si2 Se6'
_cell_volume   340.70330341
_cell_formula_units_Z   1
loop_
 _symmetry_equiv_pos_site_id
 _symmetry_equiv_pos_as_xyz
  1  'x, y, z'
loop_
 _atom_site_type_symbol
 _atom_site_label
 _atom_site_symmetry_multiplicity
 _atom_site_fract_x
 _atom_site_fract_y
 _atom_site_fract_z
 _atom_site_occupancy
  Na  Na0  1  0.499946  0.500054  0.000000  1
  Na  Na1  1  0.825583  0.174417  0.000000  1
  Na  Na2  1  0.174480  0.825520  0.000000  1
  Na  Na3  1  0.665016  0.334984  0.500000  1
  Sr  Sr4  1  0.334871  0.665129  0.500000  1
  Si  Si5  1  0.049685  0.049658  0.346566  1
  Si  Si6  1  0.950342  0.950315  0.653434  1
  Se  Se7  1  0.776613  0.775493  0.253359  1
  Se  Se8  1  0.224507  0.223387  0.746641  1
  Se  Se9  1  0.080469  0.387896  0.253374  1
  Se  Se10  1  0.388860  0.082476  0.253085  1
  Se  Se11  1  0.917524  0.611140  0.746915  1
  Se  Se12  1  0.612104  0.919531  0.746626  1
