# generated using pymatgen
data_Sr(MnS2)8
_symmetry_space_group_name_H-M   'P 1'
_cell_length_a   6.69477800
_cell_length_b   6.69477852
_cell_length_c   13.54128300
_cell_angle_alpha   90.00000000
_cell_angle_beta   90.00000000
_cell_angle_gamma   119.99998754
_symmetry_Int_Tables_number   1
_chemical_formula_structural   Sr(MnS2)8
_chemical_formula_sum   'Sr1 Mn8 S16'
_cell_volume   525.60912361
_cell_formula_units_Z   1
loop_
 _symmetry_equiv_pos_site_id
 _symmetry_equiv_pos_as_xyz
  1  'x, y, z'
loop_
 _atom_site_type_symbol
 _atom_site_label
 _atom_site_symmetry_multiplicity
 _atom_site_fract_x
 _atom_site_fract_y
 _atom_site_fract_z
 _atom_site_occupancy
  Sr  Sr0  1  0.000000  0.000000  0.000000  1
  Mn  Mn1  1  0.501599  0.498401  0.737070  1
  Mn  Mn2  1  0.498401  0.501599  0.262930  1
  Mn  Mn3  1  0.501599  0.003195  0.737070  1
  Mn  Mn4  1  0.498401  0.996805  0.262930  1
  Mn  Mn5  1  0.996805  0.498401  0.737070  1
  Mn  Mn6  1  0.003195  0.501599  0.262930  1
  Mn  Mn7  1  0.000000  0.000000  0.736397  1
  Mn  Mn8  1  0.000000  0.000000  0.263603  1
  S  S9  1  0.831799  0.663598  0.164827  1
  S  S10  1  0.832909  0.665818  0.641155  1
  S  S11  1  0.831799  0.168201  0.164827  1
  S  S12  1  0.832909  0.167091  0.641155  1
  S  S13  1  0.333333  0.666667  0.163990  1
  S  S14  1  0.333333  0.666667  0.640950  1
  S  S15  1  0.336402  0.168201  0.164827  1
  S  S16  1  0.334182  0.167091  0.641155  1
  S  S17  1  0.663598  0.831799  0.835173  1
  S  S18  1  0.665818  0.832909  0.358845  1
  S  S19  1  0.666667  0.333333  0.836010  1
  S  S20  1  0.666667  0.333333  0.359050  1
  S  S21  1  0.168201  0.831799  0.835173  1
  S  S22  1  0.167091  0.832909  0.358845  1
  S  S23  1  0.168201  0.336402  0.835173  1
  S  S24  1  0.167091  0.334182  0.358845  1
