# generated using pymatgen
data_Er3Tm(FeB4)4
_symmetry_space_group_name_H-M   'P 1'
_cell_length_a   3.35491600
_cell_length_b   5.87041202
_cell_length_c   11.35668204
_cell_angle_alpha   89.98991396
_cell_angle_beta   90.00000000
_cell_angle_gamma   90.00000000
_symmetry_Int_Tables_number   1
_chemical_formula_structural   Er3Tm(FeB4)4
_chemical_formula_sum   'Er3 Tm1 Fe4 B16'
_cell_volume   223.66688781
_cell_formula_units_Z   1
loop_
 _symmetry_equiv_pos_site_id
 _symmetry_equiv_pos_as_xyz
  1  'x, y, z'
loop_
 _atom_site_type_symbol
 _atom_site_label
 _atom_site_symmetry_multiplicity
 _atom_site_fract_x
 _atom_site_fract_y
 _atom_site_fract_z
 _atom_site_occupancy
  Er  Er0  1  0.500000  0.373387  0.150317  1
  Er  Er1  1  0.500000  0.626523  0.849730  1
  Er  Er2  1  0.500000  0.126531  0.650202  1
  Tm  Tm3  1  0.500000  0.873440  0.349792  1
  Fe  Fe4  1  0.500000  0.366304  0.411069  1
  Fe  Fe5  1  0.500000  0.633697  0.588793  1
  Fe  Fe6  1  0.500000  0.133630  0.911125  1
  Fe  Fe7  1  0.500000  0.866375  0.089020  1
  B  B8  1  0.000000  0.111633  0.046189  1
  B  B9  1  0.000000  0.888299  0.953875  1
  B  B10  1  0.000000  0.388372  0.546077  1
  B  B11  1  0.000000  0.612073  0.453693  1
  B  B12  1  0.000000  0.138323  0.468257  1
  B  B13  1  0.000000  0.861470  0.531412  1
  B  B14  1  0.000000  0.361425  0.968388  1
  B  B15  1  0.000000  0.638640  0.031648  1
  B  B16  1  0.000000  0.024313  0.191060  1
  B  B17  1  0.000000  0.975521  0.809166  1
  B  B18  1  0.000000  0.475524  0.690794  1
  B  B19  1  0.000000  0.524830  0.309199  1
  B  B20  1  0.000000  0.216695  0.315901  1
  B  B21  1  0.000000  0.782876  0.684109  1
  B  B22  1  0.000000  0.282890  0.815854  1
  B  B23  1  0.000000  0.717228  0.184330  1
