# generated using pymatgen
data_La6Hg4IrPd12
_symmetry_space_group_name_H-M   'P 1'
_cell_length_a   8.62506675
_cell_length_b   8.62506556
_cell_length_c   8.62506600
_cell_angle_alpha   109.47122166
_cell_angle_beta   109.47121888
_cell_angle_gamma   109.47121520
_symmetry_Int_Tables_number   1
_chemical_formula_structural   La6Hg4IrPd12
_chemical_formula_sum   'La6 Hg4 Ir1 Pd12'
_cell_volume   493.93003859
_cell_formula_units_Z   1
loop_
 _symmetry_equiv_pos_site_id
 _symmetry_equiv_pos_as_xyz
  1  'x, y, z'
loop_
 _atom_site_type_symbol
 _atom_site_label
 _atom_site_symmetry_multiplicity
 _atom_site_fract_x
 _atom_site_fract_y
 _atom_site_fract_z
 _atom_site_occupancy
  La  La0  1  0.000000  0.297656  0.297656  1
  La  La1  1  0.000000  0.702344  0.702344  1
  La  La2  1  0.297656  0.000000  0.297656  1
  La  La3  1  0.702344  0.702344  0.000000  1
  La  La4  1  0.702344  0.000000  0.702344  1
  La  La5  1  0.297656  0.297656  0.000000  1
  Hg  Hg6  1  0.000000  0.000000  0.500000  1
  Hg  Hg7  1  0.500000  0.000000  0.000000  1
  Hg  Hg8  1  0.000000  0.500000  0.000000  1
  Hg  Hg9  1  0.500000  0.500000  0.500000  1
  Ir  Ir10  1  0.000000  0.000000  0.000000  1
  Pd  Pd11  1  0.344396  0.655604  0.000000  1
  Pd  Pd12  1  0.000000  0.344396  0.655604  1
  Pd  Pd13  1  0.655604  0.000000  0.344396  1
  Pd  Pd14  1  0.311207  0.655604  0.655604  1
  Pd  Pd15  1  0.655604  0.311207  0.655604  1
  Pd  Pd16  1  0.688793  0.344396  0.344396  1
  Pd  Pd17  1  0.344396  0.688793  0.344396  1
  Pd  Pd18  1  0.344396  0.344396  0.688793  1
  Pd  Pd19  1  0.000000  0.655604  0.344396  1
  Pd  Pd20  1  0.655604  0.655604  0.311207  1
  Pd  Pd21  1  0.344396  0.000000  0.655604  1
  Pd  Pd22  1  0.655604  0.344396  0.000000  1
