# generated using pymatgen
data_Dy7(LuIn2)3
_symmetry_space_group_name_H-M   'P 1'
_cell_length_a   6.00739297
_cell_length_b   9.11460878
_cell_length_c   9.11817150
_cell_angle_alpha   83.72188691
_cell_angle_beta   70.76649937
_cell_angle_gamma   70.75868516
_symmetry_Int_Tables_number   1
_chemical_formula_structural   Dy7(LuIn2)3
_chemical_formula_sum   'Dy7 Lu3 In6'
_cell_volume   445.06576539
_cell_formula_units_Z   1
loop_
 _symmetry_equiv_pos_site_id
 _symmetry_equiv_pos_as_xyz
  1  'x, y, z'
loop_
 _atom_site_type_symbol
 _atom_site_label
 _atom_site_symmetry_multiplicity
 _atom_site_fract_x
 _atom_site_fract_y
 _atom_site_fract_z
 _atom_site_occupancy
  Dy  Dy0  1  0.720408  0.862036  0.697147  1
  Dy  Dy1  1  0.280172  0.137236  0.302420  1
  Dy  Dy2  1  0.779778  0.301888  0.138558  1
  Dy  Dy3  1  0.219897  0.697758  0.862449  1
  Dy  Dy4  1  0.581102  0.698786  0.139010  1
  Dy  Dy5  1  0.418400  0.301326  0.861872  1
  Dy  Dy6  1  0.081026  0.138412  0.699536  1
  Lu  Lu7  1  0.918865  0.862454  0.299815  1
  Lu  Lu8  1  0.749874  0.500449  0.499503  1
  Lu  Lu9  1  0.250174  0.500449  0.499503  1
  In  In10  1  0.160241  0.501053  0.178467  1
  In  In11  1  0.839243  0.500027  0.821488  1
  In  In12  1  0.339493  0.821891  0.499123  1
  In  In13  1  0.661749  0.177000  0.499501  1
  In  In14  1  0.249698  0.999616  0.000805  1
  In  In15  1  0.749882  0.999616  0.000805  1
