# generated using pymatgen
data_PrZr(Re2Si)4
_symmetry_space_group_name_H-M   'P 1'
_cell_length_a   7.43236012
_cell_length_b   7.43236052
_cell_length_c   4.12877700
_cell_angle_alpha   90.00000000
_cell_angle_beta   90.00000000
_cell_angle_gamma   91.74940029
_symmetry_Int_Tables_number   1
_chemical_formula_structural   PrZr(Re2Si)4
_chemical_formula_sum   'Pr1 Zr1 Re8 Si4'
_cell_volume   227.96725602
_cell_formula_units_Z   1
loop_
 _symmetry_equiv_pos_site_id
 _symmetry_equiv_pos_as_xyz
  1  'x, y, z'
loop_
 _atom_site_type_symbol
 _atom_site_label
 _atom_site_symmetry_multiplicity
 _atom_site_fract_x
 _atom_site_fract_y
 _atom_site_fract_z
 _atom_site_occupancy
  Pr  Pr0  1  0.000000  0.000000  0.500000  1
  Zr  Zr1  1  0.500000  0.500000  0.000000  1
  Re  Re2  1  0.651053  0.899081  0.000000  1
  Re  Re3  1  0.160970  0.583813  0.500000  1
  Re  Re4  1  0.100919  0.348947  0.000000  1
  Re  Re5  1  0.899081  0.651053  0.000000  1
  Re  Re6  1  0.416187  0.839030  0.500000  1
  Re  Re7  1  0.583813  0.160970  0.500000  1
  Re  Re8  1  0.348947  0.100919  0.000000  1
  Re  Re9  1  0.839030  0.416187  0.500000  1
  Si  Si10  1  0.215122  0.784878  0.000000  1
  Si  Si11  1  0.784878  0.215122  0.000000  1
  Si  Si12  1  0.701137  0.701137  0.500000  1
  Si  Si13  1  0.298863  0.298863  0.500000  1
