# generated using pymatgen
data_Yb2AgHgIr2(RuO7)2
_symmetry_space_group_name_H-M   'P 1'
_cell_length_a   7.20808188
_cell_length_b   7.20808213
_cell_length_c   7.33260800
_cell_angle_alpha   59.42685431
_cell_angle_beta   59.42685314
_cell_angle_gamma   58.92997968
_symmetry_Int_Tables_number   1
_chemical_formula_structural   Yb2AgHgIr2(RuO7)2
_chemical_formula_sum   'Yb2 Ag1 Hg1 Ir2 Ru2 O14'
_cell_volume   264.84464763
_cell_formula_units_Z   1
loop_
 _symmetry_equiv_pos_site_id
 _symmetry_equiv_pos_as_xyz
  1  'x, y, z'
loop_
 _atom_site_type_symbol
 _atom_site_label
 _atom_site_symmetry_multiplicity
 _atom_site_fract_x
 _atom_site_fract_y
 _atom_site_fract_z
 _atom_site_occupancy
  Yb  Yb0  1  0.125000  0.125000  0.125000  1
  Yb  Yb1  1  0.125000  0.125000  0.625000  1
  Ag  Ag2  1  0.625000  0.125000  0.125000  1
  Hg  Hg3  1  0.125000  0.625000  0.125000  1
  Ir  Ir4  1  0.125000  0.625000  0.625000  1
  Ir  Ir5  1  0.625000  0.125000  0.625000  1
  Ru  Ru6  1  0.625000  0.625000  0.625000  1
  Ru  Ru7  1  0.625000  0.625000  0.125000  1
  O  O8  1  0.986702  0.987266  0.013016  1
  O  O9  1  0.263298  0.262734  0.236984  1
  O  O10  1  0.289106  0.289281  0.710807  1
  O  O11  1  0.565490  0.563427  0.935541  1
  O  O12  1  0.699406  0.299820  0.696998  1
  O  O13  1  0.699406  0.299820  0.303776  1
  O  O14  1  0.301264  0.699953  0.694297  1
  O  O15  1  0.301264  0.699953  0.304486  1
  O  O16  1  0.684510  0.686573  0.314459  1
  O  O17  1  0.948736  0.550047  0.555703  1
  O  O18  1  0.550594  0.950180  0.946224  1
  O  O19  1  0.960894  0.960719  0.539193  1
  O  O20  1  0.948736  0.550047  0.945514  1
  O  O21  1  0.550594  0.950180  0.553002  1
