# generated using pymatgen
data_CdHg(Pd3Au2)2
_symmetry_space_group_name_H-M   'P 1'
_cell_length_a   4.59429600
_cell_length_b   4.59429509
_cell_length_c   11.25185100
_cell_angle_alpha   90.00000000
_cell_angle_beta   90.00000000
_cell_angle_gamma   120.00000654
_symmetry_Int_Tables_number   1
_chemical_formula_structural   CdHg(Pd3Au2)2
_chemical_formula_sum   'Cd1 Hg1 Pd6 Au4'
_cell_volume   205.68017562
_cell_formula_units_Z   1
loop_
 _symmetry_equiv_pos_site_id
 _symmetry_equiv_pos_as_xyz
  1  'x, y, z'
loop_
 _atom_site_type_symbol
 _atom_site_label
 _atom_site_symmetry_multiplicity
 _atom_site_fract_x
 _atom_site_fract_y
 _atom_site_fract_z
 _atom_site_occupancy
  Cd  Cd0  1  0.666667  0.333333  0.331321  1
  Hg  Hg1  1  0.333333  0.666667  0.668517  1
  Pd  Pd2  1  0.333333  0.666667  0.417553  1
  Pd  Pd3  1  0.666667  0.333333  0.082803  1
  Pd  Pd4  1  0.000000  0.000000  0.750495  1
  Pd  Pd5  1  0.000000  0.000000  0.249819  1
  Pd  Pd6  1  0.333333  0.666667  0.917805  1
  Pd  Pd7  1  0.666667  0.333333  0.581583  1
  Au  Au8  1  0.000000  0.000000  0.499085  1
  Au  Au9  1  0.333333  0.666667  0.165790  1
  Au  Au10  1  0.666667  0.333333  0.835091  1
  Au  Au11  1  0.000000  0.000000  0.000139  1
