# generated using pymatgen
data_Dy7ErTi6(Nb3Si8)2
_symmetry_space_group_name_H-M   'P 1'
_cell_length_a   7.06122724
_cell_length_b   7.05994220
_cell_length_c   12.98894527
_cell_angle_alpha   90.11135359
_cell_angle_beta   89.99179576
_cell_angle_gamma   90.02677693
_symmetry_Int_Tables_number   1
_chemical_formula_structural   Dy7ErTi6(Nb3Si8)2
_chemical_formula_sum   'Dy7 Er1 Ti6 Nb6 Si16'
_cell_volume   647.52173082
_cell_formula_units_Z   1
loop_
 _symmetry_equiv_pos_site_id
 _symmetry_equiv_pos_as_xyz
  1  'x, y, z'
loop_
 _atom_site_type_symbol
 _atom_site_label
 _atom_site_symmetry_multiplicity
 _atom_site_fract_x
 _atom_site_fract_y
 _atom_site_fract_z
 _atom_site_occupancy
  Dy  Dy0  1  0.341380  0.001113  0.466240  1
  Dy  Dy1  1  0.498626  0.841340  0.716269  1
  Dy  Dy2  1  0.501605  0.157796  0.216707  1
  Dy  Dy3  1  0.840120  0.499432  0.283477  1
  Dy  Dy4  1  0.158927  0.501218  0.783049  1
  Dy  Dy5  1  0.658255  0.998061  0.966695  1
  Dy  Dy6  1  0.000781  0.341076  0.533103  1
  Er  Er7  1  0.999534  0.659950  0.033256  1
  Ti  Ti8  1  0.508804  0.347287  0.624617  1
  Ti  Ti9  1  0.653277  0.490953  0.875809  1
  Ti  Ti10  1  0.348195  0.508669  0.375885  1
  Ti  Ti11  1  0.847353  0.990778  0.373972  1
  Ti  Ti12  1  0.008650  0.151592  0.125683  1
  Ti  Ti13  1  0.990870  0.847150  0.626115  1
  Nb  Nb14  1  0.327505  0.328141  0.000342  1
  Nb  Nb15  1  0.172178  0.827679  0.250179  1
  Nb  Nb16  1  0.828490  0.172389  0.750081  1
  Nb  Nb17  1  0.672172  0.671685  0.500049  1
  Nb  Nb18  1  0.151790  0.008630  0.874555  1
  Nb  Nb19  1  0.491179  0.652248  0.123592  1
  Si  Si20  1  0.205216  0.131503  0.682621  1
  Si  Si21  1  0.368731  0.704287  0.932437  1
  Si  Si22  1  0.630310  0.296352  0.434164  1
  Si  Si23  1  0.706273  0.366796  0.066889  1
  Si  Si24  1  0.296240  0.630406  0.565895  1
  Si  Si25  1  0.797317  0.869585  0.183641  1
  Si  Si26  1  0.130421  0.203907  0.316589  1
  Si  Si27  1  0.866543  0.794378  0.816593  1
  Si  Si28  1  0.291422  0.953782  0.064021  1
  Si  Si29  1  0.546989  0.792394  0.314355  1
  Si  Si30  1  0.454156  0.209939  0.812687  1
  Si  Si31  1  0.791966  0.546006  0.686287  1
  Si  Si32  1  0.206256  0.452439  0.187087  1
  Si  Si33  1  0.709175  0.046725  0.563220  1
  Si  Si34  1  0.952734  0.295418  0.936910  1
  Si  Si35  1  0.046564  0.708897  0.436931  1
