# generated using pymatgen
data_Er8Ga12AgAu3
_symmetry_space_group_name_H-M   'P 1'
_cell_length_a   7.08597400
_cell_length_b   8.92561427
_cell_length_c   8.92562200
_cell_angle_alpha   120.00050976
_cell_angle_beta   89.99947806
_cell_angle_gamma   90.00048535
_symmetry_Int_Tables_number   1
_chemical_formula_structural   Er8Ga12AgAu3
_chemical_formula_sum   'Er8 Ga12 Ag1 Au3'
_cell_volume   488.88257753
_cell_formula_units_Z   1
loop_
 _symmetry_equiv_pos_site_id
 _symmetry_equiv_pos_as_xyz
  1  'x, y, z'
loop_
 _atom_site_type_symbol
 _atom_site_label
 _atom_site_symmetry_multiplicity
 _atom_site_fract_x
 _atom_site_fract_y
 _atom_site_fract_z
 _atom_site_occupancy
  Er  Er0  1  0.749572  0.000003  0.999998  1
  Er  Er1  1  0.250050  0.000000  0.999996  1
  Er  Er2  1  0.750599  0.485093  0.514908  1
  Er  Er3  1  0.249962  0.510851  0.489146  1
  Er  Er4  1  0.750600  0.029819  0.514906  1
  Er  Er5  1  0.249962  0.978295  0.489142  1
  Er  Er6  1  0.750599  0.485094  0.970182  1
  Er  Er7  1  0.249961  0.510856  0.021704  1
  Ga  Ga8  1  0.958955  0.834653  0.165352  1
  Ga  Ga9  1  0.035884  0.164033  0.835958  1
  Ga  Ga10  1  0.958985  0.330665  0.165331  1
  Ga  Ga11  1  0.465368  0.163772  0.836244  1
  Ga  Ga12  1  0.035907  0.671879  0.835929  1
  Ga  Ga13  1  0.534769  0.834833  0.165184  1
  Ga  Ga14  1  0.958985  0.834666  0.669334  1
  Ga  Ga15  1  0.465353  0.672462  0.836217  1
  Ga  Ga16  1  0.035899  0.164069  0.328128  1
  Ga  Ga17  1  0.534750  0.330372  0.165207  1
  Ga  Ga18  1  0.465350  0.163782  0.327563  1
  Ga  Ga19  1  0.534755  0.834788  0.669617  1
  Ag  Ag20  1  0.536093  0.666668  0.333336  1
  Au  Au21  1  0.977656  0.666670  0.333336  1
  Au  Au22  1  0.031622  0.333345  0.666649  1
  Au  Au23  1  0.468368  0.333334  0.666632  1
