# generated using pymatgen
data_Ta3Fe2OsC
_symmetry_space_group_name_H-M   'P 1'
_cell_length_a   8.11712223
_cell_length_b   8.13046159
_cell_length_c   8.11598215
_cell_angle_alpha   60.04663002
_cell_angle_beta   60.01809310
_cell_angle_gamma   60.00430895
_symmetry_Int_Tables_number   1
_chemical_formula_structural   Ta3Fe2OsC
_chemical_formula_sum   'Ta12 Fe8 Os4 C4'
_cell_volume   378.93937459
_cell_formula_units_Z   4
loop_
 _symmetry_equiv_pos_site_id
 _symmetry_equiv_pos_as_xyz
  1  'x, y, z'
loop_
 _atom_site_type_symbol
 _atom_site_label
 _atom_site_symmetry_multiplicity
 _atom_site_fract_x
 _atom_site_fract_y
 _atom_site_fract_z
 _atom_site_occupancy
  Ta  Ta0  1  0.806084  0.806044  0.194007  1
  Ta  Ta1  1  0.194180  0.193986  0.805933  1
  Ta  Ta2  1  0.805881  0.194038  0.805911  1
  Ta  Ta3  1  0.193893  0.806059  0.193956  1
  Ta  Ta4  1  0.193990  0.806015  0.806084  1
  Ta  Ta5  1  0.805939  0.193930  0.194196  1
  Ta  Ta6  1  0.443916  0.443956  0.055993  1
  Ta  Ta7  1  0.055820  0.056014  0.444067  1
  Ta  Ta8  1  0.444119  0.055962  0.444089  1
  Ta  Ta9  1  0.056107  0.443941  0.056044  1
  Ta  Ta10  1  0.056010  0.443985  0.443916  1
  Ta  Ta11  1  0.444061  0.056070  0.055804  1
  Fe  Fe12  1  0.729882  0.423488  0.423367  1
  Fe  Fe13  1  0.423469  0.729869  0.423429  1
  Fe  Fe14  1  0.423322  0.423403  0.729924  1
  Fe  Fe15  1  0.423361  0.423355  0.423498  1
  Fe  Fe16  1  0.520118  0.826512  0.826633  1
  Fe  Fe17  1  0.826531  0.520131  0.826571  1
  Fe  Fe18  1  0.826678  0.826597  0.520076  1
  Fe  Fe19  1  0.826639  0.826645  0.826502  1
  Os  Os20  1  0.125000  0.625000  0.625000  1
  Os  Os21  1  0.625000  0.125000  0.625000  1
  Os  Os22  1  0.625000  0.625000  0.125000  1
  Os  Os23  1  0.625000  0.625000  0.625000  1
  C  C24  1  0.625000  0.125000  0.125000  1
  C  C25  1  0.125000  0.125000  0.625000  1
  C  C26  1  0.125000  0.125000  0.125000  1
  C  C27  1  0.125000  0.625000  0.125000  1
