# generated using pymatgen
data_TiNb(CoP)2
_symmetry_space_group_name_H-M   'P 1'
_cell_length_a   3.57891200
_cell_length_b   6.09193700
_cell_length_c   6.92773000
_cell_angle_alpha   90.00000000
_cell_angle_beta   90.00000000
_cell_angle_gamma   90.00000000
_symmetry_Int_Tables_number   1
_chemical_formula_structural   TiNb(CoP)2
_chemical_formula_sum   'Ti2 Nb2 Co4 P4'
_cell_volume   151.04187789
_cell_formula_units_Z   2
loop_
 _symmetry_equiv_pos_site_id
 _symmetry_equiv_pos_as_xyz
  1  'x, y, z'
loop_
 _atom_site_type_symbol
 _atom_site_label
 _atom_site_symmetry_multiplicity
 _atom_site_fract_x
 _atom_site_fract_y
 _atom_site_fract_z
 _atom_site_occupancy
  Ti  Ti0  1  0.750000  0.024140  0.677117  1
  Ti  Ti1  1  0.750000  0.524140  0.822883  1
  Nb  Nb2  1  0.250000  0.972701  0.326224  1
  Nb  Nb3  1  0.250000  0.472701  0.173776  1
  Co  Co4  1  0.250000  0.858631  0.934599  1
  Co  Co5  1  0.250000  0.358631  0.565401  1
  Co  Co6  1  0.750000  0.141436  0.056193  1
  Co  Co7  1  0.750000  0.641436  0.443807  1
  P  P8  1  0.250000  0.229432  0.874828  1
  P  P9  1  0.250000  0.729432  0.625172  1
  P  P10  1  0.750000  0.773660  0.116879  1
  P  P11  1  0.750000  0.273660  0.383121  1
