# generated using pymatgen
data_BeCrCoO4
_symmetry_space_group_name_H-M   'P 1'
_cell_length_a   4.51820732
_cell_length_b   5.65705037
_cell_length_c   9.83557400
_cell_angle_alpha   89.99962415
_cell_angle_beta   90.00006366
_cell_angle_gamma   89.99937732
_symmetry_Int_Tables_number   1
_chemical_formula_structural   BeCrCoO4
_chemical_formula_sum   'Be4 Cr4 Co4 O16'
_cell_volume   251.39458032
_cell_formula_units_Z   4
loop_
 _symmetry_equiv_pos_site_id
 _symmetry_equiv_pos_as_xyz
  1  'x, y, z'
loop_
 _atom_site_type_symbol
 _atom_site_label
 _atom_site_symmetry_multiplicity
 _atom_site_fract_x
 _atom_site_fract_y
 _atom_site_fract_z
 _atom_site_occupancy
  Be  Be0  1  0.927530  0.749807  0.413592  1
  Be  Be1  1  0.572469  0.750191  0.913593  1
  Be  Be2  1  0.072469  0.250193  0.586407  1
  Be  Be3  1  0.427530  0.249809  0.086406  1
  Cr  Cr4  1  0.497901  0.749787  0.232242  1
  Cr  Cr5  1  0.002093  0.750221  0.732263  1
  Cr  Cr6  1  0.502095  0.250215  0.767756  1
  Cr  Cr7  1  0.997906  0.249798  0.267752  1
  Co  Co8  1  0.500000  0.499998  0.500000  1
  Co  Co9  1  0.000000  0.999999  0.999999  1
  Co  Co10  1  0.499997  0.000003  0.500000  1
  Co  Co11  1  0.999999  0.500004  0.999999  1
  O  O12  1  0.279497  0.749925  0.412922  1
  O  O13  1  0.220510  0.750088  0.912917  1
  O  O14  1  0.720504  0.250075  0.587079  1
  O  O15  1  0.779486  0.249914  0.087079  1
  O  O16  1  0.743674  0.749975  0.062058  1
  O  O17  1  0.756321  0.750031  0.562053  1
  O  O18  1  0.256324  0.250025  0.937943  1
  O  O19  1  0.243678  0.249969  0.437945  1
  O  O20  1  0.758369  0.977973  0.341527  1
  O  O21  1  0.741626  0.522021  0.841522  1
  O  O22  1  0.241483  0.478489  0.658382  1
  O  O23  1  0.258521  0.021504  0.158381  1
  O  O24  1  0.241632  0.022023  0.658472  1
  O  O25  1  0.258375  0.477978  0.158476  1
  O  O26  1  0.758525  0.521502  0.341618  1
  O  O27  1  0.741486  0.978487  0.841617  1
