# generated using pymatgen
data_TbDyLu2(FeB6)2
_symmetry_space_group_name_H-M   'P 1'
_cell_length_a   3.51913900
_cell_length_b   9.02908203
_cell_length_c   11.40641704
_cell_angle_alpha   89.99042832
_cell_angle_beta   90.00000000
_cell_angle_gamma   90.00000000
_symmetry_Int_Tables_number   1
_chemical_formula_structural   TbDyLu2(FeB6)2
_chemical_formula_sum   'Tb2 Dy2 Lu4 Fe4 B24'
_cell_volume   362.43427349
_cell_formula_units_Z   2
loop_
 _symmetry_equiv_pos_site_id
 _symmetry_equiv_pos_as_xyz
  1  'x, y, z'
loop_
 _atom_site_type_symbol
 _atom_site_label
 _atom_site_symmetry_multiplicity
 _atom_site_fract_x
 _atom_site_fract_y
 _atom_site_fract_z
 _atom_site_occupancy
  Tb  Tb0  1  0.000000  0.823459  0.085640  1
  Tb  Tb1  1  0.000000  0.176541  0.914360  1
  Dy  Dy2  1  0.000000  0.323405  0.414399  1
  Dy  Dy3  1  0.000000  0.676595  0.585601  1
  Lu  Lu4  1  0.000000  0.443456  0.129195  1
  Lu  Lu5  1  0.000000  0.556544  0.870805  1
  Lu  Lu6  1  0.000000  0.943545  0.370886  1
  Lu  Lu7  1  0.000000  0.056455  0.629114  1
  Fe  Fe8  1  0.000000  0.139456  0.180465  1
  Fe  Fe9  1  0.000000  0.860544  0.819535  1
  Fe  Fe10  1  0.000000  0.639354  0.319656  1
  Fe  Fe11  1  0.000000  0.360646  0.680344  1
  B  B12  1  0.500000  0.055050  0.068698  1
  B  B13  1  0.500000  0.944950  0.931302  1
  B  B14  1  0.500000  0.554940  0.431469  1
  B  B15  1  0.500000  0.445060  0.568531  1
  B  B16  1  0.500000  0.248221  0.082124  1
  B  B17  1  0.500000  0.751779  0.917876  1
  B  B18  1  0.500000  0.748184  0.418043  1
  B  B19  1  0.500000  0.251816  0.581957  1
  B  B20  1  0.500000  0.290208  0.233675  1
  B  B21  1  0.500000  0.709792  0.766325  1
  B  B22  1  0.500000  0.790152  0.266453  1
  B  B23  1  0.500000  0.209848  0.733547  1
  B  B24  1  0.500000  0.131282  0.314646  1
  B  B25  1  0.500000  0.868718  0.685354  1
  B  B26  1  0.500000  0.631164  0.185430  1
  B  B27  1  0.500000  0.368836  0.814570  1
  B  B28  1  0.500000  0.485546  0.287534  1
  B  B29  1  0.500000  0.514454  0.712466  1
  B  B30  1  0.500000  0.985728  0.212547  1
  B  B31  1  0.500000  0.014272  0.787453  1
  B  B32  1  0.500000  0.105529  0.471172  1
  B  B33  1  0.500000  0.894471  0.528828  1
  B  B34  1  0.500000  0.605325  0.028769  1
  B  B35  1  0.500000  0.394675  0.971231  1
