# generated using pymatgen
data_TbThPd5Pt
_symmetry_space_group_name_H-M   'P 1'
_cell_length_a   5.89968087
_cell_length_b   5.91738635
_cell_length_c   9.66861300
_cell_angle_alpha   90.00000000
_cell_angle_beta   90.00000000
_cell_angle_gamma   120.09932912
_symmetry_Int_Tables_number   1
_chemical_formula_structural   TbThPd5Pt
_chemical_formula_sum   'Tb2 Th2 Pd10 Pt2'
_cell_volume   292.02342843
_cell_formula_units_Z   2
loop_
 _symmetry_equiv_pos_site_id
 _symmetry_equiv_pos_as_xyz
  1  'x, y, z'
loop_
 _atom_site_type_symbol
 _atom_site_label
 _atom_site_symmetry_multiplicity
 _atom_site_fract_x
 _atom_site_fract_y
 _atom_site_fract_z
 _atom_site_occupancy
  Tb  Tb0  1  0.330901  0.665451  0.250000  1
  Tb  Tb1  1  0.669099  0.334549  0.750000  1
  Th  Th2  1  0.000000  0.000000  0.500000  1
  Th  Th3  1  0.000000  0.000000  0.000000  1
  Pd  Pd4  1  0.500000  0.500000  0.500000  1
  Pd  Pd5  1  0.500000  0.000000  0.500000  1
  Pd  Pd6  1  0.500000  0.500000  0.000000  1
  Pd  Pd7  1  0.500000  0.000000  0.000000  1
  Pd  Pd8  1  0.825007  0.650878  0.250000  1
  Pd  Pd9  1  0.347048  0.173525  0.250000  1
  Pd  Pd10  1  0.825007  0.174130  0.250000  1
  Pd  Pd11  1  0.174993  0.349122  0.750000  1
  Pd  Pd12  1  0.652952  0.826475  0.750000  1
  Pd  Pd13  1  0.174993  0.825870  0.750000  1
  Pt  Pt14  1  0.000000  0.500000  0.500000  1
  Pt  Pt15  1  0.000000  0.500000  0.000000  1
