# generated using pymatgen
data_Rb3AgS2
_symmetry_space_group_name_H-M   'P 1'
_cell_length_a   8.11064096
_cell_length_b   8.11064040
_cell_length_c   8.11064010
_cell_angle_alpha   68.80496504
_cell_angle_beta   68.80496766
_cell_angle_gamma   68.80496667
_symmetry_Int_Tables_number   1
_chemical_formula_structural   Rb3AgS2
_chemical_formula_sum   'Rb6 Ag2 S4'
_cell_volume   447.14693746
_cell_formula_units_Z   2
loop_
 _symmetry_equiv_pos_site_id
 _symmetry_equiv_pos_as_xyz
  1  'x, y, z'
loop_
 _atom_site_type_symbol
 _atom_site_label
 _atom_site_symmetry_multiplicity
 _atom_site_fract_x
 _atom_site_fract_y
 _atom_site_fract_z
 _atom_site_occupancy
  Rb  Rb0  1  0.468985  0.750000  0.031016  1
  Rb  Rb1  1  0.968985  0.531015  0.250000  1
  Rb  Rb2  1  0.750000  0.031015  0.468985  1
  Rb  Rb3  1  0.250000  0.968985  0.531016  1
  Rb  Rb4  1  0.031015  0.468985  0.750000  1
  Rb  Rb5  1  0.531015  0.250000  0.968985  1
  Ag  Ag6  1  0.000000  0.000000  0.000000  1
  Ag  Ag7  1  0.500000  0.500000  0.500000  1
  S  S8  1  0.127897  0.127897  0.127897  1
  S  S9  1  0.372103  0.372103  0.372103  1
  S  S10  1  0.627897  0.627897  0.627897  1
  S  S11  1  0.872103  0.872103  0.872103  1
