# generated using pymatgen
data_LaAsPtRhAu
_symmetry_space_group_name_H-M   'P 1'
_cell_length_a   4.10450800
_cell_length_b   4.10450800
_cell_length_c   11.78511800
_cell_angle_alpha   90.00000000
_cell_angle_beta   90.00000000
_cell_angle_gamma   90.00000000
_symmetry_Int_Tables_number   1
_chemical_formula_structural   LaAsPtRhAu
_chemical_formula_sum   'La2 As2 Pt2 Rh2 Au2'
_cell_volume   198.54371704
_cell_formula_units_Z   2
loop_
 _symmetry_equiv_pos_site_id
 _symmetry_equiv_pos_as_xyz
  1  'x, y, z'
loop_
 _atom_site_type_symbol
 _atom_site_label
 _atom_site_symmetry_multiplicity
 _atom_site_fract_x
 _atom_site_fract_y
 _atom_site_fract_z
 _atom_site_occupancy
  La  La0  1  0.000000  0.500000  0.250238  1
  La  La1  1  0.500000  0.000000  0.749723  1
  As  As2  1  0.000000  0.500000  0.880619  1
  As  As3  1  0.500000  0.000000  0.119401  1
  Pt  Pt4  1  0.000000  0.500000  0.671174  1
  Pt  Pt5  1  0.500000  0.000000  0.328834  1
  Rh  Rh6  1  0.000000  0.000000  0.999995  1
  Rh  Rh7  1  0.500000  0.500000  0.999995  1
  Au  Au8  1  0.000000  0.000000  0.500012  1
  Au  Au9  1  0.500000  0.500000  0.500012  1
