# generated using pymatgen
data_Li19Si4AgP12
_symmetry_space_group_name_H-M   'P 1'
_cell_length_a   6.57276211
_cell_length_b   7.23327398
_cell_length_c   13.82070918
_cell_angle_alpha   57.66741647
_cell_angle_beta   89.82426658
_cell_angle_gamma   89.93183459
_symmetry_Int_Tables_number   1
_chemical_formula_structural   Li19Si4AgP12
_chemical_formula_sum   'Li19 Si4 Ag1 P12'
_cell_volume   555.19568299
_cell_formula_units_Z   1
loop_
 _symmetry_equiv_pos_site_id
 _symmetry_equiv_pos_as_xyz
  1  'x, y, z'
loop_
 _atom_site_type_symbol
 _atom_site_label
 _atom_site_symmetry_multiplicity
 _atom_site_fract_x
 _atom_site_fract_y
 _atom_site_fract_z
 _atom_site_occupancy
  Li  Li0  1  0.498968  0.574527  0.267690  1
  Li  Li1  1  0.998507  0.424911  0.235636  1
  Li  Li2  1  0.499205  0.423425  0.734045  1
  Li  Li3  1  0.002436  0.575026  0.763386  1
  Li  Li4  1  0.968409  0.935915  0.410317  1
  Li  Li5  1  0.466882  0.060481  0.090719  1
  Li  Li6  1  0.031237  0.063393  0.590625  1
  Li  Li7  1  0.525079  0.935165  0.910339  1
  Li  Li8  1  0.565400  0.214965  0.596496  1
  Li  Li9  1  0.054927  0.786572  0.902520  1
  Li  Li10  1  0.440447  0.787669  0.401632  1
  Li  Li11  1  0.945675  0.215242  0.095633  1
  Li  Li12  1  0.129996  0.820568  0.247163  1
  Li  Li13  1  0.632920  0.180589  0.254638  1
  Li  Li14  1  0.869886  0.177953  0.755436  1
  Li  Li15  1  0.371307  0.822209  0.742882  1
  Li  Li16  1  0.345058  0.157024  0.418331  1
  Li  Li17  1  0.845326  0.843125  0.082348  1
  Li  Li18  1  0.656153  0.843732  0.581292  1
  Si  Si19  1  0.647547  0.522450  0.909185  1
  Si  Si20  1  0.147533  0.482559  0.588395  1
  Si  Si21  1  0.356249  0.478218  0.091267  1
  Si  Si22  1  0.853878  0.521123  0.410017  1
  Ag  Ag23  1  0.149471  0.154435  0.918360  1
  P  P24  1  0.731457  0.225951  0.415253  1
  P  P25  1  0.230735  0.764156  0.093905  1
  P  P26  1  0.269766  0.775882  0.584423  1
  P  P27  1  0.752365  0.221025  0.915572  1
  P  P28  1  0.749458  0.842482  0.260984  1
  P  P29  1  0.250121  0.157907  0.240094  1
  P  P30  1  0.254225  0.158935  0.734279  1
  P  P31  1  0.754178  0.841693  0.759346  1
  P  P32  1  0.296489  0.480927  0.927499  1
  P  P33  1  0.797798  0.528138  0.571427  1
  P  P34  1  0.706759  0.528416  0.070158  1
  P  P35  1  0.204152  0.473216  0.428705  1
