# generated using pymatgen
data_Ta12Co8Os4CN3
_symmetry_space_group_name_H-M   'P 1'
_cell_length_a   8.08358972
_cell_length_b   8.08358958
_cell_length_c   8.08358946
_cell_angle_alpha   59.96836437
_cell_angle_beta   59.96836320
_cell_angle_gamma   59.96836510
_symmetry_Int_Tables_number   1
_chemical_formula_structural   Ta12Co8Os4CN3
_chemical_formula_sum   'Ta12 Co8 Os4 C1 N3'
_cell_volume   373.23820579
_cell_formula_units_Z   1
loop_
 _symmetry_equiv_pos_site_id
 _symmetry_equiv_pos_as_xyz
  1  'x, y, z'
loop_
 _atom_site_type_symbol
 _atom_site_label
 _atom_site_symmetry_multiplicity
 _atom_site_fract_x
 _atom_site_fract_y
 _atom_site_fract_z
 _atom_site_occupancy
  Ta  Ta0  1  0.806003  0.806003  0.194529  1
  Ta  Ta1  1  0.194240  0.194240  0.805760  1
  Ta  Ta2  1  0.806003  0.194529  0.806003  1
  Ta  Ta3  1  0.194240  0.805760  0.194240  1
  Ta  Ta4  1  0.194529  0.806003  0.806003  1
  Ta  Ta5  1  0.805760  0.194240  0.194240  1
  Ta  Ta6  1  0.443997  0.443997  0.055471  1
  Ta  Ta7  1  0.055760  0.055760  0.444240  1
  Ta  Ta8  1  0.443997  0.055471  0.443997  1
  Ta  Ta9  1  0.055760  0.444240  0.055760  1
  Ta  Ta10  1  0.055471  0.443997  0.443997  1
  Ta  Ta11  1  0.444240  0.055760  0.055760  1
  Co  Co12  1  0.742187  0.419421  0.419421  1
  Co  Co13  1  0.419421  0.742187  0.419421  1
  Co  Co14  1  0.419421  0.419421  0.742187  1
  Co  Co15  1  0.419046  0.419046  0.419046  1
  Co  Co16  1  0.507813  0.830579  0.830579  1
  Co  Co17  1  0.830579  0.507813  0.830579  1
  Co  Co18  1  0.830579  0.830579  0.507813  1
  Co  Co19  1  0.830954  0.830954  0.830954  1
  Os  Os20  1  0.125000  0.625000  0.625000  1
  Os  Os21  1  0.625000  0.125000  0.625000  1
  Os  Os22  1  0.625000  0.625000  0.125000  1
  Os  Os23  1  0.625000  0.625000  0.625000  1
  C  C24  1  0.125000  0.125000  0.125000  1
  N  N25  1  0.625000  0.125000  0.125000  1
  N  N26  1  0.125000  0.625000  0.125000  1
  N  N27  1  0.125000  0.125000  0.625000  1
