# generated using pymatgen
data_TmAg6NO11
_symmetry_space_group_name_H-M   'P 1'
_cell_length_a   7.05656473
_cell_length_b   7.05656485
_cell_length_c   7.05656423
_cell_angle_alpha   61.91728669
_cell_angle_beta   61.91728508
_cell_angle_gamma   61.91727517
_symmetry_Int_Tables_number   1
_chemical_formula_structural   TmAg6NO11
_chemical_formula_sum   'Tm1 Ag6 N1 O11'
_cell_volume   259.12663033
_cell_formula_units_Z   1
loop_
 _symmetry_equiv_pos_site_id
 _symmetry_equiv_pos_as_xyz
  1  'x, y, z'
loop_
 _atom_site_type_symbol
 _atom_site_label
 _atom_site_symmetry_multiplicity
 _atom_site_fract_x
 _atom_site_fract_y
 _atom_site_fract_z
 _atom_site_occupancy
  Tm  Tm0  1  0.999077  0.999077  0.999077  1
  Ag  Ag1  1  0.497940  0.001177  0.001177  1
  Ag  Ag2  1  0.500258  0.500258  0.000155  1
  Ag  Ag3  1  0.500258  0.000155  0.500258  1
  Ag  Ag4  1  0.001177  0.001177  0.497940  1
  Ag  Ag5  1  0.000155  0.500258  0.500258  1
  Ag  Ag6  1  0.001177  0.497940  0.001177  1
  N  N7  1  0.500118  0.500118  0.500118  1
  O  O8  1  0.591324  0.141559  0.141559  1
  O  O9  1  0.141559  0.591324  0.141559  1
  O  O10  1  0.136433  0.136433  0.136433  1
  O  O11  1  0.141559  0.141559  0.591324  1
  O  O12  1  0.600604  0.600604  0.299020  1
  O  O13  1  0.600604  0.299020  0.600604  1
  O  O14  1  0.299020  0.600604  0.600604  1
  O  O15  1  0.859506  0.859506  0.406653  1
  O  O16  1  0.859506  0.406653  0.859506  1
  O  O17  1  0.863069  0.863069  0.863069  1
  O  O18  1  0.406653  0.859506  0.859506  1
