# generated using pymatgen
data_Ti8Al15RePt6
_symmetry_space_group_name_H-M   'P 1'
_cell_length_a   8.71269985
_cell_length_b   8.71270097
_cell_length_c   8.71270062
_cell_angle_alpha   120.17440352
_cell_angle_beta   119.72378412
_cell_angle_gamma   90.08864180
_symmetry_Int_Tables_number   1
_chemical_formula_structural   Ti8Al15RePt6
_chemical_formula_sum   'Ti8 Al15 Re1 Pt6'
_cell_volume   468.02433299
_cell_formula_units_Z   1
loop_
 _symmetry_equiv_pos_site_id
 _symmetry_equiv_pos_as_xyz
  1  'x, y, z'
loop_
 _atom_site_type_symbol
 _atom_site_label
 _atom_site_symmetry_multiplicity
 _atom_site_fract_x
 _atom_site_fract_y
 _atom_site_fract_z
 _atom_site_occupancy
  Ti  Ti0  1  0.788405  0.289587  0.075889  1
  Ti  Ti1  1  0.213698  0.289587  0.501182  1
  Ti  Ti2  1  0.211145  0.711145  0.500000  1
  Ti  Ti3  1  0.213698  0.712516  0.924111  1
  Ti  Ti4  1  0.788405  0.712516  0.498818  1
  Ti  Ti5  1  0.785875  0.285875  0.500000  1
  Ti  Ti6  1  0.381407  0.121155  0.739748  1
  Ti  Ti7  1  0.381407  0.641661  0.260252  1
  Al  Al8  1  0.998454  0.498454  0.500000  1
  Al  Al9  1  0.156309  0.345311  0.189002  1
  Al  Al10  1  0.156309  0.967307  0.810998  1
  Al  Al11  1  0.155583  0.343605  0.811978  1
  Al  Al12  1  0.531627  0.343605  0.188022  1
  Al  Al13  1  0.844984  0.654384  0.809401  1
  Al  Al14  1  0.844984  0.035583  0.190599  1
  Al  Al15  1  0.843630  0.655777  0.187852  1
  Al  Al16  1  0.467924  0.655777  0.812148  1
  Al  Al17  1  0.381141  0.120004  0.261137  1
  Al  Al18  1  0.858868  0.120004  0.738863  1
  Al  Al19  1  0.620076  0.880237  0.260161  1
  Al  Al20  1  0.620076  0.359915  0.739839  1
  Al  Al21  1  0.620651  0.879766  0.740886  1
  Al  Al22  1  0.138880  0.879766  0.259114  1
  Re  Re23  1  0.497580  0.997580  0.500000  1
  Pt  Pt24  1  0.998613  0.999091  0.498882  1
  Pt  Pt25  1  0.500210  0.999091  0.000479  1
  Pt  Pt26  1  0.500639  0.500639  0.000000  1
  Pt  Pt27  1  0.500210  0.499731  0.501118  1
  Pt  Pt28  1  0.998613  0.499731  0.999521  1
  Pt  Pt29  1  0.000600  0.000600  0.000000  1
