# generated using pymatgen
data_Rb3PuF8
_symmetry_space_group_name_H-M   'P 1'
_cell_length_a   9.17046500
_cell_length_b   9.17046505
_cell_length_c   7.03153800
_cell_angle_alpha   90.00000000
_cell_angle_beta   90.00000000
_cell_angle_gamma   119.99999622
_symmetry_Int_Tables_number   1
_chemical_formula_structural   Rb3PuF8
_chemical_formula_sum   'Rb6 Pu2 F16'
_cell_volume   512.11051608
_cell_formula_units_Z   2
loop_
 _symmetry_equiv_pos_site_id
 _symmetry_equiv_pos_as_xyz
  1  'x, y, z'
loop_
 _atom_site_type_symbol
 _atom_site_label
 _atom_site_symmetry_multiplicity
 _atom_site_fract_x
 _atom_site_fract_y
 _atom_site_fract_z
 _atom_site_occupancy
  Rb  Rb0  1  0.151843  0.303686  0.237806  1
  Rb  Rb1  1  0.848157  0.696314  0.737807  1
  Rb  Rb2  1  0.696314  0.848157  0.237806  1
  Rb  Rb3  1  0.151843  0.848157  0.237806  1
  Rb  Rb4  1  0.848157  0.151843  0.737807  1
  Rb  Rb5  1  0.303686  0.151843  0.737807  1
  Pu  Pu6  1  0.333333  0.666667  0.731706  1
  Pu  Pu7  1  0.666667  0.333333  0.231706  1
  F  F8  1  0.000000  0.000000  0.005512  1
  F  F9  1  0.000000  0.000000  0.505512  1
  F  F10  1  0.436845  0.563155  0.541279  1
  F  F11  1  0.563155  0.436845  0.041279  1
  F  F12  1  0.436845  0.873692  0.541279  1
  F  F13  1  0.126308  0.563155  0.541279  1
  F  F14  1  0.873692  0.436845  0.041279  1
  F  F15  1  0.563155  0.126308  0.041279  1
  F  F16  1  0.333333  0.666667  0.044343  1
  F  F17  1  0.666667  0.333333  0.544343  1
  F  F18  1  0.203412  0.796588  0.822112  1
  F  F19  1  0.796588  0.203412  0.322112  1
  F  F20  1  0.203412  0.406824  0.822112  1
  F  F21  1  0.593176  0.796588  0.822112  1
  F  F22  1  0.406824  0.203412  0.322112  1
  F  F23  1  0.796588  0.593176  0.322112  1
