# generated using pymatgen
data_Er3Co2Sn3Pd
_symmetry_space_group_name_H-M   'P 1'
_cell_length_a   7.45530200
_cell_length_b   7.45530293
_cell_length_c   3.77148400
_cell_angle_alpha   90.00000000
_cell_angle_beta   90.00000000
_cell_angle_gamma   119.99999587
_symmetry_Int_Tables_number   1
_chemical_formula_structural   Er3Co2Sn3Pd
_chemical_formula_sum   'Er3 Co2 Sn3 Pd1'
_cell_volume   181.54046972
_cell_formula_units_Z   1
loop_
 _symmetry_equiv_pos_site_id
 _symmetry_equiv_pos_as_xyz
  1  'x, y, z'
loop_
 _atom_site_type_symbol
 _atom_site_label
 _atom_site_symmetry_multiplicity
 _atom_site_fract_x
 _atom_site_fract_y
 _atom_site_fract_z
 _atom_site_occupancy
  Er  Er0  1  0.411387  0.396972  0.500000  1
  Er  Er1  1  0.603028  0.014415  0.500000  1
  Er  Er2  1  0.985585  0.588613  0.500000  1
  Co  Co3  1  0.666667  0.333333  0.000000  1
  Co  Co4  1  0.000000  0.000000  0.500000  1
  Sn  Sn5  1  0.746229  0.741912  0.000000  1
  Sn  Sn6  1  0.258088  0.004317  0.000000  1
  Sn  Sn7  1  0.995683  0.253771  0.000000  1
  Pd  Pd8  1  0.333333  0.666667  0.000000  1
