# generated using pymatgen
data_Dy5HoLuCo17P12
_symmetry_space_group_name_H-M   'P 1'
_cell_length_a   3.72105900
_cell_length_b   10.60915215
_cell_length_c   12.34987719
_cell_angle_alpha   90.01956164
_cell_angle_beta   90.00000000
_cell_angle_gamma   90.00000000
_symmetry_Int_Tables_number   1
_chemical_formula_structural   Dy5HoLuCo17P12
_chemical_formula_sum   'Dy5 Ho1 Lu1 Co17 P12'
_cell_volume   487.53954467
_cell_formula_units_Z   1
loop_
 _symmetry_equiv_pos_site_id
 _symmetry_equiv_pos_as_xyz
  1  'x, y, z'
loop_
 _atom_site_type_symbol
 _atom_site_label
 _atom_site_symmetry_multiplicity
 _atom_site_fract_x
 _atom_site_fract_y
 _atom_site_fract_z
 _atom_site_occupancy
  Dy  Dy0  1  0.000000  0.499862  0.530925  1
  Dy  Dy1  1  0.500000  0.000022  0.477829  1
  Dy  Dy2  1  0.500000  0.822402  0.207997  1
  Dy  Dy3  1  0.500000  0.177852  0.208182  1
  Dy  Dy4  1  0.000000  0.683158  0.795095  1
  Ho  Ho5  1  0.000000  0.316585  0.795179  1
  Lu  Lu6  1  0.500000  0.500085  0.154882  1
  Co  Co7  1  0.000000  0.499776  0.982021  1
  Co  Co8  1  0.500000  0.000222  0.013030  1
  Co  Co9  1  0.500000  0.293216  0.436416  1
  Co  Co10  1  0.500000  0.706761  0.436199  1
  Co  Co11  1  0.000000  0.201108  0.571288  1
  Co  Co12  1  0.000000  0.799006  0.571010  1
  Co  Co13  1  0.500000  0.880946  0.707281  1
  Co  Co14  1  0.500000  0.119332  0.707447  1
  Co  Co15  1  0.000000  0.622443  0.302968  1
  Co  Co16  1  0.000000  0.377348  0.302827  1
  Co  Co17  1  0.500000  0.324638  0.986752  1
  Co  Co18  1  0.500000  0.675221  0.986886  1
  Co  Co19  1  0.000000  0.159848  0.998913  1
  Co  Co20  1  0.000000  0.840381  0.998955  1
  Co  Co21  1  0.000000  0.000121  0.834682  1
  Co  Co22  1  0.500000  0.499702  0.703559  1
  Co  Co23  1  0.000000  0.000040  0.295076  1
  P  P24  1  0.500000  0.308184  0.618929  1
  P  P25  1  0.500000  0.691827  0.618513  1
  P  P26  1  0.000000  0.188124  0.387506  1
  P  P27  1  0.000000  0.811835  0.387316  1
  P  P28  1  0.500000  0.499621  0.881834  1
  P  P29  1  0.000000  0.000216  0.115401  1
  P  P30  1  0.500000  0.853830  0.887204  1
  P  P31  1  0.500000  0.146465  0.887080  1
  P  P32  1  0.000000  0.667507  0.096233  1
  P  P33  1  0.000000  0.332537  0.096467  1
  P  P34  1  0.500000  0.499792  0.363956  1
  P  P35  1  0.000000  0.999986  0.654161  1
