# generated using pymatgen
data_LuMgNi3Ir
_symmetry_space_group_name_H-M   'P 1'
_cell_length_a   4.91978406
_cell_length_b   5.06833618
_cell_length_c   4.91978300
_cell_angle_alpha   60.96491677
_cell_angle_beta   60.00000044
_cell_angle_gamma   60.96490917
_symmetry_Int_Tables_number   1
_chemical_formula_structural   LuMgNi3Ir
_chemical_formula_sum   'Lu1 Mg1 Ni3 Ir1'
_cell_volume   87.98827669
_cell_formula_units_Z   1
loop_
 _symmetry_equiv_pos_site_id
 _symmetry_equiv_pos_as_xyz
  1  'x, y, z'
loop_
 _atom_site_type_symbol
 _atom_site_label
 _atom_site_symmetry_multiplicity
 _atom_site_fract_x
 _atom_site_fract_y
 _atom_site_fract_z
 _atom_site_occupancy
  Lu  Lu0  1  0.500911  0.497266  0.500911  1
  Mg  Mg1  1  0.748162  0.755514  0.748162  1
  Ni  Ni2  1  0.125402  0.123335  0.125402  1
  Ni  Ni3  1  0.625861  0.123335  0.125402  1
  Ni  Ni4  1  0.125402  0.123335  0.625861  1
  Ir  Ir5  1  0.124262  0.627215  0.124262  1
