# generated using pymatgen
data_Zr9(BeP2)2
_symmetry_space_group_name_H-M   'P 1'
_cell_length_a   11.97913400
_cell_length_b   11.97913400
_cell_length_c   3.68207100
_cell_angle_alpha   90.00000000
_cell_angle_beta   90.00000000
_cell_angle_gamma   90.00000000
_symmetry_Int_Tables_number   1
_chemical_formula_structural   Zr9(BeP2)2
_chemical_formula_sum   'Zr18 Be4 P8'
_cell_volume   528.37590489
_cell_formula_units_Z   2
loop_
 _symmetry_equiv_pos_site_id
 _symmetry_equiv_pos_as_xyz
  1  'x, y, z'
loop_
 _atom_site_type_symbol
 _atom_site_label
 _atom_site_symmetry_multiplicity
 _atom_site_fract_x
 _atom_site_fract_y
 _atom_site_fract_z
 _atom_site_occupancy
  Zr  Zr0  1  0.000000  0.000000  0.000000  1
  Zr  Zr1  1  0.500000  0.500000  0.000000  1
  Zr  Zr2  1  0.105039  0.182749  0.500000  1
  Zr  Zr3  1  0.182749  0.894961  0.500000  1
  Zr  Zr4  1  0.817251  0.105039  0.500000  1
  Zr  Zr5  1  0.894961  0.817251  0.500000  1
  Zr  Zr6  1  0.394961  0.682749  0.500000  1
  Zr  Zr7  1  0.605039  0.317251  0.500000  1
  Zr  Zr8  1  0.682749  0.605039  0.500000  1
  Zr  Zr9  1  0.317251  0.394961  0.500000  1
  Zr  Zr10  1  0.099176  0.400824  0.000000  1
  Zr  Zr11  1  0.400824  0.900824  0.000000  1
  Zr  Zr12  1  0.599176  0.099176  0.000000  1
  Zr  Zr13  1  0.900824  0.599176  0.000000  1
  Zr  Zr14  1  0.382017  0.117983  0.500000  1
  Zr  Zr15  1  0.117983  0.617983  0.500000  1
  Zr  Zr16  1  0.882017  0.382017  0.500000  1
  Zr  Zr17  1  0.617983  0.882017  0.500000  1
  Be  Be18  1  0.259857  0.240143  0.000000  1
  Be  Be19  1  0.240143  0.740143  0.000000  1
  Be  Be20  1  0.759857  0.259857  0.000000  1
  Be  Be21  1  0.740143  0.759857  0.000000  1
  P  P22  1  0.225362  0.057705  0.000000  1
  P  P23  1  0.057705  0.774638  0.000000  1
  P  P24  1  0.942295  0.225362  0.000000  1
  P  P25  1  0.774638  0.942295  0.000000  1
  P  P26  1  0.274638  0.557705  0.000000  1
  P  P27  1  0.725362  0.442295  0.000000  1
  P  P28  1  0.557705  0.725362  0.000000  1
  P  P29  1  0.442295  0.274638  0.000000  1
