# generated using pymatgen
data_Ce4Nd12Cd4Os3Pt
_symmetry_space_group_name_H-M   'P 1'
_cell_length_a   9.85862341
_cell_length_b   9.90871062
_cell_length_c   9.91935692
_cell_angle_alpha   60.01115431
_cell_angle_beta   59.86735429
_cell_angle_gamma   59.86482795
_symmetry_Int_Tables_number   1
_chemical_formula_structural   Ce4Nd12Cd4Os3Pt
_chemical_formula_sum   'Ce4 Nd12 Cd4 Os3 Pt1'
_cell_volume   683.84297849
_cell_formula_units_Z   1
loop_
 _symmetry_equiv_pos_site_id
 _symmetry_equiv_pos_as_xyz
  1  'x, y, z'
loop_
 _atom_site_type_symbol
 _atom_site_label
 _atom_site_symmetry_multiplicity
 _atom_site_fract_x
 _atom_site_fract_y
 _atom_site_fract_z
 _atom_site_occupancy
  Ce  Ce0  1  0.338976  0.348540  0.348657  1
  Ce  Ce1  1  0.340540  0.348874  0.961302  1
  Ce  Ce2  1  0.341381  0.960163  0.349025  1
  Ce  Ce3  1  0.973199  0.341887  0.342228  1
  Nd  Nd4  1  0.812021  0.192026  0.191773  1
  Nd  Nd5  1  0.188108  0.809655  0.809293  1
  Nd  Nd6  1  0.189376  0.810078  0.190696  1
  Nd  Nd7  1  0.810688  0.193258  0.803052  1
  Nd  Nd8  1  0.189333  0.190896  0.809861  1
  Nd  Nd9  1  0.810579  0.803148  0.193246  1
  Nd  Nd10  1  0.940662  0.560814  0.560741  1
  Nd  Nd11  1  0.555219  0.941620  0.941649  1
  Nd  Nd12  1  0.555122  0.942948  0.562456  1
  Nd  Nd13  1  0.938762  0.559618  0.941385  1
  Nd  Nd14  1  0.554986  0.562515  0.942878  1
  Nd  Nd15  1  0.939139  0.941439  0.559306  1
  Cd  Cd16  1  0.578805  0.579040  0.579180  1
  Cd  Cd17  1  0.578971  0.579357  0.261247  1
  Cd  Cd18  1  0.578953  0.261283  0.579399  1
  Cd  Cd19  1  0.259147  0.579780  0.579860  1
  Os  Os20  1  0.151247  0.143303  0.143277  1
  Os  Os21  1  0.151844  0.143170  0.563134  1
  Os  Os22  1  0.151752  0.563355  0.143044  1
  Pt  Pt23  1  0.571193  0.143234  0.143312  1
