# generated using pymatgen
data_Sc2Pa(Co3P2)3
_symmetry_space_group_name_H-M   'P 1'
_cell_length_a   3.64031800
_cell_length_b   10.41346300
_cell_length_c   11.95188800
_cell_angle_alpha   90.00000000
_cell_angle_beta   90.00000000
_cell_angle_gamma   90.00000000
_symmetry_Int_Tables_number   1
_chemical_formula_structural   Sc2Pa(Co3P2)3
_chemical_formula_sum   'Sc4 Pa2 Co18 P12'
_cell_volume   453.07595668
_cell_formula_units_Z   2
loop_
 _symmetry_equiv_pos_site_id
 _symmetry_equiv_pos_as_xyz
  1  'x, y, z'
loop_
 _atom_site_type_symbol
 _atom_site_label
 _atom_site_symmetry_multiplicity
 _atom_site_fract_x
 _atom_site_fract_y
 _atom_site_fract_z
 _atom_site_occupancy
  Sc  Sc0  1  0.250000  0.932917  0.795680  1
  Sc  Sc1  1  0.250000  0.567083  0.795680  1
  Sc  Sc2  1  0.750000  0.067083  0.204320  1
  Sc  Sc3  1  0.750000  0.432917  0.204320  1
  Pa  Pa4  1  0.750000  0.250000  0.468597  1
  Pa  Pa5  1  0.250000  0.750000  0.531403  1
  Co  Co6  1  0.250000  0.250000  0.842320  1
  Co  Co7  1  0.750000  0.750000  0.157680  1
  Co  Co8  1  0.250000  0.250000  0.299648  1
  Co  Co9  1  0.750000  0.750000  0.700352  1
  Co  Co10  1  0.750000  0.250000  0.014349  1
  Co  Co11  1  0.250000  0.750000  0.985651  1
  Co  Co12  1  0.250000  0.416522  0.006839  1
  Co  Co13  1  0.250000  0.083478  0.006839  1
  Co  Co14  1  0.750000  0.583478  0.993161  1
  Co  Co15  1  0.750000  0.916522  0.993161  1
  Co  Co16  1  0.250000  0.449085  0.568556  1
  Co  Co17  1  0.250000  0.050915  0.568556  1
  Co  Co18  1  0.750000  0.550915  0.431444  1
  Co  Co19  1  0.750000  0.949085  0.431444  1
  Co  Co20  1  0.250000  0.872015  0.288122  1
  Co  Co21  1  0.250000  0.627985  0.288122  1
  Co  Co22  1  0.750000  0.127985  0.711878  1
  Co  Co23  1  0.750000  0.372015  0.711878  1
  P  P24  1  0.250000  0.250000  0.121561  1
  P  P25  1  0.750000  0.750000  0.878439  1
  P  P26  1  0.250000  0.250000  0.656197  1
  P  P27  1  0.750000  0.750000  0.343803  1
  P  P28  1  0.250000  0.441853  0.378304  1
  P  P29  1  0.250000  0.058147  0.378304  1
  P  P30  1  0.750000  0.558147  0.621696  1
  P  P31  1  0.750000  0.941853  0.621696  1
  P  P32  1  0.250000  0.905714  0.107505  1
  P  P33  1  0.250000  0.594286  0.107505  1
  P  P34  1  0.750000  0.094286  0.892495  1
  P  P35  1  0.750000  0.405714  0.892495  1
