# generated using pymatgen
data_Lu7VO12
_symmetry_space_group_name_H-M   'P 1'
_cell_length_a   6.48715231
_cell_length_b   6.48715402
_cell_length_c   6.48715200
_cell_angle_alpha   93.42046881
_cell_angle_beta   93.42046087
_cell_angle_gamma   93.42047753
_symmetry_Int_Tables_number   1
_chemical_formula_structural   Lu7VO12
_chemical_formula_sum   'Lu7 V1 O12'
_cell_volume   271.47993485
_cell_formula_units_Z   1
loop_
 _symmetry_equiv_pos_site_id
 _symmetry_equiv_pos_as_xyz
  1  'x, y, z'
loop_
 _atom_site_type_symbol
 _atom_site_label
 _atom_site_symmetry_multiplicity
 _atom_site_fract_x
 _atom_site_fract_y
 _atom_site_fract_z
 _atom_site_occupancy
  Lu  Lu0  1  0.739857  0.924171  0.434815  1
  Lu  Lu1  1  0.434815  0.739857  0.924171  1
  Lu  Lu2  1  0.075829  0.565185  0.260143  1
  Lu  Lu3  1  0.924171  0.434815  0.739857  1
  Lu  Lu4  1  0.565185  0.260143  0.075829  1
  Lu  Lu5  1  0.260143  0.075829  0.565185  1
  Lu  Lu6  1  0.000000  0.000000  0.000000  1
  V  V7  1  0.500000  0.500000  0.500000  1
  O  O8  1  0.069361  0.908490  0.318392  1
  O  O9  1  0.681608  0.930639  0.091510  1
  O  O10  1  0.463221  0.805163  0.591545  1
  O  O11  1  0.091510  0.681608  0.930639  1
  O  O12  1  0.805163  0.591545  0.463221  1
  O  O13  1  0.408455  0.536779  0.194837  1
  O  O14  1  0.591545  0.463221  0.805163  1
  O  O15  1  0.194837  0.408455  0.536779  1
  O  O16  1  0.908490  0.318392  0.069361  1
  O  O17  1  0.536779  0.194837  0.408455  1
  O  O18  1  0.318392  0.069361  0.908490  1
  O  O19  1  0.930639  0.091510  0.681608  1
