# generated using pymatgen
data_Ho7Co3Sn23Ir3
_symmetry_space_group_name_H-M   'P 1'
_cell_length_a   9.77083500
_cell_length_b   9.77083397
_cell_length_c   10.05208300
_cell_angle_alpha   90.00000000
_cell_angle_beta   90.00000000
_cell_angle_gamma   119.99999334
_symmetry_Int_Tables_number   1
_chemical_formula_structural   Ho7Co3Sn23Ir3
_chemical_formula_sum   'Ho7 Co3 Sn23 Ir3'
_cell_volume   831.09379470
_cell_formula_units_Z   1
loop_
 _symmetry_equiv_pos_site_id
 _symmetry_equiv_pos_as_xyz
  1  'x, y, z'
loop_
 _atom_site_type_symbol
 _atom_site_label
 _atom_site_symmetry_multiplicity
 _atom_site_fract_x
 _atom_site_fract_y
 _atom_site_fract_z
 _atom_site_occupancy
  Ho  Ho0  1  0.000000  0.000000  0.980095  1
  Ho  Ho1  1  0.520083  0.479917  0.694991  1
  Ho  Ho2  1  0.520083  0.040165  0.694991  1
  Ho  Ho3  1  0.959835  0.479917  0.694991  1
  Ho  Ho4  1  0.041949  0.520975  0.307692  1
  Ho  Ho5  1  0.479025  0.958051  0.307692  1
  Ho  Ho6  1  0.479025  0.520975  0.307692  1
  Co  Co7  1  0.336617  0.168309  0.200482  1
  Co  Co8  1  0.831691  0.663383  0.200482  1
  Co  Co9  1  0.831691  0.168309  0.200482  1
  Sn  Sn10  1  0.666667  0.333333  0.183000  1
  Sn  Sn11  1  0.666667  0.333333  0.880665  1
  Sn  Sn12  1  0.333333  0.666667  0.123632  1
  Sn  Sn13  1  0.352145  0.345459  0.007023  1
  Sn  Sn14  1  0.993314  0.647855  0.007023  1
  Sn  Sn15  1  0.654541  0.006686  0.007023  1
  Sn  Sn16  1  0.654541  0.647855  0.007023  1
  Sn  Sn17  1  0.333333  0.666667  0.829037  1
  Sn  Sn18  1  0.440262  0.220131  0.450289  1
  Sn  Sn19  1  0.221749  0.778251  0.543732  1
  Sn  Sn20  1  0.221749  0.443496  0.543732  1
  Sn  Sn21  1  0.556504  0.778251  0.543732  1
  Sn  Sn22  1  0.117335  0.882665  0.272652  1
  Sn  Sn23  1  0.779869  0.559738  0.450289  1
  Sn  Sn24  1  0.779869  0.220131  0.450289  1
  Sn  Sn25  1  0.352145  0.006686  0.007023  1
  Sn  Sn26  1  0.117335  0.234670  0.272652  1
  Sn  Sn27  1  0.765330  0.882665  0.272652  1
  Sn  Sn28  1  0.241036  0.120518  0.712666  1
  Sn  Sn29  1  0.879482  0.758964  0.712666  1
  Sn  Sn30  1  0.879482  0.120518  0.712666  1
  Sn  Sn31  1  0.000000  0.000000  0.497007  1
  Sn  Sn32  1  0.993314  0.345459  0.007023  1
  Ir  Ir33  1  0.167459  0.832541  0.805638  1
  Ir  Ir34  1  0.167459  0.334917  0.805638  1
  Ir  Ir35  1  0.665083  0.832541  0.805638  1
