# generated using pymatgen
data_Na2EuO3
_symmetry_space_group_name_H-M   'P 1'
_cell_length_a   5.98568654
_cell_length_b   5.98568683
_cell_length_c   11.23928875
_cell_angle_alpha   95.12723947
_cell_angle_beta   95.12724128
_cell_angle_gamma   119.99848217
_symmetry_Int_Tables_number   1
_chemical_formula_structural   Na2EuO3
_chemical_formula_sum   'Na8 Eu4 O12'
_cell_volume   343.12636134
_cell_formula_units_Z   4
loop_
 _symmetry_equiv_pos_site_id
 _symmetry_equiv_pos_as_xyz
  1  'x, y, z'
loop_
 _atom_site_type_symbol
 _atom_site_label
 _atom_site_symmetry_multiplicity
 _atom_site_fract_x
 _atom_site_fract_y
 _atom_site_fract_z
 _atom_site_occupancy
  Na  Na0  1  0.182688  0.841385  0.499923  1
  Na  Na1  1  0.658615  0.317312  0.000077  1
  Na  Na2  1  0.817312  0.158615  0.500077  1
  Na  Na3  1  0.341385  0.682688  0.999923  1
  Na  Na4  1  0.500000  0.500000  0.500000  1
  Na  Na5  1  0.000000  0.000000  0.000000  1
  Na  Na6  1  0.415848  0.084152  0.250000  1
  Na  Na7  1  0.584152  0.915848  0.750000  1
  Eu  Eu8  1  0.749086  0.750914  0.250000  1
  Eu  Eu9  1  0.250914  0.249086  0.750000  1
  Eu  Eu10  1  0.082386  0.417614  0.250000  1
  Eu  Eu11  1  0.917614  0.582386  0.750000  1
  O  O12  1  0.454376  0.763329  0.362167  1
  O  O13  1  0.736671  0.045624  0.137833  1
  O  O14  1  0.545624  0.236671  0.637833  1
  O  O15  1  0.263329  0.954376  0.862167  1
  O  O16  1  0.092939  0.121494  0.359992  1
  O  O17  1  0.378506  0.407061  0.140008  1
  O  O18  1  0.907061  0.878506  0.640008  1
  O  O19  1  0.621494  0.592939  0.859992  1
  O  O20  1  0.813054  0.480551  0.359778  1
  O  O21  1  0.019449  0.686946  0.140222  1
  O  O22  1  0.186946  0.519449  0.640222  1
  O  O23  1  0.980551  0.313054  0.859778  1
