# generated using pymatgen
data_Ca2Ho3Tm(Si3Ru)8
_symmetry_space_group_name_H-M   'P 1'
_cell_length_a   10.13156717
_cell_length_b   10.13156777
_cell_length_c   8.14653956
_cell_angle_alpha   89.98463220
_cell_angle_beta   89.98463100
_cell_angle_gamma   132.60278573
_symmetry_Int_Tables_number   1
_chemical_formula_structural   Ca2Ho3Tm(Si3Ru)8
_chemical_formula_sum   'Ca2 Ho3 Tm1 Si24 Ru8'
_cell_volume   615.51981407
_cell_formula_units_Z   1
loop_
 _symmetry_equiv_pos_site_id
 _symmetry_equiv_pos_as_xyz
  1  'x, y, z'
loop_
 _atom_site_type_symbol
 _atom_site_label
 _atom_site_symmetry_multiplicity
 _atom_site_fract_x
 _atom_site_fract_y
 _atom_site_fract_z
 _atom_site_occupancy
  Ca  Ca0  1  0.500597  0.000626  0.750010  1
  Ca  Ca1  1  0.999374  0.499403  0.249990  1
  Ho  Ho2  1  0.000112  0.999888  0.000000  1
  Ho  Ho3  1  0.496413  0.996383  0.250006  1
  Ho  Ho4  1  0.003617  0.503587  0.749994  1
  Tm  Tm5  1  0.499844  0.500156  0.500000  1
  Si  Si6  1  0.794478  0.205522  0.500000  1
  Si  Si7  1  0.294115  0.705885  0.000000  1
  Si  Si8  1  0.205996  0.794004  0.500000  1
  Si  Si9  1  0.705417  0.294583  0.000000  1
  Si  Si10  1  0.330091  0.335740  0.832645  1
  Si  Si11  1  0.664260  0.669909  0.167355  1
  Si  Si12  1  0.170305  0.164699  0.333044  1
  Si  Si13  1  0.835301  0.829695  0.666956  1
  Si  Si14  1  0.120626  0.886484  0.727422  1
  Si  Si15  1  0.113516  0.879374  0.272578  1
  Si  Si16  1  0.608282  0.375097  0.228525  1
  Si  Si17  1  0.624903  0.391718  0.771475  1
  Si  Si18  1  0.875093  0.108689  0.271818  1
  Si  Si19  1  0.891311  0.124907  0.728182  1
  Si  Si20  1  0.386813  0.620602  0.772335  1
  Si  Si21  1  0.379398  0.613187  0.227665  1
  Si  Si22  1  0.344297  0.111036  0.502245  1
  Si  Si23  1  0.888964  0.655703  0.497755  1
  Si  Si24  1  0.388469  0.155284  0.007174  1
  Si  Si25  1  0.844716  0.611531  0.992826  1
  Si  Si26  1  0.655200  0.888044  0.492744  1
  Si  Si27  1  0.111956  0.344800  0.507256  1
  Si  Si28  1  0.610682  0.844199  0.997905  1
  Si  Si29  1  0.155801  0.389318  0.002095  1
  Ru  Ru30  1  0.669343  0.330657  0.500000  1
  Ru  Ru31  1  0.168518  0.831482  0.000000  1
  Ru  Ru32  1  0.331777  0.668223  0.500000  1
  Ru  Ru33  1  0.830382  0.169618  0.000000  1
  Ru  Ru34  1  0.126219  0.126649  0.626326  1
  Ru  Ru35  1  0.873351  0.873781  0.373674  1
  Ru  Ru36  1  0.374069  0.373606  0.126629  1
  Ru  Ru37  1  0.626394  0.625931  0.873371  1
