# generated using pymatgen
data_Y15Ho5(Ga2Pb)4
_symmetry_space_group_name_H-M   'P 1'
_cell_length_a   7.88119302
_cell_length_b   7.88050502
_cell_length_c   13.98274501
_cell_angle_alpha   89.99750298
_cell_angle_beta   89.99616406
_cell_angle_gamma   90.00687762
_symmetry_Int_Tables_number   1
_chemical_formula_structural   Y15Ho5(Ga2Pb)4
_chemical_formula_sum   'Y15 Ho5 Ga8 Pb4'
_cell_volume   868.43725752
_cell_formula_units_Z   1
loop_
 _symmetry_equiv_pos_site_id
 _symmetry_equiv_pos_as_xyz
  1  'x, y, z'
loop_
 _atom_site_type_symbol
 _atom_site_label
 _atom_site_symmetry_multiplicity
 _atom_site_fract_x
 _atom_site_fract_y
 _atom_site_fract_z
 _atom_site_occupancy
  Y  Y0  1  0.162898  0.161388  0.608129  1
  Y  Y1  1  0.838646  0.162900  0.391950  1
  Y  Y2  1  0.161344  0.837113  0.391947  1
  Y  Y3  1  0.337084  0.338587  0.391933  1
  Y  Y4  1  0.837100  0.161259  0.108004  1
  Y  Y5  1  0.337098  0.661369  0.891940  1
  Y  Y6  1  0.162783  0.838616  0.107995  1
  Y  Y7  1  0.338646  0.662946  0.608086  1
  Y  Y8  1  0.661459  0.663030  0.107930  1
  Y  Y9  1  0.661435  0.337079  0.608104  1
  Y  Y10  1  0.837129  0.838628  0.608108  1
  Y  Y11  1  0.662876  0.338629  0.891939  1
  Y  Y12  1  0.161213  0.162769  0.891913  1
  Y  Y13  1  0.662883  0.661385  0.391945  1
  Y  Y14  1  0.338637  0.337074  0.108062  1
  Ho  Ho15  1  0.838799  0.837223  0.891594  1
  Ho  Ho16  1  0.500174  0.999892  0.752053  1
  Ho  Ho17  1  0.999996  0.500044  0.248039  1
  Ho  Ho18  1  0.999871  0.500165  0.748166  1
  Ho  Ho19  1  0.500049  0.000005  0.251941  1
  Ga  Ga20  1  0.631995  0.367962  0.249991  1
  Ga  Ga21  1  0.368002  0.632042  0.250000  1
  Ga  Ga22  1  0.132004  0.132052  0.249991  1
  Ga  Ga23  1  0.367959  0.367910  0.749999  1
  Ga  Ga24  1  0.131721  0.867928  0.750124  1
  Ga  Ga25  1  0.868020  0.867998  0.249980  1
  Ga  Ga26  1  0.632196  0.632206  0.750162  1
  Ga  Ga27  1  0.867972  0.131783  0.750122  1
  Pb  Pb28  1  0.999901  0.500163  0.999797  1
  Pb  Pb29  1  0.500135  0.999918  0.000076  1
  Pb  Pb30  1  0.499998  0.999950  0.500130  1
  Pb  Pb31  1  0.999979  0.499988  0.499849  1
