# generated using pymatgen
data_Zr6Zn22PtN
_symmetry_space_group_name_H-M   'P 1'
_cell_length_a   8.70337402
_cell_length_b   8.70337319
_cell_length_c   8.70337300
_cell_angle_alpha   59.99999692
_cell_angle_beta   60.00000006
_cell_angle_gamma   59.99999470
_symmetry_Int_Tables_number   1
_chemical_formula_structural   Zr6Zn22PtN
_chemical_formula_sum   'Zr6 Zn22 Pt1 N1'
_cell_volume   466.17375999
_cell_formula_units_Z   1
loop_
 _symmetry_equiv_pos_site_id
 _symmetry_equiv_pos_as_xyz
  1  'x, y, z'
loop_
 _atom_site_type_symbol
 _atom_site_label
 _atom_site_symmetry_multiplicity
 _atom_site_fract_x
 _atom_site_fract_y
 _atom_site_fract_z
 _atom_site_occupancy
  Zr  Zr0  1  0.688208  0.311792  0.311792  1
  Zr  Zr1  1  0.311792  0.688208  0.688208  1
  Zr  Zr2  1  0.311792  0.688208  0.311792  1
  Zr  Zr3  1  0.688208  0.311792  0.688208  1
  Zr  Zr4  1  0.311792  0.311792  0.688208  1
  Zr  Zr5  1  0.688208  0.688208  0.311792  1
  Zn  Zn6  1  0.120433  0.120433  0.120433  1
  Zn  Zn7  1  0.879567  0.879567  0.879567  1
  Zn  Zn8  1  0.120433  0.120433  0.638704  1
  Zn  Zn9  1  0.120433  0.638704  0.120433  1
  Zn  Zn10  1  0.879567  0.879567  0.361296  1
  Zn  Zn11  1  0.879567  0.361296  0.879567  1
  Zn  Zn12  1  0.638704  0.120433  0.120433  1
  Zn  Zn13  1  0.361296  0.879567  0.879567  1
  Zn  Zn14  1  0.500000  0.000000  0.000000  1
  Zn  Zn15  1  0.000000  0.500000  0.500000  1
  Zn  Zn16  1  0.000000  0.500000  0.000000  1
  Zn  Zn17  1  0.500000  0.000000  0.500000  1
  Zn  Zn18  1  0.000000  0.000000  0.500000  1
  Zn  Zn19  1  0.500000  0.500000  0.000000  1
  Zn  Zn20  1  0.331002  0.331002  0.331002  1
  Zn  Zn21  1  0.668998  0.668998  0.668998  1
  Zn  Zn22  1  0.331002  0.331002  0.006995  1
  Zn  Zn23  1  0.331002  0.006995  0.331002  1
  Zn  Zn24  1  0.668998  0.668998  0.993005  1
  Zn  Zn25  1  0.668998  0.993005  0.668998  1
  Zn  Zn26  1  0.006995  0.331002  0.331002  1
  Zn  Zn27  1  0.993005  0.668998  0.668998  1
  Pt  Pt28  1  0.000000  0.000000  0.000000  1
  N  N29  1  0.500000  0.500000  0.500000  1
