# generated using pymatgen
data_Th2Mn4Ni8P7
_symmetry_space_group_name_H-M   'P 1'
_cell_length_a   9.23654986
_cell_length_b   9.18684009
_cell_length_c   3.76150800
_cell_angle_alpha   90.00000000
_cell_angle_beta   90.00000000
_cell_angle_gamma   120.01099963
_symmetry_Int_Tables_number   1
_chemical_formula_structural   Th2Mn4Ni8P7
_chemical_formula_sum   'Th2 Mn4 Ni8 P7'
_cell_volume   276.38878048
_cell_formula_units_Z   1
loop_
 _symmetry_equiv_pos_site_id
 _symmetry_equiv_pos_as_xyz
  1  'x, y, z'
loop_
 _atom_site_type_symbol
 _atom_site_label
 _atom_site_symmetry_multiplicity
 _atom_site_fract_x
 _atom_site_fract_y
 _atom_site_fract_z
 _atom_site_occupancy
  Th  Th0  1  0.333922  0.667351  0.000000  1
  Th  Th1  1  0.999110  0.998545  0.500000  1
  Mn  Mn2  1  0.516497  0.457222  0.000000  1
  Mn  Mn3  1  0.781016  0.233777  0.500000  1
  Mn  Mn4  1  0.768264  0.550916  0.500000  1
  Mn  Mn5  1  0.446379  0.215884  0.500000  1
  Ni  Ni6  1  0.038660  0.270461  0.000000  1
  Ni  Ni7  1  0.732299  0.768767  0.000000  1
  Ni  Ni8  1  0.234700  0.965067  0.000000  1
  Ni  Ni9  1  0.541169  0.057991  0.000000  1
  Ni  Ni10  1  0.943122  0.481930  0.000000  1
  Ni  Ni11  1  0.614448  0.898415  0.500000  1
  Ni  Ni12  1  0.101194  0.716175  0.500000  1
  Ni  Ni13  1  0.283068  0.383759  0.500000  1
  P  P14  1  0.772042  0.036711  0.000000  1
  P  P15  1  0.963855  0.734236  0.000000  1
  P  P16  1  0.265284  0.229875  0.000000  1
  P  P17  1  0.373906  0.934632  0.500000  1
  P  P18  1  0.064178  0.439729  0.500000  1
  P  P19  1  0.560007  0.622476  0.500000  1
  P  P20  1  0.666881  0.336078  0.000000  1
