# generated using pymatgen
data_Lu2ZrCdRu2
_symmetry_space_group_name_H-M   'P 1'
_cell_length_a   3.32127400
_cell_length_b   3.32127400
_cell_length_c   11.06590300
_cell_angle_alpha   90.00000000
_cell_angle_beta   90.00000000
_cell_angle_gamma   90.00000000
_symmetry_Int_Tables_number   1
_chemical_formula_structural   Lu2ZrCdRu2
_chemical_formula_sum   'Lu2 Zr1 Cd1 Ru2'
_cell_volume   122.06643765
_cell_formula_units_Z   1
loop_
 _symmetry_equiv_pos_site_id
 _symmetry_equiv_pos_as_xyz
  1  'x, y, z'
loop_
 _atom_site_type_symbol
 _atom_site_label
 _atom_site_symmetry_multiplicity
 _atom_site_fract_x
 _atom_site_fract_y
 _atom_site_fract_z
 _atom_site_occupancy
  Lu  Lu0  1  0.000000  0.000000  0.297358  1
  Lu  Lu1  1  0.000000  0.000000  0.702642  1
  Zr  Zr2  1  0.000000  0.000000  0.000000  1
  Cd  Cd3  1  0.500001  0.500001  0.500000  1
  Ru  Ru4  1  0.500001  0.500001  0.146343  1
  Ru  Ru5  1  0.500001  0.500001  0.853657  1
