# generated using pymatgen
data_RbTi6CBr14
_symmetry_space_group_name_H-M   'P 1'
_cell_length_a   9.86949500
_cell_length_b   9.86949428
_cell_length_c   11.82699400
_cell_angle_alpha   90.00000000
_cell_angle_beta   90.00000000
_cell_angle_gamma   94.89573006
_symmetry_Int_Tables_number   1
_chemical_formula_structural   RbTi6CBr14
_chemical_formula_sum   'Rb2 Ti12 C2 Br28'
_cell_volume   1147.82810875
_cell_formula_units_Z   2
loop_
 _symmetry_equiv_pos_site_id
 _symmetry_equiv_pos_as_xyz
  1  'x, y, z'
loop_
 _atom_site_type_symbol
 _atom_site_label
 _atom_site_symmetry_multiplicity
 _atom_site_fract_x
 _atom_site_fract_y
 _atom_site_fract_z
 _atom_site_occupancy
  Rb  Rb0  1  0.500000  0.500000  0.000000  1
  Rb  Rb1  1  0.000000  0.000000  0.500000  1
  Ti  Ti2  1  0.370507  0.370507  0.403988  1
  Ti  Ti3  1  0.629493  0.629493  0.596012  1
  Ti  Ti4  1  0.129493  0.129493  0.903988  1
  Ti  Ti5  1  0.870507  0.870507  0.096012  1
  Ti  Ti6  1  0.956473  0.168928  0.108386  1
  Ti  Ti7  1  0.043527  0.831072  0.891614  1
  Ti  Ti8  1  0.543527  0.331072  0.608386  1
  Ti  Ti9  1  0.668928  0.456473  0.391614  1
  Ti  Ti10  1  0.456473  0.668928  0.391614  1
  Ti  Ti11  1  0.331072  0.543527  0.608386  1
  Ti  Ti12  1  0.831072  0.043527  0.891614  1
  Ti  Ti13  1  0.168928  0.956473  0.108386  1
  C  C14  1  0.000000  0.000000  0.000000  1
  C  C15  1  0.500000  0.500000  0.500000  1
  Br  Br16  1  0.110377  0.353326  0.006224  1
  Br  Br17  1  0.889623  0.646674  0.993776  1
  Br  Br18  1  0.389623  0.146674  0.506224  1
  Br  Br19  1  0.853326  0.610377  0.493776  1
  Br  Br20  1  0.610377  0.853326  0.493776  1
  Br  Br21  1  0.146674  0.389623  0.506224  1
  Br  Br22  1  0.646674  0.889623  0.993776  1
  Br  Br23  1  0.353326  0.110377  0.006224  1
  Br  Br24  1  0.754740  0.245260  0.000000  1
  Br  Br25  1  0.245260  0.754740  0.000000  1
  Br  Br26  1  0.745260  0.254740  0.500000  1
  Br  Br27  1  0.254740  0.745260  0.500000  1
  Br  Br28  1  0.895488  0.395488  0.250000  1
  Br  Br29  1  0.104512  0.604512  0.750000  1
  Br  Br30  1  0.604512  0.104512  0.750000  1
  Br  Br31  1  0.395488  0.895488  0.250000  1
  Br  Br32  1  0.150159  0.150159  0.254615  1
  Br  Br33  1  0.849841  0.849841  0.745385  1
  Br  Br34  1  0.349841  0.349841  0.754615  1
  Br  Br35  1  0.650159  0.650159  0.245385  1
  Br  Br36  1  0.292162  0.534000  0.257085  1
  Br  Br37  1  0.707838  0.466000  0.742915  1
  Br  Br38  1  0.207838  0.966000  0.757085  1
  Br  Br39  1  0.034000  0.792162  0.242915  1
  Br  Br40  1  0.792162  0.034000  0.242915  1
  Br  Br41  1  0.966000  0.207838  0.757085  1
  Br  Br42  1  0.466000  0.707838  0.742915  1
  Br  Br43  1  0.534000  0.292162  0.257085  1
