# generated using pymatgen
data_La3Y(Si5Pt3)2
_symmetry_space_group_name_H-M   'P 1'
_cell_length_a   8.29659382
_cell_length_b   8.30130132
_cell_length_c   8.30130023
_cell_angle_alpha   136.53372832
_cell_angle_beta   105.50158282
_cell_angle_gamma   90.40744116
_symmetry_Int_Tables_number   1
_chemical_formula_structural   La3Y(Si5Pt3)2
_chemical_formula_sum   'La3 Y1 Si10 Pt6'
_cell_volume   361.14440797
_cell_formula_units_Z   1
loop_
 _symmetry_equiv_pos_site_id
 _symmetry_equiv_pos_as_xyz
  1  'x, y, z'
loop_
 _atom_site_type_symbol
 _atom_site_label
 _atom_site_symmetry_multiplicity
 _atom_site_fract_x
 _atom_site_fract_y
 _atom_site_fract_z
 _atom_site_occupancy
  La  La0  1  0.138210  0.370913  0.767297  1
  La  La1  1  0.396260  0.128877  0.267384  1
  La  La2  1  0.604216  0.871134  0.733084  1
  Y  Y3  1  0.859794  0.628277  0.231517  1
  Si  Si4  1  0.501059  0.750938  0.251134  1
  Si  Si5  1  0.501059  0.249925  0.750122  1
  Si  Si6  1  0.228500  0.978579  0.748918  1
  Si  Si7  1  0.770831  0.519874  0.750997  1
  Si  Si8  1  0.770831  0.019834  0.250957  1
  Si  Si9  1  0.228500  0.479582  0.249922  1
  Si  Si10  1  0.032767  0.884867  0.147899  1
  Si  Si11  1  0.965056  0.113626  0.851430  1
  Si  Si12  1  0.740335  0.389471  0.350865  1
  Si  Si13  1  0.262275  0.613564  0.648711  1
  Pt  Pt14  1  0.999705  0.750703  0.748624  1
  Pt  Pt15  1  0.999705  0.251081  0.249001  1
  Pt  Pt16  1  0.249791  0.861260  0.388532  1
  Pt  Pt17  1  0.747772  0.136061  0.611709  1
  Pt  Pt18  1  0.475830  0.365462  0.110368  1
  Pt  Pt19  1  0.527502  0.635973  0.891529  1
