# generated using pymatgen
data_Tb(AgO2)2
_symmetry_space_group_name_H-M   'P 1'
_cell_length_a   6.62619979
_cell_length_b   6.62619964
_cell_length_c   6.62619993
_cell_angle_alpha   126.14583218
_cell_angle_beta   126.14582746
_cell_angle_gamma   79.64859394
_symmetry_Int_Tables_number   1
_chemical_formula_structural   Tb(AgO2)2
_chemical_formula_sum   'Tb2 Ag4 O8'
_cell_volume   183.29148042
_cell_formula_units_Z   2
loop_
 _symmetry_equiv_pos_site_id
 _symmetry_equiv_pos_as_xyz
  1  'x, y, z'
loop_
 _atom_site_type_symbol
 _atom_site_label
 _atom_site_symmetry_multiplicity
 _atom_site_fract_x
 _atom_site_fract_y
 _atom_site_fract_z
 _atom_site_occupancy
  Tb  Tb0  1  0.750000  0.250000  0.500000  1
  Tb  Tb1  1  0.000000  0.000000  0.000000  1
  Ag  Ag2  1  0.375000  0.125000  0.750000  1
  Ag  Ag3  1  0.375000  0.625000  0.250000  1
  Ag  Ag4  1  0.875000  0.625000  0.250000  1
  Ag  Ag5  1  0.375000  0.625000  0.750000  1
  O  O6  1  0.035116  0.010620  0.658721  1
  O  O7  1  0.623606  0.964884  0.975504  1
  O  O8  1  0.989380  0.648102  0.024496  1
  O  O9  1  0.398102  0.873606  0.158721  1
  O  O10  1  0.760620  0.601898  0.475504  1
  O  O11  1  0.126394  0.285116  0.524496  1
  O  O12  1  0.351898  0.376394  0.341279  1
  O  O13  1  0.714884  0.239380  0.841279  1
