# generated using pymatgen
data_Ta2TiBe2Co5
_symmetry_space_group_name_H-M   'P 1'
_cell_length_a   8.61733200
_cell_length_b   8.61733200
_cell_length_c   3.15229700
_cell_angle_alpha   90.00000000
_cell_angle_beta   90.00000000
_cell_angle_gamma   90.00000000
_symmetry_Int_Tables_number   1
_chemical_formula_structural   Ta2TiBe2Co5
_chemical_formula_sum   'Ta4 Ti2 Be4 Co10'
_cell_volume   234.08456558
_cell_formula_units_Z   2
loop_
 _symmetry_equiv_pos_site_id
 _symmetry_equiv_pos_as_xyz
  1  'x, y, z'
loop_
 _atom_site_type_symbol
 _atom_site_label
 _atom_site_symmetry_multiplicity
 _atom_site_fract_x
 _atom_site_fract_y
 _atom_site_fract_z
 _atom_site_occupancy
  Ta  Ta0  1  0.824242  0.324242  0.000000  1
  Ta  Ta1  1  0.175758  0.675758  0.000000  1
  Ta  Ta2  1  0.324242  0.175758  0.000000  1
  Ta  Ta3  1  0.675758  0.824242  0.000000  1
  Ti  Ti4  1  0.500000  0.500000  0.000000  1
  Ti  Ti5  1  0.000000  0.000000  0.000000  1
  Be  Be6  1  0.619446  0.119446  0.000000  1
  Be  Be7  1  0.380554  0.880554  0.000000  1
  Be  Be8  1  0.119446  0.380554  0.000000  1
  Be  Be9  1  0.880554  0.619446  0.000000  1
  Co  Co10  1  0.500000  0.000000  0.500000  1
  Co  Co11  1  0.000000  0.500000  0.500000  1
  Co  Co12  1  0.714270  0.568923  0.500000  1
  Co  Co13  1  0.285730  0.431077  0.500000  1
  Co  Co14  1  0.214270  0.931077  0.500000  1
  Co  Co15  1  0.785730  0.068923  0.500000  1
  Co  Co16  1  0.431077  0.714270  0.500000  1
  Co  Co17  1  0.568923  0.285730  0.500000  1
  Co  Co18  1  0.068923  0.214270  0.500000  1
  Co  Co19  1  0.931077  0.785730  0.500000  1
