# generated using pymatgen
data_Nd5Ti2P12Ir17
_symmetry_space_group_name_H-M   'P 1'
_cell_length_a   12.70354400
_cell_length_b   12.88596606
_cell_length_c   4.01656200
_cell_angle_alpha   90.00000000
_cell_angle_beta   90.00000000
_cell_angle_gamma   119.53279649
_symmetry_Int_Tables_number   1
_chemical_formula_structural   Nd5Ti2P12Ir17
_chemical_formula_sum   'Nd5 Ti2 P12 Ir17'
_cell_volume   572.07423595
_cell_formula_units_Z   1
loop_
 _symmetry_equiv_pos_site_id
 _symmetry_equiv_pos_as_xyz
  1  'x, y, z'
loop_
 _atom_site_type_symbol
 _atom_site_label
 _atom_site_symmetry_multiplicity
 _atom_site_fract_x
 _atom_site_fract_y
 _atom_site_fract_z
 _atom_site_occupancy
  Nd  Nd0  1  0.329966  0.660902  0.500000  1
  Nd  Nd1  1  0.669066  0.339098  0.500000  1
  Nd  Nd2  1  0.000166  0.811478  0.000000  1
  Nd  Nd3  1  0.188687  0.188522  0.000000  1
  Nd  Nd4  1  0.813103  0.000000  0.000000  1
  Ti  Ti5  1  0.998394  0.445887  0.500000  1
  Ti  Ti6  1  0.552507  0.554113  0.500000  1
  P  P7  1  0.000829  0.636029  0.500000  1
  P  P8  1  0.364801  0.363971  0.500000  1
  P  P9  1  0.642078  0.000000  0.500000  1
  P  P10  1  0.515419  0.682481  0.000000  1
  P  P11  1  0.308215  0.824437  0.000000  1
  P  P12  1  0.161778  0.479239  0.000000  1
  P  P13  1  0.483778  0.175563  0.000000  1
  P  P14  1  0.682539  0.520761  0.000000  1
  P  P15  1  0.832937  0.317519  0.000000  1
  P  P16  1  0.999796  0.177128  0.500000  1
  P  P17  1  0.822668  0.822872  0.500000  1
  P  P18  1  0.182549  0.000000  0.500000  1
  Ir  Ir19  1  0.506048  0.865983  0.000000  1
  Ir  Ir20  1  0.125624  0.640361  0.000000  1
  Ir  Ir21  1  0.355562  0.490518  0.000000  1
  Ir  Ir22  1  0.485264  0.359639  0.000000  1
  Ir  Ir23  1  0.865045  0.509482  0.000000  1
  Ir  Ir24  1  0.640066  0.134017  0.000000  1
  Ir  Ir25  1  0.462577  0.000000  0.500000  1
  Ir  Ir26  1  0.996974  0.283079  0.000000  1
  Ir  Ir27  1  0.713897  0.716921  0.000000  1
  Ir  Ir28  1  0.291994  0.000000  0.000000  1
  Ir  Ir29  1  0.620832  0.803583  0.500000  1
  Ir  Ir30  1  0.205149  0.824553  0.500000  1
  Ir  Ir31  1  0.175989  0.370979  0.500000  1
  Ir  Ir32  1  0.380597  0.175447  0.500000  1
  Ir  Ir33  1  0.805010  0.629021  0.500000  1
  Ir  Ir34  1  0.817249  0.196417  0.500000  1
  Ir  Ir35  1  0.002846  0.000000  0.500000  1
