# generated using pymatgen
data_La15PrCd4IrPd3
_symmetry_space_group_name_H-M   'P 1'
_cell_length_a   10.20526496
_cell_length_b   10.16010674
_cell_length_c   10.16946600
_cell_angle_alpha   59.96952953
_cell_angle_beta   60.11597890
_cell_angle_gamma   60.16126790
_symmetry_Int_Tables_number   1
_chemical_formula_structural   La15PrCd4IrPd3
_chemical_formula_sum   'La15 Pr1 Cd4 Ir1 Pd3'
_cell_volume   746.98494259
_cell_formula_units_Z   1
loop_
 _symmetry_equiv_pos_site_id
 _symmetry_equiv_pos_as_xyz
  1  'x, y, z'
loop_
 _atom_site_type_symbol
 _atom_site_label
 _atom_site_symmetry_multiplicity
 _atom_site_fract_x
 _atom_site_fract_y
 _atom_site_fract_z
 _atom_site_occupancy
  La  La0  1  0.352202  0.346699  0.346774  1
  La  La1  1  0.352202  0.346699  0.954325  1
  La  La2  1  0.352067  0.952797  0.347568  1
  La  La3  1  0.941425  0.352349  0.353113  1
  La  La4  1  0.805114  0.190153  0.191333  1
  La  La5  1  0.196143  0.806753  0.804761  1
  La  La6  1  0.196143  0.806753  0.192344  1
  La  La7  1  0.805114  0.190153  0.813400  1
  La  La8  1  0.196307  0.191501  0.806096  1
  La  La9  1  0.804012  0.814107  0.190941  1
  La  La10  1  0.938285  0.564125  0.564407  1
  La  La11  1  0.567358  0.937046  0.935554  1
  La  La12  1  0.567358  0.937046  0.560041  1
  La  La13  1  0.938285  0.564125  0.933183  1
  La  La14  1  0.567085  0.559436  0.936740  1
  Pr  Pr15  1  0.938322  0.934623  0.563527  1
  Cd  Cd16  1  0.577953  0.580597  0.580393  1
  Cd  Cd17  1  0.577953  0.580597  0.261056  1
  Cd  Cd18  1  0.578372  0.260500  0.580564  1
  Cd  Cd19  1  0.261765  0.579696  0.579269  1
  Ir  Ir20  1  0.572156  0.142360  0.142741  1
  Pd  Pd21  1  0.138120  0.144745  0.145139  1
  Pd  Pd22  1  0.138120  0.144745  0.571994  1
  Pd  Pd23  1  0.138131  0.572393  0.144737  1
