# generated using pymatgen
data_YEr7Ti11Si16Os
_symmetry_space_group_name_H-M   'P 1'
_cell_length_a   6.99652934
_cell_length_b   6.99590014
_cell_length_c   12.83863308
_cell_angle_alpha   90.03107654
_cell_angle_beta   89.95917227
_cell_angle_gamma   89.91656356
_symmetry_Int_Tables_number   1
_chemical_formula_structural   YEr7Ti11Si16Os
_chemical_formula_sum   'Y1 Er7 Ti11 Si16 Os1'
_cell_volume   628.41191894
_cell_formula_units_Z   1
loop_
 _symmetry_equiv_pos_site_id
 _symmetry_equiv_pos_as_xyz
  1  'x, y, z'
loop_
 _atom_site_type_symbol
 _atom_site_label
 _atom_site_symmetry_multiplicity
 _atom_site_fract_x
 _atom_site_fract_y
 _atom_site_fract_z
 _atom_site_occupancy
  Y  Y0  1  0.340597  0.004383  0.467394  1
  Er  Er1  1  0.497227  0.840679  0.718371  1
  Er  Er2  1  0.499722  0.159161  0.214871  1
  Er  Er3  1  0.840873  0.497213  0.281658  1
  Er  Er4  1  0.159080  0.499763  0.785019  1
  Er  Er5  1  0.658109  0.998676  0.968649  1
  Er  Er6  1  0.003558  0.341194  0.532774  1
  Er  Er7  1  0.998727  0.658087  0.031431  1
  Ti  Ti8  1  0.174120  0.827613  0.248033  1
  Ti  Ti9  1  0.827775  0.174296  0.751823  1
  Ti  Ti10  1  0.674210  0.673578  0.500042  1
  Ti  Ti11  1  0.150903  0.003259  0.875266  1
  Ti  Ti12  1  0.492217  0.655323  0.124585  1
  Ti  Ti13  1  0.506963  0.349581  0.628218  1
  Ti  Ti14  1  0.655336  0.492262  0.875351  1
  Ti  Ti15  1  0.349432  0.506748  0.371910  1
  Ti  Ti16  1  0.848589  0.994154  0.375019  1
  Ti  Ti17  1  0.003189  0.151015  0.124726  1
  Ti  Ti18  1  0.993993  0.848518  0.625108  1
  Si  Si19  1  0.202855  0.132204  0.684887  1
  Si  Si20  1  0.371816  0.699758  0.933094  1
  Si  Si21  1  0.632405  0.297494  0.434051  1
  Si  Si22  1  0.699781  0.371856  0.066941  1
  Si  Si23  1  0.296700  0.630937  0.566185  1
  Si  Si24  1  0.796360  0.867795  0.183406  1
  Si  Si25  1  0.131473  0.203637  0.314879  1
  Si  Si26  1  0.867840  0.796346  0.816562  1
  Si  Si27  1  0.287824  0.955218  0.064433  1
  Si  Si28  1  0.547345  0.792147  0.314903  1
  Si  Si29  1  0.450552  0.208608  0.818301  1
  Si  Si30  1  0.792697  0.546823  0.684684  1
  Si  Si31  1  0.208592  0.450608  0.181669  1
  Si  Si32  1  0.708817  0.048179  0.566019  1
  Si  Si33  1  0.955246  0.287855  0.935582  1
  Si  Si34  1  0.047443  0.707401  0.434196  1
  Os  Os35  1  0.327637  0.327635  0.999959  1
