# generated using pymatgen
data_Nb6CoS12
_symmetry_space_group_name_H-M   'P 1'
_cell_length_a   5.76816487
_cell_length_b   5.76816466
_cell_length_c   12.67201600
_cell_angle_alpha   85.65856691
_cell_angle_beta   85.65856707
_cell_angle_gamma   120.00076693
_symmetry_Int_Tables_number   1
_chemical_formula_structural   Nb6CoS12
_chemical_formula_sum   'Nb6 Co1 S12'
_cell_volume   360.92156830
_cell_formula_units_Z   1
loop_
 _symmetry_equiv_pos_site_id
 _symmetry_equiv_pos_as_xyz
  1  'x, y, z'
loop_
 _atom_site_type_symbol
 _atom_site_label
 _atom_site_symmetry_multiplicity
 _atom_site_fract_x
 _atom_site_fract_y
 _atom_site_fract_z
 _atom_site_occupancy
  Nb  Nb0  1  0.078411  0.078411  0.764956  1
  Nb  Nb1  1  0.410215  0.743459  0.769327  1
  Nb  Nb2  1  0.743459  0.410215  0.769327  1
  Nb  Nb3  1  0.256541  0.589785  0.230673  1
  Nb  Nb4  1  0.589785  0.256541  0.230673  1
  Nb  Nb5  1  0.921589  0.921589  0.235044  1
  Co  Co6  1  0.000000  0.000000  0.000000  1
  S  S7  1  0.294525  0.294525  0.106249  1
  S  S8  1  0.634518  0.964531  0.106248  1
  S  S9  1  0.964531  0.634518  0.106248  1
  S  S10  1  0.035469  0.365482  0.893752  1
  S  S11  1  0.365482  0.035469  0.893752  1
  S  S12  1  0.705475  0.705475  0.893751  1
  S  S13  1  0.216222  0.216222  0.358281  1
  S  S14  1  0.545102  0.880741  0.358243  1
  S  S15  1  0.880741  0.545102  0.358243  1
  S  S16  1  0.119259  0.454898  0.641757  1
  S  S17  1  0.454898  0.119259  0.641757  1
  S  S18  1  0.783778  0.783778  0.641719  1
