# generated using pymatgen
data_Hf2UMn3
_symmetry_space_group_name_H-M   'P 1'
_cell_length_a   5.14141949
_cell_length_b   4.86223082
_cell_length_c   8.53263300
_cell_angle_alpha   90.00000000
_cell_angle_beta   90.00000000
_cell_angle_gamma   118.21941066
_symmetry_Int_Tables_number   1
_chemical_formula_structural   Hf2UMn3
_chemical_formula_sum   'Hf4 U2 Mn6'
_cell_volume   187.95255198
_cell_formula_units_Z   2
loop_
 _symmetry_equiv_pos_site_id
 _symmetry_equiv_pos_as_xyz
  1  'x, y, z'
loop_
 _atom_site_type_symbol
 _atom_site_label
 _atom_site_symmetry_multiplicity
 _atom_site_fract_x
 _atom_site_fract_y
 _atom_site_fract_z
 _atom_site_occupancy
  Hf  Hf0  1  0.334308  0.643084  0.061419  1
  Hf  Hf1  1  0.665692  0.308775  0.561419  1
  Hf  Hf2  1  0.665692  0.308775  0.938581  1
  Hf  Hf3  1  0.334308  0.643084  0.438581  1
  U  U4  1  0.871236  0.712878  0.250000  1
  U  U5  1  0.128764  0.841641  0.750000  1
  Mn  Mn6  1  0.000000  0.974565  0.000000  1
  Mn  Mn7  1  0.000000  0.974565  0.500000  1
  Mn  Mn8  1  0.650020  0.825229  0.750000  1
  Mn  Mn9  1  0.349980  0.175209  0.250000  1
  Mn  Mn10  1  0.837096  0.214646  0.250000  1
  Mn  Mn11  1  0.162904  0.377550  0.750000  1
