# generated using pymatgen
data_Ca6Ga6Ru3Rh
_symmetry_space_group_name_H-M   'P 1'
_cell_length_a   5.88212306
_cell_length_b   8.21223600
_cell_length_c   14.76331809
_cell_angle_alpha   90.00000000
_cell_angle_beta   90.30983149
_cell_angle_gamma   90.00000000
_symmetry_Int_Tables_number   1
_chemical_formula_structural   Ca6Ga6Ru3Rh
_chemical_formula_sum   'Ca12 Ga12 Ru6 Rh2'
_cell_volume   713.13730367
_cell_formula_units_Z   2
loop_
 _symmetry_equiv_pos_site_id
 _symmetry_equiv_pos_as_xyz
  1  'x, y, z'
loop_
 _atom_site_type_symbol
 _atom_site_label
 _atom_site_symmetry_multiplicity
 _atom_site_fract_x
 _atom_site_fract_y
 _atom_site_fract_z
 _atom_site_occupancy
  Ca  Ca0  1  0.113682  0.548865  0.607267  1
  Ca  Ca1  1  0.616467  0.695377  0.750698  1
  Ca  Ca2  1  0.613682  0.951135  0.107267  1
  Ca  Ca3  1  0.386599  0.049193  0.892682  1
  Ca  Ca4  1  0.612798  0.951179  0.392516  1
  Ca  Ca5  1  0.883442  0.195185  0.749441  1
  Ca  Ca6  1  0.383442  0.304815  0.249441  1
  Ca  Ca7  1  0.387038  0.048423  0.607177  1
  Ca  Ca8  1  0.887038  0.451577  0.107177  1
  Ca  Ca9  1  0.112798  0.548821  0.892516  1
  Ca  Ca10  1  0.116467  0.804623  0.250698  1
  Ca  Ca11  1  0.886599  0.450807  0.392682  1
  Ga  Ga12  1  0.074340  0.853129  0.749848  1
  Ga  Ga13  1  0.869145  0.183137  0.958028  1
  Ga  Ga14  1  0.926975  0.146129  0.251581  1
  Ga  Ga15  1  0.574340  0.646871  0.249848  1
  Ga  Ga16  1  0.130293  0.813185  0.460507  1
  Ga  Ga17  1  0.369449  0.317335  0.040283  1
  Ga  Ga18  1  0.628137  0.687752  0.539119  1
  Ga  Ga19  1  0.630293  0.686815  0.960507  1
  Ga  Ga20  1  0.369145  0.316863  0.458028  1
  Ga  Ga21  1  0.128137  0.812248  0.039119  1
  Ga  Ga22  1  0.426975  0.353871  0.751581  1
  Ga  Ga23  1  0.869449  0.182665  0.540283  1
  Ru  Ru24  1  0.903209  0.895055  0.595921  1
  Ru  Ru25  1  0.596207  0.396432  0.904828  1
  Ru  Ru26  1  0.903413  0.896024  0.903379  1
  Ru  Ru27  1  0.403209  0.604945  0.095921  1
  Ru  Ru28  1  0.096207  0.103568  0.404828  1
  Ru  Ru29  1  0.403413  0.603976  0.403379  1
  Rh  Rh30  1  0.598804  0.396846  0.596725  1
  Rh  Rh31  1  0.098804  0.103154  0.096725  1
