# generated using pymatgen
data_Tm5Sc2AuC4
_symmetry_space_group_name_H-M   'P 1'
_cell_length_a   10.99725000
_cell_length_b   10.99725000
_cell_length_c   3.53376500
_cell_angle_alpha   90.00000000
_cell_angle_beta   90.00000000
_cell_angle_gamma   90.00000000
_symmetry_Int_Tables_number   1
_chemical_formula_structural   Tm5Sc2AuC4
_chemical_formula_sum   'Tm10 Sc4 Au2 C8'
_cell_volume   427.37179894
_cell_formula_units_Z   2
loop_
 _symmetry_equiv_pos_site_id
 _symmetry_equiv_pos_as_xyz
  1  'x, y, z'
loop_
 _atom_site_type_symbol
 _atom_site_label
 _atom_site_symmetry_multiplicity
 _atom_site_fract_x
 _atom_site_fract_y
 _atom_site_fract_z
 _atom_site_occupancy
  Tm  Tm0  1  0.547259  0.735571  0.500000  1
  Tm  Tm1  1  0.452741  0.264429  0.500000  1
  Tm  Tm2  1  0.047259  0.764429  0.500000  1
  Tm  Tm3  1  0.952741  0.235571  0.500000  1
  Tm  Tm4  1  0.264429  0.547259  0.500000  1
  Tm  Tm5  1  0.735571  0.452741  0.500000  1
  Tm  Tm6  1  0.235571  0.047259  0.500000  1
  Tm  Tm7  1  0.764429  0.952741  0.500000  1
  Tm  Tm8  1  0.500000  0.000000  0.000000  1
  Tm  Tm9  1  0.000000  0.500000  0.000000  1
  Sc  Sc10  1  0.702769  0.202769  0.000000  1
  Sc  Sc11  1  0.297231  0.797231  0.000000  1
  Sc  Sc12  1  0.202769  0.297231  0.000000  1
  Sc  Sc13  1  0.797231  0.702769  0.000000  1
  Au  Au14  1  0.500000  0.500000  0.000000  1
  Au  Au15  1  0.000000  0.000000  0.000000  1
  C  C16  1  0.620266  0.120266  0.500000  1
  C  C17  1  0.379734  0.879734  0.500000  1
  C  C18  1  0.120266  0.379734  0.500000  1
  C  C19  1  0.879734  0.620266  0.500000  1
  C  C20  1  0.156674  0.656674  0.000000  1
  C  C21  1  0.843326  0.343326  0.000000  1
  C  C22  1  0.656674  0.843326  0.000000  1
  C  C23  1  0.343326  0.156674  0.000000  1
