# generated using pymatgen
data_LaTh7Zn7Ga(RuRh3)2
_symmetry_space_group_name_H-M   'P 1'
_cell_length_a   3.95762000
_cell_length_b   7.51836944
_cell_length_c   16.56857700
_cell_angle_alpha   89.56224335
_cell_angle_beta   90.00000000
_cell_angle_gamma   90.00000000
_symmetry_Int_Tables_number   1
_chemical_formula_structural   LaTh7Zn7Ga(RuRh3)2
_chemical_formula_sum   'La1 Th7 Zn7 Ga1 Ru2 Rh6'
_cell_volume   492.98112199
_cell_formula_units_Z   1
loop_
 _symmetry_equiv_pos_site_id
 _symmetry_equiv_pos_as_xyz
  1  'x, y, z'
loop_
 _atom_site_type_symbol
 _atom_site_label
 _atom_site_symmetry_multiplicity
 _atom_site_fract_x
 _atom_site_fract_y
 _atom_site_fract_z
 _atom_site_occupancy
  La  La0  1  0.750000  0.944669  0.285510  1
  Th  Th1  1  0.750000  0.325503  0.437865  1
  Th  Th2  1  0.250000  0.064047  0.716547  1
  Th  Th3  1  0.250000  0.556687  0.784962  1
  Th  Th4  1  0.250000  0.673610  0.560277  1
  Th  Th5  1  0.750000  0.823973  0.060638  1
  Th  Th6  1  0.250000  0.175076  0.937663  1
  Th  Th7  1  0.750000  0.436863  0.215995  1
  Zn  Zn8  1  0.250000  0.113197  0.152757  1
  Zn  Zn9  1  0.250000  0.998326  0.440629  1
  Zn  Zn10  1  0.750000  0.005524  0.560604  1
  Zn  Zn11  1  0.250000  0.491378  0.058117  1
  Zn  Zn12  1  0.750000  0.387657  0.653512  1
  Zn  Zn13  1  0.750000  0.503261  0.940511  1
  Zn  Zn14  1  0.250000  0.615382  0.348502  1
  Ga  Ga15  1  0.750000  0.886641  0.847342  1
  Ru  Ru16  1  0.750000  0.253335  0.816332  1
  Ru  Ru17  1  0.250000  0.258861  0.315465  1
  Rh  Rh18  1  0.250000  0.757089  0.934932  1
  Rh  Rh19  1  0.250000  0.257442  0.562044  1
  Rh  Rh20  1  0.250000  0.727408  0.180227  1
  Rh  Rh21  1  0.750000  0.744065  0.440793  1
  Rh  Rh22  1  0.750000  0.239312  0.061225  1
  Rh  Rh23  1  0.750000  0.760692  0.687551  1
