# generated using pymatgen
data_Mg3Np(B6Ru)2
_symmetry_space_group_name_H-M   'P 1'
_cell_length_a   3.52734600
_cell_length_b   8.89417504
_cell_length_c   11.14696100
_cell_angle_alpha   89.69618360
_cell_angle_beta   90.00000000
_cell_angle_gamma   90.00000000
_symmetry_Int_Tables_number   1
_chemical_formula_structural   Mg3Np(B6Ru)2
_chemical_formula_sum   'Mg6 Np2 B24 Ru4'
_cell_volume   349.70682666
_cell_formula_units_Z   2
loop_
 _symmetry_equiv_pos_site_id
 _symmetry_equiv_pos_as_xyz
  1  'x, y, z'
loop_
 _atom_site_type_symbol
 _atom_site_label
 _atom_site_symmetry_multiplicity
 _atom_site_fract_x
 _atom_site_fract_y
 _atom_site_fract_z
 _atom_site_occupancy
  Mg  Mg0  1  0.000000  0.831061  0.084691  1
  Mg  Mg1  1  0.000000  0.168939  0.915309  1
  Mg  Mg2  1  0.000000  0.947361  0.373463  1
  Mg  Mg3  1  0.000000  0.052639  0.626537  1
  Mg  Mg4  1  0.000000  0.443751  0.124788  1
  Mg  Mg5  1  0.000000  0.556249  0.875212  1
  Np  Np6  1  0.000000  0.320165  0.413027  1
  Np  Np7  1  0.000000  0.679835  0.586973  1
  B  B8  1  0.500000  0.553990  0.433441  1
  B  B9  1  0.500000  0.446010  0.566559  1
  B  B10  1  0.500000  0.055636  0.064877  1
  B  B11  1  0.500000  0.944364  0.935123  1
  B  B12  1  0.500000  0.755039  0.417889  1
  B  B13  1  0.500000  0.244961  0.582111  1
  B  B14  1  0.500000  0.254704  0.077125  1
  B  B15  1  0.500000  0.745296  0.922875  1
  B  B16  1  0.500000  0.796378  0.260296  1
  B  B17  1  0.500000  0.203622  0.739704  1
  B  B18  1  0.500000  0.295670  0.235536  1
  B  B19  1  0.500000  0.704330  0.764464  1
  B  B20  1  0.500000  0.630783  0.179041  1
  B  B21  1  0.500000  0.369217  0.820959  1
  B  B22  1  0.500000  0.130796  0.318021  1
  B  B23  1  0.500000  0.869204  0.681979  1
  B  B24  1  0.500000  0.981369  0.210463  1
  B  B25  1  0.500000  0.018631  0.789537  1
  B  B26  1  0.500000  0.481515  0.286282  1
  B  B27  1  0.500000  0.518485  0.713718  1
  B  B28  1  0.500000  0.592695  0.025423  1
  B  B29  1  0.500000  0.407305  0.974577  1
  B  B30  1  0.500000  0.098882  0.473514  1
  B  B31  1  0.500000  0.901118  0.526486  1
  Ru  Ru32  1  0.000000  0.641361  0.317259  1
  Ru  Ru33  1  0.000000  0.358639  0.682741  1
  Ru  Ru34  1  0.000000  0.144307  0.181546  1
  Ru  Ru35  1  0.000000  0.855693  0.818454  1
