# generated using pymatgen
data_AcNd(Tm2Rh9)2
_symmetry_space_group_name_H-M   'P 1'
_cell_length_a   5.27230900
_cell_length_b   5.27230916
_cell_length_c   17.52618900
_cell_angle_alpha   90.00000000
_cell_angle_beta   90.00000000
_cell_angle_gamma   119.99999274
_symmetry_Int_Tables_number   1
_chemical_formula_structural   AcNd(Tm2Rh9)2
_chemical_formula_sum   'Ac1 Nd1 Tm4 Rh18'
_cell_volume   421.91005739
_cell_formula_units_Z   1
loop_
 _symmetry_equiv_pos_site_id
 _symmetry_equiv_pos_as_xyz
  1  'x, y, z'
loop_
 _atom_site_type_symbol
 _atom_site_label
 _atom_site_symmetry_multiplicity
 _atom_site_fract_x
 _atom_site_fract_y
 _atom_site_fract_z
 _atom_site_occupancy
  Ac  Ac0  1  0.666666  0.333332  0.249995  1
  Nd  Nd1  1  0.333331  0.666666  0.749996  1
  Tm  Tm2  1  0.333333  0.666667  0.958646  1
  Tm  Tm3  1  0.666667  0.333333  0.039118  1
  Tm  Tm4  1  0.666666  0.333334  0.460895  1
  Tm  Tm5  1  0.333334  0.666667  0.541368  1
  Rh  Rh6  1  0.167555  0.832446  0.377914  1
  Rh  Rh7  1  0.167554  0.335110  0.377913  1
  Rh  Rh8  1  0.664892  0.832446  0.377913  1
  Rh  Rh9  1  0.832512  0.167485  0.624801  1
  Rh  Rh10  1  0.832513  0.665028  0.624800  1
  Rh  Rh11  1  0.334971  0.167485  0.624800  1
  Rh  Rh12  1  0.832511  0.167487  0.875183  1
  Rh  Rh13  1  0.832512  0.665025  0.875183  1
  Rh  Rh14  1  0.334975  0.167488  0.875184  1
  Rh  Rh15  1  0.167554  0.832448  0.122090  1
  Rh  Rh16  1  0.167554  0.335107  0.122090  1
  Rh  Rh17  1  0.664897  0.832448  0.122091  1
  Rh  Rh18  1  0.333333  0.666669  0.250005  1
  Rh  Rh19  1  0.666663  0.333331  0.750003  1
  Rh  Rh20  1  0.999999  0.999999  0.250007  1
  Rh  Rh21  1  0.000006  0.000002  0.750009  1
  Rh  Rh22  1  0.000001  0.999999  0.501166  1
  Rh  Rh23  1  0.000000  0.999999  0.998831  1
