# generated using pymatgen
data_Y4MnRu7
_symmetry_space_group_name_H-M   'P 1'
_cell_length_a   5.37671200
_cell_length_b   5.26446620
_cell_length_c   8.90683600
_cell_angle_alpha   90.00000000
_cell_angle_beta   90.00000000
_cell_angle_gamma   120.70784871
_symmetry_Int_Tables_number   1
_chemical_formula_structural   Y4MnRu7
_chemical_formula_sum   'Y4 Mn1 Ru7'
_cell_volume   216.76196821
_cell_formula_units_Z   1
loop_
 _symmetry_equiv_pos_site_id
 _symmetry_equiv_pos_as_xyz
  1  'x, y, z'
loop_
 _atom_site_type_symbol
 _atom_site_label
 _atom_site_symmetry_multiplicity
 _atom_site_fract_x
 _atom_site_fract_y
 _atom_site_fract_z
 _atom_site_occupancy
  Y  Y0  1  0.328971  0.657943  0.432165  1
  Y  Y1  1  0.667951  0.335901  0.564198  1
  Y  Y2  1  0.667951  0.335901  0.935802  1
  Y  Y3  1  0.328971  0.657943  0.067835  1
  Mn  Mn4  1  0.163140  0.326280  0.750000  1
  Ru  Ru5  1  0.179573  0.831582  0.750000  1
  Ru  Ru6  1  0.354630  0.175080  0.250000  1
  Ru  Ru7  1  0.843709  0.687418  0.250000  1
  Ru  Ru8  1  0.652010  0.831582  0.750000  1
  Ru  Ru9  1  0.996323  0.992646  0.998121  1
  Ru  Ru10  1  0.820449  0.175080  0.250000  1
  Ru  Ru11  1  0.996323  0.992646  0.501879  1
