# generated using pymatgen
data_Pr8Dy12Si15Ir
_symmetry_space_group_name_H-M   'P 1'
_cell_length_a   7.51067002
_cell_length_b   7.82059356
_cell_length_c   14.93801300
_cell_angle_alpha   90.00000000
_cell_angle_beta   90.00000000
_cell_angle_gamma   90.44280244
_symmetry_Int_Tables_number   1
_chemical_formula_structural   Pr8Dy12Si15Ir
_chemical_formula_sum   'Pr8 Dy12 Si15 Ir1'
_cell_volume   877.40127476
_cell_formula_units_Z   1
loop_
 _symmetry_equiv_pos_site_id
 _symmetry_equiv_pos_as_xyz
  1  'x, y, z'
loop_
 _atom_site_type_symbol
 _atom_site_label
 _atom_site_symmetry_multiplicity
 _atom_site_fract_x
 _atom_site_fract_y
 _atom_site_fract_z
 _atom_site_occupancy
  Pr  Pr0  1  0.020920  0.179429  0.401884  1
  Pr  Pr1  1  0.520360  0.323040  0.402071  1
  Pr  Pr2  1  0.475968  0.680278  0.903742  1
  Pr  Pr3  1  0.475968  0.680278  0.596258  1
  Pr  Pr4  1  0.980267  0.822000  0.596851  1
  Pr  Pr5  1  0.980267  0.822000  0.903149  1
  Pr  Pr6  1  0.520360  0.323040  0.097929  1
  Pr  Pr7  1  0.020920  0.179429  0.098116  1
  Dy  Dy8  1  0.318999  0.175645  0.624189  1
  Dy  Dy9  1  0.678211  0.820067  0.377210  1
  Dy  Dy10  1  0.639539  0.979369  0.750000  1
  Dy  Dy11  1  0.176938  0.679726  0.376421  1
  Dy  Dy12  1  0.825838  0.320530  0.876561  1
  Dy  Dy13  1  0.825838  0.320530  0.623439  1
  Dy  Dy14  1  0.844128  0.489440  0.250000  1
  Dy  Dy15  1  0.344864  0.013394  0.250000  1
  Dy  Dy16  1  0.318999  0.175645  0.875811  1
  Dy  Dy17  1  0.176938  0.679726  0.123579  1
  Dy  Dy18  1  0.678211  0.820067  0.122790  1
  Dy  Dy19  1  0.164655  0.524587  0.750000  1
  Si  Si20  1  0.469366  0.613406  0.250000  1
  Si  Si21  1  0.026270  0.103281  0.750000  1
  Si  Si22  1  0.534603  0.386448  0.750000  1
  Si  Si23  1  0.147716  0.467590  0.537912  1
  Si  Si24  1  0.970017  0.888505  0.250000  1
  Si  Si25  1  0.727407  0.119762  0.250000  1
  Si  Si26  1  0.855065  0.529249  0.040029  1
  Si  Si27  1  0.355560  0.970517  0.040215  1
  Si  Si28  1  0.147716  0.467590  0.962088  1
  Si  Si29  1  0.647108  0.035100  0.537582  1
  Si  Si30  1  0.355560  0.970517  0.459785  1
  Si  Si31  1  0.855065  0.529249  0.459971  1
  Si  Si32  1  0.771666  0.614130  0.750000  1
  Si  Si33  1  0.228163  0.382013  0.250000  1
  Si  Si34  1  0.647108  0.035100  0.962418  1
  Ir  Ir35  1  0.273419  0.879323  0.750000  1
