# generated using pymatgen
data_Cs2Cr2Fe3CuSe8
_symmetry_space_group_name_H-M   'P 1'
_cell_length_a   10.31306558
_cell_length_b   10.31306567
_cell_length_c   7.85484694
_cell_angle_alpha   88.90400857
_cell_angle_beta   91.09599018
_cell_angle_gamma   148.50840921
_symmetry_Int_Tables_number   1
_chemical_formula_structural   Cs2Cr2Fe3CuSe8
_chemical_formula_sum   'Cs2 Cr2 Fe3 Cu1 Se8'
_cell_volume   436.32347612
_cell_formula_units_Z   1
loop_
 _symmetry_equiv_pos_site_id
 _symmetry_equiv_pos_as_xyz
  1  'x, y, z'
loop_
 _atom_site_type_symbol
 _atom_site_label
 _atom_site_symmetry_multiplicity
 _atom_site_fract_x
 _atom_site_fract_y
 _atom_site_fract_z
 _atom_site_occupancy
  Cs  Cs0  1  0.169023  0.540215  0.750140  1
  Cs  Cs1  1  0.540215  0.169023  0.249860  1
  Cr  Cr2  1  0.703878  0.500597  0.751295  1
  Cr  Cr3  1  0.500597  0.703878  0.248705  1
  Fe  Fe4  1  0.623756  0.623756  0.500000  1
  Fe  Fe5  1  0.002850  0.204504  0.252428  1
  Fe  Fe6  1  0.204504  0.002850  0.747572  1
  Cu  Cu7  1  0.621411  0.621411  0.000000  1
  Se  Se8  1  0.747201  0.955453  0.009852  1
  Se  Se9  1  0.365613  0.359945  0.747389  1
  Se  Se10  1  0.359945  0.365613  0.252611  1
  Se  Se11  1  0.946885  0.737898  0.504197  1
  Se  Se12  1  0.551961  0.160611  0.751785  1
  Se  Se13  1  0.955453  0.747201  0.990148  1
  Se  Se14  1  0.160611  0.551961  0.248215  1
  Se  Se15  1  0.737898  0.946885  0.495803  1
