# generated using pymatgen
data_Er2Tm6Sc11Si16Au
_symmetry_space_group_name_H-M   'P 1'
_cell_length_a   6.96637012
_cell_length_b   7.35105742
_cell_length_c   13.94404666
_cell_angle_alpha   90.02837633
_cell_angle_beta   90.02084452
_cell_angle_gamma   89.83000231
_symmetry_Int_Tables_number   1
_chemical_formula_structural   Er2Tm6Sc11Si16Au
_chemical_formula_sum   'Er2 Tm6 Sc11 Si16 Au1'
_cell_volume   714.07395557
_cell_formula_units_Z   1
loop_
 _symmetry_equiv_pos_site_id
 _symmetry_equiv_pos_as_xyz
  1  'x, y, z'
loop_
 _atom_site_type_symbol
 _atom_site_label
 _atom_site_symmetry_multiplicity
 _atom_site_fract_x
 _atom_site_fract_y
 _atom_site_fract_z
 _atom_site_occupancy
  Er  Er0  1  0.010440  0.176024  0.095979  1
  Er  Er1  1  0.990587  0.813349  0.902553  1
  Tm  Tm2  1  0.486807  0.672771  0.902370  1
  Tm  Tm3  1  0.990298  0.813200  0.597537  1
  Tm  Tm4  1  0.509784  0.322651  0.096100  1
  Tm  Tm5  1  0.010642  0.176193  0.404079  1
  Tm  Tm6  1  0.509879  0.322483  0.404193  1
  Tm  Tm7  1  0.486913  0.672860  0.597268  1
  Sc  Sc8  1  0.837930  0.496753  0.250192  1
  Sc  Sc9  1  0.340713  0.004261  0.250111  1
  Sc  Sc10  1  0.654698  0.996505  0.749910  1
  Sc  Sc11  1  0.322366  0.182539  0.627639  1
  Sc  Sc12  1  0.671311  0.824043  0.375425  1
  Sc  Sc13  1  0.170157  0.679122  0.374105  1
  Sc  Sc14  1  0.671149  0.823616  0.124864  1
  Sc  Sc15  1  0.839199  0.327670  0.627541  1
  Sc  Sc16  1  0.322384  0.182864  0.872001  1
  Sc  Sc17  1  0.839170  0.328121  0.872156  1
  Sc  Sc18  1  0.170254  0.678856  0.126272  1
  Si  Si19  1  0.024098  0.088823  0.749650  1
  Si  Si20  1  0.969397  0.890608  0.250255  1
  Si  Si21  1  0.467722  0.615375  0.250182  1
  Si  Si22  1  0.535118  0.386206  0.749830  1
  Si  Si23  1  0.288167  0.876749  0.749714  1
  Si  Si24  1  0.713488  0.130879  0.250316  1
  Si  Si25  1  0.213023  0.370069  0.250329  1
  Si  Si26  1  0.777705  0.631311  0.749758  1
  Si  Si27  1  0.164677  0.459610  0.530234  1
  Si  Si28  1  0.841089  0.534361  0.462190  1
  Si  Si29  1  0.343256  0.965925  0.463350  1
  Si  Si30  1  0.840913  0.534271  0.037830  1
  Si  Si31  1  0.658337  0.033688  0.540646  1
  Si  Si32  1  0.165047  0.459457  0.969995  1
  Si  Si33  1  0.657857  0.033977  0.959380  1
  Si  Si34  1  0.343626  0.965520  0.036541  1
  Au  Au35  1  0.161798  0.529292  0.749505  1
