# generated using pymatgen
data_Pr17Nd2ErPb16
_symmetry_space_group_name_H-M   'P 1'
_cell_length_a   8.47983394
_cell_length_b   8.60760581
_cell_length_c   16.33293800
_cell_angle_alpha   90.00000000
_cell_angle_beta   90.00000000
_cell_angle_gamma   89.69195633
_symmetry_Int_Tables_number   1
_chemical_formula_structural   Pr17Nd2ErPb16
_chemical_formula_sum   'Pr17 Nd2 Er1 Pb16'
_cell_volume   1192.14135619
_cell_formula_units_Z   1
loop_
 _symmetry_equiv_pos_site_id
 _symmetry_equiv_pos_as_xyz
  1  'x, y, z'
loop_
 _atom_site_type_symbol
 _atom_site_label
 _atom_site_symmetry_multiplicity
 _atom_site_fract_x
 _atom_site_fract_y
 _atom_site_fract_z
 _atom_site_occupancy
  Pr  Pr0  1  0.378732  0.841560  0.881014  1
  Pr  Pr1  1  0.876329  0.659141  0.619035  1
  Pr  Pr2  1  0.622417  0.159276  0.382199  1
  Pr  Pr3  1  0.122399  0.340874  0.118646  1
  Pr  Pr4  1  0.622417  0.159276  0.117801  1
  Pr  Pr5  1  0.122399  0.340874  0.381354  1
  Pr  Pr6  1  0.378732  0.841560  0.618986  1
  Pr  Pr7  1  0.876329  0.659141  0.880965  1
  Pr  Pr8  1  0.532492  0.320585  0.898829  1
  Pr  Pr9  1  0.031818  0.177261  0.601617  1
  Pr  Pr10  1  0.467661  0.677929  0.398489  1
  Pr  Pr11  1  0.968137  0.821703  0.100670  1
  Pr  Pr12  1  0.467661  0.677929  0.101511  1
  Pr  Pr13  1  0.968137  0.821703  0.399330  1
  Pr  Pr14  1  0.532492  0.320585  0.601171  1
  Pr  Pr15  1  0.031818  0.177261  0.898383  1
  Pr  Pr16  1  0.208199  0.502113  0.750000  1
  Nd  Nd17  1  0.791269  0.497431  0.250000  1
  Nd  Nd18  1  0.291547  0.002834  0.250000  1
  Er  Er19  1  0.709657  0.996001  0.750000  1
  Pb  Pb20  1  0.280629  0.031615  0.044102  1
  Pb  Pb21  1  0.780602  0.468437  0.456229  1
  Pb  Pb22  1  0.720076  0.969709  0.546475  1
  Pb  Pb23  1  0.219002  0.532829  0.956403  1
  Pb  Pb24  1  0.720076  0.969709  0.953525  1
  Pb  Pb25  1  0.219002  0.532829  0.543597  1
  Pb  Pb26  1  0.280629  0.031615  0.455898  1
  Pb  Pb27  1  0.780602  0.468437  0.043771  1
  Pb  Pb28  1  0.575238  0.628180  0.750000  1
  Pb  Pb29  1  0.070477  0.877675  0.750000  1
  Pb  Pb30  1  0.425807  0.374395  0.250000  1
  Pb  Pb31  1  0.925176  0.124968  0.250000  1
  Pb  Pb32  1  0.343507  0.147072  0.750000  1
  Pb  Pb33  1  0.838542  0.346545  0.750000  1
  Pb  Pb34  1  0.659968  0.852021  0.250000  1
  Pb  Pb35  1  0.160032  0.648924  0.250000  1
