# generated using pymatgen
data_Lu10In8AgPd3
_symmetry_space_group_name_H-M   'P 1'
_cell_length_a   3.58894400
_cell_length_b   8.03967417
_cell_length_c   18.01859861
_cell_angle_alpha   90.06168978
_cell_angle_beta   90.00000000
_cell_angle_gamma   90.00000000
_symmetry_Int_Tables_number   1
_chemical_formula_structural   Lu10In8AgPd3
_chemical_formula_sum   'Lu10 In8 Ag1 Pd3'
_cell_volume   519.90726828
_cell_formula_units_Z   1
loop_
 _symmetry_equiv_pos_site_id
 _symmetry_equiv_pos_as_xyz
  1  'x, y, z'
loop_
 _atom_site_type_symbol
 _atom_site_label
 _atom_site_symmetry_multiplicity
 _atom_site_fract_x
 _atom_site_fract_y
 _atom_site_fract_z
 _atom_site_occupancy
  Lu  Lu0  1  0.000000  0.500024  0.500588  1
  Lu  Lu1  1  0.000000  0.001584  0.999450  1
  Lu  Lu2  1  0.000000  0.753040  0.284519  1
  Lu  Lu3  1  0.000000  0.258467  0.720348  1
  Lu  Lu4  1  0.000000  0.758485  0.779093  1
  Lu  Lu5  1  0.000000  0.223422  0.219654  1
  Lu  Lu6  1  0.000000  0.620551  0.077564  1
  Lu  Lu7  1  0.000000  0.385042  0.915108  1
  Lu  Lu8  1  0.000000  0.884139  0.584595  1
  Lu  Lu9  1  0.000000  0.116902  0.417607  1
  In  In10  1  0.500000  0.711829  0.930748  1
  In  In11  1  0.500000  0.291097  0.066012  1
  In  In12  1  0.500000  0.791148  0.435384  1
  In  In13  1  0.500000  0.209977  0.567887  1
  In  In14  1  0.500000  0.578952  0.648575  1
  In  In15  1  0.500000  0.418941  0.351996  1
  In  In16  1  0.500000  0.916021  0.147694  1
  In  In17  1  0.500000  0.079646  0.851137  1
  Ag  Ag18  1  0.500000  0.524580  0.197305  1
  Pd  Pd19  1  0.500000  0.475479  0.803779  1
  Pd  Pd20  1  0.500000  0.975364  0.695892  1
  Pd  Pd21  1  0.500000  0.025309  0.305065  1
