# generated using pymatgen
data_Tb3Yb(SiPt2)4
_symmetry_space_group_name_H-M   'P 1'
_cell_length_a   5.54845534
_cell_length_b   6.96018200
_cell_length_c   7.35615343
_cell_angle_alpha   90.00000000
_cell_angle_beta   90.03976946
_cell_angle_gamma   90.00000000
_symmetry_Int_Tables_number   1
_chemical_formula_structural   Tb3Yb(SiPt2)4
_chemical_formula_sum   'Tb3 Yb1 Si4 Pt8'
_cell_volume   284.08177007
_cell_formula_units_Z   1
loop_
 _symmetry_equiv_pos_site_id
 _symmetry_equiv_pos_as_xyz
  1  'x, y, z'
loop_
 _atom_site_type_symbol
 _atom_site_label
 _atom_site_symmetry_multiplicity
 _atom_site_fract_x
 _atom_site_fract_y
 _atom_site_fract_z
 _atom_site_occupancy
  Tb  Tb0  1  0.133795  0.750000  0.475130  1
  Tb  Tb1  1  0.364854  0.750000  0.975819  1
  Tb  Tb2  1  0.635500  0.250000  0.025783  1
  Yb  Yb3  1  0.865162  0.250000  0.522676  1
  Si  Si4  1  0.133159  0.250000  0.875241  1
  Si  Si5  1  0.367203  0.250000  0.380490  1
  Si  Si6  1  0.632716  0.750000  0.621606  1
  Si  Si7  1  0.866637  0.750000  0.122182  1
  Pt  Pt8  1  0.097868  0.051795  0.179834  1
  Pt  Pt9  1  0.097868  0.448205  0.179834  1
  Pt  Pt10  1  0.405882  0.051098  0.678507  1
  Pt  Pt11  1  0.405882  0.448902  0.678507  1
  Pt  Pt12  1  0.592804  0.551135  0.319091  1
  Pt  Pt13  1  0.592804  0.948865  0.319091  1
  Pt  Pt14  1  0.903933  0.551836  0.823104  1
  Pt  Pt15  1  0.903933  0.948164  0.823104  1
