# generated using pymatgen
data_Nd4HoTm3(B6Os)4
_symmetry_space_group_name_H-M   'P 1'
_cell_length_a   3.68726100
_cell_length_b   9.20531600
_cell_length_c   11.64036025
_cell_angle_alpha   89.98742774
_cell_angle_beta   90.00000000
_cell_angle_gamma   90.00000000
_symmetry_Int_Tables_number   1
_chemical_formula_structural   Nd4HoTm3(B6Os)4
_chemical_formula_sum   'Nd4 Ho1 Tm3 B24 Os4'
_cell_volume   395.10178541
_cell_formula_units_Z   1
loop_
 _symmetry_equiv_pos_site_id
 _symmetry_equiv_pos_as_xyz
  1  'x, y, z'
loop_
 _atom_site_type_symbol
 _atom_site_label
 _atom_site_symmetry_multiplicity
 _atom_site_fract_x
 _atom_site_fract_y
 _atom_site_fract_z
 _atom_site_occupancy
  Nd  Nd0  1  0.000000  0.322165  0.414423  1
  Nd  Nd1  1  0.000000  0.677852  0.585565  1
  Nd  Nd2  1  0.000000  0.822301  0.085663  1
  Nd  Nd3  1  0.000000  0.177687  0.914371  1
  Ho  Ho4  1  0.000000  0.555518  0.872599  1
  Tm  Tm5  1  0.000000  0.944519  0.372584  1
  Tm  Tm6  1  0.000000  0.055472  0.627331  1
  Tm  Tm7  1  0.000000  0.444368  0.127787  1
  B  B8  1  0.500000  0.556430  0.430221  1
  B  B9  1  0.500000  0.443584  0.569646  1
  B  B10  1  0.500000  0.056475  0.069759  1
  B  B11  1  0.500000  0.943767  0.930293  1
  B  B12  1  0.500000  0.750276  0.417180  1
  B  B13  1  0.500000  0.249618  0.582807  1
  B  B14  1  0.500000  0.250260  0.082807  1
  B  B15  1  0.500000  0.750378  0.917164  1
  B  B16  1  0.500000  0.791239  0.266695  1
  B  B17  1  0.500000  0.208527  0.733242  1
  B  B18  1  0.500000  0.291214  0.233283  1
  B  B19  1  0.500000  0.709414  0.766574  1
  B  B20  1  0.500000  0.630515  0.185018  1
  B  B21  1  0.500000  0.369007  0.814707  1
  B  B22  1  0.500000  0.130499  0.314996  1
  B  B23  1  0.500000  0.869647  0.684919  1
  B  B24  1  0.500000  0.985241  0.214501  1
  B  B25  1  0.500000  0.014870  0.785453  1
  B  B26  1  0.500000  0.485282  0.285493  1
  B  B27  1  0.500000  0.514325  0.714052  1
  B  B28  1  0.500000  0.601861  0.028432  1
  B  B29  1  0.500000  0.397578  0.972746  1
  B  B30  1  0.500000  0.101696  0.472293  1
  B  B31  1  0.500000  0.898329  0.527739  1
  Os  Os32  1  0.000000  0.639378  0.319265  1
  Os  Os33  1  0.000000  0.359976  0.680393  1
  Os  Os34  1  0.000000  0.139284  0.180858  1
  Os  Os35  1  0.000000  0.861448  0.819137  1
