# generated using pymatgen
data_Tm16Cd4CoNi3
_symmetry_space_group_name_H-M   'P 1'
_cell_length_a   9.40559403
_cell_length_b   9.40038713
_cell_length_c   9.40038800
_cell_angle_alpha   60.00000398
_cell_angle_beta   60.01831511
_cell_angle_gamma   60.01831206
_symmetry_Int_Tables_number   1
_chemical_formula_structural   Tm16Cd4CoNi3
_chemical_formula_sum   'Tm16 Cd4 Co1 Ni3'
_cell_volume   587.87220262
_cell_formula_units_Z   1
loop_
 _symmetry_equiv_pos_site_id
 _symmetry_equiv_pos_as_xyz
  1  'x, y, z'
loop_
 _atom_site_type_symbol
 _atom_site_label
 _atom_site_symmetry_multiplicity
 _atom_site_fract_x
 _atom_site_fract_y
 _atom_site_fract_z
 _atom_site_occupancy
  Tm  Tm0  1  0.350130  0.345756  0.345756  1
  Tm  Tm1  1  0.350130  0.345756  0.958357  1
  Tm  Tm2  1  0.350130  0.958357  0.345756  1
  Tm  Tm3  1  0.955294  0.348236  0.348236  1
  Tm  Tm4  1  0.809160  0.187322  0.187322  1
  Tm  Tm5  1  0.187877  0.812138  0.812138  1
  Tm  Tm6  1  0.187877  0.812138  0.187847  1
  Tm  Tm7  1  0.809160  0.187322  0.816195  1
  Tm  Tm8  1  0.187877  0.187847  0.812138  1
  Tm  Tm9  1  0.809160  0.816195  0.187322  1
  Tm  Tm10  1  0.935655  0.564424  0.564424  1
  Tm  Tm11  1  0.564969  0.936071  0.936071  1
  Tm  Tm12  1  0.564969  0.936071  0.562889  1
  Tm  Tm13  1  0.935655  0.564424  0.935496  1
  Tm  Tm14  1  0.564969  0.562889  0.936071  1
  Tm  Tm15  1  0.935655  0.935496  0.564424  1
  Cd  Cd16  1  0.581594  0.581228  0.581228  1
  Cd  Cd17  1  0.581594  0.581228  0.255951  1
  Cd  Cd18  1  0.581594  0.255951  0.581228  1
  Cd  Cd19  1  0.256074  0.581309  0.581309  1
  Co  Co20  1  0.574742  0.141753  0.141753  1
  Ni  Ni21  1  0.141911  0.141889  0.141889  1
  Ni  Ni22  1  0.141911  0.141889  0.574313  1
  Ni  Ni23  1  0.141911  0.574313  0.141889  1
