# generated using pymatgen
data_Dy3Er8In9Ru4
_symmetry_space_group_name_H-M   'P 1'
_cell_length_a   3.80042200
_cell_length_b   12.83406558
_cell_length_c   12.83406511
_cell_angle_alpha   112.95660306
_cell_angle_beta   90.00000000
_cell_angle_gamma   90.00000000
_symmetry_Int_Tables_number   1
_chemical_formula_structural   Dy3Er8In9Ru4
_chemical_formula_sum   'Dy3 Er8 In9 Ru4'
_cell_volume   576.40253152
_cell_formula_units_Z   1
loop_
 _symmetry_equiv_pos_site_id
 _symmetry_equiv_pos_as_xyz
  1  'x, y, z'
loop_
 _atom_site_type_symbol
 _atom_site_label
 _atom_site_symmetry_multiplicity
 _atom_site_fract_x
 _atom_site_fract_y
 _atom_site_fract_z
 _atom_site_occupancy
  Dy  Dy0  1  0.000000  0.692991  0.692991  1
  Dy  Dy1  1  0.000000  0.307009  0.307009  1
  Dy  Dy2  1  0.000000  0.000000  0.000000  1
  Er  Er3  1  0.000000  0.914169  0.581044  1
  Er  Er4  1  0.000000  0.085831  0.418956  1
  Er  Er5  1  0.000000  0.581044  0.914169  1
  Er  Er6  1  0.000000  0.418956  0.085831  1
  Er  Er7  1  0.000000  0.162981  0.837019  1
  Er  Er8  1  0.000000  0.837019  0.162981  1
  Er  Er9  1  0.000000  0.368874  0.631126  1
  Er  Er10  1  0.000000  0.631126  0.368874  1
  In  In11  1  0.500000  0.151528  0.630606  1
  In  In12  1  0.500000  0.848472  0.369394  1
  In  In13  1  0.500000  0.630606  0.151528  1
  In  In14  1  0.500000  0.369394  0.848472  1
  In  In15  1  0.500000  0.928951  0.780867  1
  In  In16  1  0.500000  0.071049  0.219133  1
  In  In17  1  0.500000  0.780867  0.928951  1
  In  In18  1  0.500000  0.219133  0.071049  1
  In  In19  1  0.500000  0.500000  0.500000  1
  Ru  Ru20  1  0.500000  0.741531  0.545762  1
  Ru  Ru21  1  0.500000  0.258469  0.454238  1
  Ru  Ru22  1  0.500000  0.545762  0.741531  1
  Ru  Ru23  1  0.500000  0.454238  0.258469  1
