# generated using pymatgen
data_Tb2NdTm5(CdPt)2
_symmetry_space_group_name_H-M   'P 1'
_cell_length_a   9.63597066
_cell_length_b   9.64767949
_cell_length_c   9.64768010
_cell_angle_alpha   59.91971829
_cell_angle_beta   60.04013426
_cell_angle_gamma   60.04013488
_symmetry_Int_Tables_number   1
_chemical_formula_structural   Tb2NdTm5(CdPt)2
_chemical_formula_sum   'Tb4 Nd2 Tm10 Cd4 Pt4'
_cell_volume   634.19806709
_cell_formula_units_Z   2
loop_
 _symmetry_equiv_pos_site_id
 _symmetry_equiv_pos_as_xyz
  1  'x, y, z'
loop_
 _atom_site_type_symbol
 _atom_site_label
 _atom_site_symmetry_multiplicity
 _atom_site_fract_x
 _atom_site_fract_y
 _atom_site_fract_z
 _atom_site_occupancy
  Tb  Tb0  1  0.561518  0.938482  0.561518  1
  Tb  Tb1  1  0.938482  0.561518  0.938482  1
  Tb  Tb2  1  0.561518  0.561518  0.938482  1
  Tb  Tb3  1  0.938482  0.938482  0.561518  1
  Nd  Nd4  1  0.934960  0.565040  0.565040  1
  Nd  Nd5  1  0.565040  0.934960  0.934960  1
  Tm  Tm6  1  0.351623  0.351048  0.351048  1
  Tm  Tm7  1  0.351048  0.351623  0.946282  1
  Tm  Tm8  1  0.351048  0.946282  0.351623  1
  Tm  Tm9  1  0.946282  0.351048  0.351048  1
  Tm  Tm10  1  0.811447  0.188553  0.188553  1
  Tm  Tm11  1  0.188553  0.811447  0.811447  1
  Tm  Tm12  1  0.188531  0.811469  0.188531  1
  Tm  Tm13  1  0.811469  0.188531  0.811469  1
  Tm  Tm14  1  0.188531  0.188531  0.811469  1
  Tm  Tm15  1  0.811469  0.811469  0.188531  1
  Cd  Cd16  1  0.579087  0.581639  0.581639  1
  Cd  Cd17  1  0.581639  0.579087  0.257635  1
  Cd  Cd18  1  0.581639  0.257635  0.579087  1
  Cd  Cd19  1  0.257635  0.581639  0.581639  1
  Pt  Pt20  1  0.141734  0.143431  0.143431  1
  Pt  Pt21  1  0.143431  0.141734  0.571405  1
  Pt  Pt22  1  0.143431  0.571405  0.141734  1
  Pt  Pt23  1  0.571405  0.143431  0.143431  1
