# generated using pymatgen
data_Y13Th3Cd3InIr3Rh
_symmetry_space_group_name_H-M   'P 1'
_cell_length_a   9.74127615
_cell_length_b   9.75459395
_cell_length_c   9.75459500
_cell_angle_alpha   60.08456737
_cell_angle_beta   59.99761662
_cell_angle_gamma   59.99762711
_symmetry_Int_Tables_number   1
_chemical_formula_structural   Y13Th3Cd3InIr3Rh
_chemical_formula_sum   'Y13 Th3 Cd3 In1 Ir3 Rh1'
_cell_volume   655.81366391
_cell_formula_units_Z   1
loop_
 _symmetry_equiv_pos_site_id
 _symmetry_equiv_pos_as_xyz
  1  'x, y, z'
loop_
 _atom_site_type_symbol
 _atom_site_label
 _atom_site_symmetry_multiplicity
 _atom_site_fract_x
 _atom_site_fract_y
 _atom_site_fract_z
 _atom_site_occupancy
  Y  Y0  1  0.945519  0.352368  0.352368  1
  Y  Y1  1  0.810472  0.189987  0.189987  1
  Y  Y2  1  0.188173  0.812242  0.812242  1
  Y  Y3  1  0.187869  0.811790  0.188324  1
  Y  Y4  1  0.811134  0.189740  0.810102  1
  Y  Y5  1  0.187869  0.188324  0.811790  1
  Y  Y6  1  0.811134  0.810102  0.189740  1
  Y  Y7  1  0.938028  0.563830  0.563830  1
  Y  Y8  1  0.564901  0.936051  0.936051  1
  Y  Y9  1  0.564332  0.936859  0.564556  1
  Y  Y10  1  0.937440  0.564522  0.936313  1
  Y  Y11  1  0.564332  0.564556  0.936859  1
  Y  Y12  1  0.937440  0.936313  0.564522  1
  Th  Th13  1  0.346692  0.349150  0.349150  1
  Th  Th14  1  0.348564  0.350074  0.951351  1
  Th  Th15  1  0.348564  0.951351  0.350074  1
  Cd  Cd16  1  0.582754  0.580685  0.253453  1
  Cd  Cd17  1  0.582754  0.253453  0.580685  1
  Cd  Cd18  1  0.252109  0.581733  0.581733  1
  In  In19  1  0.583275  0.580776  0.580776  1
  Ir  Ir20  1  0.145154  0.140908  0.570332  1
  Ir  Ir21  1  0.145154  0.570332  0.140908  1
  Ir  Ir22  1  0.568788  0.143022  0.143022  1
  Rh  Rh23  1  0.147553  0.141827  0.141827  1
