# generated using pymatgen
data_Sm4Ga4Ru3Pt
_symmetry_space_group_name_H-M   'P 1'
_cell_length_a   4.38779600
_cell_length_b   7.03059809
_cell_length_c   7.81246816
_cell_angle_alpha   89.73983889
_cell_angle_beta   90.00000000
_cell_angle_gamma   90.00000000
_symmetry_Int_Tables_number   1
_chemical_formula_structural   Sm4Ga4Ru3Pt
_chemical_formula_sum   'Sm4 Ga4 Ru3 Pt1'
_cell_volume   241.00301926
_cell_formula_units_Z   1
loop_
 _symmetry_equiv_pos_site_id
 _symmetry_equiv_pos_as_xyz
  1  'x, y, z'
loop_
 _atom_site_type_symbol
 _atom_site_label
 _atom_site_symmetry_multiplicity
 _atom_site_fract_x
 _atom_site_fract_y
 _atom_site_fract_z
 _atom_site_occupancy
  Sm  Sm0  1  0.250000  0.981192  0.307428  1
  Sm  Sm1  1  0.250000  0.484671  0.189028  1
  Sm  Sm2  1  0.750000  0.013153  0.697772  1
  Sm  Sm3  1  0.750000  0.516657  0.806994  1
  Ga  Ga4  1  0.250000  0.337665  0.583999  1
  Ga  Ga5  1  0.250000  0.828473  0.922205  1
  Ga  Ga6  1  0.750000  0.673929  0.422123  1
  Ga  Ga7  1  0.750000  0.168585  0.073400  1
  Ru  Ru8  1  0.250000  0.205066  0.899843  1
  Ru  Ru9  1  0.250000  0.717306  0.597101  1
  Ru  Ru10  1  0.750000  0.787594  0.097754  1
  Pt  Pt11  1  0.750000  0.285708  0.402351  1
