# generated using pymatgen
data_Pr16Y4Si15Au
_symmetry_space_group_name_H-M   'P 1'
_cell_length_a   7.87743142
_cell_length_b   7.85049571
_cell_length_c   15.39969428
_cell_angle_alpha   90.00266364
_cell_angle_beta   89.67449540
_cell_angle_gamma   90.04869490
_symmetry_Int_Tables_number   1
_chemical_formula_structural   Pr16Y4Si15Au
_chemical_formula_sum   'Pr16 Y4 Si15 Au1'
_cell_volume   952.32820026
_cell_formula_units_Z   1
loop_
 _symmetry_equiv_pos_site_id
 _symmetry_equiv_pos_as_xyz
  1  'x, y, z'
loop_
 _atom_site_type_symbol
 _atom_site_label
 _atom_site_symmetry_multiplicity
 _atom_site_fract_x
 _atom_site_fract_y
 _atom_site_fract_z
 _atom_site_occupancy
  Pr  Pr0  1  0.376892  0.014192  0.446465  1
  Pr  Pr1  1  0.489066  0.875909  0.696156  1
  Pr  Pr2  1  0.512584  0.120487  0.195011  1
  Pr  Pr3  1  0.879834  0.486873  0.303825  1
  Pr  Pr4  1  0.118280  0.517771  0.804865  1
  Pr  Pr5  1  0.622797  0.986131  0.946664  1
  Pr  Pr6  1  0.007611  0.379914  0.551880  1
  Pr  Pr7  1  0.987361  0.622962  0.055176  1
  Pr  Pr8  1  0.128513  0.977023  0.879952  1
  Pr  Pr9  1  0.524375  0.626888  0.128221  1
  Pr  Pr10  1  0.475728  0.373471  0.628709  1
  Pr  Pr11  1  0.625315  0.524941  0.872697  1
  Pr  Pr12  1  0.374939  0.476111  0.370763  1
  Pr  Pr13  1  0.875161  0.025124  0.377901  1
  Pr  Pr14  1  0.976372  0.125632  0.121865  1
  Pr  Pr15  1  0.021702  0.871206  0.620156  1
  Y  Y16  1  0.308423  0.308372  0.999481  1
  Y  Y17  1  0.190944  0.809327  0.249897  1
  Y  Y18  1  0.805438  0.188972  0.751302  1
  Y  Y19  1  0.691337  0.689255  0.499632  1
  Si  Si20  1  0.328309  0.687776  0.958300  1
  Si  Si21  1  0.669037  0.311467  0.458099  1
  Si  Si22  1  0.689863  0.329536  0.042145  1
  Si  Si23  1  0.312647  0.671700  0.540797  1
  Si  Si24  1  0.812783  0.828095  0.209193  1
  Si  Si25  1  0.172873  0.188395  0.291566  1
  Si  Si26  1  0.830031  0.812734  0.791721  1
  Si  Si27  1  0.285333  0.920536  0.063705  1
  Si  Si28  1  0.580748  0.785205  0.313837  1
  Si  Si29  1  0.432070  0.210831  0.817462  1
  Si  Si30  1  0.784247  0.580037  0.686959  1
  Si  Si31  1  0.213998  0.421249  0.186202  1
  Si  Si32  1  0.711364  0.078282  0.562416  1
  Si  Si33  1  0.920743  0.286851  0.936900  1
  Si  Si34  1  0.080602  0.715062  0.436274  1
  Au  Au35  1  0.182682  0.171683  0.703808  1
