# generated using pymatgen
data_YbEr3(Rh2O7)2
_symmetry_space_group_name_H-M   'P 1'
_cell_length_a   7.20655543
_cell_length_b   7.20655519
_cell_length_c   7.20655635
_cell_angle_alpha   59.82063757
_cell_angle_beta   59.82064181
_cell_angle_gamma   59.82063284
_symmetry_Int_Tables_number   1
_chemical_formula_structural   YbEr3(Rh2O7)2
_chemical_formula_sum   'Yb1 Er3 Rh4 O14'
_cell_volume   263.57034493
_cell_formula_units_Z   1
loop_
 _symmetry_equiv_pos_site_id
 _symmetry_equiv_pos_as_xyz
  1  'x, y, z'
loop_
 _atom_site_type_symbol
 _atom_site_label
 _atom_site_symmetry_multiplicity
 _atom_site_fract_x
 _atom_site_fract_y
 _atom_site_fract_z
 _atom_site_occupancy
  Yb  Yb0  1  0.625000  0.625000  0.625000  1
  Er  Er1  1  0.625000  0.625000  0.125000  1
  Er  Er2  1  0.625000  0.125000  0.625000  1
  Er  Er3  1  0.125000  0.625000  0.625000  1
  Rh  Rh4  1  0.625000  0.125000  0.125000  1
  Rh  Rh5  1  0.125000  0.125000  0.125000  1
  Rh  Rh6  1  0.125000  0.625000  0.125000  1
  Rh  Rh7  1  0.125000  0.125000  0.625000  1
  O  O8  1  0.047745  0.458679  0.458679  1
  O  O9  1  0.791321  0.791321  0.202255  1
  O  O10  1  0.789102  0.211452  0.211452  1
  O  O11  1  0.752553  0.752553  0.752553  1
  O  O12  1  0.038548  0.460898  0.038548  1
  O  O13  1  0.458679  0.047745  0.458679  1
  O  O14  1  0.038548  0.038548  0.460898  1
  O  O15  1  0.497447  0.497447  0.497447  1
  O  O16  1  0.211452  0.211452  0.789102  1
  O  O17  1  0.211452  0.789102  0.211452  1
  O  O18  1  0.791321  0.202255  0.791321  1
  O  O19  1  0.460898  0.038548  0.038548  1
  O  O20  1  0.458679  0.458679  0.047745  1
  O  O21  1  0.202255  0.791321  0.791321  1
