# generated using pymatgen
data_Tm4NbB4SbRu10
_symmetry_space_group_name_H-M   'P 1'
_cell_length_a   9.65535700
_cell_length_b   9.65535700
_cell_length_c   3.11697700
_cell_angle_alpha   90.00000000
_cell_angle_beta   90.00000000
_cell_angle_gamma   90.00000000
_symmetry_Int_Tables_number   1
_chemical_formula_structural   Tm4NbB4SbRu10
_chemical_formula_sum   'Tm4 Nb1 B4 Sb1 Ru10'
_cell_volume   290.58304470
_cell_formula_units_Z   1
loop_
 _symmetry_equiv_pos_site_id
 _symmetry_equiv_pos_as_xyz
  1  'x, y, z'
loop_
 _atom_site_type_symbol
 _atom_site_label
 _atom_site_symmetry_multiplicity
 _atom_site_fract_x
 _atom_site_fract_y
 _atom_site_fract_z
 _atom_site_occupancy
  Tm  Tm0  1  0.826309  0.675548  0.000000  1
  Tm  Tm1  1  0.173691  0.324452  0.000000  1
  Tm  Tm2  1  0.324452  0.826309  0.000000  1
  Tm  Tm3  1  0.675548  0.173691  0.000000  1
  Nb  Nb4  1  0.000000  0.000000  0.000000  1
  B  B5  1  0.620588  0.880932  0.000000  1
  B  B6  1  0.379412  0.119068  0.000000  1
  B  B7  1  0.119068  0.620588  0.000000  1
  B  B8  1  0.880932  0.379412  0.000000  1
  Sb  Sb9  1  0.500000  0.500000  0.000000  1
  Ru  Ru10  1  0.572316  0.720758  0.500000  1
  Ru  Ru11  1  0.427684  0.279242  0.500000  1
  Ru  Ru12  1  0.070530  0.781473  0.500000  1
  Ru  Ru13  1  0.929470  0.218527  0.500000  1
  Ru  Ru14  1  0.279242  0.572316  0.500000  1
  Ru  Ru15  1  0.720758  0.427684  0.500000  1
  Ru  Ru16  1  0.218527  0.070530  0.500000  1
  Ru  Ru17  1  0.781473  0.929470  0.500000  1
  Ru  Ru18  1  0.500000  0.000000  0.500000  1
  Ru  Ru19  1  0.000000  0.500000  0.500000  1
