# generated using pymatgen
data_Hf6Ti4Si5AsN2
_symmetry_space_group_name_H-M   'P 1'
_cell_length_a   7.70284600
_cell_length_b   7.70775574
_cell_length_c   5.33694800
_cell_angle_alpha   90.00000000
_cell_angle_beta   90.00000000
_cell_angle_gamma   119.97893086
_symmetry_Int_Tables_number   1
_chemical_formula_structural   Hf6Ti4Si5AsN2
_chemical_formula_sum   'Hf6 Ti4 Si5 As1 N2'
_cell_volume   274.47002781
_cell_formula_units_Z   1
loop_
 _symmetry_equiv_pos_site_id
 _symmetry_equiv_pos_as_xyz
  1  'x, y, z'
loop_
 _atom_site_type_symbol
 _atom_site_label
 _atom_site_symmetry_multiplicity
 _atom_site_fract_x
 _atom_site_fract_y
 _atom_site_fract_z
 _atom_site_occupancy
  Hf  Hf0  1  0.235627  0.000000  0.250000  1
  Hf  Hf1  1  0.763659  0.000000  0.750000  1
  Hf  Hf2  1  0.003262  0.240689  0.250000  1
  Hf  Hf3  1  0.000239  0.761698  0.750000  1
  Hf  Hf4  1  0.762573  0.759311  0.250000  1
  Hf  Hf5  1  0.238540  0.238302  0.750000  1
  Ti  Ti6  1  0.332677  0.665530  0.998314  1
  Ti  Ti7  1  0.667147  0.334470  0.998314  1
  Ti  Ti8  1  0.667147  0.334470  0.501686  1
  Ti  Ti9  1  0.332677  0.665530  0.501686  1
  Si  Si10  1  0.406398  0.000000  0.750000  1
  Si  Si11  1  0.000004  0.590429  0.250000  1
  Si  Si12  1  0.000147  0.409441  0.750000  1
  Si  Si13  1  0.409575  0.409571  0.250000  1
  Si  Si14  1  0.590706  0.590559  0.750000  1
  As  As15  1  0.591834  0.000000  0.250000  1
  N  N16  1  0.998894  0.000000  0.000522  1
  N  N17  1  0.998894  0.000000  0.499478  1
