# generated using pymatgen
data_SmDy3Ho2Ta2O14
_symmetry_space_group_name_H-M   'P 1'
_cell_length_a   6.50378881
_cell_length_b   6.50326812
_cell_length_c   7.49517593
_cell_angle_alpha   90.02762110
_cell_angle_beta   89.93455004
_cell_angle_gamma   108.56688562
_symmetry_Int_Tables_number   1
_chemical_formula_structural   SmDy3Ho2Ta2O14
_chemical_formula_sum   'Sm1 Dy3 Ho2 Ta2 O14'
_cell_volume   300.51506994
_cell_formula_units_Z   1
loop_
 _symmetry_equiv_pos_site_id
 _symmetry_equiv_pos_as_xyz
  1  'x, y, z'
loop_
 _atom_site_type_symbol
 _atom_site_label
 _atom_site_symmetry_multiplicity
 _atom_site_fract_x
 _atom_site_fract_y
 _atom_site_fract_z
 _atom_site_occupancy
  Sm  Sm0  1  0.469950  0.469466  0.000449  1
  Dy  Dy1  1  0.539906  0.539381  0.499634  1
  Dy  Dy2  1  0.000076  0.465003  0.739730  1
  Dy  Dy3  1  0.534946  0.000321  0.757449  1
  Ho  Ho4  1  0.000596  0.534939  0.242510  1
  Ho  Ho5  1  0.465009  0.999794  0.260558  1
  Ta  Ta6  1  0.002400  0.002483  0.499413  1
  Ta  Ta7  1  0.997985  0.998097  0.000563  1
  O  O8  1  0.932422  0.067333  0.750054  1
  O  O9  1  0.640957  0.358839  0.745000  1
  O  O10  1  0.306636  0.048371  0.544165  1
  O  O11  1  0.947755  0.690974  0.956176  1
  O  O12  1  0.631828  0.368779  0.255516  1
  O  O13  1  0.917658  0.671879  0.523438  1
  O  O14  1  0.327487  0.079017  0.976208  1
  O  O15  1  0.078756  0.327372  0.025354  1
  O  O16  1  0.672002  0.917853  0.474949  1
  O  O17  1  0.369419  0.631186  0.744409  1
  O  O18  1  0.691884  0.950015  0.045992  1
  O  O19  1  0.046088  0.305725  0.453623  1
  O  O20  1  0.357613  0.642102  0.254895  1
  O  O21  1  0.068631  0.931073  0.249915  1
