# generated using pymatgen
data_NdCu2HgPt2
_symmetry_space_group_name_H-M   'P 1'
_cell_length_a   5.19853838
_cell_length_b   5.29481717
_cell_length_c   5.29481691
_cell_angle_alpha   63.15966811
_cell_angle_beta   60.59970876
_cell_angle_gamma   60.59971437
_symmetry_Int_Tables_number   1
_chemical_formula_structural   NdCu2HgPt2
_chemical_formula_sum   'Nd1 Cu2 Hg1 Pt2'
_cell_volume   106.27926117
_cell_formula_units_Z   1
loop_
 _symmetry_equiv_pos_site_id
 _symmetry_equiv_pos_as_xyz
  1  'x, y, z'
loop_
 _atom_site_type_symbol
 _atom_site_label
 _atom_site_symmetry_multiplicity
 _atom_site_fract_x
 _atom_site_fract_y
 _atom_site_fract_z
 _atom_site_occupancy
  Nd  Nd0  1  0.995910  0.004090  0.004090  1
  Cu  Cu1  1  0.128295  0.620519  0.620519  1
  Cu  Cu2  1  0.630665  0.620519  0.620519  1
  Hg  Hg3  1  0.241191  0.258809  0.258809  1
  Pt  Pt4  1  0.626969  0.622637  0.123425  1
  Pt  Pt5  1  0.626969  0.123425  0.622637  1
