# generated using pymatgen
data_Dy10InBi5Cl2
_symmetry_space_group_name_H-M   'P 1'
_cell_length_a   9.28123900
_cell_length_b   9.20419514
_cell_length_c   6.53862900
_cell_angle_alpha   90.00000000
_cell_angle_beta   90.00000000
_cell_angle_gamma   120.27727928
_symmetry_Int_Tables_number   1
_chemical_formula_structural   Dy10InBi5Cl2
_chemical_formula_sum   'Dy10 In1 Bi5 Cl2'
_cell_volume   482.37952775
_cell_formula_units_Z   1
loop_
 _symmetry_equiv_pos_site_id
 _symmetry_equiv_pos_as_xyz
  1  'x, y, z'
loop_
 _atom_site_type_symbol
 _atom_site_label
 _atom_site_symmetry_multiplicity
 _atom_site_fract_x
 _atom_site_fract_y
 _atom_site_fract_z
 _atom_site_occupancy
  Dy  Dy0  1  0.269731  0.000000  0.750000  1
  Dy  Dy1  1  0.732064  0.000000  0.250000  1
  Dy  Dy2  1  0.993855  0.262182  0.750000  1
  Dy  Dy3  1  0.000203  0.734620  0.250000  1
  Dy  Dy4  1  0.731672  0.737818  0.750000  1
  Dy  Dy5  1  0.265584  0.265380  0.250000  1
  Dy  Dy6  1  0.336550  0.670994  0.500769  1
  Dy  Dy7  1  0.665556  0.329006  0.500769  1
  Dy  Dy8  1  0.665556  0.329006  0.999231  1
  Dy  Dy9  1  0.336550  0.670994  0.999231  1
  In  In10  1  0.610705  0.000000  0.750000  1
  Bi  Bi11  1  0.388347  0.000000  0.250000  1
  Bi  Bi12  1  0.998338  0.613116  0.750000  1
  Bi  Bi13  1  0.001128  0.388266  0.250000  1
  Bi  Bi14  1  0.385221  0.386884  0.750000  1
  Bi  Bi15  1  0.612863  0.611734  0.250000  1
  Cl  Cl16  1  0.003038  0.000000  0.498978  1
  Cl  Cl17  1  0.003038  0.000000  0.001022  1
