# generated using pymatgen
data_Ce3Mg2ZrIr3
_symmetry_space_group_name_H-M   'P 1'
_cell_length_a   7.54857595
_cell_length_b   7.28978836
_cell_length_c   4.14134100
_cell_angle_alpha   90.00000000
_cell_angle_beta   90.00000000
_cell_angle_gamma   118.87224581
_symmetry_Int_Tables_number   1
_chemical_formula_structural   Ce3Mg2ZrIr3
_chemical_formula_sum   'Ce3 Mg2 Zr1 Ir3'
_cell_volume   199.56094907
_cell_formula_units_Z   1
loop_
 _symmetry_equiv_pos_site_id
 _symmetry_equiv_pos_as_xyz
  1  'x, y, z'
loop_
 _atom_site_type_symbol
 _atom_site_label
 _atom_site_symmetry_multiplicity
 _atom_site_fract_x
 _atom_site_fract_y
 _atom_site_fract_z
 _atom_site_occupancy
  Ce  Ce0  1  0.428048  0.422877  0.000000  1
  Ce  Ce1  1  0.571952  0.994829  0.000000  1
  Ce  Ce2  1  0.000000  0.597249  0.000000  1
  Mg  Mg3  1  0.756021  0.756740  0.500000  1
  Mg  Mg4  1  0.243979  0.000719  0.500000  1
  Zr  Zr5  1  0.000000  0.242680  0.500000  1
  Ir  Ir6  1  0.000000  0.015420  0.000000  1
  Ir  Ir7  1  0.674598  0.322041  0.500000  1
  Ir  Ir8  1  0.325402  0.647444  0.500000  1
