# generated using pymatgen
data_Lu5Be4P8Ir19
_symmetry_space_group_name_H-M   'P 1'
_cell_length_a   12.59931332
_cell_length_b   12.48578969
_cell_length_c   3.92740000
_cell_angle_alpha   90.00000000
_cell_angle_beta   90.00000000
_cell_angle_gamma   120.02907401
_symmetry_Int_Tables_number   1
_chemical_formula_structural   Lu5Be4P8Ir19
_chemical_formula_sum   'Lu5 Be4 P8 Ir19'
_cell_volume   534.89846229
_cell_formula_units_Z   1
loop_
 _symmetry_equiv_pos_site_id
 _symmetry_equiv_pos_as_xyz
  1  'x, y, z'
loop_
 _atom_site_type_symbol
 _atom_site_label
 _atom_site_symmetry_multiplicity
 _atom_site_fract_x
 _atom_site_fract_y
 _atom_site_fract_z
 _atom_site_occupancy
  Lu  Lu0  1  0.334295  0.667202  0.500000  1
  Lu  Lu1  1  0.677678  0.331384  0.500000  1
  Lu  Lu2  1  0.183140  0.191466  0.000000  1
  Lu  Lu3  1  0.808750  0.000136  0.000000  1
  Lu  Lu4  1  0.005043  0.815249  0.000000  1
  Be  Be5  1  0.314468  0.835115  0.000000  1
  Be  Be6  1  0.164647  0.478466  0.000000  1
  Be  Be7  1  0.520731  0.684396  0.000000  1
  Be  Be8  1  0.830826  0.308271  0.000000  1
  P  P9  1  0.485716  0.176536  0.000000  1
  P  P10  1  0.697048  0.516983  0.000000  1
  P  P11  1  0.361034  0.373560  0.500000  1
  P  P12  1  0.627071  0.993576  0.500000  1
  P  P13  1  0.007490  0.632186  0.500000  1
  P  P14  1  0.818449  0.820825  0.500000  1
  P  P15  1  0.181046  0.002156  0.500000  1
  P  P16  1  0.995900  0.180276  0.500000  1
  Ir  Ir17  1  0.193978  0.820354  0.500000  1
  Ir  Ir18  1  0.177594  0.375675  0.500000  1
  Ir  Ir19  1  0.625231  0.805652  0.500000  1
  Ir  Ir20  1  0.811065  0.186668  0.500000  1
  Ir  Ir21  1  0.376633  0.190750  0.500000  1
  Ir  Ir22  1  0.809433  0.623558  0.500000  1
  Ir  Ir23  1  0.127845  0.641060  0.000000  1
  Ir  Ir24  1  0.356748  0.484203  0.000000  1
  Ir  Ir25  1  0.511810  0.868048  0.000000  1
  Ir  Ir26  1  0.633993  0.128422  0.000000  1
  Ir  Ir27  1  0.500597  0.368157  0.000000  1
  Ir  Ir28  1  0.874708  0.509686  0.000000  1
  Ir  Ir29  1  0.546813  0.554037  0.500000  1
  Ir  Ir30  1  0.443472  0.991250  0.500000  1
  Ir  Ir31  1  0.995242  0.443070  0.500000  1
  Ir  Ir32  1  0.719172  0.714782  0.000000  1
  Ir  Ir33  1  0.286381  0.007023  0.000000  1
  Ir  Ir34  1  0.995930  0.279870  0.000000  1
  Ir  Ir35  1  0.000020  0.999952  0.500000  1
