# generated using pymatgen
data_Sr2YGaO5
_symmetry_space_group_name_H-M   'P 1'
_cell_length_a   5.97237600
_cell_length_b   7.64282646
_cell_length_c   12.50123175
_cell_angle_alpha   91.39091815
_cell_angle_beta   90.00000000
_cell_angle_gamma   90.00000000
_symmetry_Int_Tables_number   1
_chemical_formula_structural   Sr2YGaO5
_chemical_formula_sum   'Sr8 Y4 Ga4 O20'
_cell_volume   570.46100499
_cell_formula_units_Z   4
loop_
 _symmetry_equiv_pos_site_id
 _symmetry_equiv_pos_as_xyz
  1  'x, y, z'
loop_
 _atom_site_type_symbol
 _atom_site_label
 _atom_site_symmetry_multiplicity
 _atom_site_fract_x
 _atom_site_fract_y
 _atom_site_fract_z
 _atom_site_occupancy
  Sr  Sr0  1  0.773165  0.486858  0.330341  1
  Sr  Sr1  1  0.726835  0.986858  0.830341  1
  Sr  Sr2  1  0.226835  0.513142  0.669659  1
  Sr  Sr3  1  0.273165  0.013142  0.169659  1
  Sr  Sr4  1  0.772570  0.985626  0.367380  1
  Sr  Sr5  1  0.727430  0.485626  0.867380  1
  Sr  Sr6  1  0.227430  0.014374  0.632620  1
  Sr  Sr7  1  0.272570  0.514374  0.132620  1
  Y  Y8  1  0.754799  0.270955  0.619733  1
  Y  Y9  1  0.745201  0.770955  0.119733  1
  Y  Y10  1  0.245201  0.729045  0.380267  1
  Y  Y11  1  0.254799  0.229045  0.880267  1
  Ga  Ga12  1  0.719927  0.742317  0.580050  1
  Ga  Ga13  1  0.780073  0.242317  0.080050  1
  Ga  Ga14  1  0.280073  0.257683  0.419950  1
  Ga  Ga15  1  0.219927  0.757683  0.919950  1
  O  O16  1  0.790097  0.970535  0.628973  1
  O  O17  1  0.709903  0.470535  0.128973  1
  O  O18  1  0.209903  0.029465  0.371027  1
  O  O19  1  0.290097  0.529465  0.871027  1
  O  O20  1  0.716766  0.067574  0.177010  1
  O  O21  1  0.783234  0.567574  0.677010  1
  O  O22  1  0.283234  0.932426  0.822990  1
  O  O23  1  0.216766  0.432426  0.322990  1
  O  O24  1  0.541754  0.747602  0.275846  1
  O  O25  1  0.958246  0.247602  0.775846  1
  O  O26  1  0.458246  0.252398  0.724154  1
  O  O27  1  0.041754  0.752398  0.224154  1
  O  O28  1  0.596893  0.213036  0.959904  1
  O  O29  1  0.903107  0.713036  0.459904  1
  O  O30  1  0.403107  0.786964  0.040096  1
  O  O31  1  0.096893  0.286964  0.540096  1
  O  O32  1  0.089455  0.237301  0.046984  1
  O  O33  1  0.410545  0.737301  0.546984  1
  O  O34  1  0.910545  0.762699  0.953016  1
  O  O35  1  0.589455  0.262699  0.453016  1
