# generated using pymatgen
data_Zr6Te2CBr10
_symmetry_space_group_name_H-M   'P 1'
_cell_length_a   8.71522120
_cell_length_b   8.70723780
_cell_length_c   8.76799468
_cell_angle_alpha   106.73139676
_cell_angle_beta   107.17237071
_cell_angle_gamma   106.37897357
_symmetry_Int_Tables_number   1
_chemical_formula_structural   Zr6Te2CBr10
_chemical_formula_sum   'Zr6 Te2 C1 Br10'
_cell_volume   557.67492202
_cell_formula_units_Z   1
loop_
 _symmetry_equiv_pos_site_id
 _symmetry_equiv_pos_as_xyz
  1  'x, y, z'
loop_
 _atom_site_type_symbol
 _atom_site_label
 _atom_site_symmetry_multiplicity
 _atom_site_fract_x
 _atom_site_fract_y
 _atom_site_fract_z
 _atom_site_occupancy
  Zr  Zr0  1  0.970334  0.711364  0.904195  1
  Zr  Zr1  1  0.289752  0.095288  0.030316  1
  Zr  Zr2  1  0.092268  0.027241  0.279597  1
  Zr  Zr3  1  0.907684  0.981214  0.717109  1
  Zr  Zr4  1  0.715067  0.909489  0.973344  1
  Zr  Zr5  1  0.019988  0.285132  0.091070  1
  Te  Te6  1  0.922467  0.318786  0.764397  1
  Te  Te7  1  0.680113  0.230734  0.085673  1
  C  C8  1  0.999371  0.001354  0.996814  1
  Br  Br9  1  0.434202  0.132468  0.361915  1
  Br  Br10  1  0.864482  0.643567  0.564117  1
  Br  Br11  1  0.223739  0.067767  0.691656  1
  Br  Br12  1  0.637746  0.562676  0.863426  1
  Br  Br13  1  0.363069  0.438105  0.146989  1
  Br  Br14  1  0.781248  0.912708  0.305749  1
  Br  Br15  1  0.148531  0.361433  0.441209  1
  Br  Br16  1  0.561053  0.847672  0.633844  1
  Br  Br17  1  0.306602  0.775754  0.924473  1
  Br  Br18  1  0.082284  0.697247  0.224109  1
