# generated using pymatgen
data_PrTh3(MgSi2)2
_symmetry_space_group_name_H-M   'P 1'
_cell_length_a   7.30930612
_cell_length_b   7.30930612
_cell_length_c   4.43134300
_cell_angle_alpha   90.00000000
_cell_angle_beta   90.00000000
_cell_angle_gamma   90.49108314
_symmetry_Int_Tables_number   1
_chemical_formula_structural   PrTh3(MgSi2)2
_chemical_formula_sum   'Pr1 Th3 Mg2 Si4'
_cell_volume   236.74003992
_cell_formula_units_Z   1
loop_
 _symmetry_equiv_pos_site_id
 _symmetry_equiv_pos_as_xyz
  1  'x, y, z'
loop_
 _atom_site_type_symbol
 _atom_site_label
 _atom_site_symmetry_multiplicity
 _atom_site_fract_x
 _atom_site_fract_y
 _atom_site_fract_z
 _atom_site_occupancy
  Pr  Pr0  1  0.820239  0.679761  0.500000  1
  Th  Th1  1  0.678302  0.178832  0.500000  1
  Th  Th2  1  0.321168  0.821698  0.500000  1
  Th  Th3  1  0.179027  0.320973  0.500000  1
  Mg  Mg4  1  0.998927  0.998831  0.000000  1
  Mg  Mg5  1  0.501169  0.501073  0.000000  1
  Si  Si6  1  0.120558  0.615863  0.000000  1
  Si  Si7  1  0.884137  0.379442  0.000000  1
  Si  Si8  1  0.613961  0.886039  0.000000  1
  Si  Si9  1  0.382511  0.117489  0.000000  1
