# generated using pymatgen
data_Dy3Y2Al2Ru3
_symmetry_space_group_name_H-M   'P 1'
_cell_length_a   8.35674509
_cell_length_b   8.35674595
_cell_length_c   8.35674609
_cell_angle_alpha   109.52337716
_cell_angle_beta   109.52337977
_cell_angle_gamma   109.52338426
_symmetry_Int_Tables_number   1
_chemical_formula_structural   Dy3Y2Al2Ru3
_chemical_formula_sum   'Dy6 Y4 Al4 Ru6'
_cell_volume   448.38196200
_cell_formula_units_Z   2
loop_
 _symmetry_equiv_pos_site_id
 _symmetry_equiv_pos_as_xyz
  1  'x, y, z'
loop_
 _atom_site_type_symbol
 _atom_site_label
 _atom_site_symmetry_multiplicity
 _atom_site_fract_x
 _atom_site_fract_y
 _atom_site_fract_z
 _atom_site_occupancy
  Dy  Dy0  1  0.714528  0.502065  0.001057  1
  Dy  Dy1  1  0.001057  0.714528  0.502065  1
  Dy  Dy2  1  0.502065  0.001057  0.714528  1
  Dy  Dy3  1  0.250468  0.180345  0.929512  1
  Dy  Dy4  1  0.929512  0.250468  0.180345  1
  Dy  Dy5  1  0.180345  0.929512  0.250468  1
  Y  Y6  1  0.783413  0.783413  0.783413  1
  Y  Y7  1  0.318652  0.568681  0.750584  1
  Y  Y8  1  0.750584  0.318652  0.568681  1
  Y  Y9  1  0.568681  0.750584  0.318652  1
  Al  Al10  1  0.408195  0.408195  0.408195  1
  Al  Al11  1  0.089674  0.498961  0.001391  1
  Al  Al12  1  0.001391  0.089674  0.498961  1
  Al  Al13  1  0.498961  0.001391  0.089674  1
  Ru  Ru14  1  0.880050  0.127138  0.749374  1
  Ru  Ru15  1  0.749374  0.880050  0.127138  1
  Ru  Ru16  1  0.127138  0.749374  0.880050  1
  Ru  Ru17  1  0.249163  0.622495  0.374256  1
  Ru  Ru18  1  0.374256  0.249163  0.622495  1
  Ru  Ru19  1  0.622495  0.374256  0.249163  1
