# generated using pymatgen
data_Y2Ta2Sb2O11
_symmetry_space_group_name_H-M   'P 1'
_cell_length_a   6.64943663
_cell_length_b   7.63303167
_cell_length_c   9.63373500
_cell_angle_alpha   101.52014857
_cell_angle_beta   91.27279915
_cell_angle_gamma   90.24912066
_symmetry_Int_Tables_number   1
_chemical_formula_structural   Y2Ta2Sb2O11
_chemical_formula_sum   'Y4 Ta4 Sb4 O22'
_cell_volume   478.97582056
_cell_formula_units_Z   2
loop_
 _symmetry_equiv_pos_site_id
 _symmetry_equiv_pos_as_xyz
  1  'x, y, z'
loop_
 _atom_site_type_symbol
 _atom_site_label
 _atom_site_symmetry_multiplicity
 _atom_site_fract_x
 _atom_site_fract_y
 _atom_site_fract_z
 _atom_site_occupancy
  Y  Y0  1  0.748828  0.369763  0.482159  1
  Y  Y1  1  0.251172  0.630237  0.517841  1
  Y  Y2  1  0.762791  0.871471  0.499711  1
  Y  Y3  1  0.237209  0.128529  0.500289  1
  Ta  Ta4  1  0.918623  0.701462  0.804435  1
  Ta  Ta5  1  0.081377  0.298538  0.195565  1
  Ta  Ta6  1  0.921608  0.199585  0.800738  1
  Ta  Ta7  1  0.078392  0.800415  0.199262  1
  Sb  Sb8  1  0.411876  0.955953  0.806814  1
  Sb  Sb9  1  0.588124  0.044047  0.193186  1
  Sb  Sb10  1  0.430829  0.453265  0.822333  1
  Sb  Sb11  1  0.569171  0.546735  0.177667  1
  O  O12  1  0.216150  0.739983  0.756937  1
  O  O13  1  0.783850  0.260017  0.243063  1
  O  O14  1  0.636953  0.653175  0.832284  1
  O  O15  1  0.363047  0.346825  0.167716  1
  O  O16  1  0.636866  0.257423  0.825149  1
  O  O17  1  0.363134  0.742577  0.174851  1
  O  O18  1  0.894553  0.155271  0.580997  1
  O  O19  1  0.105447  0.844729  0.419003  1
  O  O20  1  0.215665  0.136235  0.746948  1
  O  O21  1  0.784335  0.863765  0.253052  1
  O  O22  1  0.895992  0.635225  0.587633  1
  O  O23  1  0.104008  0.364775  0.412367  1
  O  O24  1  0.017597  0.550952  0.203047  1
  O  O25  1  0.982403  0.449048  0.796953  1
  O  O26  1  0.997385  0.787952  0.002923  1
  O  O27  1  0.002615  0.212048  0.997077  1
  O  O28  1  0.566438  0.594150  0.389364  1
  O  O29  1  0.433562  0.405850  0.610636  1
  O  O30  1  0.158000  0.058411  0.231671  1
  O  O31  1  0.842000  0.941589  0.768329  1
  O  O32  1  0.538678  0.106534  0.398895  1
  O  O33  1  0.461322  0.893466  0.601105  1
