# generated using pymatgen
data_LiY10In7
_symmetry_space_group_name_H-M   'P 1'
_cell_length_a   9.26326700
_cell_length_b   9.26326814
_cell_length_c   6.70305500
_cell_angle_alpha   90.00000000
_cell_angle_beta   90.00000000
_cell_angle_gamma   120.00000662
_symmetry_Int_Tables_number   1
_chemical_formula_structural   LiY10In7
_chemical_formula_sum   'Li1 Y10 In7'
_cell_volume   498.11750433
_cell_formula_units_Z   1
loop_
 _symmetry_equiv_pos_site_id
 _symmetry_equiv_pos_as_xyz
  1  'x, y, z'
loop_
 _atom_site_type_symbol
 _atom_site_label
 _atom_site_symmetry_multiplicity
 _atom_site_fract_x
 _atom_site_fract_y
 _atom_site_fract_z
 _atom_site_occupancy
  Li  Li0  1  0.000000  0.000000  0.500000  1
  Y  Y1  1  0.333333  0.666667  0.500000  1
  Y  Y2  1  0.666667  0.333333  0.500000  1
  Y  Y3  1  0.666667  0.333333  0.000000  1
  Y  Y4  1  0.333333  0.666667  0.000000  1
  Y  Y5  1  0.291901  0.000000  0.751326  1
  Y  Y6  1  0.708099  0.000000  0.248674  1
  Y  Y7  1  0.000000  0.291901  0.751326  1
  Y  Y8  1  0.000000  0.708099  0.248674  1
  Y  Y9  1  0.708099  0.708099  0.751326  1
  Y  Y10  1  0.291901  0.291901  0.248674  1
  In  In11  1  0.000000  0.000000  0.000000  1
  In  In12  1  0.631544  0.000000  0.747234  1
  In  In13  1  0.368456  0.000000  0.252766  1
  In  In14  1  0.000000  0.631544  0.747234  1
  In  In15  1  0.000000  0.368456  0.252766  1
  In  In16  1  0.368456  0.368456  0.747234  1
  In  In17  1  0.631544  0.631544  0.252766  1
