# generated using pymatgen
data_Ce3In3Ni2Ir
_symmetry_space_group_name_H-M   'P 1'
_cell_length_a   7.52538800
_cell_length_b   7.52538784
_cell_length_c   3.93524200
_cell_angle_alpha   90.00000000
_cell_angle_beta   90.00000000
_cell_angle_gamma   120.00000069
_symmetry_Int_Tables_number   1
_chemical_formula_structural   Ce3In3Ni2Ir
_chemical_formula_sum   'Ce3 In3 Ni2 Ir1'
_cell_volume   193.00113251
_cell_formula_units_Z   1
loop_
 _symmetry_equiv_pos_site_id
 _symmetry_equiv_pos_as_xyz
  1  'x, y, z'
loop_
 _atom_site_type_symbol
 _atom_site_label
 _atom_site_symmetry_multiplicity
 _atom_site_fract_x
 _atom_site_fract_y
 _atom_site_fract_z
 _atom_site_occupancy
  Ce  Ce0  1  0.003615  0.586556  0.000000  1
  Ce  Ce1  1  0.413444  0.417059  0.000000  1
  Ce  Ce2  1  0.582941  0.996385  0.000000  1
  In  In3  1  0.756467  0.750754  0.500000  1
  In  In4  1  0.994287  0.243533  0.500000  1
  In  In5  1  0.249246  0.005713  0.500000  1
  Ni  Ni6  1  0.000000  0.000000  0.000000  1
  Ni  Ni7  1  0.666667  0.333333  0.500000  1
  Ir  Ir8  1  0.333333  0.666667  0.500000  1
