# generated using pymatgen
data_Tb2Y2Al18PtRh5
_symmetry_space_group_name_H-M   'P 1'
_cell_length_a   7.57759800
_cell_length_b   7.57701798
_cell_length_c   9.48326601
_cell_angle_alpha   89.99671553
_cell_angle_beta   89.99730176
_cell_angle_gamma   119.47320322
_symmetry_Int_Tables_number   1
_chemical_formula_structural   Tb2Y2Al18PtRh5
_chemical_formula_sum   'Tb2 Y2 Al18 Pt1 Rh5'
_cell_volume   474.02302882
_cell_formula_units_Z   1
loop_
 _symmetry_equiv_pos_site_id
 _symmetry_equiv_pos_as_xyz
  1  'x, y, z'
loop_
 _atom_site_type_symbol
 _atom_site_label
 _atom_site_symmetry_multiplicity
 _atom_site_fract_x
 _atom_site_fract_y
 _atom_site_fract_z
 _atom_site_occupancy
  Tb  Tb0  1  0.671062  0.995024  0.249824  1
  Tb  Tb1  1  0.329572  0.005478  0.749938  1
  Y  Y2  1  0.994658  0.670399  0.250091  1
  Y  Y3  1  0.005006  0.328920  0.750148  1
  Al  Al4  1  0.127845  0.127274  0.250157  1
  Al  Al5  1  0.872895  0.872264  0.749842  1
  Al  Al6  1  0.004300  0.335252  0.076107  1
  Al  Al7  1  0.002533  0.668314  0.923927  1
  Al  Al8  1  0.999750  0.664758  0.574570  1
  Al  Al9  1  0.335133  0.000204  0.425551  1
  Al  Al10  1  0.001030  0.335060  0.425239  1
  Al  Al11  1  0.665069  0.999007  0.574890  1
  Al  Al12  1  0.664864  0.995731  0.923759  1
  Al  Al13  1  0.331562  0.997402  0.075959  1
  Al  Al14  1  0.332755  0.332891  0.550088  1
  Al  Al15  1  0.667153  0.667203  0.449958  1
  Al  Al16  1  0.666585  0.669907  0.051547  1
  Al  Al17  1  0.330042  0.333468  0.948394  1
  Al  Al18  1  0.340143  0.549785  0.250137  1
  Al  Al19  1  0.660072  0.453019  0.746976  1
  Al  Al20  1  0.546850  0.339995  0.253040  1
  Al  Al21  1  0.450015  0.659754  0.749865  1
  Pt  Pt22  1  0.672346  0.327742  0.000099  1
  Rh  Rh23  1  0.328146  0.671784  0.000061  1
  Rh  Rh24  1  0.328273  0.671661  0.499935  1
  Rh  Rh25  1  0.672232  0.327907  0.499895  1
  Rh  Rh26  1  0.999975  0.999969  0.000090  1
  Rh  Rh27  1  0.000137  0.999826  0.499914  1
