# generated using pymatgen
data_DyY3Sc4(ReB6)4
_symmetry_space_group_name_H-M   'P 1'
_cell_length_a   3.58895400
_cell_length_b   9.02111200
_cell_length_c   11.40397601
_cell_angle_alpha   90.00361883
_cell_angle_beta   90.00000000
_cell_angle_gamma   90.00000000
_symmetry_Int_Tables_number   1
_chemical_formula_structural   DyY3Sc4(ReB6)4
_chemical_formula_sum   'Dy1 Y3 Sc4 Re4 B24'
_cell_volume   369.21918639
_cell_formula_units_Z   1
loop_
 _symmetry_equiv_pos_site_id
 _symmetry_equiv_pos_as_xyz
  1  'x, y, z'
loop_
 _atom_site_type_symbol
 _atom_site_label
 _atom_site_symmetry_multiplicity
 _atom_site_fract_x
 _atom_site_fract_y
 _atom_site_fract_z
 _atom_site_occupancy
  Dy  Dy0  1  0.000000  0.178301  0.913985  1
  Y  Y1  1  0.000000  0.321601  0.414026  1
  Y  Y2  1  0.000000  0.678386  0.585950  1
  Y  Y3  1  0.000000  0.821632  0.085992  1
  Sc  Sc4  1  0.000000  0.944221  0.370228  1
  Sc  Sc5  1  0.000000  0.055814  0.629759  1
  Sc  Sc6  1  0.000000  0.444132  0.129797  1
  Sc  Sc7  1  0.000000  0.555816  0.870183  1
  Re  Re8  1  0.000000  0.640881  0.318332  1
  Re  Re9  1  0.000000  0.359060  0.681732  1
  Re  Re10  1  0.000000  0.140905  0.181581  1
  Re  Re11  1  0.000000  0.859229  0.818362  1
  B  B12  1  0.500000  0.554489  0.432444  1
  B  B13  1  0.500000  0.445515  0.567557  1
  B  B14  1  0.500000  0.054575  0.067461  1
  B  B15  1  0.500000  0.945659  0.932443  1
  B  B16  1  0.500000  0.754733  0.418346  1
  B  B17  1  0.500000  0.245270  0.581667  1
  B  B18  1  0.500000  0.254711  0.081526  1
  B  B19  1  0.500000  0.745233  0.918376  1
  B  B20  1  0.500000  0.795275  0.264960  1
  B  B21  1  0.500000  0.204741  0.735157  1
  B  B22  1  0.500000  0.295239  0.235030  1
  B  B23  1  0.500000  0.704738  0.764973  1
  B  B24  1  0.500000  0.629017  0.183073  1
  B  B25  1  0.500000  0.370835  0.816990  1
  B  B26  1  0.500000  0.129029  0.316919  1
  B  B27  1  0.500000  0.870991  0.683074  1
  B  B28  1  0.500000  0.981656  0.213895  1
  B  B29  1  0.500000  0.018449  0.786190  1
  B  B30  1  0.500000  0.481675  0.286117  1
  B  B31  1  0.500000  0.518318  0.713888  1
  B  B32  1  0.500000  0.595265  0.026032  1
  B  B33  1  0.500000  0.404610  0.973952  1
  B  B34  1  0.500000  0.095289  0.473963  1
  B  B35  1  0.500000  0.904712  0.526043  1
