# generated using pymatgen
data_Tb2Sm3Co19(Si5P)2
_symmetry_space_group_name_H-M   'P 1'
_cell_length_a   12.18331500
_cell_length_b   12.22007714
_cell_length_c   3.73753300
_cell_angle_alpha   90.00000000
_cell_angle_beta   90.00000000
_cell_angle_gamma   119.90053745
_symmetry_Int_Tables_number   1
_chemical_formula_structural   Tb2Sm3Co19(Si5P)2
_chemical_formula_sum   'Tb2 Sm3 Co19 Si10 P2'
_cell_volume   482.38021629
_cell_formula_units_Z   1
loop_
 _symmetry_equiv_pos_site_id
 _symmetry_equiv_pos_as_xyz
  1  'x, y, z'
loop_
 _atom_site_type_symbol
 _atom_site_label
 _atom_site_symmetry_multiplicity
 _atom_site_fract_x
 _atom_site_fract_y
 _atom_site_fract_z
 _atom_site_occupancy
  Tb  Tb0  1  0.000526  0.186679  0.500000  1
  Tb  Tb1  1  0.813847  0.813321  0.500000  1
  Sm  Sm2  1  0.332933  0.666452  0.000000  1
  Sm  Sm3  1  0.666480  0.333548  0.000000  1
  Sm  Sm4  1  0.185513  0.000000  0.500000  1
  Co  Co5  1  0.196890  0.373440  0.000000  1
  Co  Co6  1  0.623971  0.820121  0.000000  1
  Co  Co7  1  0.175480  0.802214  0.000000  1
  Co  Co8  1  0.823450  0.626560  0.000000  1
  Co  Co9  1  0.803850  0.179879  0.000000  1
  Co  Co10  1  0.373267  0.197786  0.000000  1
  Co  Co11  1  0.560422  0.000000  0.000000  1
  Co  Co12  1  0.000115  0.559119  0.000000  1
  Co  Co13  1  0.440996  0.440881  0.000000  1
  Co  Co14  1  0.122614  0.478800  0.500000  1
  Co  Co15  1  0.521099  0.642554  0.500000  1
  Co  Co16  1  0.356388  0.877203  0.500000  1
  Co  Co17  1  0.643816  0.521200  0.500000  1
  Co  Co18  1  0.878543  0.357446  0.500000  1
  Co  Co19  1  0.479186  0.122797  0.500000  1
  Co  Co20  1  0.719725  0.000000  0.500000  1
  Co  Co21  1  0.998855  0.721809  0.500000  1
  Co  Co22  1  0.277046  0.278191  0.500000  1
  Co  Co23  1  0.003809  0.000000  0.000000  1
  Si  Si24  1  0.373660  0.000000  0.000000  1
  Si  Si25  1  0.000285  0.372205  0.000000  1
  Si  Si26  1  0.628081  0.627795  0.000000  1
  Si  Si27  1  0.317746  0.476210  0.500000  1
  Si  Si28  1  0.524242  0.840380  0.500000  1
  Si  Si29  1  0.157903  0.682089  0.500000  1
  Si  Si30  1  0.841537  0.523790  0.500000  1
  Si  Si31  1  0.683861  0.159620  0.500000  1
  Si  Si32  1  0.475814  0.317911  0.500000  1
  Si  Si33  1  0.817521  0.000000  0.000000  1
  P  P34  1  0.998202  0.815874  0.000000  1
  P  P35  1  0.182329  0.184126  0.000000  1
