# generated using pymatgen
data_La2WN3
_symmetry_space_group_name_H-M   'P 1'
_cell_length_a   6.26942264
_cell_length_b   6.26942386
_cell_length_c   12.53279496
_cell_angle_alpha   87.44867849
_cell_angle_beta   87.44867650
_cell_angle_gamma   127.98161190
_symmetry_Int_Tables_number   1
_chemical_formula_structural   La2WN3
_chemical_formula_sum   'La8 W4 N12'
_cell_volume   386.27349240
_cell_formula_units_Z   4
loop_
 _symmetry_equiv_pos_site_id
 _symmetry_equiv_pos_as_xyz
  1  'x, y, z'
loop_
 _atom_site_type_symbol
 _atom_site_label
 _atom_site_symmetry_multiplicity
 _atom_site_fract_x
 _atom_site_fract_y
 _atom_site_fract_z
 _atom_site_occupancy
  La  La0  1  0.980552  0.584441  0.359106  1
  La  La1  1  0.415559  0.019448  0.140894  1
  La  La2  1  0.019448  0.415559  0.640894  1
  La  La3  1  0.584441  0.980552  0.859106  1
  La  La4  1  0.121029  0.341492  0.073977  1
  La  La5  1  0.658508  0.878971  0.426023  1
  La  La6  1  0.878971  0.658508  0.926023  1
  La  La7  1  0.341492  0.121029  0.573977  1
  W  W8  1  0.709208  0.699237  0.174940  1
  W  W9  1  0.300763  0.290792  0.325060  1
  W  W10  1  0.290792  0.300763  0.825060  1
  W  W11  1  0.699237  0.709208  0.674940  1
  N  N12  1  0.363481  0.636519  0.250000  1
  N  N13  1  0.636519  0.363481  0.750000  1
  N  N14  1  0.874963  0.535162  0.126098  1
  N  N15  1  0.464838  0.125037  0.373902  1
  N  N16  1  0.125037  0.464838  0.873902  1
  N  N17  1  0.535162  0.874963  0.626098  1
  N  N18  1  0.837997  0.654264  0.542601  1
  N  N19  1  0.345736  0.162003  0.957399  1
  N  N20  1  0.162003  0.345736  0.457399  1
  N  N21  1  0.654264  0.837997  0.042601  1
  N  N22  1  0.003839  0.996161  0.250000  1
  N  N23  1  0.996161  0.003839  0.750000  1
