# generated using pymatgen
data_Ac3Dy(GePt)4
_symmetry_space_group_name_H-M   'P 1'
_cell_length_a   4.41460200
_cell_length_b   8.32039601
_cell_length_c   7.71073124
_cell_angle_alpha   89.98803367
_cell_angle_beta   90.00000000
_cell_angle_gamma   90.00000000
_symmetry_Int_Tables_number   1
_chemical_formula_structural   Ac3Dy(GePt)4
_chemical_formula_sum   'Ac3 Dy1 Ge4 Pt4'
_cell_volume   283.22468926
_cell_formula_units_Z   1
loop_
 _symmetry_equiv_pos_site_id
 _symmetry_equiv_pos_as_xyz
  1  'x, y, z'
loop_
 _atom_site_type_symbol
 _atom_site_label
 _atom_site_symmetry_multiplicity
 _atom_site_fract_x
 _atom_site_fract_y
 _atom_site_fract_z
 _atom_site_occupancy
  Ac  Ac0  1  0.750000  0.501480  0.780041  1
  Ac  Ac1  1  0.250000  0.987395  0.259254  1
  Ac  Ac2  1  0.750000  0.006279  0.734981  1
  Dy  Dy3  1  0.250000  0.497324  0.223504  1
  Ge  Ge4  1  0.250000  0.770189  0.915612  1
  Ge  Ge5  1  0.250000  0.260638  0.572261  1
  Ge  Ge6  1  0.750000  0.237116  0.100786  1
  Ge  Ge7  1  0.750000  0.681555  0.411693  1
  Pt  Pt8  1  0.250000  0.733824  0.575173  1
  Pt  Pt9  1  0.250000  0.253853  0.923409  1
  Pt  Pt10  1  0.750000  0.743385  0.089026  1
  Pt  Pt11  1  0.750000  0.326962  0.414260  1
