# generated using pymatgen
data_ErTmMnCo16
_symmetry_space_group_name_H-M   'P 1'
_cell_length_a   6.27017891
_cell_length_b   6.27017833
_cell_length_c   6.27017800
_cell_angle_alpha   82.93476329
_cell_angle_beta   82.93477317
_cell_angle_gamma   82.93477867
_symmetry_Int_Tables_number   1
_chemical_formula_structural   ErTmMnCo16
_chemical_formula_sum   'Er1 Tm1 Mn1 Co16'
_cell_volume   241.32283770
_cell_formula_units_Z   1
loop_
 _symmetry_equiv_pos_site_id
 _symmetry_equiv_pos_as_xyz
  1  'x, y, z'
loop_
 _atom_site_type_symbol
 _atom_site_label
 _atom_site_symmetry_multiplicity
 _atom_site_fract_x
 _atom_site_fract_y
 _atom_site_fract_z
 _atom_site_occupancy
  Er  Er0  1  0.347328  0.347328  0.347328  1
  Tm  Tm1  1  0.656281  0.656281  0.656281  1
  Mn  Mn2  1  0.097028  0.097028  0.097028  1
  Co  Co3  1  0.289960  0.709674  0.998577  1
  Co  Co4  1  0.709674  0.998577  0.289960  1
  Co  Co5  1  0.998577  0.289960  0.709674  1
  Co  Co6  1  0.289960  0.998577  0.709674  1
  Co  Co7  1  0.998577  0.709674  0.289960  1
  Co  Co8  1  0.709674  0.289960  0.998577  1
  Co  Co9  1  0.997646  0.997646  0.504312  1
  Co  Co10  1  0.997646  0.504312  0.997646  1
  Co  Co11  1  0.504312  0.997646  0.997646  1
  Co  Co12  1  0.349210  0.349210  0.847727  1
  Co  Co13  1  0.349210  0.847727  0.349210  1
  Co  Co14  1  0.847727  0.349210  0.349210  1
  Co  Co15  1  0.653142  0.653142  0.152619  1
  Co  Co16  1  0.653142  0.152619  0.653142  1
  Co  Co17  1  0.152619  0.653142  0.653142  1
  Co  Co18  1  0.898280  0.898280  0.898280  1
