# generated using pymatgen
data_LuHf3(SbRh5)2
_symmetry_space_group_name_H-M   'P 1'
_cell_length_a   4.16652900
_cell_length_b   5.67902202
_cell_length_c   11.08640205
_cell_angle_alpha   89.98971675
_cell_angle_beta   90.00000000
_cell_angle_gamma   90.00000000
_symmetry_Int_Tables_number   1
_chemical_formula_structural   LuHf3(SbRh5)2
_chemical_formula_sum   'Lu1 Hf3 Sb2 Rh10'
_cell_volume   262.32433398
_cell_formula_units_Z   1
loop_
 _symmetry_equiv_pos_site_id
 _symmetry_equiv_pos_as_xyz
  1  'x, y, z'
loop_
 _atom_site_type_symbol
 _atom_site_label
 _atom_site_symmetry_multiplicity
 _atom_site_fract_x
 _atom_site_fract_y
 _atom_site_fract_z
 _atom_site_occupancy
  Lu  Lu0  1  0.500000  0.176399  0.642668  1
  Hf  Hf1  1  0.500000  0.827164  0.356430  1
  Hf  Hf2  1  0.500000  0.674303  0.854881  1
  Hf  Hf3  1  0.500000  0.327521  0.142890  1
  Sb  Sb4  1  0.000000  0.498085  0.499862  1
  Sb  Sb5  1  0.000000  0.999269  0.000360  1
  Rh  Rh6  1  0.500000  0.199923  0.894355  1
  Rh  Rh7  1  0.500000  0.801669  0.111363  1
  Rh  Rh8  1  0.500000  0.693843  0.610643  1
  Rh  Rh9  1  0.500000  0.304080  0.384476  1
  Rh  Rh10  1  0.000000  0.437486  0.749770  1
  Rh  Rh11  1  0.000000  0.568587  0.254441  1
  Rh  Rh12  1  0.000000  0.993284  0.494750  1
  Rh  Rh13  1  0.000000  0.501153  0.001537  1
  Rh  Rh14  1  0.000000  0.068761  0.243476  1
  Rh  Rh15  1  0.000000  0.928473  0.758098  1
