# generated using pymatgen
data_Nd16Ga6TcRu
_symmetry_space_group_name_H-M   'P 1'
_cell_length_a   10.42060700
_cell_length_b   10.42055672
_cell_length_c   7.22124400
_cell_angle_alpha   89.99987768
_cell_angle_beta   90.00000550
_cell_angle_gamma   119.99991031
_symmetry_Int_Tables_number   1
_chemical_formula_structural   Nd16Ga6TcRu
_chemical_formula_sum   'Nd16 Ga6 Tc1 Ru1'
_cell_volume   679.08944951
_cell_formula_units_Z   1
loop_
 _symmetry_equiv_pos_site_id
 _symmetry_equiv_pos_as_xyz
  1  'x, y, z'
loop_
 _atom_site_type_symbol
 _atom_site_label
 _atom_site_symmetry_multiplicity
 _atom_site_fract_x
 _atom_site_fract_y
 _atom_site_fract_z
 _atom_site_occupancy
  Nd  Nd0  1  0.830866  0.661730  0.486040  1
  Nd  Nd1  1  0.338267  0.169134  0.486039  1
  Nd  Nd2  1  0.830867  0.169136  0.486044  1
  Nd  Nd3  1  0.169590  0.339185  0.985966  1
  Nd  Nd4  1  0.660817  0.830408  0.985966  1
  Nd  Nd5  1  0.169591  0.830405  0.985970  1
  Nd  Nd6  1  0.666667  0.333335  0.166894  1
  Nd  Nd7  1  0.333333  0.666665  0.667922  1
  Nd  Nd8  1  0.537341  0.074684  0.796205  1
  Nd  Nd9  1  0.925311  0.462656  0.796210  1
  Nd  Nd10  1  0.537343  0.462658  0.796206  1
  Nd  Nd11  1  0.462622  0.925243  0.295669  1
  Nd  Nd12  1  0.074761  0.537381  0.295672  1
  Nd  Nd13  1  0.462620  0.537379  0.295672  1
  Nd  Nd14  1  0.000002  0.000004  0.767288  1
  Nd  Nd15  1  0.999998  0.999996  0.267853  1
  Ga  Ga16  1  0.835142  0.670290  0.045138  1
  Ga  Ga17  1  0.329707  0.164855  0.045136  1
  Ga  Ga18  1  0.835142  0.164852  0.045147  1
  Ga  Ga19  1  0.165156  0.330307  0.545261  1
  Ga  Ga20  1  0.669700  0.834849  0.545262  1
  Ga  Ga21  1  0.165155  0.834849  0.545271  1
  Tc  Tc22  1  0.666664  0.333331  0.546010  1
  Ru  Ru23  1  0.333337  0.666668  0.047401  1
