# generated using pymatgen
data_NdHo15MgAg3Rh4
_symmetry_space_group_name_H-M   'P 1'
_cell_length_a   9.56706831
_cell_length_b   9.57411491
_cell_length_c   9.57471700
_cell_angle_alpha   59.99792314
_cell_angle_beta   59.97355332
_cell_angle_gamma   59.79728515
_symmetry_Int_Tables_number   1
_chemical_formula_structural   NdHo15MgAg3Rh4
_chemical_formula_sum   'Nd1 Ho15 Mg1 Ag3 Rh4'
_cell_volume   619.04937029
_cell_formula_units_Z   1
loop_
 _symmetry_equiv_pos_site_id
 _symmetry_equiv_pos_as_xyz
  1  'x, y, z'
loop_
 _atom_site_type_symbol
 _atom_site_label
 _atom_site_symmetry_multiplicity
 _atom_site_fract_x
 _atom_site_fract_y
 _atom_site_fract_z
 _atom_site_occupancy
  Nd  Nd0  1  0.184505  0.181336  0.817079  1
  Ho  Ho1  1  0.601115  0.599737  0.597577  1
  Ho  Ho2  1  0.601115  0.599737  0.201570  1
  Ho  Ho3  1  0.599770  0.205803  0.597213  1
  Ho  Ho4  1  0.189787  0.603753  0.603230  1
  Ho  Ho5  1  0.059996  0.438793  0.437816  1
  Ho  Ho6  1  0.436195  0.063323  0.064993  1
  Ho  Ho7  1  0.436195  0.063323  0.435489  1
  Ho  Ho8  1  0.059996  0.438793  0.063393  1
  Ho  Ho9  1  0.436127  0.437304  0.063285  1
  Ho  Ho10  1  0.059696  0.060990  0.439657  1
  Ho  Ho11  1  0.183502  0.810745  0.815530  1
  Ho  Ho12  1  0.812034  0.185401  0.187513  1
  Ho  Ho13  1  0.812034  0.185401  0.815052  1
  Ho  Ho14  1  0.183502  0.810745  0.190223  1
  Ho  Ho15  1  0.814494  0.815976  0.184765  1
  Mg  Mg16  1  0.540365  0.820874  0.819381  1
  Ag  Ag17  1  0.833208  0.834643  0.834837  1
  Ag  Ag18  1  0.833208  0.834643  0.497314  1
  Ag  Ag19  1  0.828933  0.501036  0.835017  1
  Rh  Rh20  1  0.390986  0.396967  0.389403  1
  Rh  Rh21  1  0.390986  0.396967  0.822643  1
  Rh  Rh22  1  0.389872  0.821198  0.394464  1
  Rh  Rh23  1  0.822374  0.392516  0.392554  1
