# generated using pymatgen
data_HoTm3Al13Ga5Ir6
_symmetry_space_group_name_H-M   'P 1'
_cell_length_a   7.51111800
_cell_length_b   7.51275723
_cell_length_c   9.52338400
_cell_angle_alpha   90.00000000
_cell_angle_beta   90.00000000
_cell_angle_gamma   119.59781042
_symmetry_Int_Tables_number   1
_chemical_formula_structural   HoTm3Al13Ga5Ir6
_chemical_formula_sum   'Ho1 Tm3 Al13 Ga5 Ir6'
_cell_volume   467.27410899
_cell_formula_units_Z   1
loop_
 _symmetry_equiv_pos_site_id
 _symmetry_equiv_pos_as_xyz
  1  'x, y, z'
loop_
 _atom_site_type_symbol
 _atom_site_label
 _atom_site_symmetry_multiplicity
 _atom_site_fract_x
 _atom_site_fract_y
 _atom_site_fract_z
 _atom_site_occupancy
  Ho  Ho0  1  0.994889  0.670148  0.250000  1
  Tm  Tm1  1  0.001362  0.326809  0.750000  1
  Tm  Tm2  1  0.670425  0.996179  0.250000  1
  Tm  Tm3  1  0.329931  0.006246  0.750000  1
  Al  Al4  1  0.001885  0.334666  0.072927  1
  Al  Al5  1  0.999517  0.665380  0.926414  1
  Al  Al6  1  0.999517  0.665380  0.573586  1
  Al  Al7  1  0.335043  0.001567  0.427250  1
  Al  Al8  1  0.001885  0.334666  0.427073  1
  Al  Al9  1  0.664916  0.998461  0.573633  1
  Al  Al10  1  0.664916  0.998461  0.926367  1
  Al  Al11  1  0.335043  0.001567  0.072750  1
  Al  Al12  1  0.333433  0.333797  0.557523  1
  Al  Al13  1  0.665966  0.666275  0.445601  1
  Al  Al14  1  0.665966  0.666275  0.054399  1
  Al  Al15  1  0.333433  0.333797  0.942477  1
  Al  Al16  1  0.450607  0.661637  0.750000  1
  Ga  Ga17  1  0.128467  0.128669  0.250000  1
  Ga  Ga18  1  0.870351  0.869763  0.750000  1
  Ga  Ga19  1  0.339079  0.548020  0.250000  1
  Ga  Ga20  1  0.661519  0.453380  0.750000  1
  Ga  Ga21  1  0.547708  0.339165  0.250000  1
  Ir  Ir22  1  0.672539  0.327558  0.000159  1
  Ir  Ir23  1  0.329120  0.671993  0.997594  1
  Ir  Ir24  1  0.329120  0.671993  0.502406  1
  Ir  Ir25  1  0.672539  0.327558  0.499841  1
  Ir  Ir26  1  0.000413  0.000296  0.999936  1
  Ir  Ir27  1  0.000413  0.000296  0.500064  1
