# generated using pymatgen
data_Dy3Ho7Ga2(SiB8)2
_symmetry_space_group_name_H-M   'P 1'
_cell_length_a   7.23267329
_cell_length_b   7.23267358
_cell_length_c   8.12133100
_cell_angle_alpha   89.99741753
_cell_angle_beta   89.99741805
_cell_angle_gamma   89.69519919
_symmetry_Int_Tables_number   1
_chemical_formula_structural   Dy3Ho7Ga2(SiB8)2
_chemical_formula_sum   'Dy3 Ho7 Ga2 Si2 B16'
_cell_volume   424.83352273
_cell_formula_units_Z   1
loop_
 _symmetry_equiv_pos_site_id
 _symmetry_equiv_pos_as_xyz
  1  'x, y, z'
loop_
 _atom_site_type_symbol
 _atom_site_label
 _atom_site_symmetry_multiplicity
 _atom_site_fract_x
 _atom_site_fract_y
 _atom_site_fract_z
 _atom_site_occupancy
  Dy  Dy0  1  0.679396  0.179396  0.223793  1
  Dy  Dy1  1  0.320661  0.820661  0.776118  1
  Dy  Dy2  1  0.320624  0.820624  0.223864  1
  Ho  Ho3  1  0.815619  0.684358  0.218609  1
  Ho  Ho4  1  0.815603  0.684394  0.781373  1
  Ho  Ho5  1  0.679389  0.179389  0.776681  1
  Ho  Ho6  1  0.184394  0.315603  0.781373  1
  Ho  Ho7  1  0.184358  0.315619  0.218609  1
  Ho  Ho8  1  0.999919  0.000054  0.500062  1
  Ho  Ho9  1  0.500054  0.499919  0.500062  1
  Ga  Ga10  1  0.117362  0.617362  0.500011  1
  Ga  Ga11  1  0.882492  0.382492  0.500166  1
  Si  Si12  1  0.383942  0.116213  0.500130  1
  Si  Si13  1  0.616213  0.883942  0.500130  1
  B  B14  1  0.171719  0.039466  0.999953  1
  B  B15  1  0.828189  0.960660  0.999898  1
  B  B16  1  0.959537  0.172145  0.999930  1
  B  B17  1  0.327927  0.540321  0.999964  1
  B  B18  1  0.040321  0.827927  0.999964  1
  B  B19  1  0.672145  0.459537  0.999930  1
  B  B20  1  0.539466  0.671719  0.999953  1
  B  B21  1  0.460660  0.328189  0.999898  1
  B  B22  1  0.090473  0.590473  0.999986  1
  B  B23  1  0.909503  0.409503  0.999992  1
  B  B24  1  0.408621  0.091501  0.999888  1
  B  B25  1  0.591501  0.908621  0.999888  1
  B  B26  1  0.999990  0.000021  0.162561  1
  B  B27  1  0.999801  0.000100  0.837326  1
  B  B28  1  0.500100  0.499801  0.837326  1
  B  B29  1  0.500021  0.499990  0.162561  1
