# generated using pymatgen
data_Y2Lu2TcB12Ir
_symmetry_space_group_name_H-M   'P 1'
_cell_length_a   3.63550100
_cell_length_b   9.08973020
_cell_length_c   11.48632228
_cell_angle_alpha   90.20261868
_cell_angle_beta   90.00000000
_cell_angle_gamma   90.00000000
_symmetry_Int_Tables_number   1
_chemical_formula_structural   Y2Lu2TcB12Ir
_chemical_formula_sum   'Y4 Lu4 Tc2 B24 Ir2'
_cell_volume   379.57145346
_cell_formula_units_Z   2
loop_
 _symmetry_equiv_pos_site_id
 _symmetry_equiv_pos_as_xyz
  1  'x, y, z'
loop_
 _atom_site_type_symbol
 _atom_site_label
 _atom_site_symmetry_multiplicity
 _atom_site_fract_x
 _atom_site_fract_y
 _atom_site_fract_z
 _atom_site_occupancy
  Y  Y0  1  0.500000  0.316445  0.411179  1
  Y  Y1  1  0.500000  0.683555  0.588821  1
  Y  Y2  1  0.500000  0.175328  0.917288  1
  Y  Y3  1  0.500000  0.824672  0.082712  1
  Lu  Lu4  1  0.500000  0.440780  0.126173  1
  Lu  Lu5  1  0.500000  0.559220  0.873827  1
  Lu  Lu6  1  0.500000  0.052998  0.628274  1
  Lu  Lu7  1  0.500000  0.947002  0.371726  1
  Tc  Tc8  1  0.500000  0.139136  0.181011  1
  Tc  Tc9  1  0.500000  0.860864  0.818989  1
  B  B10  1  0.000000  0.103021  0.472512  1
  B  B11  1  0.000000  0.896979  0.527488  1
  B  B12  1  0.000000  0.397538  0.971463  1
  B  B13  1  0.000000  0.602462  0.028537  1
  B  B14  1  0.000000  0.130599  0.315861  1
  B  B15  1  0.000000  0.869401  0.684139  1
  B  B16  1  0.000000  0.369758  0.817093  1
  B  B17  1  0.000000  0.630242  0.182907  1
  B  B18  1  0.000000  0.053929  0.067425  1
  B  B19  1  0.000000  0.946071  0.932575  1
  B  B20  1  0.000000  0.445076  0.566263  1
  B  B21  1  0.000000  0.554924  0.433737  1
  B  B22  1  0.000000  0.482059  0.286527  1
  B  B23  1  0.000000  0.517941  0.713473  1
  B  B24  1  0.000000  0.017568  0.786321  1
  B  B25  1  0.000000  0.982432  0.213679  1
  B  B26  1  0.000000  0.249568  0.081486  1
  B  B27  1  0.000000  0.750432  0.918514  1
  B  B28  1  0.000000  0.248340  0.579958  1
  B  B29  1  0.000000  0.751660  0.420042  1
  B  B30  1  0.000000  0.292998  0.234868  1
  B  B31  1  0.000000  0.707002  0.765132  1
  B  B32  1  0.000000  0.208122  0.734797  1
  B  B33  1  0.000000  0.791878  0.265203  1
  Ir  Ir34  1  0.500000  0.362408  0.679142  1
  Ir  Ir35  1  0.500000  0.637592  0.320858  1
