# generated using pymatgen
data_Rb2AuIBr6
_symmetry_space_group_name_H-M   'P 1'
_cell_length_a   7.52086342
_cell_length_b   7.52086461
_cell_length_c   9.41113118
_cell_angle_alpha   66.10789096
_cell_angle_beta   66.10789054
_cell_angle_gamma   59.13440674
_symmetry_Int_Tables_number   1
_chemical_formula_structural   Rb2AuIBr6
_chemical_formula_sum   'Rb2 Au1 I1 Br6'
_cell_volume   404.37131648
_cell_formula_units_Z   1
loop_
 _symmetry_equiv_pos_site_id
 _symmetry_equiv_pos_as_xyz
  1  'x, y, z'
loop_
 _atom_site_type_symbol
 _atom_site_label
 _atom_site_symmetry_multiplicity
 _atom_site_fract_x
 _atom_site_fract_y
 _atom_site_fract_z
 _atom_site_occupancy
  Rb  Rb0  1  0.718162  0.718162  0.776742  1
  Rb  Rb1  1  0.281838  0.281838  0.223258  1
  Au  Au2  1  0.000000  0.000000  0.000000  1
  I  I3  1  0.500000  0.500000  0.500000  1
  Br  Br4  1  0.280100  0.810114  0.151307  1
  Br  Br5  1  0.189886  0.719900  0.848693  1
  Br  Br6  1  0.719900  0.189886  0.848693  1
  Br  Br7  1  0.810114  0.280100  0.151307  1
  Br  Br8  1  0.265278  0.265278  0.624772  1
  Br  Br9  1  0.734722  0.734722  0.375228  1
