# generated using pymatgen
data_Pr5NdAl24(OsRh)4
_symmetry_space_group_name_H-M   'P 1'
_cell_length_a   8.93202018
_cell_length_b   8.89757280
_cell_length_c   9.70766100
_cell_angle_alpha   90.00000000
_cell_angle_beta   90.00000000
_cell_angle_gamma   119.52505943
_symmetry_Int_Tables_number   1
_chemical_formula_structural   Pr5NdAl24(OsRh)4
_chemical_formula_sum   'Pr5 Nd1 Al24 Os4 Rh4'
_cell_volume   671.31306830
_cell_formula_units_Z   1
loop_
 _symmetry_equiv_pos_site_id
 _symmetry_equiv_pos_as_xyz
  1  'x, y, z'
loop_
 _atom_site_type_symbol
 _atom_site_label
 _atom_site_symmetry_multiplicity
 _atom_site_fract_x
 _atom_site_fract_y
 _atom_site_fract_z
 _atom_site_occupancy
  Pr  Pr0  1  0.186501  0.382505  0.250000  1
  Pr  Pr1  1  0.813397  0.617273  0.750000  1
  Pr  Pr2  1  0.621284  0.811381  0.250000  1
  Pr  Pr3  1  0.378843  0.188608  0.750000  1
  Pr  Pr4  1  0.187518  0.805079  0.250000  1
  Nd  Nd5  1  0.812573  0.195291  0.750000  1
  Al  Al6  1  0.332050  0.666392  0.017654  1
  Al  Al7  1  0.668071  0.333377  0.981878  1
  Al  Al8  1  0.668071  0.333377  0.518122  1
  Al  Al9  1  0.332050  0.666392  0.482346  1
  Al  Al10  1  0.162184  0.327449  0.574959  1
  Al  Al11  1  0.837469  0.672358  0.425282  1
  Al  Al12  1  0.674089  0.837102  0.575494  1
  Al  Al13  1  0.837469  0.672358  0.074718  1
  Al  Al14  1  0.326062  0.163282  0.424741  1
  Al  Al15  1  0.162184  0.327449  0.925041  1
  Al  Al16  1  0.162419  0.834772  0.574937  1
  Al  Al17  1  0.326062  0.163282  0.075259  1
  Al  Al18  1  0.837540  0.165232  0.425520  1
  Al  Al19  1  0.674089  0.837102  0.924506  1
  Al  Al20  1  0.837540  0.165232  0.074480  1
  Al  Al21  1  0.162419  0.834772  0.925063  1
  Al  Al22  1  0.561245  0.124654  0.250000  1
  Al  Al23  1  0.439332  0.875825  0.750000  1
  Al  Al24  1  0.872069  0.436842  0.250000  1
  Al  Al25  1  0.127524  0.562635  0.750000  1
  Al  Al26  1  0.562119  0.436844  0.250000  1
  Al  Al27  1  0.437865  0.563161  0.750000  1
  Al  Al28  1  0.998117  0.999718  0.250000  1
  Al  Al29  1  0.001575  0.000543  0.750000  1
  Os  Os30  1  0.999837  0.499724  0.999807  1
  Os  Os31  1  0.999837  0.499724  0.500193  1
  Os  Os32  1  0.999964  0.000029  0.999940  1
  Os  Os33  1  0.999964  0.000029  0.500060  1
  Rh  Rh34  1  0.500257  0.000130  0.999826  1
  Rh  Rh35  1  0.500257  0.000130  0.500174  1
  Rh  Rh36  1  0.500078  0.499974  0.999938  1
  Rh  Rh37  1  0.500078  0.499974  0.500062  1
