# generated using pymatgen
data_Pm2GeRh3
_symmetry_space_group_name_H-M   'P 1'
_cell_length_a   5.19368590
_cell_length_b   5.19368505
_cell_length_c   5.19368563
_cell_angle_alpha   66.40044080
_cell_angle_beta   66.40044038
_cell_angle_gamma   66.40042954
_symmetry_Int_Tables_number   1
_chemical_formula_structural   Pm2GeRh3
_chemical_formula_sum   'Pm2 Ge1 Rh3'
_cell_volume   112.73254528
_cell_formula_units_Z   1
loop_
 _symmetry_equiv_pos_site_id
 _symmetry_equiv_pos_as_xyz
  1  'x, y, z'
loop_
 _atom_site_type_symbol
 _atom_site_label
 _atom_site_symmetry_multiplicity
 _atom_site_fract_x
 _atom_site_fract_y
 _atom_site_fract_z
 _atom_site_occupancy
  Pm  Pm0  1  0.753740  0.753740  0.753740  1
  Pm  Pm1  1  0.496260  0.496260  0.496260  1
  Ge  Ge2  1  0.125000  0.125000  0.125000  1
  Rh  Rh3  1  0.625000  0.125000  0.125000  1
  Rh  Rh4  1  0.125000  0.625000  0.125000  1
  Rh  Rh5  1  0.125000  0.125000  0.625000  1
