# generated using pymatgen
data_Pa2Nb(Ni10B3)2
_symmetry_space_group_name_H-M   'P 1'
_cell_length_a   7.59775625
_cell_length_b   7.59775528
_cell_length_c   7.59775600
_cell_angle_alpha   59.99999687
_cell_angle_beta   60.00000110
_cell_angle_gamma   59.99999902
_symmetry_Int_Tables_number   1
_chemical_formula_structural   Pa2Nb(Ni10B3)2
_chemical_formula_sum   'Pa2 Nb1 Ni20 B6'
_cell_volume   310.12800987
_cell_formula_units_Z   1
loop_
 _symmetry_equiv_pos_site_id
 _symmetry_equiv_pos_as_xyz
  1  'x, y, z'
loop_
 _atom_site_type_symbol
 _atom_site_label
 _atom_site_symmetry_multiplicity
 _atom_site_fract_x
 _atom_site_fract_y
 _atom_site_fract_z
 _atom_site_occupancy
  Pa  Pa0  1  0.250000  0.250000  0.250000  1
  Pa  Pa1  1  0.750000  0.750000  0.750000  1
  Nb  Nb2  1  0.000000  0.000000  0.000000  1
  Ni  Ni3  1  0.386844  0.386844  0.386844  1
  Ni  Ni4  1  0.613156  0.613156  0.613156  1
  Ni  Ni5  1  0.386844  0.386844  0.839469  1
  Ni  Ni6  1  0.386844  0.839469  0.386844  1
  Ni  Ni7  1  0.613156  0.613156  0.160531  1
  Ni  Ni8  1  0.613156  0.160531  0.613156  1
  Ni  Ni9  1  0.839469  0.386844  0.386844  1
  Ni  Ni10  1  0.160531  0.613156  0.613156  1
  Ni  Ni11  1  0.342825  0.000000  0.000000  1
  Ni  Ni12  1  0.657175  0.000000  0.000000  1
  Ni  Ni13  1  0.000000  0.342825  0.657175  1
  Ni  Ni14  1  0.000000  0.657175  0.342825  1
  Ni  Ni15  1  0.000000  0.342825  0.000000  1
  Ni  Ni16  1  0.657175  0.000000  0.342825  1
  Ni  Ni17  1  0.000000  0.657175  0.000000  1
  Ni  Ni18  1  0.342825  0.000000  0.657175  1
  Ni  Ni19  1  0.000000  0.000000  0.342825  1
  Ni  Ni20  1  0.000000  0.000000  0.657175  1
  Ni  Ni21  1  0.657175  0.342825  0.000000  1
  Ni  Ni22  1  0.342825  0.657175  0.000000  1
  B  B23  1  0.735033  0.264967  0.264967  1
  B  B24  1  0.264967  0.735033  0.735033  1
  B  B25  1  0.264967  0.735033  0.264967  1
  B  B26  1  0.735033  0.264967  0.735033  1
  B  B27  1  0.264967  0.264967  0.735033  1
  B  B28  1  0.735033  0.735033  0.264967  1
