# generated using pymatgen
data_YbPr4TmSi4
_symmetry_space_group_name_H-M   'P 1'
_cell_length_a   7.65150400
_cell_length_b   7.65150400
_cell_length_c   4.43748200
_cell_angle_alpha   90.00000000
_cell_angle_beta   90.00000000
_cell_angle_gamma   90.00000000
_symmetry_Int_Tables_number   1
_chemical_formula_structural   YbPr4TmSi4
_chemical_formula_sum   'Yb1 Pr4 Tm1 Si4'
_cell_volume   259.79466217
_cell_formula_units_Z   1
loop_
 _symmetry_equiv_pos_site_id
 _symmetry_equiv_pos_as_xyz
  1  'x, y, z'
loop_
 _atom_site_type_symbol
 _atom_site_label
 _atom_site_symmetry_multiplicity
 _atom_site_fract_x
 _atom_site_fract_y
 _atom_site_fract_z
 _atom_site_occupancy
  Yb  Yb0  1  0.500000  0.500000  0.000000  1
  Pr  Pr1  1  0.676670  0.179848  0.500000  1
  Pr  Pr2  1  0.323330  0.820152  0.500000  1
  Pr  Pr3  1  0.179848  0.323330  0.500000  1
  Pr  Pr4  1  0.820152  0.676670  0.500000  1
  Tm  Tm5  1  0.000000  0.000000  0.000000  1
  Si  Si6  1  0.105395  0.619541  0.000000  1
  Si  Si7  1  0.894605  0.380459  0.000000  1
  Si  Si8  1  0.619541  0.894605  0.000000  1
  Si  Si9  1  0.380459  0.105395  0.000000  1
