# generated using pymatgen
data_Fe6Co2Ge
_symmetry_space_group_name_H-M   'P 1'
_cell_length_a   4.02666700
_cell_length_b   4.02666646
_cell_length_c   7.46125600
_cell_angle_alpha   90.00000000
_cell_angle_beta   90.00000000
_cell_angle_gamma   120.00001267
_symmetry_Int_Tables_number   1
_chemical_formula_structural   Fe6Co2Ge
_chemical_formula_sum   'Fe6 Co2 Ge1'
_cell_volume   104.76926326
_cell_formula_units_Z   1
loop_
 _symmetry_equiv_pos_site_id
 _symmetry_equiv_pos_as_xyz
  1  'x, y, z'
loop_
 _atom_site_type_symbol
 _atom_site_label
 _atom_site_symmetry_multiplicity
 _atom_site_fract_x
 _atom_site_fract_y
 _atom_site_fract_z
 _atom_site_occupancy
  Fe  Fe0  1  0.000000  0.000000  0.995693  1
  Fe  Fe1  1  0.000000  0.000000  0.334903  1
  Fe  Fe2  1  0.666666  0.333333  0.449431  1
  Fe  Fe3  1  0.333333  0.666666  0.554717  1
  Fe  Fe4  1  0.000000  0.000000  0.668159  1
  Fe  Fe5  1  0.333333  0.666666  0.888597  1
  Co  Co6  1  0.333333  0.666666  0.224764  1
  Co  Co7  1  0.666666  0.333333  0.773886  1
  Ge  Ge8  1  0.666666  0.333333  0.109847  1
