# generated using pymatgen
data_Ho4Ti5Co9
_symmetry_space_group_name_H-M   'P 1'
_cell_length_a   11.82694467
_cell_length_b   11.82694408
_cell_length_c   11.82694536
_cell_angle_alpha   26.05494909
_cell_angle_beta   26.05495520
_cell_angle_gamma   26.05495669
_symmetry_Int_Tables_number   1
_chemical_formula_structural   Ho4Ti5Co9
_chemical_formula_sum   'Ho4 Ti5 Co9'
_cell_volume   281.15937546
_cell_formula_units_Z   1
loop_
 _symmetry_equiv_pos_site_id
 _symmetry_equiv_pos_as_xyz
  1  'x, y, z'
loop_
 _atom_site_type_symbol
 _atom_site_label
 _atom_site_symmetry_multiplicity
 _atom_site_fract_x
 _atom_site_fract_y
 _atom_site_fract_z
 _atom_site_occupancy
  Ho  Ho0  1  0.952289  0.952289  0.952289  1
  Ho  Ho1  1  0.047711  0.047711  0.047711  1
  Ho  Ho2  1  0.855589  0.855589  0.855589  1
  Ho  Ho3  1  0.144411  0.144411  0.144411  1
  Ti  Ti4  1  0.500000  0.500000  0.500000  1
  Ti  Ti5  1  0.722099  0.722099  0.722099  1
  Ti  Ti6  1  0.277901  0.277901  0.277901  1
  Ti  Ti7  1  0.608150  0.608150  0.608150  1
  Ti  Ti8  1  0.391850  0.391850  0.391850  1
  Co  Co9  1  0.500000  0.500000  0.000000  1
  Co  Co10  1  0.000000  0.500000  0.500000  1
  Co  Co11  1  0.500000  0.000000  0.500000  1
  Co  Co12  1  0.382389  0.901432  0.382389  1
  Co  Co13  1  0.382389  0.382389  0.901432  1
  Co  Co14  1  0.901432  0.382389  0.382389  1
  Co  Co15  1  0.617611  0.098568  0.617611  1
  Co  Co16  1  0.617611  0.617611  0.098568  1
  Co  Co17  1  0.098568  0.617611  0.617611  1
