# generated using pymatgen
data_Dy4Ga4IrAu3
_symmetry_space_group_name_H-M   'P 1'
_cell_length_a   4.46710600
_cell_length_b   7.09254147
_cell_length_c   7.77899445
_cell_angle_alpha   89.51772088
_cell_angle_beta   90.00000000
_cell_angle_gamma   90.00000000
_symmetry_Int_Tables_number   1
_chemical_formula_structural   Dy4Ga4IrAu3
_chemical_formula_sum   'Dy4 Ga4 Ir1 Au3'
_cell_volume   246.45419691
_cell_formula_units_Z   1
loop_
 _symmetry_equiv_pos_site_id
 _symmetry_equiv_pos_as_xyz
  1  'x, y, z'
loop_
 _atom_site_type_symbol
 _atom_site_label
 _atom_site_symmetry_multiplicity
 _atom_site_fract_x
 _atom_site_fract_y
 _atom_site_fract_z
 _atom_site_occupancy
  Dy  Dy0  1  0.250000  0.005641  0.296860  1
  Dy  Dy1  1  0.250000  0.488642  0.212561  1
  Dy  Dy2  1  0.750000  0.014964  0.696368  1
  Dy  Dy3  1  0.750000  0.502184  0.790473  1
  Ga  Ga4  1  0.250000  0.310803  0.576212  1
  Ga  Ga5  1  0.250000  0.812435  0.917176  1
  Ga  Ga6  1  0.750000  0.676490  0.418113  1
  Ga  Ga7  1  0.750000  0.197097  0.090818  1
  Ir  Ir8  1  0.750000  0.279911  0.412639  1
  Au  Au9  1  0.250000  0.211496  0.910194  1
  Au  Au10  1  0.250000  0.717221  0.588926  1
  Au  Au11  1  0.750000  0.783115  0.089660  1
