# generated using pymatgen
data_Ho4Tm8Co5Sb
_symmetry_space_group_name_H-M   'P 1'
_cell_length_a   8.17992883
_cell_length_b   8.17992388
_cell_length_c   8.17992783
_cell_angle_alpha   110.92058327
_cell_angle_beta   110.78843207
_cell_angle_gamma   106.73876860
_symmetry_Int_Tables_number   1
_chemical_formula_structural   Ho4Tm8Co5Sb
_chemical_formula_sum   'Ho4 Tm8 Co5 Sb1'
_cell_volume   420.61878913
_cell_formula_units_Z   1
loop_
 _symmetry_equiv_pos_site_id
 _symmetry_equiv_pos_as_xyz
  1  'x, y, z'
loop_
 _atom_site_type_symbol
 _atom_site_label
 _atom_site_symmetry_multiplicity
 _atom_site_fract_x
 _atom_site_fract_y
 _atom_site_fract_z
 _atom_site_occupancy
  Ho  Ho0  1  0.286547  0.185294  0.471835  1
  Ho  Ho1  1  0.713453  0.814706  0.528165  1
  Ho  Ho2  1  0.286541  0.814706  0.101253  1
  Ho  Ho3  1  0.713459  0.185294  0.898747  1
  Tm  Tm4  1  0.620375  0.312575  0.307799  1
  Tm  Tm5  1  0.379625  0.687425  0.692201  1
  Tm  Tm6  1  0.004775  0.312575  0.692199  1
  Tm  Tm7  1  0.995225  0.687425  0.307801  1
  Tm  Tm8  1  0.211488  0.405710  0.194223  1
  Tm  Tm9  1  0.788512  0.594290  0.805777  1
  Tm  Tm10  1  0.211488  0.017260  0.805772  1
  Tm  Tm11  1  0.788512  0.982740  0.194228  1
  Co  Co12  1  0.000002  0.373882  0.373880  1
  Co  Co13  1  0.999998  0.626118  0.626120  1
  Co  Co14  1  0.387225  0.887226  0.500001  1
  Co  Co15  1  0.612775  0.112774  0.499999  1
  Co  Co16  1  0.000000  0.000000  0.000000  1
  Sb  Sb17  1  0.500000  0.500000  0.000000  1
