# generated using pymatgen
data_Ho2Er6Re3B24Rh
_symmetry_space_group_name_H-M   'P 1'
_cell_length_a   3.65855200
_cell_length_b   9.12899966
_cell_length_c   11.50403102
_cell_angle_alpha   90.15926994
_cell_angle_beta   90.00000000
_cell_angle_gamma   90.00000000
_symmetry_Int_Tables_number   1
_chemical_formula_structural   Ho2Er6Re3B24Rh
_chemical_formula_sum   'Ho2 Er6 Re3 B24 Rh1'
_cell_volume   384.22072665
_cell_formula_units_Z   1
loop_
 _symmetry_equiv_pos_site_id
 _symmetry_equiv_pos_as_xyz
  1  'x, y, z'
loop_
 _atom_site_type_symbol
 _atom_site_label
 _atom_site_symmetry_multiplicity
 _atom_site_fract_x
 _atom_site_fract_y
 _atom_site_fract_z
 _atom_site_occupancy
  Ho  Ho0  1  0.000000  0.318175  0.415473  1
  Ho  Ho1  1  0.000000  0.678384  0.591211  1
  Er  Er2  1  0.000000  0.827064  0.081219  1
  Er  Er3  1  0.000000  0.177494  0.912730  1
  Er  Er4  1  0.000000  0.943309  0.370072  1
  Er  Er5  1  0.000000  0.055840  0.628915  1
  Er  Er6  1  0.000000  0.441351  0.128706  1
  Er  Er7  1  0.000000  0.556663  0.871843  1
  Re  Re8  1  0.000000  0.362324  0.677945  1
  Re  Re9  1  0.000000  0.138246  0.179817  1
  Re  Re10  1  0.000000  0.861686  0.820955  1
  B  B11  1  0.500000  0.553961  0.433743  1
  B  B12  1  0.500000  0.446678  0.566516  1
  B  B13  1  0.500000  0.053325  0.066297  1
  B  B14  1  0.500000  0.947348  0.932967  1
  B  B15  1  0.500000  0.749329  0.420256  1
  B  B16  1  0.500000  0.250115  0.580856  1
  B  B17  1  0.500000  0.249630  0.080943  1
  B  B18  1  0.500000  0.751476  0.919277  1
  B  B19  1  0.500000  0.791421  0.264835  1
  B  B20  1  0.500000  0.208032  0.734354  1
  B  B21  1  0.500000  0.292072  0.235204  1
  B  B22  1  0.500000  0.707919  0.765899  1
  B  B23  1  0.500000  0.631909  0.183760  1
  B  B24  1  0.500000  0.369392  0.814600  1
  B  B25  1  0.500000  0.130553  0.315062  1
  B  B26  1  0.500000  0.868675  0.685262  1
  B  B27  1  0.500000  0.982360  0.211909  1
  B  B28  1  0.500000  0.017886  0.787092  1
  B  B29  1  0.500000  0.483038  0.287828  1
  B  B30  1  0.500000  0.518424  0.712606  1
  B  B31  1  0.500000  0.603872  0.029379  1
  B  B32  1  0.500000  0.397523  0.972137  1
  B  B33  1  0.500000  0.101152  0.471197  1
  B  B34  1  0.500000  0.895429  0.528118  1
  Rh  Rh35  1  0.000000  0.637947  0.321013  1
