# generated using pymatgen
data_Y6HoAu10
_symmetry_space_group_name_H-M   'P 1'
_cell_length_a   8.76782900
_cell_length_b   8.76782932
_cell_length_c   10.44457400
_cell_angle_alpha   90.00000000
_cell_angle_beta   90.00000000
_cell_angle_gamma   107.09544396
_symmetry_Int_Tables_number   1
_chemical_formula_structural   Y6HoAu10
_chemical_formula_sum   'Y12 Ho2 Au20'
_cell_volume   767.44871689
_cell_formula_units_Z   2
loop_
 _symmetry_equiv_pos_site_id
 _symmetry_equiv_pos_as_xyz
  1  'x, y, z'
loop_
 _atom_site_type_symbol
 _atom_site_label
 _atom_site_symmetry_multiplicity
 _atom_site_fract_x
 _atom_site_fract_y
 _atom_site_fract_z
 _atom_site_occupancy
  Y  Y0  1  0.694005  0.305995  0.000000  1
  Y  Y1  1  0.305995  0.694005  0.000000  1
  Y  Y2  1  0.805995  0.194005  0.500000  1
  Y  Y3  1  0.194005  0.805995  0.500000  1
  Y  Y4  1  0.002708  0.502708  0.250000  1
  Y  Y5  1  0.997292  0.497292  0.750000  1
  Y  Y6  1  0.497292  0.997292  0.750000  1
  Y  Y7  1  0.502708  0.002708  0.250000  1
  Y  Y8  1  0.312615  0.312615  0.188348  1
  Y  Y9  1  0.687385  0.687385  0.811652  1
  Y  Y10  1  0.187385  0.187385  0.688348  1
  Y  Y11  1  0.812615  0.812615  0.311652  1
  Ho  Ho12  1  0.000000  0.000000  0.000000  1
  Ho  Ho13  1  0.500000  0.500000  0.500000  1
  Au  Au14  1  0.860764  0.148664  0.208718  1
  Au  Au15  1  0.139236  0.851336  0.791282  1
  Au  Au16  1  0.639236  0.351336  0.708718  1
  Au  Au17  1  0.648664  0.360764  0.291282  1
  Au  Au18  1  0.360764  0.648664  0.291282  1
  Au  Au19  1  0.351336  0.639236  0.708718  1
  Au  Au20  1  0.851336  0.139236  0.791282  1
  Au  Au21  1  0.148664  0.860764  0.208718  1
  Au  Au22  1  0.937088  0.645977  0.002622  1
  Au  Au23  1  0.062912  0.354023  0.997378  1
  Au  Au24  1  0.562912  0.854023  0.502622  1
  Au  Au25  1  0.145977  0.437088  0.497378  1
  Au  Au26  1  0.437088  0.145977  0.497378  1
  Au  Au27  1  0.854023  0.562912  0.502622  1
  Au  Au28  1  0.354023  0.062912  0.997378  1
  Au  Au29  1  0.645977  0.937088  0.002622  1
  Au  Au30  1  0.104490  0.104490  0.397675  1
  Au  Au31  1  0.895510  0.895510  0.602325  1
  Au  Au32  1  0.395510  0.395510  0.897675  1
  Au  Au33  1  0.604490  0.604490  0.102325  1
