# generated using pymatgen
data_Tb2DyCdSn3Ir2
_symmetry_space_group_name_H-M   'P 1'
_cell_length_a   7.62608231
_cell_length_b   7.62217312
_cell_length_c   4.04732400
_cell_angle_alpha   90.00000000
_cell_angle_beta   90.00000000
_cell_angle_gamma   119.91006726
_symmetry_Int_Tables_number   1
_chemical_formula_structural   Tb2DyCdSn3Ir2
_chemical_formula_sum   'Tb2 Dy1 Cd1 Sn3 Ir2'
_cell_volume   203.92560309
_cell_formula_units_Z   1
loop_
 _symmetry_equiv_pos_site_id
 _symmetry_equiv_pos_as_xyz
  1  'x, y, z'
loop_
 _atom_site_type_symbol
 _atom_site_label
 _atom_site_symmetry_multiplicity
 _atom_site_fract_x
 _atom_site_fract_y
 _atom_site_fract_z
 _atom_site_occupancy
  Tb  Tb0  1  0.975471  0.588141  0.000000  1
  Tb  Tb1  1  0.411645  0.386761  0.000000  1
  Dy  Dy2  1  0.613946  0.025782  0.000000  1
  Cd  Cd3  1  0.333692  0.667091  0.500000  1
  Sn  Sn4  1  0.252900  0.003725  0.500000  1
  Sn  Sn5  1  0.996234  0.249123  0.500000  1
  Sn  Sn6  1  0.750841  0.747471  0.500000  1
  Ir  Ir7  1  0.665969  0.332049  0.500000  1
  Ir  Ir8  1  0.999302  0.999857  0.000000  1
