# generated using pymatgen
data_Er20Bi8Ir3Pt
_symmetry_space_group_name_H-M   'P 1'
_cell_length_a   7.95222571
_cell_length_b   8.98243600
_cell_length_c   12.38127266
_cell_angle_alpha   90.00000000
_cell_angle_beta   90.07595620
_cell_angle_gamma   90.00000000
_symmetry_Int_Tables_number   1
_chemical_formula_structural   Er20Bi8Ir3Pt
_chemical_formula_sum   'Er20 Bi8 Ir3 Pt1'
_cell_volume   884.39796763
_cell_formula_units_Z   1
loop_
 _symmetry_equiv_pos_site_id
 _symmetry_equiv_pos_as_xyz
  1  'x, y, z'
loop_
 _atom_site_type_symbol
 _atom_site_label
 _atom_site_symmetry_multiplicity
 _atom_site_fract_x
 _atom_site_fract_y
 _atom_site_fract_z
 _atom_site_occupancy
  Er  Er0  1  0.664787  0.750000  0.711076  1
  Er  Er1  1  0.337468  0.250000  0.291470  1
  Er  Er2  1  0.160768  0.250000  0.792843  1
  Er  Er3  1  0.840313  0.750000  0.206225  1
  Er  Er4  1  0.122606  0.750000  0.805636  1
  Er  Er5  1  0.878758  0.250000  0.193742  1
  Er  Er6  1  0.622228  0.250000  0.692934  1
  Er  Er7  1  0.374956  0.750000  0.304476  1
  Er  Er8  1  0.555378  0.750000  0.999839  1
  Er  Er9  1  0.443804  0.250000  0.001164  1
  Er  Er10  1  0.054095  0.250000  0.499877  1
  Er  Er11  1  0.947789  0.750000  0.499895  1
  Er  Er12  1  0.825383  0.456415  0.934341  1
  Er  Er13  1  0.174460  0.544310  0.065263  1
  Er  Er14  1  0.323584  0.540708  0.567562  1
  Er  Er15  1  0.174460  0.955690  0.065263  1
  Er  Er16  1  0.675122  0.452160  0.433369  1
  Er  Er17  1  0.825383  0.043585  0.934341  1
  Er  Er18  1  0.675122  0.047840  0.433369  1
  Er  Er19  1  0.323584  0.959292  0.567562  1
  Bi  Bi20  1  0.931607  0.010524  0.672074  1
  Bi  Bi21  1  0.067913  0.989283  0.327848  1
  Bi  Bi22  1  0.433126  0.990202  0.827521  1
  Bi  Bi23  1  0.067913  0.510717  0.327848  1
  Bi  Bi24  1  0.567476  0.009722  0.173077  1
  Bi  Bi25  1  0.931607  0.489476  0.672074  1
  Bi  Bi26  1  0.567476  0.490278  0.173077  1
  Bi  Bi27  1  0.433126  0.509798  0.827521  1
  Ir  Ir28  1  0.925909  0.750000  0.989422  1
  Ir  Ir29  1  0.074073  0.250000  0.009506  1
  Ir  Ir30  1  0.426283  0.250000  0.508840  1
  Pt  Pt31  1  0.573443  0.750000  0.490938  1
