# generated using pymatgen
data_Tb3Er(Sc3Ga4)2
_symmetry_space_group_name_H-M   'P 1'
_cell_length_a   7.28033710
_cell_length_b   7.58130242
_cell_length_c   14.46606678
_cell_angle_alpha   89.96454874
_cell_angle_beta   90.01271413
_cell_angle_gamma   90.01425855
_symmetry_Int_Tables_number   1
_chemical_formula_structural   Tb3Er(Sc3Ga4)2
_chemical_formula_sum   'Tb6 Er2 Sc12 Ga16'
_cell_volume   798.44621865
_cell_formula_units_Z   2
loop_
 _symmetry_equiv_pos_site_id
 _symmetry_equiv_pos_as_xyz
  1  'x, y, z'
loop_
 _atom_site_type_symbol
 _atom_site_label
 _atom_site_symmetry_multiplicity
 _atom_site_fract_x
 _atom_site_fract_y
 _atom_site_fract_z
 _atom_site_occupancy
  Tb  Tb0  1  0.010615  0.180111  0.094339  1
  Tb  Tb1  1  0.989385  0.819889  0.905661  1
  Tb  Tb2  1  0.489320  0.680127  0.905761  1
  Tb  Tb3  1  0.989379  0.819803  0.594334  1
  Tb  Tb4  1  0.510680  0.319873  0.094239  1
  Tb  Tb5  1  0.010621  0.180197  0.405666  1
  Er  Er6  1  0.510692  0.319606  0.405663  1
  Er  Er7  1  0.489308  0.680394  0.594337  1
  Sc  Sc8  1  0.162399  0.502917  0.749869  1
  Sc  Sc9  1  0.837601  0.497083  0.250131  1
  Sc  Sc10  1  0.338039  0.002924  0.250113  1
  Sc  Sc11  1  0.661961  0.997076  0.749887  1
  Sc  Sc12  1  0.330254  0.172829  0.624653  1
  Sc  Sc13  1  0.669746  0.827171  0.375347  1
  Sc  Sc14  1  0.170347  0.672681  0.375263  1
  Sc  Sc15  1  0.669959  0.827294  0.124880  1
  Sc  Sc16  1  0.829653  0.327319  0.624737  1
  Sc  Sc17  1  0.330041  0.172706  0.875120  1
  Sc  Sc18  1  0.830033  0.327179  0.875194  1
  Sc  Sc19  1  0.169967  0.672821  0.124806  1
  Ga  Ga20  1  0.030682  0.116161  0.749992  1
  Ga  Ga21  1  0.969318  0.883839  0.250008  1
  Ga  Ga22  1  0.469380  0.615966  0.250111  1
  Ga  Ga23  1  0.530620  0.384034  0.749889  1
  Ga  Ga24  1  0.283768  0.870585  0.749847  1
  Ga  Ga25  1  0.716232  0.129415  0.250153  1
  Ga  Ga26  1  0.216795  0.370746  0.250232  1
  Ga  Ga27  1  0.783205  0.629254  0.749768  1
  Ga  Ga28  1  0.163360  0.465477  0.540484  1
  Ga  Ga29  1  0.836640  0.534523  0.459516  1
  Ga  Ga30  1  0.337794  0.965381  0.459638  1
  Ga  Ga31  1  0.837438  0.534776  0.040384  1
  Ga  Ga32  1  0.662206  0.034619  0.540362  1
  Ga  Ga33  1  0.162562  0.465224  0.959616  1
  Ga  Ga34  1  0.662528  0.034864  0.959588  1
  Ga  Ga35  1  0.337472  0.965136  0.040412  1
