# generated using pymatgen
data_AcHo(SnIr)2
_symmetry_space_group_name_H-M   'P 1'
_cell_length_a   7.55224800
_cell_length_b   7.55223881
_cell_length_c   8.41632200
_cell_angle_alpha   89.99984951
_cell_angle_beta   89.99996746
_cell_angle_gamma   119.99969137
_symmetry_Int_Tables_number   1
_chemical_formula_structural   AcHo(SnIr)2
_chemical_formula_sum   'Ac3 Ho3 Sn6 Ir6'
_cell_volume   415.72513426
_cell_formula_units_Z   3
loop_
 _symmetry_equiv_pos_site_id
 _symmetry_equiv_pos_as_xyz
  1  'x, y, z'
loop_
 _atom_site_type_symbol
 _atom_site_label
 _atom_site_symmetry_multiplicity
 _atom_site_fract_x
 _atom_site_fract_y
 _atom_site_fract_z
 _atom_site_occupancy
  Ac  Ac0  1  0.587480  0.587470  0.750002  1
  Ac  Ac1  1  0.999984  0.412522  0.749998  1
  Ac  Ac2  1  0.412534  0.000007  0.750001  1
  Ho  Ho3  1  0.403564  0.999912  0.249997  1
  Ho  Ho4  1  0.596350  0.596443  0.249996  1
  Ho  Ho5  1  0.000090  0.403656  0.250001  1
  Sn  Sn6  1  0.252671  0.252602  0.485503  1
  Sn  Sn7  1  0.252671  0.252607  0.014499  1
  Sn  Sn8  1  0.747397  0.000074  0.014494  1
  Sn  Sn9  1  0.999927  0.747318  0.485504  1
  Sn  Sn10  1  0.747395  0.000066  0.485502  1
  Sn  Sn11  1  0.999934  0.747329  0.014500  1
  Ir  Ir12  1  0.666662  0.333330  0.475775  1
  Ir  Ir13  1  0.666667  0.333334  0.024225  1
  Ir  Ir14  1  0.333337  0.666667  0.024028  1
  Ir  Ir15  1  0.333335  0.666667  0.475974  1
  Ir  Ir16  1  0.000000  0.999995  0.750002  1
  Ir  Ir17  1  0.000003  0.000002  0.249999  1
