# generated using pymatgen
data_Ho2Co9Si3Tc3As4
_symmetry_space_group_name_H-M   'P 1'
_cell_length_a   3.77717300
_cell_length_b   9.27994646
_cell_length_c   9.28073400
_cell_angle_alpha   120.11979787
_cell_angle_beta   90.00000000
_cell_angle_gamma   90.00000000
_symmetry_Int_Tables_number   1
_chemical_formula_structural   Ho2Co9Si3Tc3As4
_chemical_formula_sum   'Ho2 Co9 Si3 Tc3 As4'
_cell_volume   281.38424239
_cell_formula_units_Z   1
loop_
 _symmetry_equiv_pos_site_id
 _symmetry_equiv_pos_as_xyz
  1  'x, y, z'
loop_
 _atom_site_type_symbol
 _atom_site_label
 _atom_site_symmetry_multiplicity
 _atom_site_fract_x
 _atom_site_fract_y
 _atom_site_fract_z
 _atom_site_occupancy
  Ho  Ho0  1  0.000000  0.661406  0.327157  1
  Ho  Ho1  1  0.500000  0.335563  0.667892  1
  Co  Co2  1  0.000000  0.573141  0.946783  1
  Co  Co3  1  0.000000  0.373836  0.427411  1
  Co  Co4  1  0.000000  0.059486  0.628316  1
  Co  Co5  1  0.000000  0.873809  0.155776  1
  Co  Co6  1  0.000000  0.281235  0.126193  1
  Co  Co7  1  0.000000  0.844848  0.721331  1
  Co  Co8  1  0.500000  0.946512  0.380381  1
  Co  Co9  1  0.500000  0.437686  0.056197  1
  Co  Co10  1  0.500000  0.614567  0.562944  1
  Si  Si11  1  0.000000  0.000239  0.001611  1
  Si  Si12  1  0.500000  0.708736  0.115437  1
  Si  Si13  1  0.500000  0.406131  0.290894  1
  Tc  Tc14  1  0.500000  0.786912  0.905266  1
  Tc  Tc15  1  0.500000  0.116421  0.212584  1
  Tc  Tc16  1  0.500000  0.096501  0.883889  1
  As  As17  1  0.500000  0.879662  0.587537  1
  As  As18  1  0.000000  0.588787  0.702907  1
  As  As19  1  0.000000  0.114258  0.410156  1
  As  As20  1  0.000000  0.300265  0.889337  1
