# generated using pymatgen
data_KGdTe3O8
_symmetry_space_group_name_H-M   'P 1'
_cell_length_a   6.10171532
_cell_length_b   7.69698865
_cell_length_c   11.60312116
_cell_angle_alpha   101.46962868
_cell_angle_beta   89.71704329
_cell_angle_gamma   108.06383184
_symmetry_Int_Tables_number   1
_chemical_formula_structural   KGdTe3O8
_chemical_formula_sum   'K2 Gd2 Te6 O16'
_cell_volume   506.79193874
_cell_formula_units_Z   2
loop_
 _symmetry_equiv_pos_site_id
 _symmetry_equiv_pos_as_xyz
  1  'x, y, z'
loop_
 _atom_site_type_symbol
 _atom_site_label
 _atom_site_symmetry_multiplicity
 _atom_site_fract_x
 _atom_site_fract_y
 _atom_site_fract_z
 _atom_site_occupancy
  K  K0  1  0.843729  0.121334  0.172452  1
  K  K1  1  0.156271  0.878666  0.827548  1
  Gd  Gd2  1  0.500000  0.500000  0.000000  1
  Gd  Gd3  1  0.000000  0.500000  0.500000  1
  Te  Te4  1  0.217353  0.997896  0.420128  1
  Te  Te5  1  0.782647  0.002104  0.579872  1
  Te  Te6  1  0.072700  0.691642  0.150859  1
  Te  Te7  1  0.927300  0.308358  0.849141  1
  Te  Te8  1  0.512373  0.521297  0.336071  1
  Te  Te9  1  0.487627  0.478703  0.663929  1
  O  O10  1  0.188906  0.744845  0.416369  1
  O  O11  1  0.811094  0.255155  0.583631  1
  O  O12  1  0.234337  0.944922  0.235236  1
  O  O13  1  0.765663  0.055078  0.764764  1
  O  O14  1  0.895211  0.971077  0.396951  1
  O  O15  1  0.104789  0.028923  0.603049  1
  O  O16  1  0.258511  0.688769  0.019997  1
  O  O17  1  0.741489  0.311231  0.980003  1
  O  O18  1  0.826157  0.746545  0.084741  1
  O  O19  1  0.173843  0.253455  0.915259  1
  O  O20  1  0.389658  0.434474  0.178431  1
  O  O21  1  0.610342  0.565526  0.821569  1
  O  O22  1  0.263542  0.366535  0.407201  1
  O  O23  1  0.736458  0.633465  0.592799  1
  O  O24  1  0.730076  0.391303  0.337208  1
  O  O25  1  0.269924  0.608697  0.662792  1
