# generated using pymatgen
data_Ho5Er5(Bi2Ru)2
_symmetry_space_group_name_H-M   'P 1'
_cell_length_a   7.92089589
_cell_length_b   8.98047200
_cell_length_c   12.40161302
_cell_angle_alpha   90.00000000
_cell_angle_beta   90.05251915
_cell_angle_gamma   90.00000000
_symmetry_Int_Tables_number   1
_chemical_formula_structural   Ho5Er5(Bi2Ru)2
_chemical_formula_sum   'Ho10 Er10 Bi8 Ru4'
_cell_volume   882.16832753
_cell_formula_units_Z   2
loop_
 _symmetry_equiv_pos_site_id
 _symmetry_equiv_pos_as_xyz
  1  'x, y, z'
loop_
 _atom_site_type_symbol
 _atom_site_label
 _atom_site_symmetry_multiplicity
 _atom_site_fract_x
 _atom_site_fract_y
 _atom_site_fract_z
 _atom_site_occupancy
  Ho  Ho0  1  0.843003  0.250000  0.792606  1
  Ho  Ho1  1  0.156997  0.750000  0.207394  1
  Ho  Ho2  1  0.878811  0.750000  0.808741  1
  Ho  Ho3  1  0.121189  0.250000  0.191259  1
  Ho  Ho4  1  0.378586  0.250000  0.691282  1
  Ho  Ho5  1  0.621414  0.750000  0.308718  1
  Ho  Ho6  1  0.055117  0.750000  0.495997  1
  Ho  Ho7  1  0.944883  0.250000  0.504003  1
  Ho  Ho8  1  0.554825  0.250000  0.003924  1
  Ho  Ho9  1  0.445175  0.750000  0.996076  1
  Er  Er10  1  0.343650  0.750000  0.706679  1
  Er  Er11  1  0.656350  0.250000  0.293321  1
  Er  Er12  1  0.674544  0.542074  0.564117  1
  Er  Er13  1  0.325456  0.457926  0.435883  1
  Er  Er14  1  0.174741  0.458083  0.935852  1
  Er  Er15  1  0.325456  0.042074  0.435883  1
  Er  Er16  1  0.825259  0.541917  0.064148  1
  Er  Er17  1  0.674544  0.957926  0.564117  1
  Er  Er18  1  0.825259  0.958083  0.064148  1
  Er  Er19  1  0.174741  0.041917  0.935852  1
  Bi  Bi20  1  0.569713  0.507698  0.827668  1
  Bi  Bi21  1  0.430287  0.492302  0.172332  1
  Bi  Bi22  1  0.070402  0.492843  0.672301  1
  Bi  Bi23  1  0.430287  0.007698  0.172332  1
  Bi  Bi24  1  0.929598  0.507157  0.327699  1
  Bi  Bi25  1  0.569713  0.992302  0.827668  1
  Bi  Bi26  1  0.929598  0.992843  0.327699  1
  Bi  Bi27  1  0.070402  0.007157  0.672301  1
  Ru  Ru28  1  0.072436  0.750000  0.990276  1
  Ru  Ru29  1  0.927564  0.250000  0.009724  1
  Ru  Ru30  1  0.572595  0.250000  0.509783  1
  Ru  Ru31  1  0.427405  0.750000  0.490217  1
