# generated using pymatgen
data_Y5LuAl24(Os3Pt)2
_symmetry_space_group_name_H-M   'P 1'
_cell_length_a   8.81381134
_cell_length_b   8.80249614
_cell_length_c   9.57968367
_cell_angle_alpha   90.05862400
_cell_angle_beta   90.12967666
_cell_angle_gamma   119.50490081
_symmetry_Int_Tables_number   1
_chemical_formula_structural   Y5LuAl24(Os3Pt)2
_chemical_formula_sum   'Y5 Lu1 Al24 Os6 Pt2'
_cell_volume   646.83587099
_cell_formula_units_Z   1
loop_
 _symmetry_equiv_pos_site_id
 _symmetry_equiv_pos_as_xyz
  1  'x, y, z'
loop_
 _atom_site_type_symbol
 _atom_site_label
 _atom_site_symmetry_multiplicity
 _atom_site_fract_x
 _atom_site_fract_y
 _atom_site_fract_z
 _atom_site_occupancy
  Y  Y0  1  0.810134  0.612430  0.747085  1
  Y  Y1  1  0.616890  0.809713  0.252147  1
  Y  Y2  1  0.383832  0.190126  0.747772  1
  Y  Y3  1  0.189779  0.805787  0.252068  1
  Y  Y4  1  0.809487  0.193379  0.747878  1
  Lu  Lu5  1  0.191194  0.393177  0.254358  1
  Al  Al6  1  0.328675  0.664589  0.027074  1
  Al  Al7  1  0.671550  0.334735  0.974461  1
  Al  Al8  1  0.666547  0.332244  0.523256  1
  Al  Al9  1  0.333476  0.667651  0.475798  1
  Al  Al10  1  0.164547  0.327909  0.573966  1
  Al  Al11  1  0.834995  0.671171  0.424421  1
  Al  Al12  1  0.672163  0.835768  0.574192  1
  Al  Al13  1  0.841694  0.674457  0.078056  1
  Al  Al14  1  0.326912  0.164106  0.424620  1
  Al  Al15  1  0.158386  0.325144  0.923726  1
  Al  Al16  1  0.164703  0.836059  0.575723  1
  Al  Al17  1  0.323149  0.162936  0.079837  1
  Al  Al18  1  0.835828  0.163673  0.423190  1
  Al  Al19  1  0.675909  0.837167  0.921184  1
  Al  Al20  1  0.842195  0.168278  0.079238  1
  Al  Al21  1  0.159039  0.831630  0.921954  1
  Al  Al22  1  0.561431  0.125276  0.251675  1
  Al  Al23  1  0.438161  0.874152  0.747984  1
  Al  Al24  1  0.876224  0.439371  0.249017  1
  Al  Al25  1  0.123712  0.559405  0.750916  1
  Al  Al26  1  0.561192  0.437419  0.251850  1
  Al  Al27  1  0.436990  0.561704  0.747512  1
  Al  Al28  1  0.000428  0.006472  0.250403  1
  Al  Al29  1  0.002338  0.998536  0.749655  1
  Os  Os30  1  0.000692  0.499483  0.000922  1
  Os  Os31  1  0.499794  0.999779  0.499793  1
  Os  Os32  1  0.000628  0.499296  0.498898  1
  Os  Os33  1  0.498851  0.499404  0.499064  1
  Os  Os34  1  0.999695  0.999249  0.000040  1
  Os  Os35  1  0.999572  0.999139  0.500084  1
  Pt  Pt36  1  0.499786  0.999615  0.999906  1
  Pt  Pt37  1  0.499423  0.499573  0.000278  1
