# generated using pymatgen
data_Zr8In4FeCu5Au2
_symmetry_space_group_name_H-M   'P 1'
_cell_length_a   7.34975438
_cell_length_b   7.38161923
_cell_length_c   6.93280117
_cell_angle_alpha   90.04962994
_cell_angle_beta   90.08514613
_cell_angle_gamma   90.86545666
_symmetry_Int_Tables_number   1
_chemical_formula_structural   Zr8In4FeCu5Au2
_chemical_formula_sum   'Zr8 In4 Fe1 Cu5 Au2'
_cell_volume   376.08240152
_cell_formula_units_Z   1
loop_
 _symmetry_equiv_pos_site_id
 _symmetry_equiv_pos_as_xyz
  1  'x, y, z'
loop_
 _atom_site_type_symbol
 _atom_site_label
 _atom_site_symmetry_multiplicity
 _atom_site_fract_x
 _atom_site_fract_y
 _atom_site_fract_z
 _atom_site_occupancy
  Zr  Zr0  1  0.162624  0.172912  0.010176  1
  Zr  Zr1  1  0.840960  0.853552  0.995727  1
  Zr  Zr2  1  0.643629  0.343859  0.488876  1
  Zr  Zr3  1  0.351142  0.634615  0.488370  1
  Zr  Zr4  1  0.678447  0.309563  0.006482  1
  Zr  Zr5  1  0.314820  0.669002  0.006458  1
  Zr  Zr6  1  0.797464  0.805999  0.499777  1
  Zr  Zr7  1  0.199875  0.207054  0.492844  1
  In  In8  1  0.505631  0.000761  0.244823  1
  In  In9  1  0.505908  0.998217  0.752472  1
  In  In10  1  0.994857  0.496269  0.246155  1
  In  In11  1  0.991603  0.494732  0.751403  1
  Fe  Fe12  1  0.379921  0.377741  0.227691  1
  Cu  Cu13  1  0.624173  0.620453  0.792113  1
  Cu  Cu14  1  0.628985  0.625331  0.200836  1
  Cu  Cu15  1  0.873252  0.130754  0.704048  1
  Cu  Cu16  1  0.873459  0.128112  0.296976  1
  Cu  Cu17  1  0.381504  0.375540  0.792628  1
  Au  Au18  1  0.124085  0.877680  0.288374  1
  Au  Au19  1  0.127662  0.877853  0.713772  1
