# generated using pymatgen
data_Ho4ErB(WC3)2
_symmetry_space_group_name_H-M   'P 1'
_cell_length_a   8.39012916
_cell_length_b   8.39012903
_cell_length_c   3.40769100
_cell_angle_alpha   90.00000000
_cell_angle_beta   90.00000000
_cell_angle_gamma   122.50428771
_symmetry_Int_Tables_number   1
_chemical_formula_structural   Ho4ErB(WC3)2
_chemical_formula_sum   'Ho4 Er1 B1 W2 C6'
_cell_volume   202.30470277
_cell_formula_units_Z   1
loop_
 _symmetry_equiv_pos_site_id
 _symmetry_equiv_pos_as_xyz
  1  'x, y, z'
loop_
 _atom_site_type_symbol
 _atom_site_label
 _atom_site_symmetry_multiplicity
 _atom_site_fract_x
 _atom_site_fract_y
 _atom_site_fract_z
 _atom_site_occupancy
  Ho  Ho0  1  0.076839  0.326338  0.500000  1
  Ho  Ho1  1  0.923161  0.673662  0.500000  1
  Ho  Ho2  1  0.673662  0.923161  0.500000  1
  Ho  Ho3  1  0.326338  0.076839  0.500000  1
  Er  Er4  1  0.500000  0.500000  0.000000  1
  B  B5  1  0.000000  0.000000  0.000000  1
  W  W6  1  0.712512  0.287488  0.000000  1
  W  W7  1  0.287488  0.712512  0.000000  1
  C  C8  1  0.626723  0.373277  0.500000  1
  C  C9  1  0.373277  0.626723  0.500000  1
  C  C10  1  0.183024  0.183024  0.000000  1
  C  C11  1  0.816976  0.816976  0.000000  1
  C  C12  1  0.000000  0.500000  0.000000  1
  C  C13  1  0.500000  0.000000  0.000000  1
