# generated using pymatgen
data_NaHf2V3O12
_symmetry_space_group_name_H-M   'P 1'
_cell_length_a   9.41267110
_cell_length_b   9.41267034
_cell_length_c   9.41267000
_cell_angle_alpha   59.00864636
_cell_angle_beta   59.00864203
_cell_angle_gamma   59.00864165
_symmetry_Int_Tables_number   1
_chemical_formula_structural   NaHf2V3O12
_chemical_formula_sum   'Na2 Hf4 V6 O24'
_cell_volume   576.35557021
_cell_formula_units_Z   2
loop_
 _symmetry_equiv_pos_site_id
 _symmetry_equiv_pos_as_xyz
  1  'x, y, z'
loop_
 _atom_site_type_symbol
 _atom_site_label
 _atom_site_symmetry_multiplicity
 _atom_site_fract_x
 _atom_site_fract_y
 _atom_site_fract_z
 _atom_site_occupancy
  Na  Na0  1  0.000000  0.000000  0.000000  1
  Na  Na1  1  0.500000  0.500000  0.500000  1
  Hf  Hf2  1  0.859754  0.859754  0.859754  1
  Hf  Hf3  1  0.640246  0.640246  0.640246  1
  Hf  Hf4  1  0.359754  0.359754  0.359754  1
  Hf  Hf5  1  0.140246  0.140246  0.140246  1
  V  V6  1  0.750000  0.038977  0.461023  1
  V  V7  1  0.961023  0.538977  0.250000  1
  V  V8  1  0.038977  0.461023  0.750000  1
  V  V9  1  0.250000  0.961023  0.538977  1
  V  V10  1  0.461023  0.750000  0.038977  1
  V  V11  1  0.538977  0.250000  0.961023  1
  O  O12  1  0.869453  0.501991  0.694706  1
  O  O13  1  0.263253  0.924125  0.059531  1
  O  O14  1  0.805294  0.998009  0.630547  1
  O  O15  1  0.575875  0.236747  0.440469  1
  O  O16  1  0.130547  0.498009  0.305294  1
  O  O17  1  0.924125  0.059531  0.263253  1
  O  O18  1  0.736747  0.075875  0.940469  1
  O  O19  1  0.763253  0.559531  0.424125  1
  O  O20  1  0.424125  0.763253  0.559531  1
  O  O21  1  0.501991  0.694706  0.869453  1
  O  O22  1  0.075875  0.940469  0.736747  1
  O  O23  1  0.194706  0.001991  0.369453  1
  O  O24  1  0.001991  0.369453  0.194706  1
  O  O25  1  0.369453  0.194706  0.001991  1
  O  O26  1  0.940469  0.736747  0.075875  1
  O  O27  1  0.498009  0.305294  0.130547  1
  O  O28  1  0.236747  0.440469  0.575875  1
  O  O29  1  0.630547  0.805294  0.998009  1
  O  O30  1  0.998009  0.630547  0.805294  1
  O  O31  1  0.440469  0.575875  0.236747  1
  O  O32  1  0.559531  0.424125  0.763253  1
  O  O33  1  0.694706  0.869453  0.501991  1
  O  O34  1  0.305294  0.130547  0.498009  1
  O  O35  1  0.059531  0.263253  0.924125  1
