# generated using pymatgen
data_Sc6Al13Ga(Si5Ru3)2
_symmetry_space_group_name_H-M   'P 1'
_cell_length_a   8.45250000
_cell_length_b   8.45249937
_cell_length_c   9.07513300
_cell_angle_alpha   90.00000000
_cell_angle_beta   90.00000000
_cell_angle_gamma   120.00000246
_symmetry_Int_Tables_number   1
_chemical_formula_structural   Sc6Al13Ga(Si5Ru3)2
_chemical_formula_sum   'Sc6 Al13 Ga1 Si10 Ru6'
_cell_volume   561.50541141
_cell_formula_units_Z   1
loop_
 _symmetry_equiv_pos_site_id
 _symmetry_equiv_pos_as_xyz
  1  'x, y, z'
loop_
 _atom_site_type_symbol
 _atom_site_label
 _atom_site_symmetry_multiplicity
 _atom_site_fract_x
 _atom_site_fract_y
 _atom_site_fract_z
 _atom_site_occupancy
  Sc  Sc0  1  0.197392  0.802608  0.250000  1
  Sc  Sc1  1  0.197392  0.394784  0.250000  1
  Sc  Sc2  1  0.605216  0.802608  0.250000  1
  Sc  Sc3  1  0.802201  0.197799  0.750000  1
  Sc  Sc4  1  0.802201  0.604403  0.750000  1
  Sc  Sc5  1  0.395597  0.197799  0.750000  1
  Al  Al6  1  0.158453  0.841547  0.919431  1
  Al  Al7  1  0.158453  0.316906  0.919431  1
  Al  Al8  1  0.683094  0.841547  0.919431  1
  Al  Al9  1  0.841719  0.158281  0.079552  1
  Al  Al10  1  0.841719  0.683436  0.079552  1
  Al  Al11  1  0.316564  0.158281  0.079552  1
  Al  Al12  1  0.841719  0.158281  0.420448  1
  Al  Al13  1  0.841719  0.683436  0.420448  1
  Al  Al14  1  0.316564  0.158281  0.420448  1
  Al  Al15  1  0.158453  0.841547  0.580569  1
  Al  Al16  1  0.158453  0.316906  0.580569  1
  Al  Al17  1  0.683094  0.841547  0.580569  1
  Al  Al18  1  0.000000  0.000000  0.750000  1
  Ga  Ga19  1  0.000000  0.000000  0.250000  1
  Si  Si20  1  0.565620  0.434380  0.250000  1
  Si  Si21  1  0.565620  0.131241  0.250000  1
  Si  Si22  1  0.868759  0.434380  0.250000  1
  Si  Si23  1  0.434285  0.565715  0.750000  1
  Si  Si24  1  0.434285  0.868569  0.750000  1
  Si  Si25  1  0.131431  0.565715  0.750000  1
  Si  Si26  1  0.333333  0.666667  0.452189  1
  Si  Si27  1  0.666667  0.333333  0.547116  1
  Si  Si28  1  0.666667  0.333333  0.952884  1
  Si  Si29  1  0.333333  0.666667  0.047811  1
  Ru  Ru30  1  0.499837  0.500163  0.500004  1
  Ru  Ru31  1  0.499837  0.999672  0.500004  1
  Ru  Ru32  1  0.000328  0.500163  0.500004  1
  Ru  Ru33  1  0.499837  0.500163  0.999996  1
  Ru  Ru34  1  0.499837  0.999672  0.999996  1
  Ru  Ru35  1  0.000328  0.500163  0.999996  1
