# generated using pymatgen
data_LaPaNi7Ir3
_symmetry_space_group_name_H-M   'P 1'
_cell_length_a   4.03875300
_cell_length_b   5.10054557
_cell_length_c   8.72547982
_cell_angle_alpha   93.45580331
_cell_angle_beta   90.00000000
_cell_angle_gamma   90.00000000
_symmetry_Int_Tables_number   1
_chemical_formula_structural   LaPaNi7Ir3
_chemical_formula_sum   'La1 Pa1 Ni7 Ir3'
_cell_volume   179.41667391
_cell_formula_units_Z   1
loop_
 _symmetry_equiv_pos_site_id
 _symmetry_equiv_pos_as_xyz
  1  'x, y, z'
loop_
 _atom_site_type_symbol
 _atom_site_label
 _atom_site_symmetry_multiplicity
 _atom_site_fract_x
 _atom_site_fract_y
 _atom_site_fract_z
 _atom_site_occupancy
  La  La0  1  0.000000  0.000000  0.000000  1
  Pa  Pa1  1  0.000000  0.500000  0.500000  1
  Ni  Ni2  1  0.000000  0.997189  0.345970  1
  Ni  Ni3  1  0.000000  0.476367  0.821511  1
  Ni  Ni4  1  0.000000  0.523633  0.178489  1
  Ni  Ni5  1  0.000000  0.002811  0.654030  1
  Ni  Ni6  1  0.500000  0.000000  0.500000  1
  Ni  Ni7  1  0.500000  0.767429  0.253638  1
  Ni  Ni8  1  0.500000  0.232571  0.746362  1
  Ir  Ir9  1  0.500000  0.500000  0.000000  1
  Ir  Ir10  1  0.500000  0.270288  0.269246  1
  Ir  Ir11  1  0.500000  0.729712  0.730754  1
