# generated using pymatgen
data_Ag2PO4
_symmetry_space_group_name_H-M   'P 1'
_cell_length_a   6.47108729
_cell_length_b   6.62072384
_cell_length_c   10.05362835
_cell_angle_alpha   71.59665355
_cell_angle_beta   72.83500176
_cell_angle_gamma   79.82750414
_symmetry_Int_Tables_number   1
_chemical_formula_structural   Ag2PO4
_chemical_formula_sum   'Ag8 P4 O16'
_cell_volume   388.84034501
_cell_formula_units_Z   4
loop_
 _symmetry_equiv_pos_site_id
 _symmetry_equiv_pos_as_xyz
  1  'x, y, z'
loop_
 _atom_site_type_symbol
 _atom_site_label
 _atom_site_symmetry_multiplicity
 _atom_site_fract_x
 _atom_site_fract_y
 _atom_site_fract_z
 _atom_site_occupancy
  Ag  Ag0  1  0.651327  0.039934  0.214648  1
  Ag  Ag1  1  0.348474  0.960305  0.785156  1
  Ag  Ag2  1  0.225043  0.839155  0.413616  1
  Ag  Ag3  1  0.775263  0.160879  0.586225  1
  Ag  Ag4  1  0.280415  0.649811  0.099109  1
  Ag  Ag5  1  0.719589  0.350193  0.900874  1
  Ag  Ag6  1  0.847020  0.474471  0.276955  1
  Ag  Ag7  1  0.153123  0.525635  0.723000  1
  P  P8  1  0.314873  0.309487  0.441214  1
  P  P9  1  0.685307  0.690614  0.558792  1
  P  P10  1  0.189433  0.183756  0.066356  1
  P  P11  1  0.810407  0.816036  0.933743  1
  O  O12  1  0.155282  0.160333  0.439302  1
  O  O13  1  0.845240  0.839666  0.560523  1
  O  O14  1  0.309746  0.299560  0.599122  1
  O  O15  1  0.690103  0.700397  0.400886  1
  O  O16  1  0.243806  0.542330  0.360210  1
  O  O17  1  0.755976  0.457522  0.639877  1
  O  O18  1  0.551549  0.236804  0.365834  1
  O  O19  1  0.448879  0.763619  0.634173  1
  O  O20  1  0.249703  0.950214  0.151816  1
  O  O21  1  0.749905  0.049715  0.848461  1
  O  O22  1  0.202258  0.191140  0.907851  1
  O  O23  1  0.797773  0.808329  0.092323  1
  O  O24  1  0.953411  0.266432  0.135490  1
  O  O25  1  0.046326  0.733700  0.864406  1
  O  O26  1  0.352732  0.329078  0.069980  1
  O  O27  1  0.647035  0.670888  0.930060  1
