# generated using pymatgen
data_HoAg6NO11
_symmetry_space_group_name_H-M   'P 1'
_cell_length_a   7.07871445
_cell_length_b   7.07871525
_cell_length_c   7.07871511
_cell_angle_alpha   61.77596644
_cell_angle_beta   61.77596207
_cell_angle_gamma   61.77596027
_symmetry_Int_Tables_number   1
_chemical_formula_structural   HoAg6NO11
_chemical_formula_sum   'Ho1 Ag6 N1 O11'
_cell_volume   260.79129959
_cell_formula_units_Z   1
loop_
 _symmetry_equiv_pos_site_id
 _symmetry_equiv_pos_as_xyz
  1  'x, y, z'
loop_
 _atom_site_type_symbol
 _atom_site_label
 _atom_site_symmetry_multiplicity
 _atom_site_fract_x
 _atom_site_fract_y
 _atom_site_fract_z
 _atom_site_occupancy
  Ho  Ho0  1  0.999085  0.999085  0.999085  1
  Ag  Ag1  1  0.498036  0.001120  0.001120  1
  Ag  Ag2  1  0.500266  0.500266  0.000209  1
  Ag  Ag3  1  0.500266  0.000209  0.500266  1
  Ag  Ag4  1  0.001120  0.001120  0.498036  1
  Ag  Ag5  1  0.000209  0.500266  0.500266  1
  Ag  Ag6  1  0.001120  0.498036  0.001120  1
  N  N7  1  0.500069  0.500069  0.500069  1
  O  O8  1  0.589190  0.142042  0.142042  1
  O  O9  1  0.142042  0.589190  0.142042  1
  O  O10  1  0.137336  0.137336  0.137336  1
  O  O11  1  0.142042  0.142042  0.589190  1
  O  O12  1  0.600551  0.600551  0.299027  1
  O  O13  1  0.600551  0.299027  0.600551  1
  O  O14  1  0.299027  0.600551  0.600551  1
  O  O15  1  0.859042  0.859042  0.408791  1
  O  O16  1  0.859042  0.408791  0.859042  1
  O  O17  1  0.862213  0.862213  0.862213  1
  O  O18  1  0.408791  0.859042  0.859042  1
