# generated using pymatgen
data_Ca4Fe(RuO4)3
_symmetry_space_group_name_H-M   'P 1'
_cell_length_a   5.40255906
_cell_length_b   5.59169838
_cell_length_c   7.74726320
_cell_angle_alpha   89.89664934
_cell_angle_beta   90.01497249
_cell_angle_gamma   89.90102464
_symmetry_Int_Tables_number   1
_chemical_formula_structural   Ca4Fe(RuO4)3
_chemical_formula_sum   'Ca4 Fe1 Ru3 O12'
_cell_volume   234.04006014
_cell_formula_units_Z   1
loop_
 _symmetry_equiv_pos_site_id
 _symmetry_equiv_pos_as_xyz
  1  'x, y, z'
loop_
 _atom_site_type_symbol
 _atom_site_label
 _atom_site_symmetry_multiplicity
 _atom_site_fract_x
 _atom_site_fract_y
 _atom_site_fract_z
 _atom_site_occupancy
  Ca  Ca0  1  0.511242  0.553393  0.243472  1
  Ca  Ca1  1  0.984407  0.058185  0.242281  1
  Ca  Ca2  1  0.488758  0.446607  0.756528  1
  Ca  Ca3  1  0.015593  0.941815  0.757719  1
  Fe  Fe4  1  0.000000  0.500000  0.000000  1
  Ru  Ru5  1  0.500000  0.000000  0.500000  1
  Ru  Ru6  1  0.000000  0.500000  0.500000  1
  Ru  Ru7  1  0.500000  0.000000  0.000000  1
  O  O8  1  0.797474  0.797856  0.044890  1
  O  O9  1  0.696467  0.300614  0.449928  1
  O  O10  1  0.198198  0.200641  0.550098  1
  O  O11  1  0.301423  0.706267  0.953721  1
  O  O12  1  0.202526  0.202144  0.955110  1
  O  O13  1  0.303533  0.699386  0.550072  1
  O  O14  1  0.801802  0.799359  0.449902  1
  O  O15  1  0.698577  0.293733  0.046279  1
  O  O16  1  0.404919  0.971621  0.248106  1
  O  O17  1  0.089862  0.472978  0.252478  1
  O  O18  1  0.595081  0.028379  0.751894  1
  O  O19  1  0.910138  0.527022  0.747522  1
