# generated using pymatgen
data_Ho8Lu2OsRu3
_symmetry_space_group_name_H-M   'P 1'
_cell_length_a   6.28834982
_cell_length_b   7.25002479
_cell_length_c   8.40405342
_cell_angle_alpha   96.87237479
_cell_angle_beta   112.09287686
_cell_angle_gamma   89.90253912
_symmetry_Int_Tables_number   1
_chemical_formula_structural   Ho8Lu2OsRu3
_chemical_formula_sum   'Ho8 Lu2 Os1 Ru3'
_cell_volume   352.07277336
_cell_formula_units_Z   1
loop_
 _symmetry_equiv_pos_site_id
 _symmetry_equiv_pos_as_xyz
  1  'x, y, z'
loop_
 _atom_site_type_symbol
 _atom_site_label
 _atom_site_symmetry_multiplicity
 _atom_site_fract_x
 _atom_site_fract_y
 _atom_site_fract_z
 _atom_site_occupancy
  Ho  Ho0  1  0.522392  0.084052  0.814518  1
  Ho  Ho1  1  0.477787  0.916780  0.185611  1
  Ho  Ho2  1  0.708730  0.416310  0.185876  1
  Ho  Ho3  1  0.292073  0.583798  0.815386  1
  Ho  Ho4  1  0.297490  0.313316  0.432759  1
  Ho  Ho5  1  0.701015  0.686102  0.566486  1
  Ho  Ho6  1  0.865271  0.186833  0.567457  1
  Ho  Ho7  1  0.135266  0.812834  0.432229  1
  Lu  Lu8  1  0.078456  0.250729  0.000435  1
  Lu  Lu9  1  0.922722  0.749346  0.000408  1
  Os  Os10  1  0.318647  0.576203  0.217505  1
  Ru  Ru11  1  0.680252  0.423526  0.781706  1
  Ru  Ru12  1  0.101420  0.924699  0.781094  1
  Ru  Ru13  1  0.898481  0.075472  0.218530  1
