# generated using pymatgen
data_Dy6Zr4SnSb5
_symmetry_space_group_name_H-M   'P 1'
_cell_length_a   8.83381295
_cell_length_b   8.83381318
_cell_length_c   6.01053200
_cell_angle_alpha   90.00000000
_cell_angle_beta   90.00000000
_cell_angle_gamma   120.07624166
_symmetry_Int_Tables_number   1
_chemical_formula_structural   Dy6Zr4SnSb5
_chemical_formula_sum   'Dy6 Zr4 Sn1 Sb5'
_cell_volume   405.88760655
_cell_formula_units_Z   1
loop_
 _symmetry_equiv_pos_site_id
 _symmetry_equiv_pos_as_xyz
  1  'x, y, z'
loop_
 _atom_site_type_symbol
 _atom_site_label
 _atom_site_symmetry_multiplicity
 _atom_site_fract_x
 _atom_site_fract_y
 _atom_site_fract_z
 _atom_site_occupancy
  Dy  Dy0  1  0.753104  0.753104  0.750000  1
  Dy  Dy1  1  0.248512  0.001107  0.750000  1
  Dy  Dy2  1  0.001107  0.248512  0.750000  1
  Dy  Dy3  1  0.247302  0.247302  0.250000  1
  Dy  Dy4  1  0.749375  0.998691  0.250000  1
  Dy  Dy5  1  0.998691  0.749375  0.250000  1
  Zr  Zr6  1  0.667667  0.332788  0.000693  1
  Zr  Zr7  1  0.332788  0.667667  0.000693  1
  Zr  Zr8  1  0.332788  0.667667  0.499307  1
  Zr  Zr9  1  0.667667  0.332788  0.499307  1
  Sn  Sn10  1  0.396390  0.396390  0.750000  1
  Sb  Sb11  1  0.606595  0.000336  0.750000  1
  Sb  Sb12  1  0.000336  0.606595  0.750000  1
  Sb  Sb13  1  0.604883  0.604883  0.250000  1
  Sb  Sb14  1  0.392331  0.000464  0.250000  1
  Sb  Sb15  1  0.000464  0.392331  0.250000  1
