# generated using pymatgen
data_Tb8Er3Tm5(Ga3Co)2
_symmetry_space_group_name_H-M   'P 1'
_cell_length_a   9.94445300
_cell_length_b   9.94445145
_cell_length_c   6.97211200
_cell_angle_alpha   90.00000000
_cell_angle_beta   90.00000000
_cell_angle_gamma   119.99999518
_symmetry_Int_Tables_number   1
_chemical_formula_structural   Tb8Er3Tm5(Ga3Co)2
_chemical_formula_sum   'Tb8 Er3 Tm5 Ga6 Co2'
_cell_volume   597.11329230
_cell_formula_units_Z   1
loop_
 _symmetry_equiv_pos_site_id
 _symmetry_equiv_pos_as_xyz
  1  'x, y, z'
loop_
 _atom_site_type_symbol
 _atom_site_label
 _atom_site_symmetry_multiplicity
 _atom_site_fract_x
 _atom_site_fract_y
 _atom_site_fract_z
 _atom_site_occupancy
  Tb  Tb0  1  0.536248  0.072494  0.791952  1
  Tb  Tb1  1  0.927506  0.463752  0.791952  1
  Tb  Tb2  1  0.536248  0.463752  0.791952  1
  Tb  Tb3  1  0.463619  0.927239  0.291354  1
  Tb  Tb4  1  0.072761  0.536381  0.291354  1
  Tb  Tb5  1  0.463619  0.536381  0.291354  1
  Tb  Tb6  1  0.000000  0.000000  0.769660  1
  Tb  Tb7  1  0.000000  0.000000  0.268460  1
  Er  Er8  1  0.826647  0.653294  0.487254  1
  Er  Er9  1  0.346706  0.173353  0.487254  1
  Er  Er10  1  0.826647  0.173353  0.487254  1
  Tm  Tm11  1  0.173446  0.346892  0.987208  1
  Tm  Tm12  1  0.653108  0.826554  0.987208  1
  Tm  Tm13  1  0.173446  0.826554  0.987208  1
  Tm  Tm14  1  0.666667  0.333333  0.174219  1
  Tm  Tm15  1  0.333333  0.666667  0.674877  1
  Ga  Ga16  1  0.836325  0.672650  0.043068  1
  Ga  Ga17  1  0.327350  0.163675  0.043068  1
  Ga  Ga18  1  0.836325  0.163675  0.043068  1
  Ga  Ga19  1  0.163912  0.327823  0.543570  1
  Ga  Ga20  1  0.672177  0.836088  0.543570  1
  Ga  Ga21  1  0.163912  0.836088  0.543570  1
  Co  Co22  1  0.666667  0.333333  0.552901  1
  Co  Co23  1  0.333333  0.666667  0.052741  1
