# generated using pymatgen
data_SmIrO4
_symmetry_space_group_name_H-M   'P 1'
_cell_length_a   5.46227200
_cell_length_b   7.50371402
_cell_length_c   7.68404855
_cell_angle_alpha   80.34258706
_cell_angle_beta   90.00000000
_cell_angle_gamma   90.00000000
_symmetry_Int_Tables_number   1
_chemical_formula_structural   SmIrO4
_chemical_formula_sum   'Sm4 Ir4 O16'
_cell_volume   310.48529489
_cell_formula_units_Z   4
loop_
 _symmetry_equiv_pos_site_id
 _symmetry_equiv_pos_as_xyz
  1  'x, y, z'
loop_
 _atom_site_type_symbol
 _atom_site_label
 _atom_site_symmetry_multiplicity
 _atom_site_fract_x
 _atom_site_fract_y
 _atom_site_fract_z
 _atom_site_occupancy
  Sm  Sm0  1  0.280665  0.104128  0.152688  1
  Sm  Sm1  1  0.780665  0.395872  0.847312  1
  Sm  Sm2  1  0.719335  0.895872  0.847312  1
  Sm  Sm3  1  0.219335  0.604128  0.152688  1
  Ir  Ir4  1  0.771856  0.298257  0.339901  1
  Ir  Ir5  1  0.271856  0.201743  0.660099  1
  Ir  Ir6  1  0.228144  0.701743  0.660099  1
  Ir  Ir7  1  0.728144  0.798257  0.339901  1
  O  O8  1  0.977044  0.326168  0.115019  1
  O  O9  1  0.477044  0.173832  0.884981  1
  O  O10  1  0.022956  0.673832  0.884981  1
  O  O11  1  0.522956  0.826168  0.115019  1
  O  O12  1  0.633520  0.053015  0.334253  1
  O  O13  1  0.133520  0.446985  0.665747  1
  O  O14  1  0.366480  0.946985  0.665747  1
  O  O15  1  0.866480  0.553015  0.334253  1
  O  O16  1  0.004189  0.875738  0.184451  1
  O  O17  1  0.504189  0.624262  0.815549  1
  O  O18  1  0.995811  0.124262  0.815549  1
  O  O19  1  0.495811  0.375738  0.184451  1
  O  O20  1  0.911921  0.804157  0.557268  1
  O  O21  1  0.411921  0.695843  0.442732  1
  O  O22  1  0.088079  0.195843  0.442732  1
  O  O23  1  0.588079  0.304157  0.557268  1
