# generated using pymatgen
data_AcHo5CuRh17
_symmetry_space_group_name_H-M   'P 1'
_cell_length_a   5.27291900
_cell_length_b   5.27285557
_cell_length_c   17.43008600
_cell_angle_alpha   89.99986961
_cell_angle_beta   89.99986961
_cell_angle_gamma   120.00069277
_symmetry_Int_Tables_number   1
_chemical_formula_structural   AcHo5CuRh17
_chemical_formula_sum   'Ac1 Ho5 Cu1 Rh17'
_cell_volume   419.68563631
_cell_formula_units_Z   1
loop_
 _symmetry_equiv_pos_site_id
 _symmetry_equiv_pos_as_xyz
  1  'x, y, z'
loop_
 _atom_site_type_symbol
 _atom_site_label
 _atom_site_symmetry_multiplicity
 _atom_site_fract_x
 _atom_site_fract_y
 _atom_site_fract_z
 _atom_site_occupancy
  Ac  Ac0  1  0.666668  0.333333  0.250113  1
  Ho  Ho1  1  0.333331  0.666664  0.957104  1
  Ho  Ho2  1  0.666667  0.333337  0.039313  1
  Ho  Ho3  1  0.666669  0.333337  0.460633  1
  Ho  Ho4  1  0.333334  0.666666  0.542851  1
  Ho  Ho5  1  0.333332  0.666668  0.750017  1
  Cu  Cu6  1  0.333333  0.666657  0.249978  1
  Rh  Rh7  1  0.168941  0.831061  0.376034  1
  Rh  Rh8  1  0.168940  0.337880  0.376035  1
  Rh  Rh9  1  0.662119  0.831061  0.376035  1
  Rh  Rh10  1  0.832773  0.167222  0.624872  1
  Rh  Rh11  1  0.832773  0.665545  0.624871  1
  Rh  Rh12  1  0.334449  0.167222  0.624872  1
  Rh  Rh13  1  0.832785  0.167220  0.875102  1
  Rh  Rh14  1  0.832782  0.665563  0.875102  1
  Rh  Rh15  1  0.334432  0.167215  0.875102  1
  Rh  Rh16  1  0.168937  0.831063  0.123995  1
  Rh  Rh17  1  0.168940  0.337876  0.123993  1
  Rh  Rh18  1  0.662129  0.831068  0.123995  1
  Rh  Rh19  1  0.666665  0.333330  0.749996  1
  Rh  Rh20  1  0.000003  0.000004  0.250004  1
  Rh  Rh21  1  0.999998  0.000003  0.749992  1
  Rh  Rh22  1  0.000001  0.000000  0.498686  1
  Rh  Rh23  1  0.999998  0.999999  0.001303  1
