# generated using pymatgen
data_DyY3(Tc3Os)2
_symmetry_space_group_name_H-M   'P 1'
_cell_length_a   5.29403100
_cell_length_b   5.29403096
_cell_length_c   9.11383400
_cell_angle_alpha   90.00000000
_cell_angle_beta   90.00000000
_cell_angle_gamma   120.00000650
_symmetry_Int_Tables_number   1
_chemical_formula_structural   DyY3(Tc3Os)2
_chemical_formula_sum   'Dy1 Y3 Tc6 Os2'
_cell_volume   221.20995844
_cell_formula_units_Z   1
loop_
 _symmetry_equiv_pos_site_id
 _symmetry_equiv_pos_as_xyz
  1  'x, y, z'
loop_
 _atom_site_type_symbol
 _atom_site_label
 _atom_site_symmetry_multiplicity
 _atom_site_fract_x
 _atom_site_fract_y
 _atom_site_fract_z
 _atom_site_occupancy
  Dy  Dy0  1  0.333333  0.666667  0.063567  1
  Y  Y1  1  0.333333  0.666667  0.436379  1
  Y  Y2  1  0.666667  0.333333  0.563651  1
  Y  Y3  1  0.666667  0.333333  0.936402  1
  Tc  Tc4  1  0.829474  0.170526  0.249940  1
  Tc  Tc5  1  0.829474  0.658946  0.249940  1
  Tc  Tc6  1  0.341054  0.170526  0.249940  1
  Tc  Tc7  1  0.170518  0.829482  0.750019  1
  Tc  Tc8  1  0.170518  0.341037  0.750019  1
  Tc  Tc9  1  0.658963  0.829482  0.750019  1
  Os  Os10  1  0.000000  0.000000  0.500058  1
  Os  Os11  1  0.000000  0.000000  0.000065  1
