# generated using pymatgen
data_Nd3Th(AlRe3)2
_symmetry_space_group_name_H-M   'P 1'
_cell_length_a   5.44810000
_cell_length_b   5.44810000
_cell_length_c   9.23929400
_cell_angle_alpha   90.00000000
_cell_angle_beta   90.00000000
_cell_angle_gamma   120.00000001
_symmetry_Int_Tables_number   1
_chemical_formula_structural   Nd3Th(AlRe3)2
_chemical_formula_sum   'Nd3 Th1 Al2 Re6'
_cell_volume   237.49778264
_cell_formula_units_Z   1
loop_
 _symmetry_equiv_pos_site_id
 _symmetry_equiv_pos_as_xyz
  1  'x, y, z'
loop_
 _atom_site_type_symbol
 _atom_site_label
 _atom_site_symmetry_multiplicity
 _atom_site_fract_x
 _atom_site_fract_y
 _atom_site_fract_z
 _atom_site_occupancy
  Nd  Nd0  1  0.333333  0.666667  0.066152  1
  Nd  Nd1  1  0.666667  0.333333  0.568756  1
  Nd  Nd2  1  0.666667  0.333333  0.932476  1
  Th  Th3  1  0.333333  0.666667  0.430475  1
  Al  Al4  1  0.000000  0.000000  0.999475  1
  Al  Al5  1  0.000000  0.000000  0.500869  1
  Re  Re6  1  0.831558  0.663115  0.251151  1
  Re  Re7  1  0.168818  0.831182  0.749448  1
  Re  Re8  1  0.662363  0.831182  0.749448  1
  Re  Re9  1  0.336885  0.168442  0.251151  1
  Re  Re10  1  0.831558  0.168442  0.251151  1
  Re  Re11  1  0.168818  0.337637  0.749448  1
