# generated using pymatgen
data_Tb5Lu5(InSb)4
_symmetry_space_group_name_H-M   'P 1'
_cell_length_a   8.57624159
_cell_length_b   8.91500012
_cell_length_c   8.03557758
_cell_angle_alpha   90.03435405
_cell_angle_beta   90.10661034
_cell_angle_gamma   125.27661151
_symmetry_Int_Tables_number   1
_chemical_formula_structural   Tb5Lu5(InSb)4
_chemical_formula_sum   'Tb5 Lu5 In4 Sb4'
_cell_volume   501.55971008
_cell_formula_units_Z   1
loop_
 _symmetry_equiv_pos_site_id
 _symmetry_equiv_pos_as_xyz
  1  'x, y, z'
loop_
 _atom_site_type_symbol
 _atom_site_label
 _atom_site_symmetry_multiplicity
 _atom_site_fract_x
 _atom_site_fract_y
 _atom_site_fract_z
 _atom_site_occupancy
  Tb  Tb0  1  0.827891  0.542241  0.172971  1
  Tb  Tb1  1  0.523943  0.794221  0.164346  1
  Tb  Tb2  1  0.173512  0.458673  0.826344  1
  Tb  Tb3  1  0.673833  0.957441  0.671672  1
  Tb  Tb4  1  0.325226  0.041590  0.328937  1
  Lu  Lu5  1  0.024484  0.289404  0.337115  1
  Lu  Lu6  1  0.973820  0.708401  0.662707  1
  Lu  Lu7  1  0.476734  0.208731  0.837889  1
  Lu  Lu8  1  0.000734  0.001027  0.999094  1
  Lu  Lu9  1  0.499498  0.498526  0.500614  1
  In  In10  1  0.371927  0.369261  0.129041  1
  In  In11  1  0.628072  0.628951  0.870327  1
  In  In12  1  0.129511  0.130295  0.629782  1
  In  In13  1  0.872481  0.869552  0.371466  1
  Sb  Sb14  1  0.786524  0.194141  0.015724  1
  Sb  Sb15  1  0.215240  0.810733  0.979593  1
  Sb  Sb16  1  0.718240  0.308938  0.518205  1
  Sb  Sb17  1  0.278331  0.687873  0.484172  1
