# generated using pymatgen
data_Hf9TaSi6C
_symmetry_space_group_name_H-M   'P 1'
_cell_length_a   7.84098200
_cell_length_b   7.84098184
_cell_length_c   5.50144500
_cell_angle_alpha   90.00000000
_cell_angle_beta   90.00000000
_cell_angle_gamma   119.99999222
_symmetry_Int_Tables_number   1
_chemical_formula_structural   Hf9TaSi6C
_chemical_formula_sum   'Hf9 Ta1 Si6 C1'
_cell_volume   292.91954198
_cell_formula_units_Z   1
loop_
 _symmetry_equiv_pos_site_id
 _symmetry_equiv_pos_as_xyz
  1  'x, y, z'
loop_
 _atom_site_type_symbol
 _atom_site_label
 _atom_site_symmetry_multiplicity
 _atom_site_fract_x
 _atom_site_fract_y
 _atom_site_fract_z
 _atom_site_occupancy
  Hf  Hf0  1  0.000391  0.757453  0.258339  1
  Hf  Hf1  1  0.242547  0.242939  0.258339  1
  Hf  Hf2  1  0.757061  0.999609  0.258339  1
  Hf  Hf3  1  0.000391  0.242939  0.741661  1
  Hf  Hf4  1  0.757061  0.757453  0.741661  1
  Hf  Hf5  1  0.242547  0.999609  0.741661  1
  Hf  Hf6  1  0.333333  0.666667  0.000000  1
  Hf  Hf7  1  0.666667  0.333333  0.000000  1
  Hf  Hf8  1  0.666667  0.333333  0.500000  1
  Ta  Ta9  1  0.333333  0.666667  0.500000  1
  Si  Si10  1  0.002159  0.400789  0.252499  1
  Si  Si11  1  0.599211  0.601371  0.252499  1
  Si  Si12  1  0.398629  0.997841  0.252499  1
  Si  Si13  1  0.002159  0.601371  0.747501  1
  Si  Si14  1  0.398629  0.400789  0.747501  1
  Si  Si15  1  0.599211  0.997841  0.747501  1
  C  C16  1  0.000000  0.000000  0.500000  1
