# generated using pymatgen
data_Dy2Lu2BCl6
_symmetry_space_group_name_H-M   'P 1'
_cell_length_a   3.80431000
_cell_length_b   12.48715400
_cell_length_c   12.95681800
_cell_angle_alpha   90.00000000
_cell_angle_beta   90.00000000
_cell_angle_gamma   90.00000000
_symmetry_Int_Tables_number   1
_chemical_formula_structural   Dy2Lu2BCl6
_chemical_formula_sum   'Dy4 Lu4 B2 Cl12'
_cell_volume   615.51370172
_cell_formula_units_Z   2
loop_
 _symmetry_equiv_pos_site_id
 _symmetry_equiv_pos_as_xyz
  1  'x, y, z'
loop_
 _atom_site_type_symbol
 _atom_site_label
 _atom_site_symmetry_multiplicity
 _atom_site_fract_x
 _atom_site_fract_y
 _atom_site_fract_z
 _atom_site_occupancy
  Dy  Dy0  1  0.500000  0.127278  0.850379  1
  Dy  Dy1  1  0.500000  0.872722  0.149621  1
  Dy  Dy2  1  0.500000  0.627278  0.649621  1
  Dy  Dy3  1  0.500000  0.372722  0.350379  1
  Lu  Lu4  1  0.000000  0.104067  0.082333  1
  Lu  Lu5  1  0.000000  0.895933  0.917667  1
  Lu  Lu6  1  0.000000  0.604067  0.417667  1
  Lu  Lu7  1  0.000000  0.395933  0.582333  1
  B  B8  1  0.500000  0.000000  0.000000  1
  B  B9  1  0.500000  0.500000  0.500000  1
  Cl  Cl10  1  0.500000  0.270646  0.679735  1
  Cl  Cl11  1  0.500000  0.729354  0.320265  1
  Cl  Cl12  1  0.500000  0.770646  0.820265  1
  Cl  Cl13  1  0.500000  0.229354  0.179735  1
  Cl  Cl14  1  0.000000  0.259443  0.932946  1
  Cl  Cl15  1  0.000000  0.740557  0.067054  1
  Cl  Cl16  1  0.000000  0.482257  0.241451  1
  Cl  Cl17  1  0.000000  0.517743  0.758549  1
  Cl  Cl18  1  0.000000  0.982257  0.258549  1
  Cl  Cl19  1  0.000000  0.017743  0.741451  1
  Cl  Cl20  1  0.000000  0.240557  0.432946  1
  Cl  Cl21  1  0.000000  0.759443  0.567054  1
