# generated using pymatgen
data_LiY6IrBr12
_symmetry_space_group_name_H-M   'P 1'
_cell_length_a   9.22299894
_cell_length_b   9.35062882
_cell_length_c   9.22387156
_cell_angle_alpha   108.03698075
_cell_angle_beta   107.08496762
_cell_angle_gamma   108.11051117
_symmetry_Int_Tables_number   1
_chemical_formula_structural   LiY6IrBr12
_chemical_formula_sum   'Li1 Y6 Ir1 Br12'
_cell_volume   648.51141298
_cell_formula_units_Z   1
loop_
 _symmetry_equiv_pos_site_id
 _symmetry_equiv_pos_as_xyz
  1  'x, y, z'
loop_
 _atom_site_type_symbol
 _atom_site_label
 _atom_site_symmetry_multiplicity
 _atom_site_fract_x
 _atom_site_fract_y
 _atom_site_fract_z
 _atom_site_occupancy
  Li  Li0  1  0.500000  0.500000  0.500000  1
  Y  Y1  1  0.114794  0.327028  0.034916  1
  Y  Y2  1  0.319098  0.033222  0.113690  1
  Y  Y3  1  0.035109  0.111462  0.319256  1
  Y  Y4  1  0.964892  0.888538  0.680745  1
  Y  Y5  1  0.680902  0.966779  0.886310  1
  Y  Y6  1  0.885206  0.672972  0.965084  1
  Ir  Ir7  1  0.000000  0.000000  0.000000  1
  Br  Br8  1  0.220282  0.683717  0.074184  1
  Br  Br9  1  0.458674  0.378516  0.166185  1
  Br  Br10  1  0.684206  0.073504  0.218785  1
  Br  Br11  1  0.925848  0.782050  0.316981  1
  Br  Br12  1  0.166822  0.458377  0.381875  1
  Br  Br13  1  0.382492  0.169104  0.461966  1
  Br  Br14  1  0.617508  0.830896  0.538035  1
  Br  Br15  1  0.833179  0.541623  0.618125  1
  Br  Br16  1  0.074153  0.217950  0.683020  1
  Br  Br17  1  0.315795  0.926497  0.781215  1
  Br  Br18  1  0.541326  0.621484  0.833816  1
  Br  Br19  1  0.779718  0.316283  0.925816  1
