# generated using pymatgen
data_CrRe(IrRu2)2
_symmetry_space_group_name_H-M   'P 1'
_cell_length_a   5.46826300
_cell_length_b   5.45365538
_cell_length_c   4.31850400
_cell_angle_alpha   90.00000000
_cell_angle_beta   90.00000000
_cell_angle_gamma   120.08863764
_symmetry_Int_Tables_number   1
_chemical_formula_structural   CrRe(IrRu2)2
_chemical_formula_sum   'Cr1 Re1 Ir2 Ru4'
_cell_volume   111.43264786
_cell_formula_units_Z   1
loop_
 _symmetry_equiv_pos_site_id
 _symmetry_equiv_pos_as_xyz
  1  'x, y, z'
loop_
 _atom_site_type_symbol
 _atom_site_label
 _atom_site_symmetry_multiplicity
 _atom_site_fract_x
 _atom_site_fract_y
 _atom_site_fract_z
 _atom_site_occupancy
  Cr  Cr0  1  0.836395  0.672790  0.750000  1
  Re  Re1  1  0.164641  0.329281  0.250000  1
  Ir  Ir2  1  0.333525  0.667053  0.750000  1
  Ir  Ir3  1  0.669886  0.339770  0.250000  1
  Ru  Ru4  1  0.673234  0.831989  0.250000  1
  Ru  Ru5  1  0.158756  0.831989  0.250000  1
  Ru  Ru6  1  0.329465  0.163564  0.750000  1
  Ru  Ru7  1  0.834100  0.163564  0.750000  1
