# generated using pymatgen
data_Dy4Sc2Al13Mo3Os7
_symmetry_space_group_name_H-M   'P 1'
_cell_length_a   8.91826433
_cell_length_b   8.91826524
_cell_length_c   8.95471174
_cell_angle_alpha   59.52334841
_cell_angle_beta   59.52334540
_cell_angle_gamma   59.88808135
_symmetry_Int_Tables_number   1
_chemical_formula_structural   Dy4Sc2Al13Mo3Os7
_chemical_formula_sum   'Dy4 Sc2 Al13 Mo3 Os7'
_cell_volume   499.53652943
_cell_formula_units_Z   1
loop_
 _symmetry_equiv_pos_site_id
 _symmetry_equiv_pos_as_xyz
  1  'x, y, z'
loop_
 _atom_site_type_symbol
 _atom_site_label
 _atom_site_symmetry_multiplicity
 _atom_site_fract_x
 _atom_site_fract_y
 _atom_site_fract_z
 _atom_site_occupancy
  Dy  Dy0  1  0.706151  0.706151  0.286441  1
  Dy  Dy1  1  0.293528  0.708256  0.292182  1
  Dy  Dy2  1  0.708256  0.293528  0.292182  1
  Dy  Dy3  1  0.295490  0.295490  0.706271  1
  Sc  Sc4  1  0.712364  0.280313  0.712548  1
  Sc  Sc5  1  0.280313  0.712364  0.712548  1
  Al  Al6  1  0.882848  0.882848  0.878023  1
  Al  Al7  1  0.118340  0.118340  0.641350  1
  Al  Al8  1  0.122352  0.638740  0.117213  1
  Al  Al9  1  0.638740  0.122352  0.117213  1
  Al  Al10  1  0.123339  0.123339  0.122632  1
  Al  Al11  1  0.669974  0.669974  0.993415  1
  Al  Al12  1  0.670578  0.997445  0.670146  1
  Al  Al13  1  0.997445  0.670578  0.670146  1
  Al  Al14  1  0.658148  0.658148  0.663435  1
  Al  Al15  1  0.335726  0.335726  0.999202  1
  Al  Al16  1  0.332121  0.004916  0.334831  1
  Al  Al17  1  0.004916  0.332121  0.334831  1
  Al  Al18  1  0.330932  0.330932  0.332387  1
  Mo  Mo19  1  0.875807  0.875807  0.364953  1
  Mo  Mo20  1  0.876685  0.362610  0.874871  1
  Mo  Mo21  1  0.362610  0.876685  0.874871  1
  Os  Os22  1  0.004375  0.004375  0.005758  1
  Os  Os23  1  0.999202  0.999202  0.500705  1
  Os  Os24  1  0.502701  0.993367  0.506621  1
  Os  Os25  1  0.993367  0.502701  0.506621  1
  Os  Os26  1  0.503048  0.503048  0.994866  1
  Os  Os27  1  0.001620  0.499022  0.996870  1
  Os  Os28  1  0.499022  0.001620  0.996870  1
