# generated using pymatgen
data_V3Fe2Co2P4W
_symmetry_space_group_name_H-M   'P 1'
_cell_length_a   3.52208800
_cell_length_b   5.91034382
_cell_length_c   6.70317729
_cell_angle_alpha   89.53543863
_cell_angle_beta   90.00000000
_cell_angle_gamma   90.00000000
_symmetry_Int_Tables_number   1
_chemical_formula_structural   V3Fe2Co2P4W
_chemical_formula_sum   'V3 Fe2 Co2 P4 W1'
_cell_volume   139.53378620
_cell_formula_units_Z   1
loop_
 _symmetry_equiv_pos_site_id
 _symmetry_equiv_pos_as_xyz
  1  'x, y, z'
loop_
 _atom_site_type_symbol
 _atom_site_label
 _atom_site_symmetry_multiplicity
 _atom_site_fract_x
 _atom_site_fract_y
 _atom_site_fract_z
 _atom_site_occupancy
  V  V0  1  0.750000  0.973417  0.826636  1
  V  V1  1  0.250000  0.530506  0.332774  1
  V  V2  1  0.250000  0.023411  0.174954  1
  Fe  Fe3  1  0.750000  0.856708  0.438308  1
  Fe  Fe4  1  0.250000  0.143920  0.561467  1
  Co  Co5  1  0.750000  0.358043  0.062207  1
  Co  Co6  1  0.250000  0.642935  0.938568  1
  P  P7  1  0.750000  0.735101  0.124938  1
  P  P8  1  0.750000  0.227152  0.370915  1
  P  P9  1  0.250000  0.260659  0.880621  1
  P  P10  1  0.250000  0.777188  0.624017  1
  W  W11  1  0.750000  0.470960  0.664597  1
