# generated using pymatgen
data_Lu11In9Ru4
_symmetry_space_group_name_H-M   'P 1'
_cell_length_a   3.73289300
_cell_length_b   12.71519126
_cell_length_c   12.71519141
_cell_angle_alpha   112.79519478
_cell_angle_beta   90.00000000
_cell_angle_gamma   90.00000000
_symmetry_Int_Tables_number   1
_chemical_formula_structural   Lu11In9Ru4
_chemical_formula_sum   'Lu11 In9 Ru4'
_cell_volume   556.38204408
_cell_formula_units_Z   1
loop_
 _symmetry_equiv_pos_site_id
 _symmetry_equiv_pos_as_xyz
  1  'x, y, z'
loop_
 _atom_site_type_symbol
 _atom_site_label
 _atom_site_symmetry_multiplicity
 _atom_site_fract_x
 _atom_site_fract_y
 _atom_site_fract_z
 _atom_site_occupancy
  Lu  Lu0  1  0.000000  0.913775  0.581758  1
  Lu  Lu1  1  0.000000  0.086225  0.418242  1
  Lu  Lu2  1  0.000000  0.581758  0.913775  1
  Lu  Lu3  1  0.000000  0.418242  0.086225  1
  Lu  Lu4  1  0.000000  0.163443  0.836557  1
  Lu  Lu5  1  0.000000  0.836557  0.163443  1
  Lu  Lu6  1  0.000000  0.369276  0.630724  1
  Lu  Lu7  1  0.000000  0.630724  0.369276  1
  Lu  Lu8  1  0.000000  0.694971  0.694971  1
  Lu  Lu9  1  0.000000  0.305029  0.305029  1
  Lu  Lu10  1  0.000000  0.000000  0.000000  1
  In  In11  1  0.500000  0.150846  0.629373  1
  In  In12  1  0.500000  0.849154  0.370627  1
  In  In13  1  0.500000  0.629373  0.150846  1
  In  In14  1  0.500000  0.370627  0.849154  1
  In  In15  1  0.500000  0.930920  0.782568  1
  In  In16  1  0.500000  0.069080  0.217432  1
  In  In17  1  0.500000  0.782568  0.930920  1
  In  In18  1  0.500000  0.217432  0.069080  1
  In  In19  1  0.500000  0.500000  0.500000  1
  Ru  Ru20  1  0.500000  0.740037  0.547532  1
  Ru  Ru21  1  0.500000  0.259963  0.452468  1
  Ru  Ru22  1  0.500000  0.547532  0.740037  1
  Ru  Ru23  1  0.500000  0.452468  0.259963  1
