# generated using pymatgen
data_Y2LuFe8Os
_symmetry_space_group_name_H-M   'P 1'
_cell_length_a   5.10267283
_cell_length_b   5.10267325
_cell_length_c   8.70795331
_cell_angle_alpha   72.96299466
_cell_angle_beta   72.96299192
_cell_angle_gamma   60.00001887
_symmetry_Int_Tables_number   1
_chemical_formula_structural   Y2LuFe8Os
_chemical_formula_sum   'Y2 Lu1 Fe8 Os1'
_cell_volume   184.77666113
_cell_formula_units_Z   1
loop_
 _symmetry_equiv_pos_site_id
 _symmetry_equiv_pos_as_xyz
  1  'x, y, z'
loop_
 _atom_site_type_symbol
 _atom_site_label
 _atom_site_symmetry_multiplicity
 _atom_site_fract_x
 _atom_site_fract_y
 _atom_site_fract_z
 _atom_site_occupancy
  Y  Y0  1  0.857928  0.857928  0.426216  1
  Y  Y1  1  0.000259  0.000259  0.999224  1
  Lu  Lu2  1  0.141809  0.141809  0.574573  1
  Fe  Fe3  1  0.078125  0.581903  0.758069  1
  Fe  Fe4  1  0.581903  0.581903  0.758069  1
  Fe  Fe5  1  0.581903  0.078125  0.758069  1
  Fe  Fe6  1  0.922301  0.418030  0.241641  1
  Fe  Fe7  1  0.418030  0.418030  0.241641  1
  Fe  Fe8  1  0.418030  0.922301  0.241641  1
  Fe  Fe9  1  0.332994  0.332994  0.001016  1
  Fe  Fe10  1  0.666975  0.666975  0.999075  1
  Os  Os11  1  0.499744  0.499744  0.500767  1
