# generated using pymatgen
data_Ca2Eu6Al3Si12Pd
_symmetry_space_group_name_H-M   'P 1'
_cell_length_a   8.25901000
_cell_length_b   8.25901132
_cell_length_c   8.81599600
_cell_angle_alpha   90.00000000
_cell_angle_beta   90.00000000
_cell_angle_gamma   119.99999469
_symmetry_Int_Tables_number   1
_chemical_formula_structural   Ca2Eu6Al3Si12Pd
_chemical_formula_sum   'Ca2 Eu6 Al3 Si12 Pd1'
_cell_volume   520.78455159
_cell_formula_units_Z   1
loop_
 _symmetry_equiv_pos_site_id
 _symmetry_equiv_pos_as_xyz
  1  'x, y, z'
loop_
 _atom_site_type_symbol
 _atom_site_label
 _atom_site_symmetry_multiplicity
 _atom_site_fract_x
 _atom_site_fract_y
 _atom_site_fract_z
 _atom_site_occupancy
  Ca  Ca0  1  0.000000  0.000000  0.748144  1
  Ca  Ca1  1  0.000000  0.000000  0.251936  1
  Eu  Eu2  1  0.499893  0.500107  0.748541  1
  Eu  Eu3  1  0.500838  0.499162  0.251473  1
  Eu  Eu4  1  0.000214  0.500107  0.748541  1
  Eu  Eu5  1  0.998326  0.499162  0.251473  1
  Eu  Eu6  1  0.499893  0.999786  0.748541  1
  Eu  Eu7  1  0.500838  0.001674  0.251473  1
  Al  Al8  1  0.666667  0.333333  0.997740  1
  Al  Al9  1  0.333333  0.666667  0.002504  1
  Al  Al10  1  0.333333  0.666667  0.498032  1
  Si  Si11  1  0.835421  0.164579  0.000471  1
  Si  Si12  1  0.163984  0.836016  0.999444  1
  Si  Si13  1  0.329159  0.164579  0.000471  1
  Si  Si14  1  0.160142  0.839858  0.500032  1
  Si  Si15  1  0.672032  0.836016  0.999444  1
  Si  Si16  1  0.831316  0.168684  0.500220  1
  Si  Si17  1  0.835421  0.670841  0.000471  1
  Si  Si18  1  0.679715  0.839858  0.500032  1
  Si  Si19  1  0.163984  0.327968  0.999444  1
  Si  Si20  1  0.337367  0.168684  0.500220  1
  Si  Si21  1  0.160142  0.320285  0.500032  1
  Si  Si22  1  0.831316  0.662633  0.500220  1
  Pd  Pd23  1  0.666667  0.333333  0.501100  1
