# generated using pymatgen
data_Dy2ZnCoRu
_symmetry_space_group_name_H-M   'P 1'
_cell_length_a   4.18472919
_cell_length_b   5.60990329
_cell_length_c   5.39977483
_cell_angle_alpha   121.29585929
_cell_angle_beta   112.79847957
_cell_angle_gamma   89.99999962
_symmetry_Int_Tables_number   1
_chemical_formula_structural   Dy2ZnCoRu
_chemical_formula_sum   'Dy2 Zn1 Co1 Ru1'
_cell_volume   96.54235242
_cell_formula_units_Z   1
loop_
 _symmetry_equiv_pos_site_id
 _symmetry_equiv_pos_as_xyz
  1  'x, y, z'
loop_
 _atom_site_type_symbol
 _atom_site_label
 _atom_site_symmetry_multiplicity
 _atom_site_fract_x
 _atom_site_fract_y
 _atom_site_fract_z
 _atom_site_occupancy
  Dy  Dy0  1  0.791803  0.286662  0.583606  1
  Dy  Dy1  1  0.208197  0.703055  0.416394  1
  Zn  Zn2  1  0.000000  0.991536  0.000000  1
  Co  Co3  1  0.500000  0.726046  0.000000  1
  Ru  Ru4  1  0.500000  0.292701  0.000000  1
