# generated using pymatgen
data_Lu10In8GaRu3
_symmetry_space_group_name_H-M   'P 1'
_cell_length_a   3.55158100
_cell_length_b   7.97697380
_cell_length_c   18.10906741
_cell_angle_alpha   90.25116816
_cell_angle_beta   90.00000000
_cell_angle_gamma   90.00000000
_symmetry_Int_Tables_number   1
_chemical_formula_structural   Lu10In8GaRu3
_chemical_formula_sum   'Lu10 In8 Ga1 Ru3'
_cell_volume   513.04067974
_cell_formula_units_Z   1
loop_
 _symmetry_equiv_pos_site_id
 _symmetry_equiv_pos_as_xyz
  1  'x, y, z'
loop_
 _atom_site_type_symbol
 _atom_site_label
 _atom_site_symmetry_multiplicity
 _atom_site_fract_x
 _atom_site_fract_y
 _atom_site_fract_z
 _atom_site_occupancy
  Lu  Lu0  1  0.000000  0.117458  0.414599  1
  Lu  Lu1  1  0.000000  0.881243  0.589549  1
  Lu  Lu2  1  0.000000  0.381396  0.909778  1
  Lu  Lu3  1  0.000000  0.625644  0.080445  1
  Lu  Lu4  1  0.000000  0.224521  0.224488  1
  Lu  Lu5  1  0.000000  0.752366  0.778484  1
  Lu  Lu6  1  0.000000  0.252192  0.721278  1
  Lu  Lu7  1  0.000000  0.768070  0.281280  1
  Lu  Lu8  1  0.000000  0.999502  0.999655  1
  Lu  Lu9  1  0.000000  0.501455  0.499809  1
  In  In10  1  0.500000  0.424655  0.352532  1
  In  In11  1  0.500000  0.568036  0.649102  1
  In  In12  1  0.500000  0.067294  0.850488  1
  In  In13  1  0.500000  0.933729  0.148227  1
  In  In14  1  0.500000  0.293766  0.064973  1
  In  In15  1  0.500000  0.703098  0.932221  1
  In  In16  1  0.500000  0.206021  0.567670  1
  In  In17  1  0.500000  0.795069  0.432641  1
  Ga  Ga18  1  0.500000  0.525218  0.198228  1
  Ru  Ru19  1  0.500000  0.027120  0.304294  1
  Ru  Ru20  1  0.500000  0.975692  0.697166  1
  Ru  Ru21  1  0.500000  0.476453  0.803094  1
