# generated using pymatgen
data_Th10AlSn5Sb2
_symmetry_space_group_name_H-M   'P 1'
_cell_length_a   9.63803852
_cell_length_b   9.63803844
_cell_length_c   6.55308121
_cell_angle_alpha   89.94326813
_cell_angle_beta   89.94326580
_cell_angle_gamma   119.93952883
_symmetry_Int_Tables_number   1
_chemical_formula_structural   Th10AlSn5Sb2
_chemical_formula_sum   'Th10 Al1 Sn5 Sb2'
_cell_volume   527.49331170
_cell_formula_units_Z   1
loop_
 _symmetry_equiv_pos_site_id
 _symmetry_equiv_pos_as_xyz
  1  'x, y, z'
loop_
 _atom_site_type_symbol
 _atom_site_label
 _atom_site_symmetry_multiplicity
 _atom_site_fract_x
 _atom_site_fract_y
 _atom_site_fract_z
 _atom_site_occupancy
  Th  Th0  1  0.999269  0.723464  0.755595  1
  Th  Th1  1  0.277542  0.277542  0.754899  1
  Th  Th2  1  0.333081  0.666324  0.499976  1
  Th  Th3  1  0.666324  0.333081  0.499976  1
  Th  Th4  1  0.723204  0.723204  0.244356  1
  Th  Th5  1  0.723464  0.999269  0.755595  1
  Th  Th6  1  0.000377  0.277272  0.244618  1
  Th  Th7  1  0.277272  0.000377  0.244618  1
  Th  Th8  1  0.333384  0.666367  0.000049  1
  Th  Th9  1  0.666367  0.333384  0.000049  1
  Al  Al10  1  0.000508  0.000508  0.000498  1
  Sn  Sn11  1  0.000017  0.379807  0.748842  1
  Sn  Sn12  1  0.379807  0.000017  0.748842  1
  Sn  Sn13  1  0.620259  0.000380  0.251168  1
  Sn  Sn14  1  0.379601  0.379601  0.250970  1
  Sn  Sn15  1  0.000380  0.620259  0.251168  1
  Sb  Sb16  1  0.618953  0.618953  0.748936  1
  Sb  Sb17  1  0.000191  0.000191  0.499844  1
