# generated using pymatgen
data_Lu4Ni3B16Ir
_symmetry_space_group_name_H-M   'P 1'
_cell_length_a   3.41718800
_cell_length_b   5.86271981
_cell_length_c   11.36221633
_cell_angle_alpha   90.16156053
_cell_angle_beta   90.00000000
_cell_angle_gamma   90.00000000
_symmetry_Int_Tables_number   1
_chemical_formula_structural   Lu4Ni3B16Ir
_chemical_formula_sum   'Lu4 Ni3 B16 Ir1'
_cell_volume   227.62991623
_cell_formula_units_Z   1
loop_
 _symmetry_equiv_pos_site_id
 _symmetry_equiv_pos_as_xyz
  1  'x, y, z'
loop_
 _atom_site_type_symbol
 _atom_site_label
 _atom_site_symmetry_multiplicity
 _atom_site_fract_x
 _atom_site_fract_y
 _atom_site_fract_z
 _atom_site_occupancy
  Lu  Lu0  1  0.500000  0.626804  0.646493  1
  Lu  Lu1  1  0.500000  0.373333  0.350248  1
  Lu  Lu2  1  0.500000  0.129875  0.848883  1
  Lu  Lu3  1  0.500000  0.871669  0.151976  1
  Ni  Ni4  1  0.500000  0.351509  0.095806  1
  Ni  Ni5  1  0.500000  0.133795  0.591378  1
  Ni  Ni6  1  0.500000  0.868362  0.411019  1
  B  B7  1  0.000000  0.868427  0.968735  1
  B  B8  1  0.000000  0.137581  0.033785  1
  B  B9  1  0.000000  0.363083  0.531840  1
  B  B10  1  0.000000  0.636104  0.466853  1
  B  B11  1  0.000000  0.980281  0.690305  1
  B  B12  1  0.000000  0.020438  0.308248  1
  B  B13  1  0.000000  0.475444  0.805559  1
  B  B14  1  0.000000  0.521096  0.193025  1
  B  B15  1  0.000000  0.791487  0.811416  1
  B  B16  1  0.000000  0.213584  0.187173  1
  B  B17  1  0.000000  0.286926  0.683565  1
  B  B18  1  0.000000  0.712988  0.315163  1
  B  B19  1  0.000000  0.886202  0.546656  1
  B  B20  1  0.000000  0.114831  0.451646  1
  B  B21  1  0.000000  0.385698  0.952063  1
  B  B22  1  0.000000  0.614637  0.047727  1
  Ir  Ir23  1  0.500000  0.635847  0.910437  1
