# generated using pymatgen
data_Nb2Pb6O13
_symmetry_space_group_name_H-M   'P 1'
_cell_length_a   7.80075393
_cell_length_b   7.80075370
_cell_length_c   7.80075312
_cell_angle_alpha   120.99597910
_cell_angle_beta   120.55470941
_cell_angle_gamma   88.66265973
_symmetry_Int_Tables_number   1
_chemical_formula_structural   Nb2Pb6O13
_chemical_formula_sum   'Nb2 Pb6 O13'
_cell_volume   331.61822427
_cell_formula_units_Z   1
loop_
 _symmetry_equiv_pos_site_id
 _symmetry_equiv_pos_as_xyz
  1  'x, y, z'
loop_
 _atom_site_type_symbol
 _atom_site_label
 _atom_site_symmetry_multiplicity
 _atom_site_fract_x
 _atom_site_fract_y
 _atom_site_fract_z
 _atom_site_occupancy
  Nb  Nb0  1  0.254059  0.506339  0.747722  1
  Nb  Nb1  1  0.758616  0.506339  0.252278  1
  Pb  Pb2  1  0.254789  0.501523  0.246734  1
  Pb  Pb3  1  0.254789  0.008055  0.753266  1
  Pb  Pb4  1  0.769192  0.033361  0.264168  1
  Pb  Pb5  1  0.769192  0.505024  0.735832  1
  Pb  Pb6  1  0.745165  0.993976  0.751190  1
  Pb  Pb7  1  0.242787  0.993976  0.248810  1
  O  O8  1  0.161293  0.161293  0.000000  1
  O  O9  1  0.528391  0.528391  0.000000  1
  O  O10  1  0.153382  0.575017  0.977130  1
  O  O11  1  0.597887  0.176253  0.022870  1
  O  O12  1  0.153382  0.176253  0.578366  1
  O  O13  1  0.597887  0.575017  0.421634  1
  O  O14  1  0.341008  0.841008  0.500000  1
  O  O15  1  0.937960  0.437960  0.500000  1
  O  O16  1  0.324951  0.435639  0.518998  1
  O  O17  1  0.916642  0.805954  0.481002  1
  O  O18  1  0.324951  0.805954  0.889312  1
  O  O19  1  0.916642  0.435639  0.110688  1
  O  O20  1  0.872033  0.872033  0.000000  1
