# generated using pymatgen
data_LuTh6ScAu10
_symmetry_space_group_name_H-M   'P 1'
_cell_length_a   8.15657450
_cell_length_b   8.15657371
_cell_length_c   8.15657400
_cell_angle_alpha   65.94736706
_cell_angle_beta   65.94736955
_cell_angle_gamma   65.94734668
_symmetry_Int_Tables_number   1
_chemical_formula_structural   LuTh6ScAu10
_chemical_formula_sum   'Lu1 Th6 Sc1 Au10'
_cell_volume   433.12436193
_cell_formula_units_Z   1
loop_
 _symmetry_equiv_pos_site_id
 _symmetry_equiv_pos_as_xyz
  1  'x, y, z'
loop_
 _atom_site_type_symbol
 _atom_site_label
 _atom_site_symmetry_multiplicity
 _atom_site_fract_x
 _atom_site_fract_y
 _atom_site_fract_z
 _atom_site_occupancy
  Lu  Lu0  1  0.656219  0.656219  0.656219  1
  Th  Th1  1  0.893242  0.179755  0.630581  1
  Th  Th2  1  0.630581  0.893242  0.179755  1
  Th  Th3  1  0.179755  0.630581  0.893242  1
  Th  Th4  1  0.109124  0.819564  0.368424  1
  Th  Th5  1  0.368424  0.109124  0.819564  1
  Th  Th6  1  0.819564  0.368424  0.109124  1
  Sc  Sc7  1  0.342584  0.342584  0.342584  1
  Au  Au8  1  0.000548  0.000548  0.000548  1
  Au  Au9  1  0.497212  0.497212  0.497212  1
  Au  Au10  1  0.803071  0.803071  0.803071  1
  Au  Au11  1  0.198666  0.198666  0.198666  1
  Au  Au12  1  0.940723  0.543525  0.323329  1
  Au  Au13  1  0.323329  0.940723  0.543525  1
  Au  Au14  1  0.543525  0.323329  0.940723  1
  Au  Au15  1  0.064980  0.455470  0.672983  1
  Au  Au16  1  0.672983  0.064980  0.455470  1
  Au  Au17  1  0.455470  0.672983  0.064980  1
