# generated using pymatgen
data_UHI2
_symmetry_space_group_name_H-M   'P 1'
_cell_length_a   3.96318700
_cell_length_b   3.96318758
_cell_length_c   17.03234600
_cell_angle_alpha   90.00000000
_cell_angle_beta   90.00000000
_cell_angle_gamma   120.00000353
_symmetry_Int_Tables_number   1
_chemical_formula_structural   UHI2
_chemical_formula_sum   'U2 H2 I4'
_cell_volume   231.68305957
_cell_formula_units_Z   2
loop_
 _symmetry_equiv_pos_site_id
 _symmetry_equiv_pos_as_xyz
  1  'x, y, z'
loop_
 _atom_site_type_symbol
 _atom_site_label
 _atom_site_symmetry_multiplicity
 _atom_site_fract_x
 _atom_site_fract_y
 _atom_site_fract_z
 _atom_site_occupancy
  U  U0  1  0.000000  0.000000  0.250000  1
  U  U1  1  0.000000  0.000000  0.750000  1
  H  H2  1  0.333334  0.666667  0.250000  1
  H  H3  1  0.666665  0.333332  0.750000  1
  I  I4  1  0.666665  0.333332  0.120621  1
  I  I5  1  0.666665  0.333332  0.379379  1
  I  I6  1  0.333334  0.666667  0.620621  1
  I  I7  1  0.333334  0.666667  0.879379  1
