# generated using pymatgen
data_Sr4Li2(CdP2)3
_symmetry_space_group_name_H-M   'P 1'
_cell_length_a   10.00477631
_cell_length_b   10.00477604
_cell_length_c   16.08672700
_cell_angle_alpha   90.00000000
_cell_angle_beta   90.00000000
_cell_angle_gamma   154.55611790
_symmetry_Int_Tables_number   1
_chemical_formula_structural   Sr4Li2(CdP2)3
_chemical_formula_sum   'Sr8 Li4 Cd6 P12'
_cell_volume   691.78935022
_cell_formula_units_Z   2
loop_
 _symmetry_equiv_pos_site_id
 _symmetry_equiv_pos_as_xyz
  1  'x, y, z'
loop_
 _atom_site_type_symbol
 _atom_site_label
 _atom_site_symmetry_multiplicity
 _atom_site_fract_x
 _atom_site_fract_y
 _atom_site_fract_z
 _atom_site_occupancy
  Sr  Sr0  1  0.985774  0.014226  0.378100  1
  Sr  Sr1  1  0.014226  0.985774  0.621900  1
  Sr  Sr2  1  0.985774  0.014226  0.121900  1
  Sr  Sr3  1  0.014226  0.985774  0.878100  1
  Sr  Sr4  1  0.827782  0.172218  0.930508  1
  Sr  Sr5  1  0.172218  0.827782  0.069492  1
  Sr  Sr6  1  0.827782  0.172218  0.569492  1
  Sr  Sr7  1  0.172218  0.827782  0.430508  1
  Li  Li8  1  0.851069  0.148931  0.250000  1
  Li  Li9  1  0.148931  0.851069  0.750000  1
  Li  Li10  1  0.563017  0.436983  0.250000  1
  Li  Li11  1  0.436983  0.563017  0.750000  1
  Cd  Cd12  1  0.351497  0.648503  0.379770  1
  Cd  Cd13  1  0.648503  0.351497  0.620230  1
  Cd  Cd14  1  0.351497  0.648503  0.120230  1
  Cd  Cd15  1  0.648503  0.351497  0.879770  1
  Cd  Cd16  1  0.702467  0.297533  0.250000  1
  Cd  Cd17  1  0.297533  0.702467  0.750000  1
  P  P18  1  0.777672  0.222328  0.386790  1
  P  P19  1  0.222328  0.777672  0.613210  1
  P  P20  1  0.777672  0.222328  0.113210  1
  P  P21  1  0.222328  0.777672  0.886790  1
  P  P22  1  0.557120  0.442880  0.483847  1
  P  P23  1  0.442880  0.557120  0.516153  1
  P  P24  1  0.557120  0.442880  0.016153  1
  P  P25  1  0.442880  0.557120  0.983847  1
  P  P26  1  0.434227  0.565773  0.250000  1
  P  P27  1  0.565773  0.434227  0.750000  1
  P  P28  1  0.116898  0.883102  0.250000  1
  P  P29  1  0.883102  0.116898  0.750000  1
