# generated using pymatgen
data_Nd6Zn4Pt11Rh2
_symmetry_space_group_name_H-M   'P 1'
_cell_length_a   8.38292961
_cell_length_b   8.38292857
_cell_length_c   8.42030762
_cell_angle_alpha   109.78351527
_cell_angle_beta   109.78351036
_cell_angle_gamma   109.19744055
_symmetry_Int_Tables_number   1
_chemical_formula_structural   Nd6Zn4Pt11Rh2
_chemical_formula_sum   'Nd6 Zn4 Pt11 Rh2'
_cell_volume   453.51509746
_cell_formula_units_Z   1
loop_
 _symmetry_equiv_pos_site_id
 _symmetry_equiv_pos_as_xyz
  1  'x, y, z'
loop_
 _atom_site_type_symbol
 _atom_site_label
 _atom_site_symmetry_multiplicity
 _atom_site_fract_x
 _atom_site_fract_y
 _atom_site_fract_z
 _atom_site_occupancy
  Nd  Nd0  1  0.697631  0.697631  0.997143  1
  Nd  Nd1  1  0.303930  0.002785  0.304458  1
  Nd  Nd2  1  0.002785  0.303930  0.304458  1
  Nd  Nd3  1  0.301368  0.301368  0.999165  1
  Nd  Nd4  1  0.698055  0.001844  0.699260  1
  Nd  Nd5  1  0.001844  0.698055  0.699260  1
  Zn  Zn6  1  0.001332  0.001332  0.500676  1
  Zn  Zn7  1  0.996204  0.500585  0.995906  1
  Zn  Zn8  1  0.500585  0.996204  0.995906  1
  Zn  Zn9  1  0.504227  0.504227  0.508271  1
  Pt  Pt10  1  0.333663  0.333663  0.663225  1
  Pt  Pt11  1  0.669974  0.002677  0.332791  1
  Pt  Pt12  1  0.002677  0.669974  0.332791  1
  Pt  Pt13  1  0.669796  0.333242  0.000614  1
  Pt  Pt14  1  0.331471  0.660575  0.331539  1
  Pt  Pt15  1  0.001765  0.333502  0.670789  1
  Pt  Pt16  1  0.333242  0.669796  0.000614  1
  Pt  Pt17  1  0.333502  0.001765  0.670789  1
  Pt  Pt18  1  0.660575  0.331471  0.331539  1
  Pt  Pt19  1  0.668668  0.668668  0.336880  1
  Pt  Pt20  1  0.000469  0.000469  0.000408  1
  Rh  Rh21  1  0.662181  0.324056  0.661760  1
  Rh  Rh22  1  0.324056  0.662181  0.661760  1
