# generated using pymatgen
data_Sm2Cu9Ir
_symmetry_space_group_name_H-M   'P 1'
_cell_length_a   5.19330894
_cell_length_b   5.19330936
_cell_length_c   8.14418400
_cell_angle_alpha   90.00000000
_cell_angle_beta   90.00000000
_cell_angle_gamma   122.78656460
_symmetry_Int_Tables_number   1
_chemical_formula_structural   Sm2Cu9Ir
_chemical_formula_sum   'Sm2 Cu9 Ir1'
_cell_volume   184.66035842
_cell_formula_units_Z   1
loop_
 _symmetry_equiv_pos_site_id
 _symmetry_equiv_pos_as_xyz
  1  'x, y, z'
loop_
 _atom_site_type_symbol
 _atom_site_label
 _atom_site_symmetry_multiplicity
 _atom_site_fract_x
 _atom_site_fract_y
 _atom_site_fract_z
 _atom_site_occupancy
  Sm  Sm0  1  0.000000  0.000000  0.733710  1
  Sm  Sm1  1  0.000000  0.000000  0.266290  1
  Cu  Cu2  1  0.671480  0.328520  0.753790  1
  Cu  Cu3  1  0.671480  0.328520  0.246210  1
  Cu  Cu4  1  0.500000  0.500000  0.000000  1
  Cu  Cu5  1  0.328520  0.671480  0.753790  1
  Cu  Cu6  1  0.500000  0.000000  0.500000  1
  Cu  Cu7  1  0.000000  0.500000  0.000000  1
  Cu  Cu8  1  0.500000  0.000000  0.000000  1
  Cu  Cu9  1  0.328520  0.671480  0.246210  1
  Cu  Cu10  1  0.000000  0.500000  0.500000  1
  Ir  Ir11  1  0.500000  0.500000  0.500000  1
