# generated using pymatgen
data_DyY3Ga18(NiIr2)2
_symmetry_space_group_name_H-M   'P 1'
_cell_length_a   7.55054190
_cell_length_b   7.55043026
_cell_length_c   9.44324900
_cell_angle_alpha   90.00000000
_cell_angle_beta   90.00000000
_cell_angle_gamma   120.07657535
_symmetry_Int_Tables_number   1
_chemical_formula_structural   DyY3Ga18(NiIr2)2
_chemical_formula_sum   'Dy1 Y3 Ga18 Ni2 Ir4'
_cell_volume   465.87163243
_cell_formula_units_Z   1
loop_
 _symmetry_equiv_pos_site_id
 _symmetry_equiv_pos_as_xyz
  1  'x, y, z'
loop_
 _atom_site_type_symbol
 _atom_site_label
 _atom_site_symmetry_multiplicity
 _atom_site_fract_x
 _atom_site_fract_y
 _atom_site_fract_z
 _atom_site_occupancy
  Dy  Dy0  1  0.339188  0.003462  0.750000  1
  Y  Y1  1  0.996426  0.660836  0.250000  1
  Y  Y2  1  0.003491  0.339145  0.750000  1
  Y  Y3  1  0.660783  0.996422  0.250000  1
  Ga  Ga4  1  0.110463  0.110450  0.250000  1
  Ga  Ga5  1  0.889735  0.889561  0.750000  1
  Ga  Ga6  1  0.999350  0.327599  0.078279  1
  Ga  Ga7  1  0.000754  0.672531  0.921655  1
  Ga  Ga8  1  0.000754  0.672531  0.578345  1
  Ga  Ga9  1  0.327584  0.999379  0.421828  1
  Ga  Ga10  1  0.999350  0.327599  0.421721  1
  Ga  Ga11  1  0.672273  0.000635  0.578357  1
  Ga  Ga12  1  0.672273  0.000635  0.921643  1
  Ga  Ga13  1  0.327584  0.999379  0.078172  1
  Ga  Ga14  1  0.327019  0.326907  0.564946  1
  Ga  Ga15  1  0.672961  0.672962  0.435136  1
  Ga  Ga16  1  0.672961  0.672962  0.064864  1
  Ga  Ga17  1  0.327019  0.326907  0.935054  1
  Ga  Ga18  1  0.337902  0.540654  0.250000  1
  Ga  Ga19  1  0.661933  0.459204  0.750000  1
  Ga  Ga20  1  0.540660  0.337895  0.250000  1
  Ga  Ga21  1  0.459408  0.662278  0.750000  1
  Ni  Ni22  1  0.000088  0.000006  0.999954  1
  Ni  Ni23  1  0.000088  0.000006  0.500046  1
  Ir  Ir24  1  0.671440  0.328460  0.999927  1
  Ir  Ir25  1  0.328535  0.671568  0.999928  1
  Ir  Ir26  1  0.328535  0.671568  0.500072  1
  Ir  Ir27  1  0.671440  0.328460  0.500073  1
