# generated using pymatgen
data_Zr5Zn(B2Ru5)2
_symmetry_space_group_name_H-M   'P 1'
_cell_length_a   9.47727400
_cell_length_b   9.47727400
_cell_length_c   3.12966800
_cell_angle_alpha   90.00000000
_cell_angle_beta   90.00000000
_cell_angle_gamma   90.00000000
_symmetry_Int_Tables_number   1
_chemical_formula_structural   Zr5Zn(B2Ru5)2
_chemical_formula_sum   'Zr5 Zn1 B4 Ru10'
_cell_volume   281.10278152
_cell_formula_units_Z   1
loop_
 _symmetry_equiv_pos_site_id
 _symmetry_equiv_pos_as_xyz
  1  'x, y, z'
loop_
 _atom_site_type_symbol
 _atom_site_label
 _atom_site_symmetry_multiplicity
 _atom_site_fract_x
 _atom_site_fract_y
 _atom_site_fract_z
 _atom_site_occupancy
  Zr  Zr0  1  0.823242  0.673359  0.000000  1
  Zr  Zr1  1  0.176758  0.326641  0.000000  1
  Zr  Zr2  1  0.326641  0.823242  0.000000  1
  Zr  Zr3  1  0.673359  0.176758  0.000000  1
  Zr  Zr4  1  0.000000  0.000000  0.000000  1
  Zn  Zn5  1  0.500000  0.500000  0.000000  1
  B  B6  1  0.619726  0.871984  0.000000  1
  B  B7  1  0.380274  0.128016  0.000000  1
  B  B8  1  0.128016  0.619726  0.000000  1
  B  B9  1  0.871984  0.380274  0.000000  1
  Ru  Ru10  1  0.567856  0.715112  0.500000  1
  Ru  Ru11  1  0.432144  0.284888  0.500000  1
  Ru  Ru12  1  0.075999  0.776860  0.500000  1
  Ru  Ru13  1  0.924001  0.223140  0.500000  1
  Ru  Ru14  1  0.284888  0.567856  0.500000  1
  Ru  Ru15  1  0.715112  0.432144  0.500000  1
  Ru  Ru16  1  0.223140  0.075999  0.500000  1
  Ru  Ru17  1  0.776860  0.924001  0.500000  1
  Ru  Ru18  1  0.500000  0.000000  0.500000  1
  Ru  Ru19  1  0.000000  0.500000  0.500000  1
