# generated using pymatgen
data_Nd16Ho3ErIr12
_symmetry_space_group_name_H-M   'P 1'
_cell_length_a   11.19749000
_cell_length_b   11.19749000
_cell_length_c   6.51478100
_cell_angle_alpha   90.00000000
_cell_angle_beta   90.00000000
_cell_angle_gamma   90.00000000
_symmetry_Int_Tables_number   1
_chemical_formula_structural   Nd16Ho3ErIr12
_chemical_formula_sum   'Nd16 Ho3 Er1 Ir12'
_cell_volume   816.84788264
_cell_formula_units_Z   1
loop_
 _symmetry_equiv_pos_site_id
 _symmetry_equiv_pos_as_xyz
  1  'x, y, z'
loop_
 _atom_site_type_symbol
 _atom_site_label
 _atom_site_symmetry_multiplicity
 _atom_site_fract_x
 _atom_site_fract_y
 _atom_site_fract_z
 _atom_site_occupancy
  Nd  Nd0  1  0.289075  0.087658  0.379682  1
  Nd  Nd1  1  0.289074  0.912364  0.879705  1
  Nd  Nd2  1  0.710926  0.087636  0.879705  1
  Nd  Nd3  1  0.710925  0.912342  0.379682  1
  Nd  Nd4  1  0.587637  0.789054  0.879657  1
  Nd  Nd5  1  0.587632  0.211019  0.379705  1
  Nd  Nd6  1  0.412368  0.788981  0.379705  1
  Nd  Nd7  1  0.412363  0.210946  0.879657  1
  Nd  Nd8  1  0.211019  0.412368  0.620295  1
  Nd  Nd9  1  0.210946  0.587637  0.120343  1
  Nd  Nd10  1  0.789054  0.412363  0.120343  1
  Nd  Nd11  1  0.788981  0.587632  0.620295  1
  Nd  Nd12  1  0.912364  0.710926  0.120295  1
  Nd  Nd13  1  0.912342  0.289075  0.620318  1
  Nd  Nd14  1  0.087658  0.710925  0.620318  1
  Nd  Nd15  1  0.087636  0.289074  0.120295  1
  Ho  Ho16  1  0.000000  0.000000  0.500000  1
  Ho  Ho17  1  0.000000  0.000000  0.000000  1
  Ho  Ho18  1  0.500000  0.500000  0.000000  1
  Er  Er19  1  0.500000  0.500000  0.500000  1
  Ir  Ir20  1  0.851092  0.148914  0.249995  1
  Ir  Ir21  1  0.851086  0.851092  0.750005  1
  Ir  Ir22  1  0.148914  0.148908  0.750005  1
  Ir  Ir23  1  0.148908  0.851086  0.249995  1
  Ir  Ir24  1  0.648750  0.351236  0.749783  1
  Ir  Ir25  1  0.648764  0.648750  0.250217  1
  Ir  Ir26  1  0.351236  0.351250  0.250217  1
  Ir  Ir27  1  0.351250  0.648764  0.749783  1
  Ir  Ir28  1  0.500000  0.000000  0.118849  1
  Ir  Ir29  1  0.500000  0.000000  0.618876  1
  Ir  Ir30  1  0.000000  0.500000  0.881151  1
  Ir  Ir31  1  0.000000  0.500000  0.381124  1
