# generated using pymatgen
data_La2Nd8Tc2I15
_symmetry_space_group_name_H-M   'P 1'
_cell_length_a   10.24952563
_cell_length_b   11.03235701
_cell_length_c   11.79139624
_cell_angle_alpha   90.80744691
_cell_angle_beta   114.59536816
_cell_angle_gamma   110.67158919
_symmetry_Int_Tables_number   1
_chemical_formula_structural   La2Nd8Tc2I15
_chemical_formula_sum   'La2 Nd8 Tc2 I15'
_cell_volume   1113.80076819
_cell_formula_units_Z   1
loop_
 _symmetry_equiv_pos_site_id
 _symmetry_equiv_pos_as_xyz
  1  'x, y, z'
loop_
 _atom_site_type_symbol
 _atom_site_label
 _atom_site_symmetry_multiplicity
 _atom_site_fract_x
 _atom_site_fract_y
 _atom_site_fract_z
 _atom_site_occupancy
  La  La0  1  0.978767  0.788238  0.919811  1
  La  La1  1  0.021233  0.211762  0.080189  1
  Nd  Nd2  1  0.244298  0.584649  0.054926  1
  Nd  Nd3  1  0.755702  0.415351  0.945074  1
  Nd  Nd4  1  0.295398  0.902925  0.273990  1
  Nd  Nd5  1  0.704602  0.097075  0.726010  1
  Nd  Nd6  1  0.085276  0.552009  0.321679  1
  Nd  Nd7  1  0.914724  0.447991  0.678321  1
  Nd  Nd8  1  0.831892  0.752249  0.179271  1
  Nd  Nd9  1  0.168108  0.247751  0.820729  1
  Tc  Tc10  1  0.027398  0.676982  0.101938  1
  Tc  Tc11  1  0.972602  0.323018  0.898062  1
  I  I12  1  0.333313  0.448024  0.301769  1
  I  I13  1  0.666687  0.551976  0.698231  1
  I  I14  1  0.205380  0.729483  0.814360  1
  I  I15  1  0.794620  0.270517  0.185640  1
  I  I16  1  0.139907  0.385707  0.584026  1
  I  I17  1  0.860093  0.614293  0.415974  1
  I  I18  1  0.385476  0.797762  0.530778  1
  I  I19  1  0.614524  0.202238  0.469222  1
  I  I20  1  0.271351  0.090404  0.056804  1
  I  I21  1  0.728649  0.909596  0.943196  1
  I  I22  1  0.563940  0.847321  0.228393  1
  I  I23  1  0.436060  0.152679  0.771607  1
  I  I24  1  0.091691  0.036576  0.337058  1
  I  I25  1  0.908309  0.963424  0.662942  1
  I  I26  1  0.500000  0.500000  0.000000  1
