# generated using pymatgen
data_Lu2Co9Mo3As7
_symmetry_space_group_name_H-M   'P 1'
_cell_length_a   3.82264700
_cell_length_b   9.37386096
_cell_length_c   9.37386100
_cell_angle_alpha   119.99999661
_cell_angle_beta   90.00000000
_cell_angle_gamma   90.00000000
_symmetry_Int_Tables_number   1
_chemical_formula_structural   Lu2Co9Mo3As7
_chemical_formula_sum   'Lu2 Co9 Mo3 As7'
_cell_volume   290.89205418
_cell_formula_units_Z   1
loop_
 _symmetry_equiv_pos_site_id
 _symmetry_equiv_pos_as_xyz
  1  'x, y, z'
loop_
 _atom_site_type_symbol
 _atom_site_label
 _atom_site_symmetry_multiplicity
 _atom_site_fract_x
 _atom_site_fract_y
 _atom_site_fract_z
 _atom_site_occupancy
  Lu  Lu0  1  0.000000  0.666667  0.333333  1
  Lu  Lu1  1  0.500000  0.333333  0.666667  1
  Co  Co2  1  0.000000  0.568508  0.938864  1
  Co  Co3  1  0.000000  0.370357  0.431492  1
  Co  Co4  1  0.000000  0.061136  0.629643  1
  Co  Co5  1  0.000000  0.876148  0.159722  1
  Co  Co6  1  0.000000  0.283574  0.123852  1
  Co  Co7  1  0.000000  0.840278  0.716426  1
  Co  Co8  1  0.500000  0.948845  0.383932  1
  Co  Co9  1  0.500000  0.435087  0.051155  1
  Co  Co10  1  0.500000  0.616068  0.564913  1
  Mo  Mo11  1  0.500000  0.780342  0.902621  1
  Mo  Mo12  1  0.500000  0.122278  0.219658  1
  Mo  Mo13  1  0.500000  0.097379  0.877722  1
  As  As14  1  0.000000  0.000000  0.000000  1
  As  As15  1  0.500000  0.708037  0.122275  1
  As  As16  1  0.500000  0.414239  0.291963  1
  As  As17  1  0.500000  0.877725  0.585761  1
  As  As18  1  0.000000  0.583778  0.699440  1
  As  As19  1  0.000000  0.115663  0.416222  1
  As  As20  1  0.000000  0.300560  0.884337  1
