# generated using pymatgen
data_Cr2Ga2Bi2O9
_symmetry_space_group_name_H-M   'P 1'
_cell_length_a   6.03936200
_cell_length_b   8.05095400
_cell_length_c   8.42487400
_cell_angle_alpha   90.00000000
_cell_angle_beta   90.00000000
_cell_angle_gamma   90.00000000
_symmetry_Int_Tables_number   1
_chemical_formula_structural   Cr2Ga2Bi2O9
_chemical_formula_sum   'Cr4 Ga4 Bi4 O18'
_cell_volume   409.63949466
_cell_formula_units_Z   2
loop_
 _symmetry_equiv_pos_site_id
 _symmetry_equiv_pos_as_xyz
  1  'x, y, z'
loop_
 _atom_site_type_symbol
 _atom_site_label
 _atom_site_symmetry_multiplicity
 _atom_site_fract_x
 _atom_site_fract_y
 _atom_site_fract_z
 _atom_site_occupancy
  Cr  Cr0  1  0.744007  0.500000  0.500000  1
  Cr  Cr1  1  0.255993  0.000000  0.000000  1
  Cr  Cr2  1  0.744007  0.000000  0.000000  1
  Cr  Cr3  1  0.255993  0.500000  0.500000  1
  Ga  Ga4  1  0.500000  0.648437  0.836899  1
  Ga  Ga5  1  0.500000  0.851563  0.336899  1
  Ga  Ga6  1  0.500000  0.148437  0.663101  1
  Ga  Ga7  1  0.500000  0.351563  0.163101  1
  Bi  Bi8  1  0.000000  0.675564  0.172434  1
  Bi  Bi9  1  0.000000  0.324436  0.827566  1
  Bi  Bi10  1  0.000000  0.175564  0.327566  1
  Bi  Bi11  1  0.000000  0.824436  0.672434  1
  O  O12  1  0.243471  0.628332  0.708853  1
  O  O13  1  0.756529  0.371668  0.291147  1
  O  O14  1  0.243471  0.128332  0.791147  1
  O  O15  1  0.000000  0.350583  0.567927  1
  O  O16  1  0.000000  0.649417  0.432073  1
  O  O17  1  0.756529  0.128332  0.791147  1
  O  O18  1  0.243471  0.371668  0.291147  1
  O  O19  1  0.500000  0.000000  0.500000  1
  O  O20  1  0.756529  0.871668  0.208853  1
  O  O21  1  0.000000  0.850583  0.932073  1
  O  O22  1  0.500000  0.366718  0.592605  1
  O  O23  1  0.500000  0.866718  0.907395  1
  O  O24  1  0.000000  0.149417  0.067927  1
  O  O25  1  0.500000  0.133282  0.092605  1
  O  O26  1  0.500000  0.500000  0.000000  1
  O  O27  1  0.500000  0.633282  0.407395  1
  O  O28  1  0.756529  0.628332  0.708853  1
  O  O29  1  0.243471  0.871668  0.208853  1
