# generated using pymatgen
data_SrTh3(Ga3Ir)6
_symmetry_space_group_name_H-M   'P 1'
_cell_length_a   7.70355300
_cell_length_b   7.70270181
_cell_length_c   9.55555600
_cell_angle_alpha   90.00000000
_cell_angle_beta   90.00000000
_cell_angle_gamma   119.60302925
_symmetry_Int_Tables_number   1
_chemical_formula_structural   SrTh3(Ga3Ir)6
_chemical_formula_sum   'Sr1 Th3 Ga18 Ir6'
_cell_volume   492.99683525
_cell_formula_units_Z   1
loop_
 _symmetry_equiv_pos_site_id
 _symmetry_equiv_pos_as_xyz
  1  'x, y, z'
loop_
 _atom_site_type_symbol
 _atom_site_label
 _atom_site_symmetry_multiplicity
 _atom_site_fract_x
 _atom_site_fract_y
 _atom_site_fract_z
 _atom_site_occupancy
  Sr  Sr0  1  0.329286  0.004150  0.750000  1
  Th  Th1  1  0.997333  0.671374  0.250000  1
  Th  Th2  1  0.001890  0.329318  0.750000  1
  Th  Th3  1  0.670564  0.996319  0.250000  1
  Ga  Ga4  1  0.135312  0.134048  0.250000  1
  Ga  Ga5  1  0.867972  0.868228  0.750000  1
  Ga  Ga6  1  0.004504  0.335660  0.080684  1
  Ga  Ga7  1  0.999666  0.668192  0.919824  1
  Ga  Ga8  1  0.999666  0.668192  0.580176  1
  Ga  Ga9  1  0.335678  0.004081  0.422796  1
  Ga  Ga10  1  0.004504  0.335660  0.419316  1
  Ga  Ga11  1  0.660787  0.995768  0.580335  1
  Ga  Ga12  1  0.660787  0.995768  0.919665  1
  Ga  Ga13  1  0.335678  0.004081  0.077204  1
  Ga  Ga14  1  0.335461  0.332626  0.559710  1
  Ga  Ga15  1  0.663867  0.663641  0.441000  1
  Ga  Ga16  1  0.663867  0.663641  0.059000  1
  Ga  Ga17  1  0.335461  0.332626  0.940290  1
  Ga  Ga18  1  0.342072  0.543162  0.250000  1
  Ga  Ga19  1  0.659138  0.454427  0.750000  1
  Ga  Ga20  1  0.544017  0.340686  0.250000  1
  Ga  Ga21  1  0.453857  0.658021  0.750000  1
  Ir  Ir22  1  0.676383  0.331173  0.002689  1
  Ir  Ir23  1  0.327552  0.669503  0.002981  1
  Ir  Ir24  1  0.327552  0.669503  0.497019  1
  Ir  Ir25  1  0.676383  0.331173  0.497311  1
  Ir  Ir26  1  0.995383  0.999492  0.003351  1
  Ir  Ir27  1  0.995383  0.999492  0.496649  1
