# generated using pymatgen
data_TbPrNd4(RuBr3)2
_symmetry_space_group_name_H-M   'P 1'
_cell_length_a   4.24322100
_cell_length_b   8.76360606
_cell_length_c   12.19988365
_cell_angle_alpha   85.86969607
_cell_angle_beta   90.00000000
_cell_angle_gamma   90.00000000
_symmetry_Int_Tables_number   1
_chemical_formula_structural   TbPrNd4(RuBr3)2
_chemical_formula_sum   'Tb1 Pr1 Nd4 Ru2 Br6'
_cell_volume   452.48562147
_cell_formula_units_Z   1
loop_
 _symmetry_equiv_pos_site_id
 _symmetry_equiv_pos_as_xyz
  1  'x, y, z'
loop_
 _atom_site_type_symbol
 _atom_site_label
 _atom_site_symmetry_multiplicity
 _atom_site_fract_x
 _atom_site_fract_y
 _atom_site_fract_z
 _atom_site_occupancy
  Tb  Tb0  1  0.750000  0.122013  0.627341  1
  Pr  Pr1  1  0.750000  0.121141  0.168296  1
  Nd  Nd2  1  0.250000  0.287920  0.398622  1
  Nd  Nd3  1  0.750000  0.708447  0.606018  1
  Nd  Nd4  1  0.250000  0.869396  0.370268  1
  Nd  Nd5  1  0.250000  0.885537  0.827848  1
  Ru  Ru6  1  0.250000  0.932330  0.599380  1
  Ru  Ru7  1  0.750000  0.068032  0.401059  1
  Br  Br8  1  0.250000  0.413986  0.633593  1
  Br  Br9  1  0.750000  0.575936  0.373012  1
  Br  Br10  1  0.250000  0.882798  0.106076  1
  Br  Br11  1  0.750000  0.122303  0.884949  1
  Br  Br12  1  0.250000  0.365760  0.144393  1
  Br  Br13  1  0.750000  0.644400  0.859147  1
