# generated using pymatgen
data_Y10Pb6N
_symmetry_space_group_name_H-M   'P 1'
_cell_length_a   9.02289800
_cell_length_b   9.02289810
_cell_length_c   6.64107800
_cell_angle_alpha   90.00000000
_cell_angle_beta   90.00000000
_cell_angle_gamma   119.99999963
_symmetry_Int_Tables_number   1
_chemical_formula_structural   Y10Pb6N
_chemical_formula_sum   'Y10 Pb6 N1'
_cell_volume   468.23224151
_cell_formula_units_Z   1
loop_
 _symmetry_equiv_pos_site_id
 _symmetry_equiv_pos_as_xyz
  1  'x, y, z'
loop_
 _atom_site_type_symbol
 _atom_site_label
 _atom_site_symmetry_multiplicity
 _atom_site_fract_x
 _atom_site_fract_y
 _atom_site_fract_z
 _atom_site_occupancy
  Y  Y0  1  0.333333  0.666667  0.500000  1
  Y  Y1  1  0.666667  0.333333  0.500000  1
  Y  Y2  1  0.666667  0.333333  0.000000  1
  Y  Y3  1  0.333333  0.666667  0.000000  1
  Y  Y4  1  0.000000  0.777387  0.272178  1
  Y  Y5  1  0.222613  0.222613  0.272178  1
  Y  Y6  1  0.777387  0.000000  0.272178  1
  Y  Y7  1  0.000000  0.222613  0.727822  1
  Y  Y8  1  0.777387  0.777387  0.727822  1
  Y  Y9  1  0.222613  0.000000  0.727822  1
  Pb  Pb10  1  0.000000  0.399692  0.249118  1
  Pb  Pb11  1  0.600308  0.600308  0.249118  1
  Pb  Pb12  1  0.399692  0.000000  0.249118  1
  Pb  Pb13  1  0.000000  0.600308  0.750882  1
  Pb  Pb14  1  0.399692  0.399692  0.750882  1
  Pb  Pb15  1  0.600308  0.000000  0.750882  1
  N  N16  1  0.000000  0.000000  0.500000  1
