# generated using pymatgen
data_Nd2Ho4NiBr10
_symmetry_space_group_name_H-M   'P 1'
_cell_length_a   7.37640008
_cell_length_b   9.23605658
_cell_length_c   9.49583211
_cell_angle_alpha   107.25956547
_cell_angle_beta   95.46518855
_cell_angle_gamma   106.05710892
_symmetry_Int_Tables_number   1
_chemical_formula_structural   Nd2Ho4NiBr10
_chemical_formula_sum   'Nd2 Ho4 Ni1 Br10'
_cell_volume   582.51939136
_cell_formula_units_Z   1
loop_
 _symmetry_equiv_pos_site_id
 _symmetry_equiv_pos_as_xyz
  1  'x, y, z'
loop_
 _atom_site_type_symbol
 _atom_site_label
 _atom_site_symmetry_multiplicity
 _atom_site_fract_x
 _atom_site_fract_y
 _atom_site_fract_z
 _atom_site_occupancy
  Nd  Nd0  1  0.131737  0.050710  0.756487  1
  Nd  Nd1  1  0.868263  0.949290  0.243513  1
  Ho  Ho2  1  0.970862  0.290165  0.088703  1
  Ho  Ho3  1  0.029138  0.709835  0.911297  1
  Ho  Ho4  1  0.348247  0.129523  0.165555  1
  Ho  Ho5  1  0.651753  0.870477  0.834445  1
  Ni  Ni6  1  0.000000  0.000000  0.000000  1
  Br  Br7  1  0.556545  0.178086  0.918886  1
  Br  Br8  1  0.443455  0.821914  0.081114  1
  Br  Br9  1  0.343801  0.445974  0.263085  1
  Br  Br10  1  0.656199  0.554026  0.736915  1
  Br  Br11  1  0.255968  0.079788  0.440788  1
  Br  Br12  1  0.744032  0.920212  0.559212  1
  Br  Br13  1  0.767973  0.255792  0.329819  1
  Br  Br14  1  0.232027  0.744208  0.670181  1
  Br  Br15  1  0.082445  0.378659  0.834797  1
  Br  Br16  1  0.917555  0.621341  0.165203  1
