# generated using pymatgen
data_GdTh(Ga4Cu9)2
_symmetry_space_group_name_H-M   'P 1'
_cell_length_a   8.31804271
_cell_length_b   8.31804075
_cell_length_c   8.31804100
_cell_angle_alpha   120.56174541
_cell_angle_beta   120.56173744
_cell_angle_gamma   89.02975838
_symmetry_Int_Tables_number   1
_chemical_formula_structural   GdTh(Ga4Cu9)2
_chemical_formula_sum   'Gd1 Th1 Ga8 Cu18'
_cell_volume   403.43866002
_cell_formula_units_Z   1
loop_
 _symmetry_equiv_pos_site_id
 _symmetry_equiv_pos_as_xyz
  1  'x, y, z'
loop_
 _atom_site_type_symbol
 _atom_site_label
 _atom_site_symmetry_multiplicity
 _atom_site_fract_x
 _atom_site_fract_y
 _atom_site_fract_z
 _atom_site_occupancy
  Gd  Gd0  1  0.250000  0.250000  0.000000  1
  Th  Th1  1  0.750000  0.750000  0.000000  1
  Ga  Ga2  1  0.057783  0.557687  0.861030  1
  Ga  Ga3  1  0.696656  0.196752  0.138970  1
  Ga  Ga4  1  0.557687  0.696656  0.499904  1
  Ga  Ga5  1  0.196752  0.057783  0.500096  1
  Ga  Ga6  1  0.942313  0.442217  0.138970  1
  Ga  Ga7  1  0.303248  0.803344  0.861030  1
  Ga  Ga8  1  0.442217  0.303248  0.499904  1
  Ga  Ga9  1  0.803344  0.942313  0.500096  1
  Cu  Cu10  1  0.061532  0.201770  0.264343  1
  Cu  Cu11  1  0.937428  0.797190  0.735657  1
  Cu  Cu12  1  0.562572  0.298230  0.859762  1
  Cu  Cu13  1  0.438468  0.702810  0.140238  1
  Cu  Cu14  1  0.797190  0.061532  0.859762  1
  Cu  Cu15  1  0.201770  0.937428  0.140238  1
  Cu  Cu16  1  0.702810  0.562572  0.264343  1
  Cu  Cu17  1  0.298230  0.438468  0.735657  1
  Cu  Cu18  1  0.438308  0.937833  0.733744  1
  Cu  Cu19  1  0.204089  0.704564  0.266256  1
  Cu  Cu20  1  0.937833  0.204089  0.499525  1
  Cu  Cu21  1  0.704564  0.438308  0.500475  1
  Cu  Cu22  1  0.562167  0.061692  0.266256  1
  Cu  Cu23  1  0.795436  0.295911  0.733744  1
  Cu  Cu24  1  0.061692  0.795436  0.499525  1
  Cu  Cu25  1  0.295911  0.562167  0.500475  1
  Cu  Cu26  1  0.000000  0.500000  0.500000  1
  Cu  Cu27  1  0.500000  0.000000  0.500000  1
