# generated using pymatgen
data_Er10Sn3Bi3S
_symmetry_space_group_name_H-M   'P 1'
_cell_length_a   6.20426700
_cell_length_b   9.13276730
_cell_length_c   9.13279200
_cell_angle_alpha   119.99965481
_cell_angle_beta   90.00014776
_cell_angle_gamma   89.99978183
_symmetry_Int_Tables_number   1
_chemical_formula_structural   Er10Sn3Bi3S
_chemical_formula_sum   'Er10 Sn3 Bi3 S1'
_cell_volume   448.15534500
_cell_formula_units_Z   1
loop_
 _symmetry_equiv_pos_site_id
 _symmetry_equiv_pos_as_xyz
  1  'x, y, z'
loop_
 _atom_site_type_symbol
 _atom_site_label
 _atom_site_symmetry_multiplicity
 _atom_site_fract_x
 _atom_site_fract_y
 _atom_site_fract_z
 _atom_site_occupancy
  Er  Er0  1  0.495858  0.333359  0.666598  1
  Er  Er1  1  0.495891  0.666685  0.333429  1
  Er  Er2  1  0.004778  0.666640  0.333407  1
  Er  Er3  1  0.004800  0.333401  0.666611  1
  Er  Er4  1  0.754502  0.243989  0.000030  1
  Er  Er5  1  0.754534  0.755906  0.755915  1
  Er  Er6  1  0.754527  0.000040  0.244071  1
  Er  Er7  1  0.246370  0.755514  0.999970  1
  Er  Er8  1  0.246359  0.244529  0.244535  1
  Er  Er9  1  0.246351  0.999963  0.755484  1
  Sn  Sn10  1  0.249347  0.391037  0.000064  1
  Sn  Sn11  1  0.249293  0.608916  0.608970  1
  Sn  Sn12  1  0.249280  0.000005  0.390886  1
  Bi  Bi13  1  0.749037  0.607111  0.999991  1
  Bi  Bi14  1  0.749047  0.392934  0.392943  1
  Bi  Bi15  1  0.749017  0.999982  0.607097  1
  S  S16  1  0.501009  0.999989  0.999995  1
