# generated using pymatgen
data_Ti5NbReSi6Tc5
_symmetry_space_group_name_H-M   'P 1'
_cell_length_a   7.54069169
_cell_length_b   7.54210623
_cell_length_c   7.54029976
_cell_angle_alpha   126.07590815
_cell_angle_beta   128.86999775
_cell_angle_gamma   77.49968159
_symmetry_Int_Tables_number   1
_chemical_formula_structural   Ti5NbReSi6Tc5
_chemical_formula_sum   'Ti5 Nb1 Re1 Si6 Tc5'
_cell_volume   261.74667669
_cell_formula_units_Z   1
loop_
 _symmetry_equiv_pos_site_id
 _symmetry_equiv_pos_as_xyz
  1  'x, y, z'
loop_
 _atom_site_type_symbol
 _atom_site_label
 _atom_site_symmetry_multiplicity
 _atom_site_fract_x
 _atom_site_fract_y
 _atom_site_fract_z
 _atom_site_occupancy
  Ti  Ti0  1  0.548378  0.097102  0.048420  1
  Ti  Ti1  1  0.450367  0.490768  0.540012  1
  Ti  Ti2  1  0.953150  0.498827  0.046148  1
  Ti  Ti3  1  0.049601  0.090519  0.541354  1
  Ti  Ti4  1  0.749461  0.899078  0.648884  1
  Nb  Nb5  1  0.249480  0.901242  0.152570  1
  Re  Re6  1  0.370356  0.497139  0.128034  1
  Si  Si7  1  0.752384  0.498721  0.248257  1
  Si  Si8  1  0.249528  0.494787  0.743147  1
  Si  Si9  1  0.337693  0.829461  0.503835  1
  Si  Si10  1  0.672477  0.164557  0.501693  1
  Si  Si11  1  0.825809  0.829185  0.991740  1
  Si  Si12  1  0.162675  0.164078  0.991737  1
  Tc  Tc13  1  0.501286  0.237322  0.739250  1
  Tc  Tc14  1  0.998044  0.237283  0.235704  1
  Tc  Tc15  1  0.130442  0.757775  0.627805  1
  Tc  Tc16  1  0.868967  0.496891  0.626358  1
  Tc  Tc17  1  0.629903  0.757465  0.127253  1
