# generated using pymatgen
data_PrNd3(PBr)2
_symmetry_space_group_name_H-M   'P 1'
_cell_length_a   4.13898900
_cell_length_b   4.13898871
_cell_length_c   14.89772800
_cell_angle_alpha   90.00000000
_cell_angle_beta   90.00000000
_cell_angle_gamma   120.00001029
_symmetry_Int_Tables_number   1
_chemical_formula_structural   PrNd3(PBr)2
_chemical_formula_sum   'Pr1 Nd3 P2 Br2'
_cell_volume   221.02385108
_cell_formula_units_Z   1
loop_
 _symmetry_equiv_pos_site_id
 _symmetry_equiv_pos_as_xyz
  1  'x, y, z'
loop_
 _atom_site_type_symbol
 _atom_site_label
 _atom_site_symmetry_multiplicity
 _atom_site_fract_x
 _atom_site_fract_y
 _atom_site_fract_z
 _atom_site_occupancy
  Pr  Pr0  1  0.333333  0.666667  0.399221  1
  Nd  Nd1  1  0.333333  0.666667  0.099907  1
  Nd  Nd2  1  0.666667  0.333333  0.601811  1
  Nd  Nd3  1  0.666667  0.333333  0.899389  1
  P  P4  1  0.000000  0.000000  0.999623  1
  P  P5  1  0.000000  0.000000  0.501805  1
  Br  Br6  1  0.666667  0.333333  0.247757  1
  Br  Br7  1  0.333333  0.666667  0.750487  1
