# generated using pymatgen
data_Er2Pa(Co3P2)3
_symmetry_space_group_name_H-M   'P 1'
_cell_length_a   3.70037700
_cell_length_b   10.49973500
_cell_length_c   12.09974300
_cell_angle_alpha   90.00000000
_cell_angle_beta   90.00000000
_cell_angle_gamma   90.00000000
_symmetry_Int_Tables_number   1
_chemical_formula_structural   Er2Pa(Co3P2)3
_chemical_formula_sum   'Er4 Pa2 Co18 P12'
_cell_volume   470.11104738
_cell_formula_units_Z   2
loop_
 _symmetry_equiv_pos_site_id
 _symmetry_equiv_pos_as_xyz
  1  'x, y, z'
loop_
 _atom_site_type_symbol
 _atom_site_label
 _atom_site_symmetry_multiplicity
 _atom_site_fract_x
 _atom_site_fract_y
 _atom_site_fract_z
 _atom_site_occupancy
  Er  Er0  1  0.250000  0.934036  0.795012  1
  Er  Er1  1  0.250000  0.565964  0.795012  1
  Er  Er2  1  0.750000  0.065964  0.204988  1
  Er  Er3  1  0.750000  0.434036  0.204988  1
  Pa  Pa4  1  0.750000  0.250000  0.471549  1
  Pa  Pa5  1  0.250000  0.750000  0.528451  1
  Co  Co6  1  0.250000  0.250000  0.841587  1
  Co  Co7  1  0.750000  0.750000  0.158413  1
  Co  Co8  1  0.250000  0.250000  0.302411  1
  Co  Co9  1  0.750000  0.750000  0.697589  1
  Co  Co10  1  0.750000  0.250000  0.014537  1
  Co  Co11  1  0.250000  0.750000  0.985463  1
  Co  Co12  1  0.250000  0.416140  0.006076  1
  Co  Co13  1  0.250000  0.083860  0.006076  1
  Co  Co14  1  0.750000  0.583860  0.993924  1
  Co  Co15  1  0.750000  0.916140  0.993924  1
  Co  Co16  1  0.250000  0.449389  0.568371  1
  Co  Co17  1  0.250000  0.050611  0.568371  1
  Co  Co18  1  0.750000  0.550611  0.431629  1
  Co  Co19  1  0.750000  0.949389  0.431629  1
  Co  Co20  1  0.250000  0.870495  0.289503  1
  Co  Co21  1  0.250000  0.629505  0.289503  1
  Co  Co22  1  0.750000  0.129505  0.710497  1
  Co  Co23  1  0.750000  0.370495  0.710497  1
  P  P24  1  0.250000  0.250000  0.120538  1
  P  P25  1  0.750000  0.750000  0.879462  1
  P  P26  1  0.250000  0.250000  0.656705  1
  P  P27  1  0.750000  0.750000  0.343295  1
  P  P28  1  0.250000  0.442286  0.382269  1
  P  P29  1  0.250000  0.057714  0.382269  1
  P  P30  1  0.750000  0.557714  0.617731  1
  P  P31  1  0.750000  0.942286  0.617731  1
  P  P32  1  0.250000  0.903312  0.106077  1
  P  P33  1  0.250000  0.596688  0.106077  1
  P  P34  1  0.750000  0.096688  0.893923  1
  P  P35  1  0.750000  0.403312  0.893923  1
