# generated using pymatgen
data_Sr6Pr2Zn3Si12Au
_symmetry_space_group_name_H-M   'P 1'
_cell_length_a   8.31627100
_cell_length_b   8.31627316
_cell_length_c   9.14481900
_cell_angle_alpha   90.00000000
_cell_angle_beta   90.00000000
_cell_angle_gamma   120.00001130
_symmetry_Int_Tables_number   1
_chemical_formula_structural   Sr6Pr2Zn3Si12Au
_chemical_formula_sum   'Sr6 Pr2 Zn3 Si12 Au1'
_cell_volume   547.72564478
_cell_formula_units_Z   1
loop_
 _symmetry_equiv_pos_site_id
 _symmetry_equiv_pos_as_xyz
  1  'x, y, z'
loop_
 _atom_site_type_symbol
 _atom_site_label
 _atom_site_symmetry_multiplicity
 _atom_site_fract_x
 _atom_site_fract_y
 _atom_site_fract_z
 _atom_site_occupancy
  Sr  Sr0  1  0.499964  0.500036  0.750113  1
  Sr  Sr1  1  0.500243  0.499757  0.249849  1
  Sr  Sr2  1  0.000072  0.500036  0.750113  1
  Sr  Sr3  1  0.999516  0.499757  0.249849  1
  Sr  Sr4  1  0.499964  0.999928  0.750113  1
  Sr  Sr5  1  0.500243  0.000484  0.249849  1
  Pr  Pr6  1  0.000000  0.000000  0.750220  1
  Pr  Pr7  1  0.000000  0.000000  0.249867  1
  Zn  Zn8  1  0.333333  0.666667  0.000397  1
  Zn  Zn9  1  0.333333  0.666667  0.499488  1
  Zn  Zn10  1  0.666667  0.333333  0.500428  1
  Si  Si11  1  0.836897  0.163103  0.999851  1
  Si  Si12  1  0.162526  0.837474  0.000182  1
  Si  Si13  1  0.326206  0.163103  0.999851  1
  Si  Si14  1  0.163537  0.836463  0.499539  1
  Si  Si15  1  0.674947  0.837474  0.000182  1
  Si  Si16  1  0.835909  0.164091  0.500431  1
  Si  Si17  1  0.836897  0.673794  0.999851  1
  Si  Si18  1  0.672926  0.836463  0.499539  1
  Si  Si19  1  0.162526  0.325053  0.000182  1
  Si  Si20  1  0.328183  0.164091  0.500431  1
  Si  Si21  1  0.163537  0.327074  0.499539  1
  Si  Si22  1  0.835909  0.671817  0.500431  1
  Au  Au23  1  0.666667  0.333333  0.999708  1
