# generated using pymatgen
data_CeNd4NpRu6
_symmetry_space_group_name_H-M   'P 1'
_cell_length_a   5.30799299
_cell_length_b   5.30799390
_cell_length_c   9.49893800
_cell_angle_alpha   90.00000000
_cell_angle_beta   90.00000000
_cell_angle_gamma   112.55338187
_symmetry_Int_Tables_number   1
_chemical_formula_structural   CeNd4NpRu6
_chemical_formula_sum   'Ce1 Nd4 Np1 Ru6'
_cell_volume   247.16292815
_cell_formula_units_Z   1
loop_
 _symmetry_equiv_pos_site_id
 _symmetry_equiv_pos_as_xyz
  1  'x, y, z'
loop_
 _atom_site_type_symbol
 _atom_site_label
 _atom_site_symmetry_multiplicity
 _atom_site_fract_x
 _atom_site_fract_y
 _atom_site_fract_z
 _atom_site_occupancy
  Ce  Ce0  1  0.155202  0.844798  0.750000  1
  Nd  Nd1  1  0.339979  0.660021  0.433410  1
  Nd  Nd2  1  0.660483  0.339517  0.564097  1
  Nd  Nd3  1  0.660483  0.339517  0.935903  1
  Nd  Nd4  1  0.339979  0.660021  0.066590  1
  Np  Np5  1  0.850416  0.149584  0.250000  1
  Ru  Ru6  1  0.989046  0.010954  0.489749  1
  Ru  Ru7  1  0.989046  0.010954  0.010251  1
  Ru  Ru8  1  0.847149  0.641266  0.250000  1
  Ru  Ru9  1  0.358734  0.152851  0.250000  1
  Ru  Ru10  1  0.155516  0.346033  0.750000  1
  Ru  Ru11  1  0.653967  0.844484  0.750000  1
