# generated using pymatgen
data_LuHfB4Ru5
_symmetry_space_group_name_H-M   'P 1'
_cell_length_a   3.02867100
_cell_length_b   8.82488159
_cell_length_c   9.98877376
_cell_angle_alpha   89.71428454
_cell_angle_beta   90.00000000
_cell_angle_gamma   90.00000000
_symmetry_Int_Tables_number   1
_chemical_formula_structural   LuHfB4Ru5
_chemical_formula_sum   'Lu2 Hf2 B8 Ru10'
_cell_volume   266.97325901
_cell_formula_units_Z   2
loop_
 _symmetry_equiv_pos_site_id
 _symmetry_equiv_pos_as_xyz
  1  'x, y, z'
loop_
 _atom_site_type_symbol
 _atom_site_label
 _atom_site_symmetry_multiplicity
 _atom_site_fract_x
 _atom_site_fract_y
 _atom_site_fract_z
 _atom_site_occupancy
  Lu  Lu0  1  0.500000  0.835089  0.180578  1
  Lu  Lu1  1  0.500000  0.164911  0.819422  1
  Hf  Hf2  1  0.500000  0.664571  0.680187  1
  Hf  Hf3  1  0.500000  0.335429  0.319813  1
  B  B4  1  0.500000  0.968036  0.584046  1
  B  B5  1  0.500000  0.031964  0.415954  1
  B  B6  1  0.500000  0.856551  0.897514  1
  B  B7  1  0.500000  0.143449  0.102486  1
  B  B8  1  0.500000  0.643478  0.397121  1
  B  B9  1  0.500000  0.356522  0.602879  1
  B  B10  1  0.500000  0.468724  0.915470  1
  B  B11  1  0.500000  0.531276  0.084530  1
  Ru  Ru12  1  0.000000  0.673446  0.946144  1
  Ru  Ru13  1  0.000000  0.326554  0.053856  1
  Ru  Ru14  1  0.000000  0.822998  0.449526  1
  Ru  Ru15  1  0.000000  0.177002  0.550474  1
  Ru  Ru16  1  0.000000  0.000000  0.000000  1
  Ru  Ru17  1  0.000000  0.418883  0.765135  1
  Ru  Ru18  1  0.000000  0.581117  0.234865  1
  Ru  Ru19  1  0.000000  0.500000  0.500000  1
  Ru  Ru20  1  0.000000  0.908451  0.732516  1
  Ru  Ru21  1  0.000000  0.091549  0.267484  1
