# generated using pymatgen
data_Ti2Si4Mo2IrRh3
_symmetry_space_group_name_H-M   'P 1'
_cell_length_a   3.78873200
_cell_length_b   6.29506828
_cell_length_c   7.24621774
_cell_angle_alpha   89.80297089
_cell_angle_beta   90.00000000
_cell_angle_gamma   90.00000000
_symmetry_Int_Tables_number   1
_chemical_formula_structural   Ti2Si4Mo2IrRh3
_chemical_formula_sum   'Ti2 Si4 Mo2 Ir1 Rh3'
_cell_volume   172.82363811
_cell_formula_units_Z   1
loop_
 _symmetry_equiv_pos_site_id
 _symmetry_equiv_pos_as_xyz
  1  'x, y, z'
loop_
 _atom_site_type_symbol
 _atom_site_label
 _atom_site_symmetry_multiplicity
 _atom_site_fract_x
 _atom_site_fract_y
 _atom_site_fract_z
 _atom_site_occupancy
  Ti  Ti0  1  0.250000  0.472268  0.674534  1
  Ti  Ti1  1  0.250000  0.974449  0.824125  1
  Si  Si2  1  0.250000  0.234910  0.370872  1
  Si  Si3  1  0.750000  0.761669  0.619256  1
  Si  Si4  1  0.250000  0.734554  0.127648  1
  Si  Si5  1  0.750000  0.262954  0.882398  1
  Mo  Mo6  1  0.750000  0.026185  0.177261  1
  Mo  Mo7  1  0.750000  0.527652  0.323576  1
  Ir  Ir8  1  0.750000  0.148832  0.566690  1
  Rh  Rh9  1  0.250000  0.354121  0.059209  1
  Rh  Rh10  1  0.750000  0.648350  0.933554  1
  Rh  Rh11  1  0.250000  0.854055  0.440876  1
