# generated using pymatgen
data_Ba10Sn2PtRh3
_symmetry_space_group_name_H-M   'P 1'
_cell_length_a   10.09284108
_cell_length_b   10.09284139
_cell_length_c   10.08174060
_cell_angle_alpha   129.10331886
_cell_angle_beta   129.10331789
_cell_angle_gamma   74.92672295
_symmetry_Int_Tables_number   1
_chemical_formula_structural   Ba10Sn2PtRh3
_chemical_formula_sum   'Ba10 Sn2 Pt1 Rh3'
_cell_volume   602.04048419
_cell_formula_units_Z   1
loop_
 _symmetry_equiv_pos_site_id
 _symmetry_equiv_pos_as_xyz
  1  'x, y, z'
loop_
 _atom_site_type_symbol
 _atom_site_label
 _atom_site_symmetry_multiplicity
 _atom_site_fract_x
 _atom_site_fract_y
 _atom_site_fract_z
 _atom_site_occupancy
  Ba  Ba0  1  0.999129  0.998075  0.997204  1
  Ba  Ba1  1  0.501925  0.500871  0.002796  1
  Ba  Ba2  1  0.809110  0.304397  0.848501  1
  Ba  Ba3  1  0.195603  0.690890  0.151499  1
  Ba  Ba4  1  0.460609  0.955896  0.151499  1
  Ba  Ba5  1  0.301633  0.463143  0.500000  1
  Ba  Ba6  1  0.036857  0.198367  0.500000  1
  Ba  Ba7  1  0.544104  0.039391  0.848501  1
  Ba  Ba8  1  0.694664  0.541629  0.500000  1
  Ba  Ba9  1  0.958371  0.805336  0.500000  1
  Sn  Sn10  1  0.250723  0.249277  0.000000  1
  Sn  Sn11  1  0.750723  0.749277  0.000000  1
  Pt  Pt12  1  0.381053  0.118947  0.500000  1
  Rh  Rh13  1  0.117840  0.618010  0.735849  1
  Rh  Rh14  1  0.881990  0.382160  0.264151  1
  Rh  Rh15  1  0.615666  0.884334  0.500000  1
