# generated using pymatgen
data_Pu4AsBr6
_symmetry_space_group_name_H-M   'P 1'
_cell_length_a   4.20483700
_cell_length_b   13.64128600
_cell_length_c   14.52286200
_cell_angle_alpha   90.00000000
_cell_angle_beta   90.00000000
_cell_angle_gamma   90.00000000
_symmetry_Int_Tables_number   1
_chemical_formula_structural   Pu4AsBr6
_chemical_formula_sum   'Pu8 As2 Br12'
_cell_volume   833.02241969
_cell_formula_units_Z   2
loop_
 _symmetry_equiv_pos_site_id
 _symmetry_equiv_pos_as_xyz
  1  'x, y, z'
loop_
 _atom_site_type_symbol
 _atom_site_label
 _atom_site_symmetry_multiplicity
 _atom_site_fract_x
 _atom_site_fract_y
 _atom_site_fract_z
 _atom_site_occupancy
  Pu  Pu0  1  0.500000  0.122640  0.335919  1
  Pu  Pu1  1  0.500000  0.877360  0.664081  1
  Pu  Pu2  1  0.500000  0.622640  0.164081  1
  Pu  Pu3  1  0.500000  0.377360  0.835919  1
  Pu  Pu4  1  0.000000  0.121229  0.580133  1
  Pu  Pu5  1  0.000000  0.878771  0.419867  1
  Pu  Pu6  1  0.000000  0.621229  0.919867  1
  Pu  Pu7  1  0.000000  0.378771  0.080133  1
  As  As8  1  0.500000  0.000000  0.500000  1
  As  As9  1  0.500000  0.500000  0.000000  1
  Br  Br10  1  0.500000  0.244400  0.161582  1
  Br  Br11  1  0.500000  0.755600  0.838418  1
  Br  Br12  1  0.500000  0.744400  0.338418  1
  Br  Br13  1  0.500000  0.255600  0.661582  1
  Br  Br14  1  0.000000  0.251889  0.414175  1
  Br  Br15  1  0.000000  0.748111  0.585825  1
  Br  Br16  1  0.000000  0.751889  0.085825  1
  Br  Br17  1  0.000000  0.248111  0.914175  1
  Br  Br18  1  0.000000  0.000144  0.248211  1
  Br  Br19  1  0.000000  0.999856  0.751789  1
  Br  Br20  1  0.000000  0.500144  0.251789  1
  Br  Br21  1  0.000000  0.499856  0.748211  1
