# generated using pymatgen
data_Yb11Ho4Tm5Sn16
_symmetry_space_group_name_H-M   'P 1'
_cell_length_a   7.80583004
_cell_length_b   8.39823676
_cell_length_c   15.90331807
_cell_angle_alpha   90.00248216
_cell_angle_beta   90.01074823
_cell_angle_gamma   89.87530602
_symmetry_Int_Tables_number   1
_chemical_formula_structural   Yb11Ho4Tm5Sn16
_chemical_formula_sum   'Yb11 Ho4 Tm5 Sn16'
_cell_volume   1042.54284842
_cell_formula_units_Z   1
loop_
 _symmetry_equiv_pos_site_id
 _symmetry_equiv_pos_as_xyz
  1  'x, y, z'
loop_
 _atom_site_type_symbol
 _atom_site_label
 _atom_site_symmetry_multiplicity
 _atom_site_fract_x
 _atom_site_fract_y
 _atom_site_fract_z
 _atom_site_occupancy
  Yb  Yb0  1  0.503918  0.687321  0.593538  1
  Yb  Yb1  1  0.003940  0.815189  0.908348  1
  Yb  Yb2  1  0.494333  0.312010  0.092262  1
  Yb  Yb3  1  0.995748  0.187175  0.408139  1
  Yb  Yb4  1  0.494507  0.312041  0.407768  1
  Yb  Yb5  1  0.995909  0.187134  0.091828  1
  Yb  Yb6  1  0.503777  0.687291  0.906498  1
  Yb  Yb7  1  0.003792  0.815226  0.591616  1
  Yb  Yb8  1  0.336193  0.989791  0.750018  1
  Yb  Yb9  1  0.163660  0.488190  0.249975  1
  Yb  Yb10  1  0.663444  0.009555  0.250027  1
  Ho  Ho11  1  0.326173  0.833177  0.377947  1
  Ho  Ho12  1  0.826381  0.664280  0.121773  1
  Ho  Ho13  1  0.674078  0.163900  0.877781  1
  Ho  Ho14  1  0.175423  0.334905  0.622833  1
  Tm  Tm15  1  0.674224  0.163764  0.622219  1
  Tm  Tm16  1  0.175378  0.335084  0.877170  1
  Tm  Tm17  1  0.326061  0.833351  0.122045  1
  Tm  Tm18  1  0.826325  0.664141  0.378230  1
  Tm  Tm19  1  0.837918  0.509938  0.749977  1
  Sn  Sn20  1  0.672587  0.962651  0.459387  1
  Sn  Sn21  1  0.172295  0.536522  0.040000  1
  Sn  Sn22  1  0.327980  0.037171  0.959420  1
  Sn  Sn23  1  0.827978  0.465474  0.543823  1
  Sn  Sn24  1  0.329266  0.037108  0.540850  1
  Sn  Sn25  1  0.829205  0.465527  0.955862  1
  Sn  Sn26  1  0.671385  0.962615  0.040928  1
  Sn  Sn27  1  0.171067  0.536525  0.459697  1
  Sn  Sn28  1  0.476182  0.379363  0.750068  1
  Sn  Sn29  1  0.971743  0.133040  0.749927  1
  Sn  Sn30  1  0.527848  0.625352  0.250112  1
  Sn  Sn31  1  0.027241  0.871752  0.249895  1
  Sn  Sn32  1  0.721891  0.865201  0.749895  1
  Sn  Sn33  1  0.209564  0.631049  0.750145  1
  Sn  Sn34  1  0.280685  0.126084  0.249847  1
  Sn  Sn35  1  0.781904  0.371104  0.250154  1
