# generated using pymatgen
data_Ho6Tm9Sc(In3Co)2
_symmetry_space_group_name_H-M   'P 1'
_cell_length_a   10.20646000
_cell_length_b   10.22444467
_cell_length_c   6.97830630
_cell_angle_alpha   90.25136802
_cell_angle_beta   90.00000000
_cell_angle_gamma   119.94183021
_symmetry_Int_Tables_number   1
_chemical_formula_structural   Ho6Tm9Sc(In3Co)2
_chemical_formula_sum   'Ho6 Tm9 Sc1 In6 Co2'
_cell_volume   631.02160223
_cell_formula_units_Z   1
loop_
 _symmetry_equiv_pos_site_id
 _symmetry_equiv_pos_as_xyz
  1  'x, y, z'
loop_
 _atom_site_type_symbol
 _atom_site_label
 _atom_site_symmetry_multiplicity
 _atom_site_fract_x
 _atom_site_fract_y
 _atom_site_fract_z
 _atom_site_occupancy
  Ho  Ho0  1  0.535752  0.071506  0.514724  1
  Ho  Ho1  1  0.933263  0.465546  0.513079  1
  Ho  Ho2  1  0.532280  0.465546  0.513079  1
  Ho  Ho3  1  0.464400  0.928798  0.015089  1
  Ho  Ho4  1  0.070726  0.531576  0.010294  1
  Ho  Ho5  1  0.460853  0.531576  0.010294  1
  Tm  Tm6  1  0.643071  0.822850  0.720328  1
  Tm  Tm7  1  0.179778  0.822850  0.720328  1
  Tm  Tm8  1  0.820699  0.641398  0.218148  1
  Tm  Tm9  1  0.356281  0.177359  0.218429  1
  Tm  Tm10  1  0.821079  0.177359  0.218429  1
  Tm  Tm11  1  0.666424  0.332848  0.902500  1
  Tm  Tm12  1  0.332883  0.665767  0.406582  1
  Tm  Tm13  1  0.000894  0.001789  0.503156  1
  Tm  Tm14  1  0.001242  0.002483  0.999981  1
  Sc  Sc15  1  0.180421  0.360843  0.718459  1
  In  In16  1  0.837752  0.675505  0.760224  1
  In  In17  1  0.321224  0.166699  0.760468  1
  In  In18  1  0.845475  0.166699  0.760468  1
  In  In19  1  0.163001  0.326002  0.273490  1
  In  In20  1  0.673996  0.835701  0.263742  1
  In  In21  1  0.161704  0.835701  0.263742  1
  Co  Co22  1  0.666286  0.332570  0.286475  1
  Co  Co23  1  0.330515  0.661031  0.786492  1
