# generated using pymatgen
data_Bi2OsRhO7
_symmetry_space_group_name_H-M   'P 1'
_cell_length_a   7.41100646
_cell_length_b   7.38463336
_cell_length_c   7.38463243
_cell_angle_alpha   59.84758322
_cell_angle_beta   59.88178904
_cell_angle_gamma   59.88178706
_symmetry_Int_Tables_number   1
_chemical_formula_structural   Bi2OsRhO7
_chemical_formula_sum   'Bi4 Os2 Rh2 O14'
_cell_volume   284.93168560
_cell_formula_units_Z   2
loop_
 _symmetry_equiv_pos_site_id
 _symmetry_equiv_pos_as_xyz
  1  'x, y, z'
loop_
 _atom_site_type_symbol
 _atom_site_label
 _atom_site_symmetry_multiplicity
 _atom_site_fract_x
 _atom_site_fract_y
 _atom_site_fract_z
 _atom_site_occupancy
  Bi  Bi0  1  0.125000  0.125000  0.125000  1
  Bi  Bi1  1  0.125000  0.625000  0.125000  1
  Bi  Bi2  1  0.625000  0.125000  0.125000  1
  Bi  Bi3  1  0.125000  0.125000  0.625000  1
  Os  Os4  1  0.625000  0.625000  0.625000  1
  Os  Os5  1  0.125000  0.625000  0.625000  1
  Rh  Rh6  1  0.625000  0.625000  0.125000  1
  Rh  Rh7  1  0.625000  0.125000  0.625000  1
  O  O8  1  0.249331  0.250669  0.250669  1
  O  O9  1  0.289776  0.697821  0.302372  1
  O  O10  1  0.960224  0.947628  0.552179  1
  O  O11  1  0.539969  0.947628  0.552179  1
  O  O12  1  0.710031  0.697821  0.302372  1
  O  O13  1  0.948182  0.551818  0.551818  1
  O  O14  1  0.710031  0.302372  0.697821  1
  O  O15  1  0.289776  0.302372  0.697821  1
  O  O16  1  0.712026  0.287974  0.287974  1
  O  O17  1  0.301818  0.698182  0.698182  1
  O  O18  1  0.960224  0.552179  0.947628  1
  O  O19  1  0.539969  0.552179  0.947628  1
  O  O20  1  0.000669  0.999331  0.999331  1
  O  O21  1  0.537974  0.962026  0.962026  1
