# generated using pymatgen
data_MnNb8Co5(Si7Ni)2
_symmetry_space_group_name_H-M   'P 1'
_cell_length_a   9.25611695
_cell_length_b   9.25950883
_cell_length_c   9.25157547
_cell_angle_alpha   94.22366714
_cell_angle_beta   94.20497433
_cell_angle_gamma   148.55397573
_symmetry_Int_Tables_number   1
_chemical_formula_structural   MnNb8Co5(Si7Ni)2
_chemical_formula_sum   'Mn1 Nb8 Co5 Si14 Ni2'
_cell_volume   398.16431827
_cell_formula_units_Z   1
loop_
 _symmetry_equiv_pos_site_id
 _symmetry_equiv_pos_as_xyz
  1  'x, y, z'
loop_
 _atom_site_type_symbol
 _atom_site_label
 _atom_site_symmetry_multiplicity
 _atom_site_fract_x
 _atom_site_fract_y
 _atom_site_fract_z
 _atom_site_occupancy
  Mn  Mn0  1  0.598860  0.098901  0.197800  1
  Nb  Nb1  1  0.134085  0.134069  0.268109  1
  Nb  Nb2  1  0.866501  0.866472  0.732990  1
  Nb  Nb3  1  0.865394  0.133376  0.001394  1
  Nb  Nb4  1  0.136016  0.868018  0.001408  1
  Nb  Nb5  1  0.499691  0.690635  0.191504  1
  Nb  Nb6  1  0.497792  0.307685  0.807685  1
  Nb  Nb7  1  0.309923  0.500000  0.807723  1
  Nb  Nb8  1  0.691780  0.500833  0.191501  1
  Co  Co9  1  0.101579  0.894269  0.499554  1
  Co  Co10  1  0.397999  0.605278  0.499564  1
  Co  Co11  1  0.599203  0.401822  0.501564  1
  Co  Co12  1  0.902369  0.099746  0.501567  1
  Co  Co13  1  0.899104  0.399138  0.798211  1
  Si  Si14  1  0.291449  0.291383  0.582864  1
  Si  Si15  1  0.708496  0.708429  0.416900  1
  Si  Si16  1  0.708786  0.294915  0.998553  1
  Si  Si17  1  0.289757  0.703645  0.998551  1
  Si  Si18  1  0.993585  0.288218  0.297409  1
  Si  Si19  1  0.993220  0.698053  0.703817  1
  Si  Si20  1  0.710644  0.005827  0.703884  1
  Si  Si21  1  0.303830  0.009225  0.297464  1
  Si  Si22  1  0.518924  0.925367  0.407659  1
  Si  Si23  1  0.508477  0.104457  0.592610  1
  Si  Si24  1  0.084048  0.488139  0.592594  1
  Si  Si25  1  0.888726  0.482348  0.407640  1
  Si  Si26  1  0.750488  0.750530  0.999908  1
  Si  Si27  1  0.249442  0.249367  0.999914  1
  Ni  Ni28  1  0.397980  0.897996  0.795957  1
  Ni  Ni29  1  0.101847  0.601857  0.203701  1
