# generated using pymatgen
data_YbEu(ThPt2)2
_symmetry_space_group_name_H-M   'P 1'
_cell_length_a   4.49867900
_cell_length_b   5.82449191
_cell_length_c   7.39319834
_cell_angle_alpha   87.58862273
_cell_angle_beta   90.00000000
_cell_angle_gamma   90.00000000
_symmetry_Int_Tables_number   1
_chemical_formula_structural   YbEu(ThPt2)2
_chemical_formula_sum   'Yb1 Eu1 Th2 Pt4'
_cell_volume   193.54888287
_cell_formula_units_Z   1
loop_
 _symmetry_equiv_pos_site_id
 _symmetry_equiv_pos_as_xyz
  1  'x, y, z'
loop_
 _atom_site_type_symbol
 _atom_site_label
 _atom_site_symmetry_multiplicity
 _atom_site_fract_x
 _atom_site_fract_y
 _atom_site_fract_z
 _atom_site_occupancy
  Yb  Yb0  1  0.250000  0.356570  0.679960  1
  Eu  Eu1  1  0.750000  0.641953  0.323623  1
  Th  Th2  1  0.250000  0.146813  0.181791  1
  Th  Th3  1  0.750000  0.853714  0.816303  1
  Pt  Pt4  1  0.750000  0.147398  0.449096  1
  Pt  Pt5  1  0.250000  0.857173  0.557780  1
  Pt  Pt6  1  0.250000  0.670333  0.038250  1
  Pt  Pt7  1  0.750000  0.326047  0.953198  1
