# generated using pymatgen
data_Lu6BiO11F
_symmetry_space_group_name_H-M   'P 1'
_cell_length_a   6.42569797
_cell_length_b   6.42183844
_cell_length_c   6.44751942
_cell_angle_alpha   99.26274392
_cell_angle_beta   99.36169373
_cell_angle_gamma   99.13061138
_symmetry_Int_Tables_number   1
_chemical_formula_structural   Lu6BiO11F
_chemical_formula_sum   'Lu6 Bi1 O11 F1'
_cell_volume   254.37750041
_cell_formula_units_Z   1
loop_
 _symmetry_equiv_pos_site_id
 _symmetry_equiv_pos_as_xyz
  1  'x, y, z'
loop_
 _atom_site_type_symbol
 _atom_site_label
 _atom_site_symmetry_multiplicity
 _atom_site_fract_x
 _atom_site_fract_y
 _atom_site_fract_z
 _atom_site_occupancy
  Lu  Lu0  1  0.402497  0.696256  0.870679  1
  Lu  Lu1  1  0.840282  0.392745  0.686376  1
  Lu  Lu2  1  0.684657  0.855426  0.394574  1
  Lu  Lu3  1  0.607465  0.317686  0.147244  1
  Lu  Lu4  1  0.137489  0.618238  0.296077  1
  Lu  Lu5  1  0.320023  0.126440  0.608732  1
  Bi  Bi6  1  0.002206  0.003781  0.997238  1
  O  O7  1  0.580908  0.175678  0.428131  1
  O  O8  1  0.429526  0.585551  0.181244  1
  O  O9  1  0.829963  0.573898  0.422114  1
  O  O10  1  0.409507  0.812677  0.573131  1
  O  O11  1  0.562222  0.415308  0.818341  1
  O  O12  1  0.925662  0.061500  0.679918  1
  O  O13  1  0.943581  0.320744  0.078800  1
  O  O14  1  0.323744  0.073981  0.947878  1
  O  O15  1  0.082314  0.952395  0.316618  1
  O  O16  1  0.056629  0.678403  0.922159  1
  O  O17  1  0.685283  0.919811  0.055995  1
  F  F18  1  0.176043  0.419482  0.574749  1
