# generated using pymatgen
data_Sc4Si3TcH
_symmetry_space_group_name_H-M   'P 1'
_cell_length_a   7.75018300
_cell_length_b   7.75018294
_cell_length_c   5.42142700
_cell_angle_alpha   90.00000000
_cell_angle_beta   90.00000000
_cell_angle_gamma   120.00000454
_symmetry_Int_Tables_number   1
_chemical_formula_structural   Sc4Si3TcH
_chemical_formula_sum   'Sc8 Si6 Tc2 H2'
_cell_volume   282.01235633
_cell_formula_units_Z   2
loop_
 _symmetry_equiv_pos_site_id
 _symmetry_equiv_pos_as_xyz
  1  'x, y, z'
loop_
 _atom_site_type_symbol
 _atom_site_label
 _atom_site_symmetry_multiplicity
 _atom_site_fract_x
 _atom_site_fract_y
 _atom_site_fract_z
 _atom_site_occupancy
  Sc  Sc0  1  0.333333  0.666667  0.500000  1
  Sc  Sc1  1  0.666667  0.333333  0.500000  1
  Sc  Sc2  1  0.753594  0.753594  0.753607  1
  Sc  Sc3  1  0.246406  0.000000  0.753607  1
  Sc  Sc4  1  0.000000  0.246406  0.753607  1
  Sc  Sc5  1  0.246406  0.246406  0.246393  1
  Sc  Sc6  1  0.753594  0.000000  0.246393  1
  Sc  Sc7  1  0.000000  0.753594  0.246393  1
  Si  Si8  1  0.399322  0.399322  0.782548  1
  Si  Si9  1  0.600678  0.000000  0.782548  1
  Si  Si10  1  0.000000  0.600678  0.782548  1
  Si  Si11  1  0.600678  0.600678  0.217452  1
  Si  Si12  1  0.399322  0.000000  0.217452  1
  Si  Si13  1  0.000000  0.399322  0.217452  1
  Tc  Tc14  1  0.666667  0.333333  0.000000  1
  Tc  Tc15  1  0.333333  0.666667  0.000000  1
  H  H16  1  0.000000  0.000000  0.500000  1
  H  H17  1  0.000000  0.000000  0.000000  1
