# generated using pymatgen
data_Li5P12Ir9Ru10
_symmetry_space_group_name_H-M   'P 1'
_cell_length_a   12.31056295
_cell_length_b   12.36482652
_cell_length_c   3.95912100
_cell_angle_alpha   90.00000000
_cell_angle_beta   90.00000000
_cell_angle_gamma   119.10575720
_symmetry_Int_Tables_number   1
_chemical_formula_structural   Li5P12Ir9Ru10
_chemical_formula_sum   'Li5 P12 Ir9 Ru10'
_cell_volume   526.54883775
_cell_formula_units_Z   1
loop_
 _symmetry_equiv_pos_site_id
 _symmetry_equiv_pos_as_xyz
  1  'x, y, z'
loop_
 _atom_site_type_symbol
 _atom_site_label
 _atom_site_symmetry_multiplicity
 _atom_site_fract_x
 _atom_site_fract_y
 _atom_site_fract_z
 _atom_site_occupancy
  Li  Li0  1  0.668598  0.330169  0.000000  1
  Li  Li1  1  0.338807  0.673243  0.000000  1
  Li  Li2  1  0.820764  0.997321  0.500000  1
  Li  Li3  1  0.166787  0.166607  0.500000  1
  Li  Li4  1  0.000525  0.836973  0.500000  1
  P  P5  1  0.626418  0.996704  0.000000  1
  P  P6  1  0.367718  0.373840  0.000000  1
  P  P7  1  0.006850  0.636121  0.000000  1
  P  P8  1  0.686470  0.513865  0.500000  1
  P  P9  1  0.830409  0.299997  0.500000  1
  P  P10  1  0.309771  0.833319  0.500000  1
  P  P11  1  0.524863  0.690609  0.500000  1
  P  P12  1  0.171145  0.002927  0.000000  1
  P  P13  1  0.824421  0.809637  0.000000  1
  P  P14  1  0.014853  0.194439  0.000000  1
  P  P15  1  0.474683  0.161531  0.500000  1
  P  P16  1  0.172988  0.488158  0.500000  1
  Ir  Ir17  1  0.632483  0.810552  0.000000  1
  Ir  Ir18  1  0.190042  0.392563  0.000000  1
  Ir  Ir19  1  0.368436  0.186395  0.000000  1
  Ir  Ir20  1  0.192524  0.819963  0.000000  1
  Ir  Ir21  1  0.810078  0.615087  0.000000  1
  Ir  Ir22  1  0.863819  0.495698  0.500000  1
  Ir  Ir23  1  0.490596  0.356827  0.500000  1
  Ir  Ir24  1  0.638763  0.124198  0.500000  1
  Ir  Ir25  1  0.988018  0.002144  0.000000  1
  Ru  Ru26  1  0.123284  0.640610  0.500000  1
  Ru  Ru27  1  0.367219  0.494660  0.500000  1
  Ru  Ru28  1  0.509034  0.869606  0.500000  1
  Ru  Ru29  1  0.721959  0.713336  0.500000  1
  Ru  Ru30  1  0.008601  0.286056  0.500000  1
  Ru  Ru31  1  0.447380  0.005782  0.000000  1
  Ru  Ru32  1  0.554522  0.548942  0.000000  1
  Ru  Ru33  1  0.992131  0.446081  0.000000  1
  Ru  Ru34  1  0.820639  0.184282  0.000000  1
  Ru  Ru35  1  0.274403  0.001757  0.500000  1
