# generated using pymatgen
data_Zr3Ga3CoPd2
_symmetry_space_group_name_H-M   'P 1'
_cell_length_a   7.17139000
_cell_length_b   7.17139057
_cell_length_c   3.45243000
_cell_angle_alpha   90.00000000
_cell_angle_beta   90.00000000
_cell_angle_gamma   120.00000660
_symmetry_Int_Tables_number   1
_chemical_formula_structural   Zr3Ga3CoPd2
_chemical_formula_sum   'Zr3 Ga3 Co1 Pd2'
_cell_volume   153.76666727
_cell_formula_units_Z   1
loop_
 _symmetry_equiv_pos_site_id
 _symmetry_equiv_pos_as_xyz
  1  'x, y, z'
loop_
 _atom_site_type_symbol
 _atom_site_label
 _atom_site_symmetry_multiplicity
 _atom_site_fract_x
 _atom_site_fract_y
 _atom_site_fract_z
 _atom_site_occupancy
  Zr  Zr0  1  0.394926  0.415291  0.500000  1
  Zr  Zr1  1  0.584709  0.979636  0.500000  1
  Zr  Zr2  1  0.020364  0.605074  0.500000  1
  Ga  Ga3  1  0.728912  0.729271  0.000000  1
  Ga  Ga4  1  0.270729  0.999641  0.000000  1
  Ga  Ga5  1  0.000359  0.271088  0.000000  1
  Co  Co6  1  0.333333  0.666667  0.000000  1
  Pd  Pd7  1  0.666667  0.333333  0.000000  1
  Pd  Pd8  1  0.000000  0.000000  0.500000  1
