# generated using pymatgen
data_CeDy11CoTc3
_symmetry_space_group_name_H-M   'P 1'
_cell_length_a   6.30342300
_cell_length_b   7.34785863
_cell_length_c   9.29313500
_cell_angle_alpha   90.00000000
_cell_angle_beta   90.00000000
_cell_angle_gamma   91.24930045
_symmetry_Int_Tables_number   1
_chemical_formula_structural   CeDy11CoTc3
_chemical_formula_sum   'Ce1 Dy11 Co1 Tc3'
_cell_volume   430.32466918
_cell_formula_units_Z   1
loop_
 _symmetry_equiv_pos_site_id
 _symmetry_equiv_pos_as_xyz
  1  'x, y, z'
loop_
 _atom_site_type_symbol
 _atom_site_label
 _atom_site_symmetry_multiplicity
 _atom_site_fract_x
 _atom_site_fract_y
 _atom_site_fract_z
 _atom_site_occupancy
  Ce  Ce0  1  0.857718  0.560427  0.250000  1
  Dy  Dy1  1  0.331694  0.675120  0.064630  1
  Dy  Dy2  1  0.162265  0.177711  0.438392  1
  Dy  Dy3  1  0.668260  0.325181  0.567815  1
  Dy  Dy4  1  0.828491  0.823343  0.932262  1
  Dy  Dy5  1  0.668260  0.325181  0.932185  1
  Dy  Dy6  1  0.828491  0.823343  0.567738  1
  Dy  Dy7  1  0.331694  0.675120  0.435370  1
  Dy  Dy8  1  0.162265  0.177711  0.061608  1
  Dy  Dy9  1  0.624606  0.041588  0.250000  1
  Dy  Dy10  1  0.144413  0.459395  0.750000  1
  Dy  Dy11  1  0.370133  0.953067  0.750000  1
  Co  Co12  1  0.537175  0.616760  0.750000  1
  Tc  Tc13  1  0.016489  0.860914  0.250000  1
  Tc  Tc14  1  0.500947  0.391860  0.250000  1
  Tc  Tc15  1  0.967099  0.113280  0.750000  1
