# generated using pymatgen
data_Ho2ErGa2Ag3Ge
_symmetry_space_group_name_H-M   'P 1'
_cell_length_a   7.22322733
_cell_length_b   7.22639791
_cell_length_c   4.14509000
_cell_angle_alpha   90.00000000
_cell_angle_beta   90.00000000
_cell_angle_gamma   120.02022038
_symmetry_Int_Tables_number   1
_chemical_formula_structural   Ho2ErGa2Ag3Ge
_chemical_formula_sum   'Ho2 Er1 Ga2 Ag3 Ge1'
_cell_volume   187.33944360
_cell_formula_units_Z   1
loop_
 _symmetry_equiv_pos_site_id
 _symmetry_equiv_pos_as_xyz
  1  'x, y, z'
loop_
 _atom_site_type_symbol
 _atom_site_label
 _atom_site_symmetry_multiplicity
 _atom_site_fract_x
 _atom_site_fract_y
 _atom_site_fract_z
 _atom_site_occupancy
  Ho  Ho0  1  0.580441  0.997161  0.000000  1
  Ho  Ho1  1  0.416613  0.419571  0.000000  1
  Er  Er2  1  0.002874  0.583374  0.000000  1
  Ga  Ga3  1  0.999987  0.999730  0.000000  1
  Ga  Ga4  1  0.667049  0.333591  0.500000  1
  Ag  Ag5  1  0.753056  0.749981  0.500000  1
  Ag  Ag6  1  0.249887  0.002761  0.500000  1
  Ag  Ag7  1  0.997064  0.247272  0.500000  1
  Ge  Ge8  1  0.333030  0.666557  0.500000  1
