# generated using pymatgen
data_Tb4Nd2EuFeI12
_symmetry_space_group_name_H-M   'P 1'
_cell_length_a   9.94474670
_cell_length_b   9.95554442
_cell_length_c   9.94599553
_cell_angle_alpha   106.02476102
_cell_angle_beta   106.59252850
_cell_angle_gamma   106.92800130
_symmetry_Int_Tables_number   1
_chemical_formula_structural   Tb4Nd2EuFeI12
_chemical_formula_sum   'Tb4 Nd2 Eu1 Fe1 I12'
_cell_volume   830.64127441
_cell_formula_units_Z   1
loop_
 _symmetry_equiv_pos_site_id
 _symmetry_equiv_pos_as_xyz
  1  'x, y, z'
loop_
 _atom_site_type_symbol
 _atom_site_label
 _atom_site_symmetry_multiplicity
 _atom_site_fract_x
 _atom_site_fract_y
 _atom_site_fract_z
 _atom_site_occupancy
  Tb  Tb0  1  0.800227  0.523126  0.597849  1
  Tb  Tb1  1  0.522267  0.595133  0.798070  1
  Tb  Tb2  1  0.199773  0.476874  0.402151  1
  Tb  Tb3  1  0.477733  0.404867  0.201930  1
  Nd  Nd4  1  0.585859  0.766013  0.518129  1
  Nd  Nd5  1  0.414141  0.233987  0.481871  1
  Eu  Eu6  1  0.000000  0.000000  0.000000  1
  Fe  Fe7  1  0.500000  0.500000  0.500000  1
  I  I8  1  0.729349  0.194382  0.578487  1
  I  I9  1  0.952370  0.865733  0.644208  1
  I  I10  1  0.573434  0.716379  0.177031  1
  I  I11  1  0.129169  0.356121  0.049462  1
  I  I12  1  0.639513  0.942071  0.870268  1
  I  I13  1  0.870831  0.643879  0.950538  1
  I  I14  1  0.047630  0.134267  0.355792  1
  I  I15  1  0.819508  0.428639  0.279777  1
  I  I16  1  0.360487  0.057929  0.129732  1
  I  I17  1  0.270651  0.805618  0.421513  1
  I  I18  1  0.180492  0.571361  0.720223  1
  I  I19  1  0.426566  0.283621  0.822969  1
