# generated using pymatgen
data_Yb3Ho(ReB4)4
_symmetry_space_group_name_H-M   'P 1'
_cell_length_a   3.57367100
_cell_length_b   5.98254276
_cell_length_c   11.56489747
_cell_angle_alpha   90.05786562
_cell_angle_beta   90.00000000
_cell_angle_gamma   90.00000000
_symmetry_Int_Tables_number   1
_chemical_formula_structural   Yb3Ho(ReB4)4
_chemical_formula_sum   'Yb3 Ho1 Re4 B16'
_cell_volume   247.25321366
_cell_formula_units_Z   1
loop_
 _symmetry_equiv_pos_site_id
 _symmetry_equiv_pos_as_xyz
  1  'x, y, z'
loop_
 _atom_site_type_symbol
 _atom_site_label
 _atom_site_symmetry_multiplicity
 _atom_site_fract_x
 _atom_site_fract_y
 _atom_site_fract_z
 _atom_site_occupancy
  Yb  Yb0  1  0.000000  0.628438  0.149768  1
  Yb  Yb1  1  0.000000  0.371963  0.851162  1
  Yb  Yb2  1  0.000000  0.128677  0.348968  1
  Ho  Ho3  1  0.000000  0.871472  0.650486  1
  Re  Re4  1  0.000000  0.632021  0.416410  1
  Re  Re5  1  0.000000  0.369594  0.585010  1
  Re  Re6  1  0.000000  0.131310  0.083614  1
  Re  Re7  1  0.000000  0.869665  0.915720  1
  B  B8  1  0.500000  0.977259  0.192527  1
  B  B9  1  0.500000  0.023527  0.807420  1
  B  B10  1  0.500000  0.477398  0.307511  1
  B  B11  1  0.500000  0.522919  0.692844  1
  B  B12  1  0.500000  0.784622  0.314741  1
  B  B13  1  0.500000  0.214828  0.685090  1
  B  B14  1  0.500000  0.285393  0.184841  1
  B  B15  1  0.500000  0.713464  0.815311  1
  B  B16  1  0.500000  0.864489  0.467948  1
  B  B17  1  0.500000  0.135563  0.531402  1
  B  B18  1  0.500000  0.365025  0.032030  1
  B  B19  1  0.500000  0.634516  0.968049  1
  B  B20  1  0.500000  0.885317  0.047396  1
  B  B21  1  0.500000  0.114251  0.952094  1
  B  B22  1  0.500000  0.385489  0.452089  1
  B  B23  1  0.500000  0.612800  0.547569  1
