# generated using pymatgen
data_NaAc(NdB12)2
_symmetry_space_group_name_H-M   'P 1'
_cell_length_a   7.19063691
_cell_length_b   7.19063642
_cell_length_c   5.89970800
_cell_angle_alpha   90.00000000
_cell_angle_beta   90.00000000
_cell_angle_gamma   109.29748835
_symmetry_Int_Tables_number   1
_chemical_formula_structural   NaAc(NdB12)2
_chemical_formula_sum   'Na1 Ac1 Nd2 B24'
_cell_volume   287.90704002
_cell_formula_units_Z   1
loop_
 _symmetry_equiv_pos_site_id
 _symmetry_equiv_pos_as_xyz
  1  'x, y, z'
loop_
 _atom_site_type_symbol
 _atom_site_label
 _atom_site_symmetry_multiplicity
 _atom_site_fract_x
 _atom_site_fract_y
 _atom_site_fract_z
 _atom_site_occupancy
  Na  Na0  1  0.000441  0.999559  0.000000  1
  Ac  Ac1  1  0.751721  0.248279  0.500000  1
  Nd  Nd2  1  0.498028  0.501972  0.000000  1
  Nd  Nd3  1  0.250213  0.749787  0.500000  1
  B  B4  1  0.175980  0.325305  0.649907  1
  B  B5  1  0.925957  0.576550  0.148570  1
  B  B6  1  0.674695  0.824020  0.649907  1
  B  B7  1  0.423450  0.074043  0.148570  1
  B  B8  1  0.175980  0.325305  0.350093  1
  B  B9  1  0.925957  0.576550  0.851430  1
  B  B10  1  0.674695  0.824020  0.350093  1
  B  B11  1  0.423450  0.074043  0.851430  1
  B  B12  1  0.399625  0.399940  0.500000  1
  B  B13  1  0.149042  0.651491  0.000000  1
  B  B14  1  0.899711  0.898857  0.500000  1
  B  B15  1  0.649747  0.148000  0.000000  1
  B  B16  1  0.324139  0.174969  0.649945  1
  B  B17  1  0.076450  0.425822  0.148458  1
  B  B18  1  0.825031  0.675861  0.649945  1
  B  B19  1  0.574178  0.923550  0.148458  1
  B  B20  1  0.101143  0.100289  0.500000  1
  B  B21  1  0.852000  0.350253  0.000000  1
  B  B22  1  0.600060  0.600375  0.500000  1
  B  B23  1  0.348509  0.850958  0.000000  1
  B  B24  1  0.324139  0.174969  0.350055  1
  B  B25  1  0.076450  0.425822  0.851542  1
  B  B26  1  0.825031  0.675861  0.350055  1
  B  B27  1  0.574178  0.923550  0.851542  1
