# generated using pymatgen
data_Y4Ho8Co5Hg
_symmetry_space_group_name_H-M   'P 1'
_cell_length_a   8.25262585
_cell_length_b   8.25338176
_cell_length_c   8.25262720
_cell_angle_alpha   110.07276063
_cell_angle_beta   110.46952460
_cell_angle_gamma   107.87962116
_symmetry_Int_Tables_number   1
_chemical_formula_structural   Y4Ho8Co5Hg
_chemical_formula_sum   'Y4 Ho8 Co5 Hg1'
_cell_volume   432.47229343
_cell_formula_units_Z   1
loop_
 _symmetry_equiv_pos_site_id
 _symmetry_equiv_pos_as_xyz
  1  'x, y, z'
loop_
 _atom_site_type_symbol
 _atom_site_label
 _atom_site_symmetry_multiplicity
 _atom_site_fract_x
 _atom_site_fract_y
 _atom_site_fract_z
 _atom_site_occupancy
  Y  Y0  1  0.813558  0.709006  0.522592  1
  Y  Y1  1  0.186442  0.290994  0.477408  1
  Y  Y2  1  0.186415  0.709006  0.895448  1
  Y  Y3  1  0.813585  0.290994  0.104552  1
  Ho  Ho4  1  0.684248  0.379264  0.695017  1
  Ho  Ho5  1  0.315752  0.620736  0.304983  1
  Ho  Ho6  1  0.684363  0.989360  0.304997  1
  Ho  Ho7  1  0.315637  0.010640  0.695003  1
  Ho  Ho8  1  0.597597  0.789540  0.808058  1
  Ho  Ho9  1  0.402403  0.210460  0.191942  1
  Ho  Ho10  1  0.981482  0.789540  0.191943  1
  Ho  Ho11  1  0.018518  0.210460  0.808057  1
  Co  Co12  1  0.621471  0.000000  0.621471  1
  Co  Co13  1  0.378529  0.000000  0.378529  1
  Co  Co14  1  0.113784  0.613797  0.500013  1
  Co  Co15  1  0.886216  0.386203  0.499987  1
  Co  Co16  1  0.000000  0.000000  0.000000  1
  Hg  Hg17  1  0.500000  0.500000  0.000000  1
