# generated using pymatgen
data_NdTh3(GePd)4
_symmetry_space_group_name_H-M   'P 1'
_cell_length_a   4.44765300
_cell_length_b   7.67154888
_cell_length_c   23.07580878
_cell_angle_alpha   89.96351084
_cell_angle_beta   90.00000000
_cell_angle_gamma   90.00000000
_symmetry_Int_Tables_number   1
_chemical_formula_structural   NdTh3(GePd)4
_chemical_formula_sum   'Nd3 Th9 Ge12 Pd12'
_cell_volume   787.35537485
_cell_formula_units_Z   3
loop_
 _symmetry_equiv_pos_site_id
 _symmetry_equiv_pos_as_xyz
  1  'x, y, z'
loop_
 _atom_site_type_symbol
 _atom_site_label
 _atom_site_symmetry_multiplicity
 _atom_site_fract_x
 _atom_site_fract_y
 _atom_site_fract_z
 _atom_site_occupancy
  Nd  Nd0  1  0.750000  0.251389  0.000032  1
  Nd  Nd1  1  0.750000  0.250062  0.499787  1
  Nd  Nd2  1  0.250000  0.750540  0.499783  1
  Th  Th3  1  0.250000  0.749294  0.334232  1
  Th  Th4  1  0.750000  0.248683  0.665503  1
  Th  Th5  1  0.750000  0.250735  0.165896  1
  Th  Th6  1  0.250000  0.749981  0.834040  1
  Th  Th7  1  0.250000  0.749560  0.166158  1
  Th  Th8  1  0.750000  0.249343  0.833843  1
  Th  Th9  1  0.750000  0.251700  0.334127  1
  Th  Th10  1  0.250000  0.750216  0.665473  1
  Th  Th11  1  0.250000  0.748815  0.000334  1
  Ge  Ge12  1  0.250000  0.084624  0.089180  1
  Ge  Ge13  1  0.750000  0.918559  0.923711  1
  Ge  Ge14  1  0.750000  0.583202  0.411850  1
  Ge  Ge15  1  0.250000  0.416882  0.582430  1
  Ge  Ge16  1  0.250000  0.082809  0.250830  1
  Ge  Ge17  1  0.750000  0.916013  0.754186  1
  Ge  Ge18  1  0.750000  0.584360  0.248755  1
  Ge  Ge19  1  0.250000  0.416747  0.752098  1
  Ge  Ge20  1  0.250000  0.083806  0.411637  1
  Ge  Ge21  1  0.750000  0.916687  0.582501  1
  Ge  Ge22  1  0.750000  0.582174  0.086308  1
  Ge  Ge23  1  0.250000  0.414708  0.919868  1
  Pd  Pd24  1  0.250000  0.416470  0.250029  1
  Pd  Pd25  1  0.750000  0.582786  0.747728  1
  Pd  Pd26  1  0.750000  0.917426  0.249960  1
  Pd  Pd27  1  0.250000  0.082689  0.747553  1
  Pd  Pd28  1  0.250000  0.417484  0.418997  1
  Pd  Pd29  1  0.750000  0.582263  0.585304  1
  Pd  Pd30  1  0.750000  0.915053  0.078040  1
  Pd  Pd31  1  0.250000  0.080752  0.911810  1
  Pd  Pd32  1  0.250000  0.419440  0.080671  1
  Pd  Pd33  1  0.750000  0.584403  0.913599  1
  Pd  Pd34  1  0.750000  0.917461  0.418656  1
  Pd  Pd35  1  0.250000  0.082885  0.585091  1
