# generated using pymatgen
data_KPrHf2O6
_symmetry_space_group_name_H-M   'P 1'
_cell_length_a   5.74168600
_cell_length_b   5.81109500
_cell_length_c   8.28615600
_cell_angle_alpha   90.00000000
_cell_angle_beta   90.00000000
_cell_angle_gamma   90.00000000
_symmetry_Int_Tables_number   1
_chemical_formula_structural   KPrHf2O6
_chemical_formula_sum   'K2 Pr2 Hf4 O12'
_cell_volume   276.47159555
_cell_formula_units_Z   2
loop_
 _symmetry_equiv_pos_site_id
 _symmetry_equiv_pos_as_xyz
  1  'x, y, z'
loop_
 _atom_site_type_symbol
 _atom_site_label
 _atom_site_symmetry_multiplicity
 _atom_site_fract_x
 _atom_site_fract_y
 _atom_site_fract_z
 _atom_site_occupancy
  K  K0  1  0.258575  0.510330  0.000000  1
  K  K1  1  0.741425  0.010330  0.000000  1
  Pr  Pr2  1  0.251730  0.452828  0.500000  1
  Pr  Pr3  1  0.748270  0.952828  0.500000  1
  Hf  Hf4  1  0.747333  0.495123  0.754220  1
  Hf  Hf5  1  0.252667  0.995123  0.245780  1
  Hf  Hf6  1  0.747333  0.495123  0.245780  1
  Hf  Hf7  1  0.252667  0.995123  0.754220  1
  O  O8  1  0.210117  0.995486  0.000000  1
  O  O9  1  0.789883  0.495486  0.000000  1
  O  O10  1  0.326272  0.023951  0.500000  1
  O  O11  1  0.673728  0.523951  0.500000  1
  O  O12  1  0.541041  0.791399  0.753572  1
  O  O13  1  0.458959  0.291399  0.246428  1
  O  O14  1  0.971611  0.222181  0.308072  1
  O  O15  1  0.028389  0.722181  0.691928  1
  O  O16  1  0.971611  0.222181  0.691928  1
  O  O17  1  0.028389  0.722181  0.308072  1
  O  O18  1  0.541041  0.791399  0.246428  1
  O  O19  1  0.458959  0.291399  0.753572  1
