# generated using pymatgen
data_Tb9Dy2Er9Pb16
_symmetry_space_group_name_H-M   'P 1'
_cell_length_a   8.19221022
_cell_length_b   8.27452418
_cell_length_c   15.61623608
_cell_angle_alpha   89.99486704
_cell_angle_beta   90.01493726
_cell_angle_gamma   90.06800142
_symmetry_Int_Tables_number   1
_chemical_formula_structural   Tb9Dy2Er9Pb16
_chemical_formula_sum   'Tb9 Dy2 Er9 Pb16'
_cell_volume   1058.57141132
_cell_formula_units_Z   1
loop_
 _symmetry_equiv_pos_site_id
 _symmetry_equiv_pos_as_xyz
  1  'x, y, z'
loop_
 _atom_site_type_symbol
 _atom_site_label
 _atom_site_symmetry_multiplicity
 _atom_site_fract_x
 _atom_site_fract_y
 _atom_site_fract_z
 _atom_site_occupancy
  Tb  Tb0  1  0.876636  0.659395  0.879491  1
  Tb  Tb1  1  0.534329  0.322798  0.900241  1
  Tb  Tb2  1  0.034551  0.176868  0.599643  1
  Tb  Tb3  1  0.465562  0.676911  0.400171  1
  Tb  Tb4  1  0.965468  0.823478  0.100303  1
  Tb  Tb5  1  0.465826  0.676684  0.100018  1
  Tb  Tb6  1  0.965485  0.823140  0.399994  1
  Tb  Tb7  1  0.534242  0.322838  0.599690  1
  Tb  Tb8  1  0.034462  0.176765  0.900129  1
  Dy  Dy9  1  0.376350  0.840829  0.879012  1
  Dy  Dy10  1  0.876421  0.658959  0.620762  1
  Er  Er11  1  0.623758  0.158869  0.378917  1
  Er  Er12  1  0.123554  0.341223  0.120980  1
  Er  Er13  1  0.623382  0.158739  0.121368  1
  Er  Er14  1  0.123637  0.341072  0.379014  1
  Er  Er15  1  0.376483  0.841099  0.620793  1
  Er  Er16  1  0.208431  0.504282  0.749760  1
  Er  Er17  1  0.708008  0.995889  0.749718  1
  Er  Er18  1  0.791809  0.495141  0.250123  1
  Er  Er19  1  0.291762  0.004628  0.249999  1
  Pb  Pb20  1  0.282430  0.034689  0.042980  1
  Pb  Pb21  1  0.782589  0.465279  0.456981  1
  Pb  Pb22  1  0.716982  0.966162  0.542539  1
  Pb  Pb23  1  0.218697  0.533292  0.957553  1
  Pb  Pb24  1  0.716863  0.967385  0.957545  1
  Pb  Pb25  1  0.217670  0.534239  0.542553  1
  Pb  Pb26  1  0.282658  0.034443  0.457242  1
  Pb  Pb27  1  0.782324  0.464814  0.043572  1
  Pb  Pb28  1  0.570884  0.627161  0.749573  1
  Pb  Pb29  1  0.072018  0.873600  0.749507  1
  Pb  Pb30  1  0.428450  0.372608  0.250076  1
  Pb  Pb31  1  0.928681  0.127412  0.250028  1
  Pb  Pb32  1  0.345526  0.152430  0.749851  1
  Pb  Pb33  1  0.845507  0.346877  0.749791  1
  Pb  Pb34  1  0.654302  0.847526  0.250043  1
  Pb  Pb35  1  0.154263  0.652474  0.250046  1
