# generated using pymatgen
data_Nd3GaHg2Pt3
_symmetry_space_group_name_H-M   'P 1'
_cell_length_a   7.82657299
_cell_length_b   7.67080061
_cell_length_c   3.93123900
_cell_angle_alpha   90.00000000
_cell_angle_beta   90.00000000
_cell_angle_gamma   119.34376991
_symmetry_Int_Tables_number   1
_chemical_formula_structural   Nd3GaHg2Pt3
_chemical_formula_sum   'Nd3 Ga1 Hg2 Pt3'
_cell_volume   205.73416527
_cell_formula_units_Z   1
loop_
 _symmetry_equiv_pos_site_id
 _symmetry_equiv_pos_as_xyz
  1  'x, y, z'
loop_
 _atom_site_type_symbol
 _atom_site_label
 _atom_site_symmetry_multiplicity
 _atom_site_fract_x
 _atom_site_fract_y
 _atom_site_fract_z
 _atom_site_occupancy
  Nd  Nd0  1  0.403671  0.403265  0.500000  1
  Nd  Nd1  1  0.596329  0.999594  0.500000  1
  Nd  Nd2  1  0.000000  0.590382  0.500000  1
  Ga  Ga3  1  0.000000  0.255086  0.000000  1
  Hg  Hg4  1  0.744379  0.742514  0.000000  1
  Hg  Hg5  1  0.255621  0.998136  0.000000  1
  Pt  Pt6  1  0.682126  0.327362  0.000000  1
  Pt  Pt7  1  0.317874  0.645236  0.000000  1
  Pt  Pt8  1  0.000000  0.038426  0.500000  1
