# generated using pymatgen
data_KAc2PrB24
_symmetry_space_group_name_H-M   'P 1'
_cell_length_a   7.23868014
_cell_length_b   7.23867996
_cell_length_c   5.96066900
_cell_angle_alpha   90.00000000
_cell_angle_beta   90.00000000
_cell_angle_gamma   109.16343965
_symmetry_Int_Tables_number   1
_chemical_formula_structural   KAc2PrB24
_chemical_formula_sum   'K1 Ac2 Pr1 B24'
_cell_volume   295.02259950
_cell_formula_units_Z   1
loop_
 _symmetry_equiv_pos_site_id
 _symmetry_equiv_pos_as_xyz
  1  'x, y, z'
loop_
 _atom_site_type_symbol
 _atom_site_label
 _atom_site_symmetry_multiplicity
 _atom_site_fract_x
 _atom_site_fract_y
 _atom_site_fract_z
 _atom_site_occupancy
  K  K0  1  0.000000  0.000000  0.000000  1
  Ac  Ac1  1  0.751155  0.248845  0.500000  1
  Ac  Ac2  1  0.248845  0.751155  0.500000  1
  Pr  Pr3  1  0.500000  0.500000  0.000000  1
  B  B4  1  0.176126  0.325139  0.649372  1
  B  B5  1  0.924258  0.575093  0.147522  1
  B  B6  1  0.674861  0.823874  0.649372  1
  B  B7  1  0.424907  0.075742  0.147522  1
  B  B8  1  0.176126  0.325139  0.350628  1
  B  B9  1  0.924258  0.575093  0.852478  1
  B  B10  1  0.674861  0.823874  0.350628  1
  B  B11  1  0.424907  0.075742  0.852478  1
  B  B12  1  0.399622  0.399622  0.500000  1
  B  B13  1  0.148140  0.650329  0.000000  1
  B  B14  1  0.898501  0.898501  0.500000  1
  B  B15  1  0.650329  0.148140  0.000000  1
  B  B16  1  0.325139  0.176126  0.649372  1
  B  B17  1  0.075742  0.424907  0.147522  1
  B  B18  1  0.823874  0.674861  0.649372  1
  B  B19  1  0.575093  0.924258  0.147522  1
  B  B20  1  0.101499  0.101499  0.500000  1
  B  B21  1  0.851860  0.349671  0.000000  1
  B  B22  1  0.600378  0.600378  0.500000  1
  B  B23  1  0.349671  0.851860  0.000000  1
  B  B24  1  0.325139  0.176126  0.350628  1
  B  B25  1  0.075742  0.424907  0.852478  1
  B  B26  1  0.823874  0.674861  0.350628  1
  B  B27  1  0.575093  0.924258  0.852478  1
