# generated using pymatgen
data_Y2Ho14In6CoCu
_symmetry_space_group_name_H-M   'P 1'
_cell_length_a   10.44531200
_cell_length_b   10.44531290
_cell_length_c   6.90472700
_cell_angle_alpha   90.00000000
_cell_angle_beta   90.00000000
_cell_angle_gamma   120.00000350
_symmetry_Int_Tables_number   1
_chemical_formula_structural   Y2Ho14In6CoCu
_chemical_formula_sum   'Y2 Ho14 In6 Co1 Cu1'
_cell_volume   652.40908392
_cell_formula_units_Z   1
loop_
 _symmetry_equiv_pos_site_id
 _symmetry_equiv_pos_as_xyz
  1  'x, y, z'
loop_
 _atom_site_type_symbol
 _atom_site_label
 _atom_site_symmetry_multiplicity
 _atom_site_fract_x
 _atom_site_fract_y
 _atom_site_fract_z
 _atom_site_occupancy
  Y  Y0  1  0.000000  0.000000  0.498753  1
  Y  Y1  1  0.000000  0.000000  0.996062  1
  Ho  Ho2  1  0.471595  0.528405  0.477746  1
  Ho  Ho3  1  0.056810  0.528405  0.477746  1
  Ho  Ho4  1  0.471595  0.943190  0.477746  1
  Ho  Ho5  1  0.535193  0.464807  0.980536  1
  Ho  Ho6  1  0.929614  0.464807  0.980536  1
  Ho  Ho7  1  0.535193  0.070386  0.980536  1
  Ho  Ho8  1  0.822097  0.177903  0.270435  1
  Ho  Ho9  1  0.355805  0.177903  0.270435  1
  Ho  Ho10  1  0.822097  0.644195  0.270435  1
  Ho  Ho11  1  0.175808  0.824192  0.773815  1
  Ho  Ho12  1  0.648384  0.824192  0.773815  1
  Ho  Ho13  1  0.175808  0.351616  0.773815  1
  Ho  Ho14  1  0.333333  0.666667  0.106217  1
  Ho  Ho15  1  0.666667  0.333333  0.588829  1
  In  In16  1  0.163538  0.836462  0.242261  1
  In  In17  1  0.672922  0.836462  0.242261  1
  In  In18  1  0.163538  0.327078  0.242261  1
  In  In19  1  0.837307  0.162693  0.737043  1
  In  In20  1  0.325385  0.162693  0.737043  1
  In  In21  1  0.837307  0.674615  0.737043  1
  Co  Co22  1  0.666667  0.333333  0.204090  1
  Cu  Cu23  1  0.333333  0.666667  0.705097  1
