# generated using pymatgen
data_La20Si15Os
_symmetry_space_group_name_H-M   'P 1'
_cell_length_a   8.02549043
_cell_length_b   8.01790128
_cell_length_c   15.51631716
_cell_angle_alpha   89.63378354
_cell_angle_beta   89.47582377
_cell_angle_gamma   89.89359595
_symmetry_Int_Tables_number   1
_chemical_formula_structural   La20Si15Os
_chemical_formula_sum   'La20 Si15 Os1'
_cell_volume   998.37382359
_cell_formula_units_Z   1
loop_
 _symmetry_equiv_pos_site_id
 _symmetry_equiv_pos_as_xyz
  1  'x, y, z'
loop_
 _atom_site_type_symbol
 _atom_site_label
 _atom_site_symmetry_multiplicity
 _atom_site_fract_x
 _atom_site_fract_y
 _atom_site_fract_z
 _atom_site_occupancy
  La  La0  1  0.364584  0.486135  0.376835  1
  La  La1  1  0.879903  0.009716  0.378183  1
  La  La2  1  0.980707  0.127103  0.123742  1
  La  La3  1  0.025920  0.873488  0.621031  1
  La  La4  1  0.626731  0.520815  0.873357  1
  La  La5  1  0.480309  0.377068  0.625712  1
  La  La6  1  0.519082  0.626075  0.125977  1
  La  La7  1  0.123668  0.977352  0.876228  1
  La  La8  1  0.988378  0.619845  0.054208  1
  La  La9  1  0.014052  0.387102  0.546868  1
  La  La10  1  0.621803  0.987095  0.948758  1
  La  La11  1  0.121387  0.510960  0.802059  1
  La  La12  1  0.877645  0.488581  0.306531  1
  La  La13  1  0.510442  0.119919  0.196780  1
  La  La14  1  0.491823  0.881042  0.696954  1
  La  La15  1  0.383029  0.013108  0.448913  1
  La  La16  1  0.704045  0.693061  0.497601  1
  La  La17  1  0.808255  0.191537  0.748980  1
  La  La18  1  0.186873  0.800988  0.260905  1
  La  La19  1  0.304050  0.305678  0.999590  1
  Si  Si20  1  0.918825  0.289052  0.939703  1
  Si  Si21  1  0.708999  0.082122  0.560268  1
  Si  Si22  1  0.214507  0.417817  0.190680  1
  Si  Si23  1  0.791091  0.581107  0.690194  1
  Si  Si24  1  0.420346  0.211187  0.809170  1
  Si  Si25  1  0.578290  0.789967  0.308757  1
  Si  Si26  1  0.288409  0.919987  0.060313  1
  Si  Si27  1  0.830277  0.805223  0.795264  1
  Si  Si28  1  0.171032  0.196345  0.296945  1
  Si  Si29  1  0.799579  0.834064  0.201525  1
  Si  Si30  1  0.307533  0.676923  0.545410  1
  Si  Si31  1  0.694916  0.330107  0.045426  1
  Si  Si32  1  0.665767  0.301022  0.452873  1
  Si  Si33  1  0.328172  0.694120  0.955256  1
  Si  Si34  1  0.197812  0.172056  0.702847  1
  Os  Os35  1  0.071760  0.702235  0.436158  1
