# generated using pymatgen
data_La(S8Br)3
_symmetry_space_group_name_H-M   'P 1'
_cell_length_a   15.27988208
_cell_length_b   15.27988207
_cell_length_c   15.27988250
_cell_angle_alpha   119.11762300
_cell_angle_beta   119.11763048
_cell_angle_gamma   119.11761469
_symmetry_Int_Tables_number   1
_chemical_formula_structural   La(S8Br)3
_chemical_formula_sum   'La1 S24 Br3'
_cell_volume   868.07284939
_cell_formula_units_Z   1
loop_
 _symmetry_equiv_pos_site_id
 _symmetry_equiv_pos_as_xyz
  1  'x, y, z'
loop_
 _atom_site_type_symbol
 _atom_site_label
 _atom_site_symmetry_multiplicity
 _atom_site_fract_x
 _atom_site_fract_y
 _atom_site_fract_z
 _atom_site_occupancy
  La  La0  1  0.440955  0.440955  0.440955  1
  S  S1  1  0.009613  0.600965  0.600965  1
  S  S2  1  0.600965  0.600965  0.009613  1
  S  S3  1  0.600965  0.009613  0.600965  1
  S  S4  1  0.256936  0.862060  0.734976  1
  S  S5  1  0.862060  0.734976  0.256936  1
  S  S6  1  0.734976  0.256936  0.862060  1
  S  S7  1  0.862060  0.256936  0.734976  1
  S  S8  1  0.256936  0.734976  0.862060  1
  S  S9  1  0.734976  0.862060  0.256936  1
  S  S10  1  0.087947  0.611173  0.431706  1
  S  S11  1  0.611173  0.431706  0.087947  1
  S  S12  1  0.431706  0.087947  0.611173  1
  S  S13  1  0.611173  0.087947  0.431706  1
  S  S14  1  0.087947  0.431706  0.611173  1
  S  S15  1  0.431706  0.611173  0.087947  1
  S  S16  1  0.372858  0.757176  0.628442  1
  S  S17  1  0.757176  0.628442  0.372858  1
  S  S18  1  0.628442  0.372858  0.757176  1
  S  S19  1  0.757176  0.372858  0.628442  1
  S  S20  1  0.372858  0.628442  0.757176  1
  S  S21  1  0.628442  0.757176  0.372858  1
  S  S22  1  0.174949  0.450879  0.450879  1
  S  S23  1  0.450879  0.450879  0.174949  1
  S  S24  1  0.450879  0.174949  0.450879  1
  Br  Br25  1  0.037216  0.897064  0.897064  1
  Br  Br26  1  0.897064  0.897064  0.037216  1
  Br  Br27  1  0.897064  0.037216  0.897064  1
