# generated using pymatgen
data_YTcF7
_symmetry_space_group_name_H-M   'P 1'
_cell_length_a   5.61878900
_cell_length_b   8.93888547
_cell_length_c   12.03632009
_cell_angle_alpha   62.59846389
_cell_angle_beta   90.00000000
_cell_angle_gamma   90.00000000
_symmetry_Int_Tables_number   1
_chemical_formula_structural   YTcF7
_chemical_formula_sum   'Y4 Tc4 F28'
_cell_volume   536.70600743
_cell_formula_units_Z   4
loop_
 _symmetry_equiv_pos_site_id
 _symmetry_equiv_pos_as_xyz
  1  'x, y, z'
loop_
 _atom_site_type_symbol
 _atom_site_label
 _atom_site_symmetry_multiplicity
 _atom_site_fract_x
 _atom_site_fract_y
 _atom_site_fract_z
 _atom_site_occupancy
  Y  Y0  1  0.259266  0.813632  0.264875  1
  Y  Y1  1  0.740734  0.186368  0.735125  1
  Y  Y2  1  0.759266  0.186368  0.235125  1
  Y  Y3  1  0.240734  0.813632  0.764875  1
  Tc  Tc4  1  0.758246  0.726624  0.043403  1
  Tc  Tc5  1  0.241754  0.273376  0.956597  1
  Tc  Tc6  1  0.258246  0.273376  0.456597  1
  Tc  Tc7  1  0.741754  0.726624  0.543403  1
  F  F8  1  0.946264  0.706091  0.419477  1
  F  F9  1  0.053736  0.293909  0.580523  1
  F  F10  1  0.446264  0.293909  0.080523  1
  F  F11  1  0.553736  0.706091  0.919477  1
  F  F12  1  0.478853  0.729317  0.140337  1
  F  F13  1  0.521147  0.270683  0.859663  1
  F  F14  1  0.978853  0.270683  0.359663  1
  F  F15  1  0.021147  0.729317  0.640337  1
  F  F16  1  0.957720  0.745556  0.171436  1
  F  F17  1  0.042280  0.254444  0.828564  1
  F  F18  1  0.457720  0.254444  0.328564  1
  F  F19  1  0.542280  0.745556  0.671436  1
  F  F20  1  0.772990  0.479922  0.140830  1
  F  F21  1  0.227010  0.520078  0.859170  1
  F  F22  1  0.272990  0.520078  0.359170  1
  F  F23  1  0.727010  0.479922  0.640830  1
  F  F24  1  0.950195  0.278648  0.046296  1
  F  F25  1  0.049805  0.721352  0.953704  1
  F  F26  1  0.450195  0.721352  0.453704  1
  F  F27  1  0.549805  0.278648  0.546296  1
  F  F28  1  0.741656  0.972516  0.447358  1
  F  F29  1  0.258344  0.027484  0.552642  1
  F  F30  1  0.241656  0.027484  0.052642  1
  F  F31  1  0.758344  0.972516  0.947358  1
  F  F32  1  0.580805  0.971830  0.231266  1
  F  F33  1  0.419195  0.028170  0.768734  1
  F  F34  1  0.080805  0.028170  0.268734  1
  F  F35  1  0.919195  0.971830  0.731266  1
