# generated using pymatgen
data_CaPa2(GaNi)3
_symmetry_space_group_name_H-M   'P 1'
_cell_length_a   6.93653987
_cell_length_b   6.90684634
_cell_length_c   3.85904600
_cell_angle_alpha   90.00000000
_cell_angle_beta   90.00000000
_cell_angle_gamma   119.85848867
_symmetry_Int_Tables_number   1
_chemical_formula_structural   CaPa2(GaNi)3
_chemical_formula_sum   'Ca1 Pa2 Ga3 Ni3'
_cell_volume   160.34329025
_cell_formula_units_Z   1
loop_
 _symmetry_equiv_pos_site_id
 _symmetry_equiv_pos_as_xyz
  1  'x, y, z'
loop_
 _atom_site_type_symbol
 _atom_site_label
 _atom_site_symmetry_multiplicity
 _atom_site_fract_x
 _atom_site_fract_y
 _atom_site_fract_z
 _atom_site_occupancy
  Ca  Ca0  1  0.000000  0.586649  0.500000  1
  Pa  Pa1  1  0.420363  0.418957  0.500000  1
  Pa  Pa2  1  0.579637  0.998594  0.500000  1
  Ga  Ga3  1  0.233091  0.992705  0.000000  1
  Ga  Ga4  1  0.766909  0.759615  0.000000  1
  Ga  Ga5  1  0.000000  0.246873  0.000000  1
  Ni  Ni6  1  0.639769  0.310461  0.000000  1
  Ni  Ni7  1  0.360231  0.670693  0.000000  1
  Ni  Ni8  1  0.000000  0.015454  0.500000  1
