# generated using pymatgen
data_AsP6WO18
_symmetry_space_group_name_H-M   'P 1'
_cell_length_a   5.32186114
_cell_length_b   7.08796535
_cell_length_c   10.91019105
_cell_angle_alpha   98.26368133
_cell_angle_beta   92.48165100
_cell_angle_gamma   92.24293690
_symmetry_Int_Tables_number   1
_chemical_formula_structural   AsP6WO18
_chemical_formula_sum   'As1 P6 W1 O18'
_cell_volume   406.46169152
_cell_formula_units_Z   1
loop_
 _symmetry_equiv_pos_site_id
 _symmetry_equiv_pos_as_xyz
  1  'x, y, z'
loop_
 _atom_site_type_symbol
 _atom_site_label
 _atom_site_symmetry_multiplicity
 _atom_site_fract_x
 _atom_site_fract_y
 _atom_site_fract_z
 _atom_site_occupancy
  As  As0  1  0.000000  0.000000  0.000000  1
  P  P1  1  0.518427  0.959737  0.181954  1
  P  P2  1  0.245949  0.315272  0.228641  1
  P  P3  1  0.504810  0.328675  0.644785  1
  P  P4  1  0.481573  0.040263  0.818046  1
  P  P5  1  0.754051  0.684728  0.771359  1
  P  P6  1  0.495190  0.671325  0.355215  1
  W  W7  1  0.000000  0.500000  0.500000  1
  O  O8  1  0.484210  0.180939  0.231957  1
  O  O9  1  0.106803  0.273474  0.103704  1
  O  O10  1  0.322577  0.885263  0.080111  1
  O  O11  1  0.228656  0.353781  0.622568  1
  O  O12  1  0.671920  0.332464  0.537553  1
  O  O13  1  0.209077  0.066997  0.845110  1
  O  O14  1  0.610988  0.479137  0.764012  1
  O  O15  1  0.893197  0.726526  0.896296  1
  O  O16  1  0.543411  0.130397  0.694907  1
  O  O17  1  0.771344  0.646219  0.377432  1
  O  O18  1  0.899493  0.696991  0.657655  1
  O  O19  1  0.790923  0.933003  0.154890  1
  O  O20  1  0.515790  0.819061  0.768043  1
  O  O21  1  0.677423  0.114737  0.919889  1
  O  O22  1  0.456589  0.869603  0.305093  1
  O  O23  1  0.100507  0.303009  0.342345  1
  O  O24  1  0.389012  0.520863  0.235988  1
  O  O25  1  0.328080  0.667536  0.462447  1
