# generated using pymatgen
data_Ta5Si6Tc6Mo
_symmetry_space_group_name_H-M   'P 1'
_cell_length_a   7.49230177
_cell_length_b   7.56279579
_cell_length_c   7.49230089
_cell_angle_alpha   127.55834034
_cell_angle_beta   124.23660445
_cell_angle_gamma   79.84815453
_symmetry_Int_Tables_number   1
_chemical_formula_structural   Ta5Si6Tc6Mo
_chemical_formula_sum   'Ta5 Si6 Tc6 Mo1'
_cell_volume   269.07654949
_cell_formula_units_Z   1
loop_
 _symmetry_equiv_pos_site_id
 _symmetry_equiv_pos_as_xyz
  1  'x, y, z'
loop_
 _atom_site_type_symbol
 _atom_site_label
 _atom_site_symmetry_multiplicity
 _atom_site_fract_x
 _atom_site_fract_y
 _atom_site_fract_z
 _atom_site_occupancy
  Ta  Ta0  1  0.442994  0.482475  0.539481  1
  Ta  Ta1  1  0.966842  0.500830  0.033987  1
  Ta  Ta2  1  0.039037  0.072745  0.533706  1
  Ta  Ta3  1  0.754297  0.911799  0.657503  1
  Ta  Ta4  1  0.246059  0.909120  0.163060  1
  Si  Si5  1  0.339811  0.828249  0.504825  1
  Si  Si6  1  0.663513  0.160131  0.487683  1
  Si  Si7  1  0.823426  0.828249  0.988440  1
  Si  Si8  1  0.172450  0.160131  0.996619  1
  Si  Si9  1  0.777684  0.542961  0.265278  1
  Si  Si10  1  0.226079  0.473689  0.747610  1
  Tc  Tc11  1  0.161341  0.748377  0.658864  1
  Tc  Tc12  1  0.839706  0.494363  0.588576  1
  Tc  Tc13  1  0.589515  0.748377  0.087037  1
  Tc  Tc14  1  0.405788  0.494363  0.154658  1
  Tc  Tc15  1  0.520581  0.245583  0.766463  1
  Tc  Tc16  1  0.979119  0.245583  0.225001  1
  Mo  Mo17  1  0.551761  0.094974  0.043214  1
