# generated using pymatgen
data_PrNd7(PCl6)2
_symmetry_space_group_name_H-M   'P 1'
_cell_length_a   4.00031200
_cell_length_b   13.08081924
_cell_length_c   13.84907800
_cell_angle_alpha   90.06027946
_cell_angle_beta   90.00000000
_cell_angle_gamma   90.00000000
_symmetry_Int_Tables_number   1
_chemical_formula_structural   PrNd7(PCl6)2
_chemical_formula_sum   'Pr1 Nd7 P2 Cl12'
_cell_volume   724.68526381
_cell_formula_units_Z   1
loop_
 _symmetry_equiv_pos_site_id
 _symmetry_equiv_pos_as_xyz
  1  'x, y, z'
loop_
 _atom_site_type_symbol
 _atom_site_label
 _atom_site_symmetry_multiplicity
 _atom_site_fract_x
 _atom_site_fract_y
 _atom_site_fract_z
 _atom_site_occupancy
  Pr  Pr0  1  0.500000  0.378835  0.837225  1
  Nd  Nd1  1  0.500000  0.121378  0.337488  1
  Nd  Nd2  1  0.500000  0.879201  0.662846  1
  Nd  Nd3  1  0.500000  0.621239  0.162865  1
  Nd  Nd4  1  0.000000  0.121542  0.580654  1
  Nd  Nd5  1  0.000000  0.878581  0.419593  1
  Nd  Nd6  1  0.000000  0.621170  0.919205  1
  Nd  Nd7  1  0.000000  0.378158  0.079969  1
  P  P8  1  0.500000  0.000115  0.499996  1
  P  P9  1  0.500000  0.500642  0.000847  1
  Cl  Cl10  1  0.500000  0.241541  0.163878  1
  Cl  Cl11  1  0.500000  0.757941  0.835703  1
  Cl  Cl12  1  0.500000  0.742068  0.336571  1
  Cl  Cl13  1  0.500000  0.257138  0.662990  1
  Cl  Cl14  1  0.000000  0.253151  0.411965  1
  Cl  Cl15  1  0.000000  0.747470  0.588407  1
  Cl  Cl16  1  0.000000  0.753046  0.088520  1
  Cl  Cl17  1  0.000000  0.244830  0.912421  1
  Cl  Cl18  1  0.000000  0.001846  0.246020  1
  Cl  Cl19  1  0.000000  0.998501  0.754471  1
  Cl  Cl20  1  0.000000  0.501642  0.254211  1
  Cl  Cl21  1  0.000000  0.499965  0.744156  1
