# generated using pymatgen
data_Zr7Sc15(TcOs)4
_symmetry_space_group_name_H-M   'P 1'
_cell_length_a   9.49020443
_cell_length_b   9.49020497
_cell_length_c   9.49020476
_cell_angle_alpha   60.37148499
_cell_angle_beta   60.37148268
_cell_angle_gamma   60.37148783
_symmetry_Int_Tables_number   1
_chemical_formula_structural   Zr7Sc15(TcOs)4
_chemical_formula_sum   'Zr7 Sc15 Tc4 Os4'
_cell_volume   609.46065866
_cell_formula_units_Z   1
loop_
 _symmetry_equiv_pos_site_id
 _symmetry_equiv_pos_as_xyz
  1  'x, y, z'
loop_
 _atom_site_type_symbol
 _atom_site_label
 _atom_site_symmetry_multiplicity
 _atom_site_fract_x
 _atom_site_fract_y
 _atom_site_fract_z
 _atom_site_occupancy
  Zr  Zr0  1  0.842425  0.842425  0.842425  1
  Zr  Zr1  1  0.530543  0.155683  0.155683  1
  Zr  Zr2  1  0.155683  0.155683  0.530543  1
  Zr  Zr3  1  0.155683  0.530543  0.155683  1
  Zr  Zr4  1  0.845868  0.845868  0.467413  1
  Zr  Zr5  1  0.845868  0.467413  0.845868  1
  Zr  Zr6  1  0.467413  0.845868  0.845868  1
  Sc  Sc7  1  0.157504  0.157504  0.157504  1
  Sc  Sc8  1  0.197907  0.803987  0.197907  1
  Sc  Sc9  1  0.197589  0.800806  0.800806  1
  Sc  Sc10  1  0.803987  0.197907  0.197907  1
  Sc  Sc11  1  0.800806  0.800806  0.197589  1
  Sc  Sc12  1  0.197907  0.197907  0.803987  1
  Sc  Sc13  1  0.800806  0.197589  0.800806  1
  Sc  Sc14  1  0.382601  0.382601  0.382601  1
  Sc  Sc15  1  0.150620  0.616255  0.616255  1
  Sc  Sc16  1  0.616255  0.150620  0.616255  1
  Sc  Sc17  1  0.616255  0.616255  0.150620  1
  Sc  Sc18  1  0.382620  0.850673  0.382620  1
  Sc  Sc19  1  0.382620  0.382620  0.850673  1
  Sc  Sc20  1  0.850673  0.382620  0.382620  1
  Sc  Sc21  1  0.617272  0.617272  0.617272  1
  Tc  Tc22  1  0.500212  0.500212  0.999796  1
  Tc  Tc23  1  0.500212  0.999796  0.500212  1
  Tc  Tc24  1  0.999796  0.500212  0.500212  1
  Tc  Tc25  1  0.999597  0.999597  0.999597  1
  Os  Os26  1  0.998892  0.998892  0.503384  1
  Os  Os27  1  0.503384  0.998892  0.998892  1
  Os  Os28  1  0.998892  0.503384  0.998892  1
  Os  Os29  1  0.500105  0.500105  0.500105  1
