# generated using pymatgen
data_La4Pr16(GaSi3)3
_symmetry_space_group_name_H-M   'P 1'
_cell_length_a   7.86714939
_cell_length_b   7.86120629
_cell_length_c   14.51787525
_cell_angle_alpha   90.00815691
_cell_angle_beta   90.01967331
_cell_angle_gamma   90.03030040
_symmetry_Int_Tables_number   1
_chemical_formula_structural   La4Pr16(GaSi3)3
_chemical_formula_sum   'La4 Pr16 Ga3 Si9'
_cell_volume   897.86193492
_cell_formula_units_Z   1
loop_
 _symmetry_equiv_pos_site_id
 _symmetry_equiv_pos_as_xyz
  1  'x, y, z'
loop_
 _atom_site_type_symbol
 _atom_site_label
 _atom_site_symmetry_multiplicity
 _atom_site_fract_x
 _atom_site_fract_y
 _atom_site_fract_z
 _atom_site_occupancy
  La  La0  1  0.817877  0.820619  0.605484  1
  La  La1  1  0.999147  0.501711  0.730894  1
  La  La2  1  0.999842  0.500016  0.228347  1
  La  La3  1  0.500165  0.999901  0.272281  1
  Pr  Pr4  1  0.186414  0.826520  0.110042  1
  Pr  Pr5  1  0.170868  0.810394  0.392353  1
  Pr  Pr6  1  0.829851  0.189899  0.392288  1
  Pr  Pr7  1  0.688921  0.669923  0.392889  1
  Pr  Pr8  1  0.676653  0.318061  0.606907  1
  Pr  Pr9  1  0.323047  0.681521  0.606931  1
  Pr  Pr10  1  0.673558  0.686473  0.109797  1
  Pr  Pr11  1  0.685294  0.326220  0.890840  1
  Pr  Pr12  1  0.826466  0.814680  0.890952  1
  Pr  Pr13  1  0.310700  0.329553  0.392397  1
  Pr  Pr14  1  0.182799  0.177868  0.607423  1
  Pr  Pr15  1  0.813559  0.173213  0.110094  1
  Pr  Pr16  1  0.314340  0.673975  0.890818  1
  Pr  Pr17  1  0.327198  0.313843  0.109771  1
  Pr  Pr18  1  0.173503  0.185848  0.891440  1
  Pr  Pr19  1  0.500340  0.999834  0.765720  1
  Ga  Ga20  1  0.498133  0.001407  0.496231  1
  Ga  Ga21  1  0.500086  0.000049  0.994113  1
  Ga  Ga22  1  0.999900  0.500118  0.003221  1
  Si  Si23  1  0.612522  0.387459  0.251598  1
  Si  Si24  1  0.114497  0.889057  0.749187  1
  Si  Si25  1  0.388042  0.385498  0.748962  1
  Si  Si26  1  0.387886  0.612770  0.251524  1
  Si  Si27  1  0.887154  0.887646  0.251814  1
  Si  Si28  1  0.610447  0.613150  0.749043  1
  Si  Si29  1  0.001247  0.498597  0.505968  1
  Si  Si30  1  0.886672  0.111962  0.749149  1
  Si  Si31  1  0.112873  0.112214  0.251519  1
