# generated using pymatgen
data_Y3ErCdHgPd4
_symmetry_space_group_name_H-M   'P 1'
_cell_length_a   7.72407988
_cell_length_b   7.69378463
_cell_length_c   3.74570000
_cell_angle_alpha   90.00000000
_cell_angle_beta   90.00000000
_cell_angle_gamma   89.47710395
_symmetry_Int_Tables_number   1
_chemical_formula_structural   Y3ErCdHgPd4
_chemical_formula_sum   'Y3 Er1 Cd1 Hg1 Pd4'
_cell_volume   222.58796896
_cell_formula_units_Z   1
loop_
 _symmetry_equiv_pos_site_id
 _symmetry_equiv_pos_as_xyz
  1  'x, y, z'
loop_
 _atom_site_type_symbol
 _atom_site_label
 _atom_site_symmetry_multiplicity
 _atom_site_fract_x
 _atom_site_fract_y
 _atom_site_fract_z
 _atom_site_occupancy
  Y  Y0  1  0.683841  0.159176  0.500000  1
  Y  Y1  1  0.317813  0.839823  0.500000  1
  Y  Y2  1  0.158430  0.316489  0.500000  1
  Er  Er3  1  0.841982  0.683832  0.500000  1
  Cd  Cd4  1  0.498640  0.499906  0.000000  1
  Hg  Hg5  1  0.999800  0.999655  0.000000  1
  Pd  Pd6  1  0.136519  0.619638  0.000000  1
  Pd  Pd7  1  0.858654  0.385698  0.000000  1
  Pd  Pd8  1  0.622104  0.856898  0.000000  1
  Pd  Pd9  1  0.382218  0.138886  0.000000  1
