# generated using pymatgen
data_Ba2TcH6
_symmetry_space_group_name_H-M   'P 1'
_cell_length_a   5.77012986
_cell_length_b   5.77012883
_cell_length_c   5.77012900
_cell_angle_alpha   59.99999328
_cell_angle_beta   59.99999919
_cell_angle_gamma   59.99999355
_symmetry_Int_Tables_number   1
_chemical_formula_structural   Ba2TcH6
_chemical_formula_sum   'Ba2 Tc1 H6'
_cell_volume   135.84434862
_cell_formula_units_Z   1
loop_
 _symmetry_equiv_pos_site_id
 _symmetry_equiv_pos_as_xyz
  1  'x, y, z'
loop_
 _atom_site_type_symbol
 _atom_site_label
 _atom_site_symmetry_multiplicity
 _atom_site_fract_x
 _atom_site_fract_y
 _atom_site_fract_z
 _atom_site_occupancy
  Ba  Ba0  1  0.750000  0.750000  0.750000  1
  Ba  Ba1  1  0.250000  0.250000  0.250000  1
  Tc  Tc2  1  0.000000  0.000000  0.000000  1
  H  H3  1  0.779921  0.779921  0.220079  1
  H  H4  1  0.220079  0.779921  0.220079  1
  H  H5  1  0.779921  0.220079  0.220079  1
  H  H6  1  0.220079  0.220079  0.779921  1
  H  H7  1  0.779921  0.220079  0.779921  1
  H  H8  1  0.220079  0.779921  0.779921  1
