# generated using pymatgen
data_CsU3O9
_symmetry_space_group_name_H-M   'P 1'
_cell_length_a   8.09383685
_cell_length_b   8.08718861
_cell_length_c   8.38470906
_cell_angle_alpha   90.00802161
_cell_angle_beta   89.98543073
_cell_angle_gamma   119.95048937
_symmetry_Int_Tables_number   1
_chemical_formula_structural   CsU3O9
_chemical_formula_sum   'Cs2 U6 O18'
_cell_volume   475.54003673
_cell_formula_units_Z   2
loop_
 _symmetry_equiv_pos_site_id
 _symmetry_equiv_pos_as_xyz
  1  'x, y, z'
loop_
 _atom_site_type_symbol
 _atom_site_label
 _atom_site_symmetry_multiplicity
 _atom_site_fract_x
 _atom_site_fract_y
 _atom_site_fract_z
 _atom_site_occupancy
  Cs  Cs0  1  0.000285  0.000140  0.493434  1
  Cs  Cs1  1  0.999737  0.999696  0.991482  1
  U  U2  1  0.501003  0.999993  0.242350  1
  U  U3  1  0.999991  0.501016  0.242346  1
  U  U4  1  0.498994  0.498993  0.242349  1
  U  U5  1  0.501011  0.000006  0.742323  1
  U  U6  1  0.000006  0.501011  0.742330  1
  U  U7  1  0.498997  0.498995  0.742336  1
  O  O8  1  0.495007  0.501992  0.490817  1
  O  O9  1  0.499548  0.992886  0.492462  1
  O  O10  1  0.006396  0.505659  0.493869  1
  O  O11  1  0.505143  0.007131  0.992205  1
  O  O12  1  0.993572  0.499091  0.990808  1
  O  O13  1  0.500315  0.493297  0.993866  1
  O  O14  1  0.207789  0.793281  0.238655  1
  O  O15  1  0.206138  0.414514  0.238751  1
  O  O16  1  0.585976  0.792478  0.237598  1
  O  O17  1  0.414045  0.206065  0.247001  1
  O  O18  1  0.793642  0.208206  0.245939  1
  O  O19  1  0.792441  0.585595  0.245884  1
  O  O20  1  0.793471  0.207522  0.738687  1
  O  O21  1  0.791346  0.585478  0.738848  1
  O  O22  1  0.414032  0.207033  0.737833  1
  O  O23  1  0.585928  0.791490  0.746861  1
  O  O24  1  0.208007  0.793950  0.746039  1
  O  O25  1  0.207182  0.414483  0.745870  1
