# generated using pymatgen
data_CaNd16Tm3Sn16
_symmetry_space_group_name_H-M   'P 1'
_cell_length_a   8.20178495
_cell_length_b   8.38381099
_cell_length_c   15.96276200
_cell_angle_alpha   90.00000000
_cell_angle_beta   90.00000000
_cell_angle_gamma   89.90301549
_symmetry_Int_Tables_number   1
_chemical_formula_structural   CaNd16Tm3Sn16
_chemical_formula_sum   'Ca1 Nd16 Tm3 Sn16'
_cell_volume   1097.63329697
_cell_formula_units_Z   1
loop_
 _symmetry_equiv_pos_site_id
 _symmetry_equiv_pos_as_xyz
  1  'x, y, z'
loop_
 _atom_site_type_symbol
 _atom_site_label
 _atom_site_symmetry_multiplicity
 _atom_site_fract_x
 _atom_site_fract_y
 _atom_site_fract_z
 _atom_site_occupancy
  Ca  Ca0  1  0.197336  0.501473  0.250000  1
  Nd  Nd1  1  0.017464  0.182511  0.402440  1
  Nd  Nd2  1  0.366473  0.836583  0.120626  1
  Nd  Nd3  1  0.133722  0.337130  0.622062  1
  Nd  Nd4  1  0.481914  0.680755  0.901382  1
  Nd  Nd5  1  0.867822  0.662655  0.120508  1
  Nd  Nd6  1  0.133722  0.337130  0.877938  1
  Nd  Nd7  1  0.481914  0.680755  0.598618  1
  Nd  Nd8  1  0.633868  0.161792  0.621345  1
  Nd  Nd9  1  0.867822  0.662655  0.379492  1
  Nd  Nd10  1  0.017464  0.182511  0.097560  1
  Nd  Nd11  1  0.982431  0.818672  0.901819  1
  Nd  Nd12  1  0.633868  0.161792  0.878655  1
  Nd  Nd13  1  0.516861  0.318812  0.097242  1
  Nd  Nd14  1  0.366473  0.836583  0.379374  1
  Nd  Nd15  1  0.982431  0.818672  0.598181  1
  Nd  Nd16  1  0.516861  0.318812  0.402758  1
  Tm  Tm17  1  0.697017  0.998374  0.250000  1
  Tm  Tm18  1  0.301622  0.001866  0.750000  1
  Tm  Tm19  1  0.801857  0.497936  0.750000  1
  Sn  Sn20  1  0.793618  0.464459  0.543887  1
  Sn  Sn21  1  0.706745  0.965759  0.455595  1
  Sn  Sn22  1  0.675133  0.851813  0.750000  1
  Sn  Sn23  1  0.206820  0.537404  0.460069  1
  Sn  Sn24  1  0.293010  0.034639  0.955777  1
  Sn  Sn25  1  0.816730  0.351525  0.250000  1
  Sn  Sn26  1  0.793618  0.464459  0.956113  1
  Sn  Sn27  1  0.567551  0.617260  0.250000  1
  Sn  Sn28  1  0.206820  0.537404  0.039931  1
  Sn  Sn29  1  0.437794  0.383456  0.750000  1
  Sn  Sn30  1  0.175753  0.647544  0.750000  1
  Sn  Sn31  1  0.937599  0.116129  0.750000  1
  Sn  Sn32  1  0.293010  0.034639  0.544223  1
  Sn  Sn33  1  0.706745  0.965759  0.044405  1
  Sn  Sn34  1  0.327737  0.140356  0.250000  1
  Sn  Sn35  1  0.062376  0.889926  0.250000  1
