# generated using pymatgen
data_La2P2Ru2C
_symmetry_space_group_name_H-M   'P 1'
_cell_length_a   5.95114542
_cell_length_b   5.95114509
_cell_length_c   6.99679427
_cell_angle_alpha   122.87344240
_cell_angle_beta   122.87343943
_cell_angle_gamma   39.64236570
_symmetry_Int_Tables_number   1
_chemical_formula_structural   La2P2Ru2C
_chemical_formula_sum   'La2 P2 Ru2 C1'
_cell_volume   129.12632384
_cell_formula_units_Z   1
loop_
 _symmetry_equiv_pos_site_id
 _symmetry_equiv_pos_as_xyz
  1  'x, y, z'
loop_
 _atom_site_type_symbol
 _atom_site_label
 _atom_site_symmetry_multiplicity
 _atom_site_fract_x
 _atom_site_fract_y
 _atom_site_fract_z
 _atom_site_occupancy
  La  La0  1  0.564441  0.564441  0.315661  1
  La  La1  1  0.435558  0.435558  0.684339  1
  P  P2  1  0.813308  0.813308  0.270194  1
  P  P3  1  0.186692  0.186692  0.729806  1
  Ru  Ru4  1  0.194174  0.194174  0.078423  1
  Ru  Ru5  1  0.805826  0.805826  0.921577  1
  C  C6  1  0.000000  0.000000  0.000000  1
