# generated using pymatgen
data_YTm(PaGa5)3
_symmetry_space_group_name_H-M   'P 1'
_cell_length_a   12.52988764
_cell_length_b   12.52988763
_cell_length_c   12.52988800
_cell_angle_alpha   28.31530617
_cell_angle_beta   28.31530629
_cell_angle_gamma   28.31531008
_symmetry_Int_Tables_number   1
_chemical_formula_structural   YTm(PaGa5)3
_chemical_formula_sum   'Y1 Tm1 Pa3 Ga15'
_cell_volume   391.07635146
_cell_formula_units_Z   1
loop_
 _symmetry_equiv_pos_site_id
 _symmetry_equiv_pos_as_xyz
  1  'x, y, z'
loop_
 _atom_site_type_symbol
 _atom_site_label
 _atom_site_symmetry_multiplicity
 _atom_site_fract_x
 _atom_site_fract_y
 _atom_site_fract_z
 _atom_site_occupancy
  Y  Y0  1  0.999019  0.999019  0.999019  1
  Tm  Tm1  1  0.599610  0.599610  0.599610  1
  Pa  Pa2  1  0.130403  0.130403  0.130403  1
  Pa  Pa3  1  0.870312  0.870312  0.870312  1
  Pa  Pa4  1  0.400865  0.400865  0.400865  1
  Ga  Ga5  1  0.132217  0.635928  0.635928  1
  Ga  Ga6  1  0.635928  0.635928  0.132217  1
  Ga  Ga7  1  0.635928  0.132217  0.635928  1
  Ga  Ga8  1  0.364639  0.871695  0.364639  1
  Ga  Ga9  1  0.364639  0.364639  0.871695  1
  Ga  Ga10  1  0.871695  0.364639  0.364639  1
  Ga  Ga11  1  0.432580  0.881668  0.881668  1
  Ga  Ga12  1  0.881668  0.881668  0.432580  1
  Ga  Ga13  1  0.881668  0.432580  0.881668  1
  Ga  Ga14  1  0.119007  0.562582  0.119007  1
  Ga  Ga15  1  0.119007  0.119007  0.562582  1
  Ga  Ga16  1  0.562582  0.119007  0.119007  1
  Ga  Ga17  1  0.498015  0.498015  0.002204  1
  Ga  Ga18  1  0.498015  0.002204  0.498015  1
  Ga  Ga19  1  0.002204  0.498015  0.498015  1
