# generated using pymatgen
data_Th4Al18Ir5Ru
_symmetry_space_group_name_H-M   'P 1'
_cell_length_a   7.66502923
_cell_length_b   7.66502932
_cell_length_c   9.52208610
_cell_angle_alpha   89.96157120
_cell_angle_beta   89.96156950
_cell_angle_gamma   119.35214735
_symmetry_Int_Tables_number   1
_chemical_formula_structural   Th4Al18Ir5Ru
_chemical_formula_sum   'Th4 Al18 Ir5 Ru1'
_cell_volume   487.62761159
_cell_formula_units_Z   1
loop_
 _symmetry_equiv_pos_site_id
 _symmetry_equiv_pos_as_xyz
  1  'x, y, z'
loop_
 _atom_site_type_symbol
 _atom_site_label
 _atom_site_symmetry_multiplicity
 _atom_site_fract_x
 _atom_site_fract_y
 _atom_site_fract_z
 _atom_site_occupancy
  Th  Th0  1  0.995109  0.672318  0.749354  1
  Th  Th1  1  0.004891  0.327682  0.250646  1
  Th  Th2  1  0.672318  0.995109  0.749354  1
  Th  Th3  1  0.327682  0.004891  0.250646  1
  Al  Al4  1  0.132610  0.132610  0.748412  1
  Al  Al5  1  0.867390  0.867390  0.251588  1
  Al  Al6  1  0.005312  0.334600  0.573960  1
  Al  Al7  1  0.994688  0.665400  0.426040  1
  Al  Al8  1  0.994974  0.663649  0.074651  1
  Al  Al9  1  0.336351  0.005026  0.925349  1
  Al  Al10  1  0.005026  0.336351  0.925349  1
  Al  Al11  1  0.663649  0.994974  0.074651  1
  Al  Al12  1  0.665400  0.994688  0.426040  1
  Al  Al13  1  0.334600  0.005312  0.573960  1
  Al  Al14  1  0.336122  0.336122  0.047390  1
  Al  Al15  1  0.663878  0.663878  0.952610  1
  Al  Al16  1  0.664880  0.664880  0.545961  1
  Al  Al17  1  0.335120  0.335120  0.454039  1
  Al  Al18  1  0.341235  0.545941  0.749777  1
  Al  Al19  1  0.658765  0.454059  0.250223  1
  Al  Al20  1  0.545941  0.341235  0.749777  1
  Al  Al21  1  0.454059  0.658765  0.250223  1
  Ir  Ir22  1  0.673056  0.326944  0.500000  1
  Ir  Ir23  1  0.326944  0.673056  0.500000  1
  Ir  Ir24  1  0.327666  0.672334  0.000000  1
  Ir  Ir25  1  0.672334  0.327666  0.000000  1
  Ir  Ir26  1  0.000000  0.000000  0.000000  1
  Ru  Ru27  1  0.000000  0.000000  0.500000  1
