# generated using pymatgen
data_Ca8Sb4H2O
_symmetry_space_group_name_H-M   'P 1'
_cell_length_a   4.65813553
_cell_length_b   4.65813659
_cell_length_c   17.22021405
_cell_angle_alpha   97.77319013
_cell_angle_beta   97.77319012
_cell_angle_gamma   90.00000770
_symmetry_Int_Tables_number   1
_chemical_formula_structural   Ca8Sb4H2O
_chemical_formula_sum   'Ca8 Sb4 H2 O1'
_cell_volume   366.74932033
_cell_formula_units_Z   1
loop_
 _symmetry_equiv_pos_site_id
 _symmetry_equiv_pos_as_xyz
  1  'x, y, z'
loop_
 _atom_site_type_symbol
 _atom_site_label
 _atom_site_symmetry_multiplicity
 _atom_site_fract_x
 _atom_site_fract_y
 _atom_site_fract_z
 _atom_site_occupancy
  Ca  Ca0  1  0.499999  0.000000  0.000000  1
  Ca  Ca1  1  0.000000  0.499999  0.000000  1
  Ca  Ca2  1  0.082678  0.082678  0.165354  1
  Ca  Ca3  1  0.661374  0.661374  0.322749  1
  Ca  Ca4  1  0.749999  0.250000  0.500000  1
  Ca  Ca5  1  0.250000  0.749999  0.500000  1
  Ca  Ca6  1  0.338626  0.338626  0.677251  1
  Ca  Ca7  1  0.917322  0.917322  0.834646  1
  Sb  Sb8  1  0.567941  0.567941  0.135884  1
  Sb  Sb9  1  0.178839  0.178839  0.357678  1
  Sb  Sb10  1  0.821160  0.821160  0.642322  1
  Sb  Sb11  1  0.432058  0.432058  0.864116  1
  H  H12  1  0.728414  0.728414  0.456830  1
  H  H13  1  0.271585  0.271585  0.543170  1
  O  O14  1  0.000000  0.000000  0.000000  1
