# generated using pymatgen
data_ErLu15(CdNi)4
_symmetry_space_group_name_H-M   'P 1'
_cell_length_a   9.35046556
_cell_length_b   9.35046523
_cell_length_c   9.35046600
_cell_angle_alpha   60.08042054
_cell_angle_beta   60.08042170
_cell_angle_gamma   60.08042640
_symmetry_Int_Tables_number   1
_chemical_formula_structural   ErLu15(CdNi)4
_chemical_formula_sum   'Er1 Lu15 Cd4 Ni4'
_cell_volume   579.12921854
_cell_formula_units_Z   1
loop_
 _symmetry_equiv_pos_site_id
 _symmetry_equiv_pos_as_xyz
  1  'x, y, z'
loop_
 _atom_site_type_symbol
 _atom_site_label
 _atom_site_symmetry_multiplicity
 _atom_site_fract_x
 _atom_site_fract_y
 _atom_site_fract_z
 _atom_site_occupancy
  Er  Er0  1  0.347738  0.347738  0.347738  1
  Lu  Lu1  1  0.347830  0.347830  0.955830  1
  Lu  Lu2  1  0.347830  0.955830  0.347830  1
  Lu  Lu3  1  0.955830  0.347830  0.347830  1
  Lu  Lu4  1  0.812141  0.188275  0.188275  1
  Lu  Lu5  1  0.188776  0.811472  0.811472  1
  Lu  Lu6  1  0.188275  0.812141  0.188275  1
  Lu  Lu7  1  0.811472  0.188776  0.811472  1
  Lu  Lu8  1  0.188275  0.188275  0.812141  1
  Lu  Lu9  1  0.811472  0.811472  0.188776  1
  Lu  Lu10  1  0.936214  0.563845  0.563845  1
  Lu  Lu11  1  0.563568  0.936302  0.936302  1
  Lu  Lu12  1  0.563845  0.936214  0.563845  1
  Lu  Lu13  1  0.936302  0.563568  0.936302  1
  Lu  Lu14  1  0.563845  0.563845  0.936214  1
  Lu  Lu15  1  0.936302  0.936302  0.563568  1
  Cd  Cd16  1  0.581710  0.581710  0.581710  1
  Cd  Cd17  1  0.582125  0.582125  0.254468  1
  Cd  Cd18  1  0.582125  0.254468  0.582125  1
  Cd  Cd19  1  0.254468  0.582125  0.582125  1
  Ni  Ni20  1  0.142196  0.142196  0.142196  1
  Ni  Ni21  1  0.141718  0.141718  0.574225  1
  Ni  Ni22  1  0.141718  0.574225  0.141718  1
  Ni  Ni23  1  0.574225  0.141718  0.141718  1
