# generated using pymatgen
data_Yb12TmLu7Sn16
_symmetry_space_group_name_H-M   'P 1'
_cell_length_a   7.77795572
_cell_length_b   8.36915430
_cell_length_c   15.87470737
_cell_angle_alpha   90.01291546
_cell_angle_beta   90.01003303
_cell_angle_gamma   90.13760783
_symmetry_Int_Tables_number   1
_chemical_formula_structural   Yb12TmLu7Sn16
_chemical_formula_sum   'Yb12 Tm1 Lu7 Sn16'
_cell_volume   1033.35964950
_cell_formula_units_Z   1
loop_
 _symmetry_equiv_pos_site_id
 _symmetry_equiv_pos_as_xyz
  1  'x, y, z'
loop_
 _atom_site_type_symbol
 _atom_site_label
 _atom_site_symmetry_multiplicity
 _atom_site_fract_x
 _atom_site_fract_y
 _atom_site_fract_z
 _atom_site_occupancy
  Yb  Yb0  1  0.177079  0.334082  0.620536  1
  Yb  Yb1  1  0.501082  0.686472  0.593242  1
  Yb  Yb2  1  0.001459  0.814506  0.909166  1
  Yb  Yb3  1  0.495707  0.312670  0.092130  1
  Yb  Yb4  1  0.998603  0.188116  0.406993  1
  Yb  Yb5  1  0.496419  0.313015  0.407864  1
  Yb  Yb6  1  0.997536  0.186926  0.092281  1
  Yb  Yb7  1  0.501220  0.686696  0.907688  1
  Yb  Yb8  1  0.003108  0.813446  0.591540  1
  Yb  Yb9  1  0.333478  0.991316  0.749617  1
  Yb  Yb10  1  0.165017  0.489135  0.249304  1
  Yb  Yb11  1  0.666480  0.010123  0.250509  1
  Tm  Tm12  1  0.672852  0.164042  0.622452  1
  Lu  Lu13  1  0.173357  0.334103  0.878820  1
  Lu  Lu14  1  0.326616  0.834253  0.121662  1
  Lu  Lu15  1  0.827890  0.664380  0.377488  1
  Lu  Lu16  1  0.326524  0.834718  0.377155  1
  Lu  Lu17  1  0.826807  0.664731  0.121249  1
  Lu  Lu18  1  0.672295  0.163490  0.879288  1
  Lu  Lu19  1  0.838285  0.507914  0.748809  1
  Sn  Sn20  1  0.675526  0.961128  0.459348  1
  Sn  Sn21  1  0.170857  0.537161  0.040209  1
  Sn  Sn22  1  0.327848  0.037105  0.959524  1
  Sn  Sn23  1  0.823797  0.466577  0.542740  1
  Sn  Sn24  1  0.335702  0.033951  0.539992  1
  Sn  Sn25  1  0.827413  0.465095  0.955724  1
  Sn  Sn26  1  0.671601  0.962312  0.041098  1
  Sn  Sn27  1  0.167926  0.539392  0.456618  1
  Sn  Sn28  1  0.477096  0.380129  0.754251  1
  Sn  Sn29  1  0.967293  0.129500  0.751603  1
  Sn  Sn30  1  0.529482  0.630467  0.249483  1
  Sn  Sn31  1  0.029441  0.869593  0.248247  1
  Sn  Sn32  1  0.719513  0.865227  0.751624  1
  Sn  Sn33  1  0.210414  0.628181  0.753527  1
  Sn  Sn34  1  0.283247  0.126223  0.249215  1
  Sn  Sn35  1  0.781028  0.373824  0.249004  1
