# generated using pymatgen
data_SrNb6CrSe12
_symmetry_space_group_name_H-M   'P 1'
_cell_length_a   6.07508100
_cell_length_b   6.07508084
_cell_length_c   14.26443900
_cell_angle_alpha   90.00000000
_cell_angle_beta   90.00000000
_cell_angle_gamma   120.00000633
_symmetry_Int_Tables_number   1
_chemical_formula_structural   SrNb6CrSe12
_chemical_formula_sum   'Sr1 Nb6 Cr1 Se12'
_cell_volume   455.92082958
_cell_formula_units_Z   1
loop_
 _symmetry_equiv_pos_site_id
 _symmetry_equiv_pos_as_xyz
  1  'x, y, z'
loop_
 _atom_site_type_symbol
 _atom_site_label
 _atom_site_symmetry_multiplicity
 _atom_site_fract_x
 _atom_site_fract_y
 _atom_site_fract_z
 _atom_site_occupancy
  Sr  Sr0  1  0.333333  0.666667  0.250000  1
  Nb  Nb1  1  0.333333  0.666667  0.973120  1
  Nb  Nb2  1  0.000000  0.000000  0.971895  1
  Nb  Nb3  1  0.000000  0.000000  0.528105  1
  Nb  Nb4  1  0.333333  0.666667  0.526880  1
  Nb  Nb5  1  0.666667  0.333333  0.972111  1
  Nb  Nb6  1  0.666667  0.333333  0.527889  1
  Cr  Cr7  1  0.666667  0.333333  0.750000  1
  Se  Se8  1  0.332736  0.005050  0.090412  1
  Se  Se9  1  0.666253  0.996652  0.644225  1
  Se  Se10  1  0.994950  0.327685  0.090412  1
  Se  Se11  1  0.672315  0.005050  0.409588  1
  Se  Se12  1  0.332736  0.327685  0.409588  1
  Se  Se13  1  0.994950  0.667264  0.409588  1
  Se  Se14  1  0.672315  0.667264  0.090412  1
  Se  Se15  1  0.330399  0.333747  0.644225  1
  Se  Se16  1  0.003348  0.669601  0.644225  1
  Se  Se17  1  0.330399  0.996652  0.855775  1
  Se  Se18  1  0.666253  0.669601  0.855775  1
  Se  Se19  1  0.003348  0.333747  0.855775  1
