# generated using pymatgen
data_TbHo3(ReB6)2
_symmetry_space_group_name_H-M   'P 1'
_cell_length_a   3.67760000
_cell_length_b   9.16569804
_cell_length_c   11.55041005
_cell_angle_alpha   89.98986568
_cell_angle_beta   90.00000000
_cell_angle_gamma   90.00000000
_symmetry_Int_Tables_number   1
_chemical_formula_structural   TbHo3(ReB6)2
_chemical_formula_sum   'Tb2 Ho6 Re4 B24'
_cell_volume   389.33857178
_cell_formula_units_Z   2
loop_
 _symmetry_equiv_pos_site_id
 _symmetry_equiv_pos_as_xyz
  1  'x, y, z'
loop_
 _atom_site_type_symbol
 _atom_site_label
 _atom_site_symmetry_multiplicity
 _atom_site_fract_x
 _atom_site_fract_y
 _atom_site_fract_z
 _atom_site_occupancy
  Tb  Tb0  1  0.000000  0.323394  0.413713  1
  Tb  Tb1  1  0.000000  0.676606  0.586287  1
  Ho  Ho2  1  0.000000  0.823673  0.086087  1
  Ho  Ho3  1  0.000000  0.176327  0.913913  1
  Ho  Ho4  1  0.000000  0.943177  0.369723  1
  Ho  Ho5  1  0.000000  0.056823  0.630277  1
  Ho  Ho6  1  0.000000  0.443110  0.129716  1
  Ho  Ho7  1  0.000000  0.556890  0.870284  1
  Re  Re8  1  0.000000  0.639199  0.320046  1
  Re  Re9  1  0.000000  0.360801  0.679954  1
  Re  Re10  1  0.000000  0.138476  0.178821  1
  Re  Re11  1  0.000000  0.861524  0.821179  1
  B  B12  1  0.500000  0.553580  0.432431  1
  B  B13  1  0.500000  0.446420  0.567569  1
  B  B14  1  0.500000  0.053143  0.066869  1
  B  B15  1  0.500000  0.946857  0.933131  1
  B  B16  1  0.500000  0.749347  0.417983  1
  B  B17  1  0.500000  0.250653  0.582017  1
  B  B18  1  0.500000  0.249037  0.081166  1
  B  B19  1  0.500000  0.750963  0.918834  1
  B  B20  1  0.500000  0.792439  0.265134  1
  B  B21  1  0.500000  0.207561  0.734866  1
  B  B22  1  0.500000  0.291997  0.233961  1
  B  B23  1  0.500000  0.708003  0.766039  1
  B  B24  1  0.500000  0.630992  0.185196  1
  B  B25  1  0.500000  0.369008  0.814804  1
  B  B26  1  0.500000  0.130497  0.313959  1
  B  B27  1  0.500000  0.869503  0.686041  1
  B  B28  1  0.500000  0.982162  0.211666  1
  B  B29  1  0.500000  0.017838  0.788334  1
  B  B30  1  0.500000  0.482676  0.287546  1
  B  B31  1  0.500000  0.517324  0.712454  1
  B  B32  1  0.500000  0.600208  0.027985  1
  B  B33  1  0.500000  0.399792  0.972015  1
  B  B34  1  0.500000  0.099299  0.472214  1
  B  B35  1  0.500000  0.900701  0.527786  1
