# generated using pymatgen
data_SrCaLu4(Si3Ru)8
_symmetry_space_group_name_H-M   'P 1'
_cell_length_a   10.10490600
_cell_length_b   10.10490681
_cell_length_c   8.10823000
_cell_angle_alpha   89.89184288
_cell_angle_beta   90.10815713
_cell_angle_gamma   132.67541259
_symmetry_Int_Tables_number   1
_chemical_formula_structural   SrCaLu4(Si3Ru)8
_chemical_formula_sum   'Sr1 Ca1 Lu4 Si24 Ru8'
_cell_volume   608.69327436
_cell_formula_units_Z   1
loop_
 _symmetry_equiv_pos_site_id
 _symmetry_equiv_pos_as_xyz
  1  'x, y, z'
loop_
 _atom_site_type_symbol
 _atom_site_label
 _atom_site_symmetry_multiplicity
 _atom_site_fract_x
 _atom_site_fract_y
 _atom_site_fract_z
 _atom_site_occupancy
  Sr  Sr0  1  0.002832  0.502832  0.750000  1
  Ca  Ca1  1  0.501628  0.001628  0.750000  1
  Lu  Lu2  1  0.500473  0.500578  0.500447  1
  Lu  Lu3  1  0.000578  0.000473  0.999553  1
  Lu  Lu4  1  0.999356  0.499356  0.250000  1
  Lu  Lu5  1  0.499032  0.999032  0.250000  1
  Si  Si6  1  0.792571  0.203450  0.496821  1
  Si  Si7  1  0.297602  0.708657  0.003566  1
  Si  Si8  1  0.208657  0.797602  0.496434  1
  Si  Si9  1  0.703450  0.292571  0.003179  1
  Si  Si10  1  0.332965  0.333524  0.832249  1
  Si  Si11  1  0.667737  0.669173  0.166878  1
  Si  Si12  1  0.169173  0.167737  0.333122  1
  Si  Si13  1  0.833524  0.832965  0.667751  1
  Si  Si14  1  0.123367  0.889171  0.729063  1
  Si  Si15  1  0.109960  0.878294  0.273002  1
  Si  Si16  1  0.609978  0.378617  0.226911  1
  Si  Si17  1  0.620142  0.386480  0.771222  1
  Si  Si18  1  0.878617  0.109978  0.273089  1
  Si  Si19  1  0.886480  0.120142  0.728778  1
  Si  Si20  1  0.389171  0.623367  0.770937  1
  Si  Si21  1  0.378294  0.609960  0.226998  1
  Si  Si22  1  0.343996  0.112279  0.502343  1
  Si  Si23  1  0.888054  0.654616  0.492727  1
  Si  Si24  1  0.387903  0.155273  0.006347  1
  Si  Si25  1  0.843661  0.612043  0.999236  1
  Si  Si26  1  0.655273  0.887903  0.493653  1
  Si  Si27  1  0.112043  0.343661  0.500764  1
  Si  Si28  1  0.612279  0.843996  0.997657  1
  Si  Si29  1  0.154616  0.388054  0.007273  1
  Ru  Ru30  1  0.666547  0.328966  0.493406  1
  Ru  Ru31  1  0.169220  0.831893  0.006984  1
  Ru  Ru32  1  0.331893  0.669220  0.493016  1
  Ru  Ru33  1  0.828966  0.166547  0.006594  1
  Ru  Ru34  1  0.126606  0.126517  0.627742  1
  Ru  Ru35  1  0.873577  0.873256  0.373882  1
  Ru  Ru36  1  0.373256  0.373577  0.126118  1
  Ru  Ru37  1  0.626517  0.626606  0.872258  1
