# generated using pymatgen
data_HfPa3Sn3Sb2
_symmetry_space_group_name_H-M   'P 1'
_cell_length_a   9.23318100
_cell_length_b   9.22956173
_cell_length_c   6.22992300
_cell_angle_alpha   90.00000000
_cell_angle_beta   90.00000000
_cell_angle_gamma   119.98703452
_symmetry_Int_Tables_number   1
_chemical_formula_structural   HfPa3Sn3Sb2
_chemical_formula_sum   'Hf2 Pa6 Sn6 Sb4'
_cell_volume   459.83546560
_cell_formula_units_Z   2
loop_
 _symmetry_equiv_pos_site_id
 _symmetry_equiv_pos_as_xyz
  1  'x, y, z'
loop_
 _atom_site_type_symbol
 _atom_site_label
 _atom_site_symmetry_multiplicity
 _atom_site_fract_x
 _atom_site_fract_y
 _atom_site_fract_z
 _atom_site_occupancy
  Hf  Hf0  1  0.000528  0.000265  0.000000  1
  Hf  Hf1  1  0.000528  0.000265  0.500000  1
  Pa  Pa2  1  0.382161  0.999210  0.750000  1
  Pa  Pa3  1  0.382161  0.382951  0.250000  1
  Pa  Pa4  1  0.001585  0.614963  0.250000  1
  Pa  Pa5  1  0.001585  0.386622  0.750000  1
  Pa  Pa6  1  0.615923  0.613808  0.750000  1
  Pa  Pa7  1  0.615923  0.002115  0.250000  1
  Sn  Sn8  1  0.666722  0.333360  0.500000  1
  Sn  Sn9  1  0.335870  0.667935  0.000000  1
  Sn  Sn10  1  0.726291  0.999589  0.750000  1
  Sn  Sn11  1  0.726291  0.726702  0.250000  1
  Sn  Sn12  1  0.335870  0.667935  0.500000  1
  Sn  Sn13  1  0.666722  0.333360  0.000000  1
  Sb  Sb14  1  0.271962  0.999505  0.250000  1
  Sb  Sb15  1  0.271962  0.272456  0.750000  1
  Sb  Sb16  1  0.998957  0.727673  0.750000  1
  Sb  Sb17  1  0.998957  0.271283  0.250000  1
