# generated using pymatgen
data_LiIn6Pd7
_symmetry_space_group_name_H-M   'P 1'
_cell_length_a   7.34268868
_cell_length_b   7.34268770
_cell_length_c   7.34268915
_cell_angle_alpha   113.57858318
_cell_angle_beta   113.57858171
_cell_angle_gamma   113.57858565
_symmetry_Int_Tables_number   1
_chemical_formula_structural   LiIn6Pd7
_chemical_formula_sum   'Li1 In6 Pd7'
_cell_volume   247.85420394
_cell_formula_units_Z   1
loop_
 _symmetry_equiv_pos_site_id
 _symmetry_equiv_pos_as_xyz
  1  'x, y, z'
loop_
 _atom_site_type_symbol
 _atom_site_label
 _atom_site_symmetry_multiplicity
 _atom_site_fract_x
 _atom_site_fract_y
 _atom_site_fract_z
 _atom_site_occupancy
  Li  Li0  1  0.500001  0.500001  0.500001  1
  In  In1  1  0.631112  0.766653  0.041875  1
  In  In2  1  0.958125  0.368886  0.233346  1
  In  In3  1  0.233347  0.958125  0.368886  1
  In  In4  1  0.766653  0.041875  0.631113  1
  In  In5  1  0.041874  0.631113  0.766653  1
  In  In6  1  0.368887  0.233347  0.958124  1
  Pd  Pd7  1  0.000000  0.000000  0.000000  1
  Pd  Pd8  1  0.273062  0.572483  0.123660  1
  Pd  Pd9  1  0.572483  0.123659  0.273063  1
  Pd  Pd10  1  0.876340  0.726937  0.427517  1
  Pd  Pd11  1  0.123660  0.273063  0.572482  1
  Pd  Pd12  1  0.427516  0.876340  0.726937  1
  Pd  Pd13  1  0.726937  0.427516  0.876340  1
