# generated using pymatgen
data_Tb3Hg3Rh2
_symmetry_space_group_name_H-M   'P 1'
_cell_length_a   7.62554400
_cell_length_b   7.62554415
_cell_length_c   3.64448500
_cell_angle_alpha   90.00000000
_cell_angle_beta   90.00000000
_cell_angle_gamma   119.99999933
_symmetry_Int_Tables_number   1
_chemical_formula_structural   Tb3Hg3Rh2
_chemical_formula_sum   'Tb3 Hg3 Rh2'
_cell_volume   183.53059526
_cell_formula_units_Z   1
loop_
 _symmetry_equiv_pos_site_id
 _symmetry_equiv_pos_as_xyz
  1  'x, y, z'
loop_
 _atom_site_type_symbol
 _atom_site_label
 _atom_site_symmetry_multiplicity
 _atom_site_fract_x
 _atom_site_fract_y
 _atom_site_fract_z
 _atom_site_occupancy
  Tb  Tb0  1  0.581112  0.000000  0.500001  1
  Tb  Tb1  1  0.418888  0.418888  0.500001  1
  Tb  Tb2  1  0.000000  0.581113  0.500001  1
  Hg  Hg3  1  0.235542  0.000000  0.000000  1
  Hg  Hg4  1  0.000000  0.235542  0.000000  1
  Hg  Hg5  1  0.764459  0.764459  0.000000  1
  Rh  Rh6  1  0.666667  0.333334  0.000000  1
  Rh  Rh7  1  0.333334  0.666667  0.000000  1
