# generated using pymatgen
data_Sm2Er6Si12PtRh3
_symmetry_space_group_name_H-M   'P 1'
_cell_length_a   8.16686000
_cell_length_b   8.16686117
_cell_length_c   7.92816300
_cell_angle_alpha   90.00000000
_cell_angle_beta   90.00000000
_cell_angle_gamma   120.00000337
_symmetry_Int_Tables_number   1
_chemical_formula_structural   Sm2Er6Si12PtRh3
_chemical_formula_sum   'Sm2 Er6 Si12 Pt1 Rh3'
_cell_volume   457.94515762
_cell_formula_units_Z   1
loop_
 _symmetry_equiv_pos_site_id
 _symmetry_equiv_pos_as_xyz
  1  'x, y, z'
loop_
 _atom_site_type_symbol
 _atom_site_label
 _atom_site_symmetry_multiplicity
 _atom_site_fract_x
 _atom_site_fract_y
 _atom_site_fract_z
 _atom_site_occupancy
  Sm  Sm0  1  0.000000  0.000000  0.249679  1
  Sm  Sm1  1  0.000000  0.000000  0.750899  1
  Er  Er2  1  0.490397  0.509603  0.247248  1
  Er  Er3  1  0.490397  0.980793  0.247248  1
  Er  Er4  1  0.019207  0.509603  0.247248  1
  Er  Er5  1  0.507849  0.492151  0.752220  1
  Er  Er6  1  0.984301  0.492151  0.752220  1
  Er  Er7  1  0.507849  0.015699  0.752220  1
  Si  Si8  1  0.834690  0.165310  0.502173  1
  Si  Si9  1  0.834690  0.669381  0.502173  1
  Si  Si10  1  0.330619  0.165310  0.502173  1
  Si  Si11  1  0.832100  0.167900  0.998874  1
  Si  Si12  1  0.832100  0.664200  0.998874  1
  Si  Si13  1  0.335800  0.167900  0.998874  1
  Si  Si14  1  0.167898  0.832102  0.001245  1
  Si  Si15  1  0.664204  0.832102  0.001245  1
  Si  Si16  1  0.167898  0.335796  0.001245  1
  Si  Si17  1  0.168821  0.831179  0.497233  1
  Si  Si18  1  0.662358  0.831179  0.497233  1
  Si  Si19  1  0.168821  0.337642  0.497233  1
  Pt  Pt20  1  0.666667  0.333333  0.467955  1
  Rh  Rh21  1  0.666667  0.333333  0.034306  1
  Rh  Rh22  1  0.333333  0.666667  0.962168  1
  Rh  Rh23  1  0.333333  0.666667  0.538011  1
