# generated using pymatgen
data_Ca3Tm3(Bi2Rh)8
_symmetry_space_group_name_H-M   'P 1'
_cell_length_a   4.08372600
_cell_length_b   10.90718618
_cell_length_c   17.19873835
_cell_angle_alpha   89.80798754
_cell_angle_beta   90.00000000
_cell_angle_gamma   90.00000000
_symmetry_Int_Tables_number   1
_chemical_formula_structural   Ca3Tm3(Bi2Rh)8
_chemical_formula_sum   'Ca3 Tm3 Bi16 Rh8'
_cell_volume   766.06121041
_cell_formula_units_Z   1
loop_
 _symmetry_equiv_pos_site_id
 _symmetry_equiv_pos_as_xyz
  1  'x, y, z'
loop_
 _atom_site_type_symbol
 _atom_site_label
 _atom_site_symmetry_multiplicity
 _atom_site_fract_x
 _atom_site_fract_y
 _atom_site_fract_z
 _atom_site_occupancy
  Ca  Ca0  1  0.500000  0.999087  0.499338  1
  Ca  Ca1  1  0.500000  0.497346  0.001762  1
  Ca  Ca2  1  0.500000  0.640950  0.699168  1
  Tm  Tm3  1  0.500000  0.866993  0.191897  1
  Tm  Tm4  1  0.500000  0.133757  0.807780  1
  Tm  Tm5  1  0.500000  0.366832  0.307129  1
  Bi  Bi6  1  0.000000  0.113436  0.212084  1
  Bi  Bi7  1  0.000000  0.888288  0.787536  1
  Bi  Bi8  1  0.000000  0.613275  0.286970  1
  Bi  Bi9  1  0.000000  0.390099  0.712362  1
  Bi  Bi10  1  0.000000  0.396833  0.147817  1
  Bi  Bi11  1  0.000000  0.598063  0.856874  1
  Bi  Bi12  1  0.000000  0.895326  0.352231  1
  Bi  Bi13  1  0.000000  0.108198  0.645511  1
  Bi  Bi14  1  0.500000  0.127527  0.036489  1
  Bi  Bi15  1  0.500000  0.870370  0.963581  1
  Bi  Bi16  1  0.500000  0.629748  0.464343  1
  Bi  Bi17  1  0.500000  0.370494  0.534500  1
  Bi  Bi18  1  0.000000  0.693292  0.088169  1
  Bi  Bi19  1  0.000000  0.304399  0.913278  1
  Bi  Bi20  1  0.000000  0.191098  0.410185  1
  Bi  Bi21  1  0.000000  0.808142  0.589375  1
  Rh  Rh22  1  0.000000  0.949143  0.082583  1
  Rh  Rh23  1  0.000000  0.048195  0.917407  1
  Rh  Rh24  1  0.000000  0.447544  0.414739  1
  Rh  Rh25  1  0.000000  0.546454  0.575114  1
  Rh  Rh26  1  0.500000  0.578951  0.179980  1
  Rh  Rh27  1  0.500000  0.415260  0.822299  1
  Rh  Rh28  1  0.500000  0.076658  0.319240  1
  Rh  Rh29  1  0.500000  0.934243  0.680261  1
