# generated using pymatgen
data_TlMoF6
_symmetry_space_group_name_H-M   'P 1'
_cell_length_a   5.26807596
_cell_length_b   5.26807604
_cell_length_c   5.26807600
_cell_angle_alpha   96.62363148
_cell_angle_beta   96.62363158
_cell_angle_gamma   96.62362731
_symmetry_Int_Tables_number   1
_chemical_formula_structural   TlMoF6
_chemical_formula_sum   'Tl1 Mo1 F6'
_cell_volume   143.02622874
_cell_formula_units_Z   1
loop_
 _symmetry_equiv_pos_site_id
 _symmetry_equiv_pos_as_xyz
  1  'x, y, z'
loop_
 _atom_site_type_symbol
 _atom_site_label
 _atom_site_symmetry_multiplicity
 _atom_site_fract_x
 _atom_site_fract_y
 _atom_site_fract_z
 _atom_site_occupancy
  Tl  Tl0  1  0.500000  0.500000  0.500000  1
  Mo  Mo1  1  0.000000  0.000000  0.000000  1
  F  F2  1  0.293095  0.207999  0.908519  1
  F  F3  1  0.908519  0.293095  0.207999  1
  F  F4  1  0.792001  0.091481  0.706905  1
  F  F5  1  0.091481  0.706905  0.792001  1
  F  F6  1  0.706905  0.792001  0.091481  1
  F  F7  1  0.207999  0.908519  0.293095  1
