# generated using pymatgen
data_AgBi2Ir4PbO14
_symmetry_space_group_name_H-M   'P 1'
_cell_length_a   7.39221411
_cell_length_b   7.26831801
_cell_length_c   7.41043800
_cell_angle_alpha   59.35105375
_cell_angle_beta   59.91842454
_cell_angle_gamma   59.21075616
_symmetry_Int_Tables_number   1
_chemical_formula_structural   AgBi2Ir4PbO14
_chemical_formula_sum   'Ag1 Bi2 Ir4 Pb1 O14'
_cell_volume   278.27015943
_cell_formula_units_Z   1
loop_
 _symmetry_equiv_pos_site_id
 _symmetry_equiv_pos_as_xyz
  1  'x, y, z'
loop_
 _atom_site_type_symbol
 _atom_site_label
 _atom_site_symmetry_multiplicity
 _atom_site_fract_x
 _atom_site_fract_y
 _atom_site_fract_z
 _atom_site_occupancy
  Ag  Ag0  1  0.125000  0.625000  0.125000  1
  Bi  Bi1  1  0.125000  0.125000  0.625000  1
  Bi  Bi2  1  0.125000  0.125000  0.125000  1
  Ir  Ir3  1  0.125000  0.625000  0.625000  1
  Ir  Ir4  1  0.625000  0.125000  0.625000  1
  Ir  Ir5  1  0.625000  0.625000  0.125000  1
  Ir  Ir6  1  0.625000  0.625000  0.625000  1
  Pb  Pb7  1  0.625000  0.125000  0.125000  1
  O  O8  1  0.689999  0.705936  0.302032  1
  O  O9  1  0.295827  0.292001  0.706087  1
  O  O10  1  0.707327  0.291592  0.704473  1
  O  O11  1  0.300477  0.707352  0.301319  1
  O  O12  1  0.300477  0.707352  0.690851  1
  O  O13  1  0.707327  0.291592  0.296609  1
  O  O14  1  0.560001  0.544064  0.947968  1
  O  O15  1  0.954173  0.957999  0.543913  1
  O  O16  1  0.542673  0.958408  0.545527  1
  O  O17  1  0.949523  0.542648  0.948681  1
  O  O18  1  0.949523  0.542648  0.559149  1
  O  O19  1  0.542673  0.958408  0.953391  1
  O  O20  1  0.238540  0.266383  0.247538  1
  O  O21  1  0.011460  0.983617  0.002462  1
