# generated using pymatgen
data_LaGdSi2Se
_symmetry_space_group_name_H-M   'P 1'
_cell_length_a   4.08163700
_cell_length_b   4.08163560
_cell_length_c   7.98178700
_cell_angle_alpha   90.00000000
_cell_angle_beta   90.00000000
_cell_angle_gamma   120.00000326
_symmetry_Int_Tables_number   1
_chemical_formula_structural   LaGdSi2Se
_chemical_formula_sum   'La1 Gd1 Si2 Se1'
_cell_volume   115.15939076
_cell_formula_units_Z   1
loop_
 _symmetry_equiv_pos_site_id
 _symmetry_equiv_pos_as_xyz
  1  'x, y, z'
loop_
 _atom_site_type_symbol
 _atom_site_label
 _atom_site_symmetry_multiplicity
 _atom_site_fract_x
 _atom_site_fract_y
 _atom_site_fract_z
 _atom_site_occupancy
  La  La0  1  0.000000  0.000000  0.246403  1
  Gd  Gd1  1  0.000000  0.000000  0.752611  1
  Si  Si2  1  0.333333  0.666667  0.512527  1
  Si  Si3  1  0.666667  0.333333  0.502064  1
  Se  Se4  1  0.666667  0.333333  0.986395  1
