# generated using pymatgen
data_TbHo15Cd4(NiOs)2
_symmetry_space_group_name_H-M   'P 1'
_cell_length_a   9.56379034
_cell_length_b   9.56378949
_cell_length_c   9.66017700
_cell_angle_alpha   59.66604259
_cell_angle_beta   59.66604557
_cell_angle_gamma   59.39859123
_symmetry_Int_Tables_number   1
_chemical_formula_structural   TbHo15Cd4(NiOs)2
_chemical_formula_sum   'Tb1 Ho15 Cd4 Ni2 Os2'
_cell_volume   618.76603114
_cell_formula_units_Z   1
loop_
 _symmetry_equiv_pos_site_id
 _symmetry_equiv_pos_as_xyz
  1  'x, y, z'
loop_
 _atom_site_type_symbol
 _atom_site_label
 _atom_site_symmetry_multiplicity
 _atom_site_fract_x
 _atom_site_fract_y
 _atom_site_fract_z
 _atom_site_occupancy
  Tb  Tb0  1  0.941369  0.941369  0.558631  1
  Ho  Ho1  1  0.350673  0.350673  0.341545  1
  Ho  Ho2  1  0.350673  0.350673  0.957110  1
  Ho  Ho3  1  0.352428  0.955911  0.345831  1
  Ho  Ho4  1  0.955911  0.352428  0.345831  1
  Ho  Ho5  1  0.810845  0.186112  0.189920  1
  Ho  Ho6  1  0.186112  0.810845  0.813123  1
  Ho  Ho7  1  0.186112  0.810845  0.189920  1
  Ho  Ho8  1  0.810845  0.186112  0.813123  1
  Ho  Ho9  1  0.188321  0.188321  0.811679  1
  Ho  Ho10  1  0.810031  0.810031  0.189969  1
  Ho  Ho11  1  0.939311  0.555139  0.566691  1
  Ho  Ho12  1  0.555139  0.939311  0.938858  1
  Ho  Ho13  1  0.555139  0.939311  0.566691  1
  Ho  Ho14  1  0.939311  0.555139  0.938858  1
  Ho  Ho15  1  0.566061  0.566061  0.933939  1
  Cd  Cd16  1  0.579120  0.579120  0.583358  1
  Cd  Cd17  1  0.579120  0.579120  0.258400  1
  Cd  Cd18  1  0.579371  0.256293  0.582167  1
  Cd  Cd19  1  0.256293  0.579371  0.582167  1
  Ni  Ni20  1  0.142176  0.577133  0.140345  1
  Ni  Ni21  1  0.577133  0.142176  0.140345  1
  Os  Os22  1  0.144252  0.144252  0.137562  1
  Os  Os23  1  0.144252  0.144252  0.573934  1
