# generated using pymatgen
data_Li6Cd5SnPd12
_symmetry_space_group_name_H-M   'P 1'
_cell_length_a   4.49438700
_cell_length_b   6.43895100
_cell_length_c   13.33810101
_cell_angle_alpha   90.00000000
_cell_angle_beta   89.99602238
_cell_angle_gamma   90.00000000
_symmetry_Int_Tables_number   1
_chemical_formula_structural   Li6Cd5SnPd12
_chemical_formula_sum   'Li6 Cd5 Sn1 Pd12'
_cell_volume   385.99314060
_cell_formula_units_Z   1
loop_
 _symmetry_equiv_pos_site_id
 _symmetry_equiv_pos_as_xyz
  1  'x, y, z'
loop_
 _atom_site_type_symbol
 _atom_site_label
 _atom_site_symmetry_multiplicity
 _atom_site_fract_x
 _atom_site_fract_y
 _atom_site_fract_z
 _atom_site_occupancy
  Li  Li0  1  0.000000  0.000000  0.999998  1
  Li  Li1  1  0.499820  0.500000  0.167900  1
  Li  Li2  1  0.999807  0.000000  0.333546  1
  Li  Li3  1  0.499998  0.500000  0.500001  1
  Li  Li4  1  0.000193  0.000000  0.666457  1
  Li  Li5  1  0.500179  0.500000  0.832098  1
  Cd  Cd6  1  0.499796  0.000000  0.165640  1
  Cd  Cd7  1  0.999799  0.500000  0.332370  1
  Cd  Cd8  1  0.499999  0.000000  0.500001  1
  Cd  Cd9  1  0.000203  0.500000  0.667631  1
  Cd  Cd10  1  0.500202  0.000000  0.834358  1
  Sn  Sn11  1  0.999998  0.500000  0.000000  1
  Pd  Pd12  1  0.499999  0.259996  0.000000  1
  Pd  Pd13  1  0.499999  0.740003  0.000000  1
  Pd  Pd14  1  0.999789  0.252799  0.162978  1
  Pd  Pd15  1  0.999789  0.747202  0.162978  1
  Pd  Pd16  1  0.499780  0.250742  0.333297  1
  Pd  Pd17  1  0.499780  0.749260  0.333297  1
  Pd  Pd18  1  0.000000  0.249546  0.500000  1
  Pd  Pd19  1  0.000000  0.750455  0.500000  1
  Pd  Pd20  1  0.500220  0.250742  0.666703  1
  Pd  Pd21  1  0.500220  0.749260  0.666703  1
  Pd  Pd22  1  0.000210  0.252797  0.837021  1
  Pd  Pd23  1  0.000210  0.747204  0.837021  1
