# generated using pymatgen
data_AcBi(IO4)2
_symmetry_space_group_name_H-M   'P 1'
_cell_length_a   5.82573251
_cell_length_b   5.92517100
_cell_length_c   11.47395008
_cell_angle_alpha   90.00000000
_cell_angle_beta   88.18348350
_cell_angle_gamma   90.00000000
_symmetry_Int_Tables_number   1
_chemical_formula_structural   AcBi(IO4)2
_chemical_formula_sum   'Ac2 Bi2 I4 O16'
_cell_volume   395.86406659
_cell_formula_units_Z   2
loop_
 _symmetry_equiv_pos_site_id
 _symmetry_equiv_pos_as_xyz
  1  'x, y, z'
loop_
 _atom_site_type_symbol
 _atom_site_label
 _atom_site_symmetry_multiplicity
 _atom_site_fract_x
 _atom_site_fract_y
 _atom_site_fract_z
 _atom_site_occupancy
  Ac  Ac0  1  0.504459  0.308772  0.872949  1
  Ac  Ac1  1  0.495541  0.808772  0.127051  1
  Bi  Bi2  1  0.017800  0.809922  0.906224  1
  Bi  Bi3  1  0.982200  0.309922  0.093776  1
  I  I4  1  0.006655  0.331648  0.633837  1
  I  I5  1  0.993345  0.831648  0.366163  1
  I  I6  1  0.493664  0.823258  0.632229  1
  I  I7  1  0.506336  0.323258  0.367771  1
  O  O8  1  0.236261  0.063175  0.004443  1
  O  O9  1  0.763739  0.563175  0.995557  1
  O  O10  1  0.244196  0.568158  0.001362  1
  O  O11  1  0.755804  0.068158  0.998638  1
  O  O12  1  0.121864  0.419196  0.774993  1
  O  O13  1  0.878136  0.919196  0.225007  1
  O  O14  1  0.378015  0.921027  0.775884  1
  O  O15  1  0.621985  0.421027  0.224116  1
  O  O16  1  0.825034  0.108802  0.704172  1
  O  O17  1  0.174966  0.608802  0.295828  1
  O  O18  1  0.643232  0.580193  0.698914  1
  O  O19  1  0.356768  0.080193  0.301086  1
  O  O20  1  0.248259  0.167886  0.568755  1
  O  O21  1  0.751741  0.667886  0.431245  1
  O  O22  1  0.251653  0.674785  0.567734  1
  O  O23  1  0.748347  0.174785  0.432266  1
