# generated using pymatgen
data_K4Sc3VP4(O4F)4
_symmetry_space_group_name_H-M   'P 1'
_cell_length_a   6.49820000
_cell_length_b   10.83800200
_cell_length_c   13.04120400
_cell_angle_alpha   90.00000000
_cell_angle_beta   90.00000000
_cell_angle_gamma   90.00000000
_symmetry_Int_Tables_number   1
_chemical_formula_structural   K4Sc3VP4(O4F)4
_chemical_formula_sum   'K8 Sc6 V2 P8 O32 F8'
_cell_volume   918.45945465
_cell_formula_units_Z   2
loop_
 _symmetry_equiv_pos_site_id
 _symmetry_equiv_pos_as_xyz
  1  'x, y, z'
loop_
 _atom_site_type_symbol
 _atom_site_label
 _atom_site_symmetry_multiplicity
 _atom_site_fract_x
 _atom_site_fract_y
 _atom_site_fract_z
 _atom_site_occupancy
  K  K0  1  0.226953  0.798175  0.618923  1
  K  K1  1  0.727191  0.298557  0.877701  1
  K  K2  1  0.272809  0.798557  0.122299  1
  K  K3  1  0.773047  0.298175  0.381077  1
  K  K4  1  0.700093  0.056998  0.103348  1
  K  K5  1  0.299907  0.556998  0.896652  1
  K  K6  1  0.800210  0.060535  0.604819  1
  K  K7  1  0.199790  0.560535  0.395181  1
  Sc  Sc8  1  0.490740  0.999440  0.387783  1
  Sc  Sc9  1  0.509260  0.499440  0.612217  1
  Sc  Sc10  1  0.009313  0.004650  0.886847  1
  Sc  Sc11  1  0.990687  0.504650  0.113153  1
  Sc  Sc12  1  0.250810  0.250971  0.245596  1
  Sc  Sc13  1  0.749190  0.750971  0.754404  1
  V  V14  1  0.250054  0.252086  0.746476  1
  V  V15  1  0.749946  0.752086  0.253524  1
  P  P16  1  0.324644  0.251279  0.500484  1
  P  P17  1  0.675356  0.751279  0.499516  1
  P  P18  1  0.174563  0.256542  0.996310  1
  P  P19  1  0.825437  0.756542  0.003690  1
  P  P20  1  0.497334  0.507674  0.184446  1
  P  P21  1  0.502666  0.007674  0.815554  1
  P  P22  1  0.006914  0.502107  0.683904  1
  P  P23  1  0.993086  0.002107  0.316096  1
  O  O24  1  0.476915  0.141949  0.489652  1
  O  O25  1  0.523085  0.641949  0.510348  1
  O  O26  1  0.019391  0.148571  0.987018  1
  O  O27  1  0.980609  0.648571  0.012982  1
  O  O28  1  0.462423  0.368191  0.506647  1
  O  O29  1  0.537577  0.868191  0.493353  1
  O  O30  1  0.040632  0.374758  0.005238  1
  O  O31  1  0.959368  0.874758  0.994762  1
  O  O32  1  0.187028  0.264536  0.404740  1
  O  O33  1  0.812972  0.764536  0.595260  1
  O  O34  1  0.310318  0.270067  0.899667  1
  O  O35  1  0.689682  0.770067  0.100333  1
  O  O36  1  0.188377  0.233840  0.596143  1
  O  O37  1  0.811623  0.733840  0.403857  1
  O  O38  1  0.313435  0.237780  0.090516  1
  O  O39  1  0.686565  0.737780  0.909484  1
  O  O40  1  0.309433  0.536419  0.116013  1
  O  O41  1  0.690567  0.036419  0.883987  1
  O  O42  1  0.191304  0.531126  0.613386  1
  O  O43  1  0.808696  0.031126  0.386614  1
  O  O44  1  0.682031  0.478994  0.114630  1
  O  O45  1  0.317969  0.978994  0.885370  1
  O  O46  1  0.818523  0.474030  0.616361  1
  O  O47  1  0.181477  0.974030  0.383639  1
  O  O48  1  0.536000  0.621541  0.255244  1
  O  O49  1  0.464000  0.121541  0.744756  1
  O  O50  1  0.969390  0.613834  0.756199  1
  O  O51  1  0.030610  0.113834  0.243801  1
  O  O52  1  0.453686  0.398319  0.257797  1
  O  O53  1  0.546314  0.898319  0.742203  1
  O  O54  1  0.049986  0.390671  0.756178  1
  O  O55  1  0.950014  0.890671  0.243822  1
  F  F56  1  0.521037  0.879605  0.265501  1
  F  F57  1  0.478963  0.379605  0.734499  1
  F  F58  1  0.981553  0.880290  0.765710  1
  F  F59  1  0.018447  0.380290  0.234290  1
  F  F60  1  0.490281  0.133169  0.269080  1
  F  F61  1  0.509719  0.633169  0.730920  1
  F  F62  1  0.014667  0.133639  0.767207  1
  F  F63  1  0.985333  0.633639  0.232793  1
