# generated using pymatgen
data_V4Te8H3
_symmetry_space_group_name_H-M   'P 1'
_cell_length_a   3.49274000
_cell_length_b   3.49274037
_cell_length_c   29.77180700
_cell_angle_alpha   90.00000000
_cell_angle_beta   90.00000000
_cell_angle_gamma   119.99999646
_symmetry_Int_Tables_number   1
_chemical_formula_structural   V4Te8H3
_chemical_formula_sum   'V4 Te8 H3'
_cell_volume   314.53458401
_cell_formula_units_Z   1
loop_
 _symmetry_equiv_pos_site_id
 _symmetry_equiv_pos_as_xyz
  1  'x, y, z'
loop_
 _atom_site_type_symbol
 _atom_site_label
 _atom_site_symmetry_multiplicity
 _atom_site_fract_x
 _atom_site_fract_y
 _atom_site_fract_z
 _atom_site_occupancy
  V  V0  1  0.666667  0.333333  0.000000  1
  V  V1  1  0.666667  0.333333  0.500000  1
  V  V2  1  0.333333  0.666667  0.249644  1
  V  V3  1  0.333333  0.666667  0.750356  1
  Te  Te4  1  0.666667  0.333333  0.312059  1
  Te  Te5  1  0.666667  0.333333  0.812779  1
  Te  Te6  1  0.333333  0.666667  0.939929  1
  Te  Te7  1  0.333333  0.666667  0.437553  1
  Te  Te8  1  0.333333  0.666667  0.060071  1
  Te  Te9  1  0.333333  0.666667  0.562447  1
  Te  Te10  1  0.666667  0.333333  0.187221  1
  Te  Te11  1  0.666667  0.333333  0.687941  1
  H  H12  1  0.000000  0.000000  0.500000  1
  H  H13  1  0.000000  0.000000  0.249637  1
  H  H14  1  0.000000  0.000000  0.750363  1
