# generated using pymatgen
data_Sm8TiSi16W11
_symmetry_space_group_name_H-M   'P 1'
_cell_length_a   6.94510076
_cell_length_b   6.94510100
_cell_length_c   12.99557550
_cell_angle_alpha   90.04994308
_cell_angle_beta   89.95005728
_cell_angle_gamma   90.15692956
_symmetry_Int_Tables_number   1
_chemical_formula_structural   Sm8TiSi16W11
_chemical_formula_sum   'Sm8 Ti1 Si16 W11'
_cell_volume   626.83130152
_cell_formula_units_Z   1
loop_
 _symmetry_equiv_pos_site_id
 _symmetry_equiv_pos_as_xyz
  1  'x, y, z'
loop_
 _atom_site_type_symbol
 _atom_site_label
 _atom_site_symmetry_multiplicity
 _atom_site_fract_x
 _atom_site_fract_y
 _atom_site_fract_z
 _atom_site_occupancy
  Sm  Sm0  1  0.998613  0.665237  0.031089  1
  Sm  Sm1  1  0.999756  0.335774  0.530760  1
  Sm  Sm2  1  0.665237  0.998613  0.968911  1
  Sm  Sm3  1  0.162802  0.501630  0.780670  1
  Sm  Sm4  1  0.836158  0.501221  0.281208  1
  Sm  Sm5  1  0.501630  0.162802  0.219330  1
  Sm  Sm6  1  0.501221  0.836158  0.718792  1
  Sm  Sm7  1  0.335774  0.999756  0.469240  1
  Ti  Ti8  1  0.332006  0.332006  0.000000  1
  Si  Si9  1  0.033556  0.714212  0.437216  1
  Si  Si10  1  0.961436  0.289050  0.934554  1
  Si  Si11  1  0.714212  0.033556  0.562784  1
  Si  Si12  1  0.212045  0.466613  0.187648  1
  Si  Si13  1  0.786920  0.534158  0.687161  1
  Si  Si14  1  0.466613  0.212045  0.812352  1
  Si  Si15  1  0.534158  0.786920  0.312839  1
  Si  Si16  1  0.289050  0.961436  0.065446  1
  Si  Si17  1  0.802314  0.877695  0.185462  1
  Si  Si18  1  0.301286  0.622414  0.564284  1
  Si  Si19  1  0.701932  0.375100  0.064073  1
  Si  Si20  1  0.622414  0.301286  0.435716  1
  Si  Si21  1  0.375100  0.701932  0.935927  1
  Si  Si22  1  0.123027  0.200031  0.313535  1
  Si  Si23  1  0.200031  0.123027  0.686465  1
  Si  Si24  1  0.877695  0.802314  0.814538  1
  W  W25  1  0.331465  0.503085  0.375680  1
  W  W26  1  0.832964  0.999635  0.373493  1
  W  W27  1  0.004901  0.167741  0.123571  1
  W  W28  1  0.999635  0.832964  0.626507  1
  W  W29  1  0.503085  0.331465  0.624320  1
  W  W30  1  0.167741  0.004901  0.876429  1
  W  W31  1  0.667491  0.667491  0.500000  1
  W  W32  1  0.833645  0.164717  0.747666  1
  W  W33  1  0.164717  0.833645  0.252334  1
  W  W34  1  0.497510  0.661858  0.123842  1
  W  W35  1  0.661858  0.497510  0.876158  1
