# generated using pymatgen
data_NdHoPb2F14
_symmetry_space_group_name_H-M   'P 1'
_cell_length_a   5.82225200
_cell_length_b   9.29895724
_cell_length_c   12.52865500
_cell_angle_alpha   62.38901428
_cell_angle_beta   90.00000000
_cell_angle_gamma   90.00000000
_symmetry_Int_Tables_number   1
_chemical_formula_structural   NdHoPb2F14
_chemical_formula_sum   'Nd2 Ho2 Pb4 F28'
_cell_volume   601.06253198
_cell_formula_units_Z   2
loop_
 _symmetry_equiv_pos_site_id
 _symmetry_equiv_pos_as_xyz
  1  'x, y, z'
loop_
 _atom_site_type_symbol
 _atom_site_label
 _atom_site_symmetry_multiplicity
 _atom_site_fract_x
 _atom_site_fract_y
 _atom_site_fract_z
 _atom_site_occupancy
  Nd  Nd0  1  0.759288  0.814195  0.764426  1
  Nd  Nd1  1  0.259288  0.185805  0.735574  1
  Ho  Ho2  1  0.243367  0.180631  0.235856  1
  Ho  Ho3  1  0.743367  0.819369  0.264144  1
  Pb  Pb4  1  0.753716  0.269726  0.964327  1
  Pb  Pb5  1  0.253716  0.730274  0.535673  1
  Pb  Pb6  1  0.243856  0.722414  0.049346  1
  Pb  Pb7  1  0.743856  0.277586  0.450654  1
  F  F8  1  0.460074  0.707361  0.920452  1
  F  F9  1  0.960074  0.292639  0.579548  1
  F  F10  1  0.536896  0.291939  0.089974  1
  F  F11  1  0.036896  0.708061  0.410026  1
  F  F12  1  0.448206  0.286148  0.544899  1
  F  F13  1  0.948206  0.713852  0.955101  1
  F  F14  1  0.556398  0.721469  0.444245  1
  F  F15  1  0.056398  0.278531  0.055755  1
  F  F16  1  0.771038  0.521386  0.860010  1
  F  F17  1  0.271038  0.478614  0.639990  1
  F  F18  1  0.232979  0.469915  0.148418  1
  F  F19  1  0.732979  0.530085  0.351582  1
  F  F20  1  0.757417  0.015749  0.061750  1
  F  F21  1  0.257417  0.984251  0.438250  1
  F  F22  1  0.238006  0.975697  0.947260  1
  F  F23  1  0.738006  0.024303  0.552740  1
  F  F24  1  0.966101  0.730148  0.637242  1
  F  F25  1  0.466101  0.269852  0.862758  1
  F  F26  1  0.022266  0.265873  0.347307  1
  F  F27  1  0.522266  0.734127  0.152693  1
  F  F28  1  0.028899  0.746628  0.176435  1
  F  F29  1  0.528899  0.253372  0.323565  1
  F  F30  1  0.955710  0.252686  0.830874  1
  F  F31  1  0.455710  0.747314  0.669126  1
  F  F32  1  0.436825  0.977773  0.236825  1
  F  F33  1  0.936825  0.022227  0.263175  1
  F  F34  1  0.588960  0.033775  0.767506  1
  F  F35  1  0.088960  0.966225  0.732494  1
