# generated using pymatgen
data_Ba2CeZrF12
_symmetry_space_group_name_H-M   'P 1'
_cell_length_a   7.07343063
_cell_length_b   7.07343047
_cell_length_c   5.69170500
_cell_angle_alpha   90.00000000
_cell_angle_beta   90.00000000
_cell_angle_gamma   111.13180475
_symmetry_Int_Tables_number   1
_chemical_formula_structural   Ba2CeZrF12
_chemical_formula_sum   'Ba2 Ce1 Zr1 F12'
_cell_volume   265.62532857
_cell_formula_units_Z   1
loop_
 _symmetry_equiv_pos_site_id
 _symmetry_equiv_pos_as_xyz
  1  'x, y, z'
loop_
 _atom_site_type_symbol
 _atom_site_label
 _atom_site_symmetry_multiplicity
 _atom_site_fract_x
 _atom_site_fract_y
 _atom_site_fract_z
 _atom_site_occupancy
  Ba  Ba0  1  0.250000  0.750000  0.552516  1
  Ba  Ba1  1  0.750000  0.250000  0.447484  1
  Ce  Ce2  1  0.750000  0.750000  0.000000  1
  Zr  Zr3  1  0.250000  0.250000  0.000000  1
  F  F4  1  0.190460  0.435766  0.248438  1
  F  F5  1  0.309540  0.064234  0.248438  1
  F  F6  1  0.435766  0.190460  0.751562  1
  F  F7  1  0.064234  0.309540  0.751562  1
  F  F8  1  0.561485  0.416537  0.151908  1
  F  F9  1  0.938515  0.083463  0.151908  1
  F  F10  1  0.416537  0.561485  0.848092  1
  F  F11  1  0.083463  0.938515  0.848092  1
  F  F12  1  0.929403  0.663232  0.262816  1
  F  F13  1  0.570597  0.836768  0.262816  1
  F  F14  1  0.663232  0.929403  0.737184  1
  F  F15  1  0.836768  0.570597  0.737184  1
