# generated using pymatgen
data_La16MgCd3(OsPd)2
_symmetry_space_group_name_H-M   'P 1'
_cell_length_a   10.18133351
_cell_length_b   10.18133427
_cell_length_c   10.28800935
_cell_angle_alpha   59.55723683
_cell_angle_beta   59.55723451
_cell_angle_gamma   59.49422081
_symmetry_Int_Tables_number   1
_chemical_formula_structural   La16MgCd3(OsPd)2
_chemical_formula_sum   'La16 Mg1 Cd3 Os2 Pd2'
_cell_volume   746.14183148
_cell_formula_units_Z   1
loop_
 _symmetry_equiv_pos_site_id
 _symmetry_equiv_pos_as_xyz
  1  'x, y, z'
loop_
 _atom_site_type_symbol
 _atom_site_label
 _atom_site_symmetry_multiplicity
 _atom_site_fract_x
 _atom_site_fract_y
 _atom_site_fract_z
 _atom_site_occupancy
  La  La0  1  0.345549  0.345549  0.356548  1
  La  La1  1  0.345535  0.345535  0.952376  1
  La  La2  1  0.341795  0.960756  0.347870  1
  La  La3  1  0.960756  0.341795  0.347870  1
  La  La4  1  0.817187  0.190365  0.190520  1
  La  La5  1  0.188295  0.818330  0.803160  1
  La  La6  1  0.190365  0.817187  0.190520  1
  La  La7  1  0.818330  0.188295  0.803160  1
  La  La8  1  0.188508  0.188508  0.811211  1
  La  La9  1  0.805958  0.805958  0.193995  1
  La  La10  1  0.938882  0.557737  0.565024  1
  La  La11  1  0.556006  0.938472  0.940941  1
  La  La12  1  0.557737  0.938882  0.565024  1
  La  La13  1  0.938472  0.556006  0.940941  1
  La  La14  1  0.562983  0.562983  0.938715  1
  La  La15  1  0.940156  0.940156  0.559193  1
  Mg  Mg16  1  0.576187  0.576187  0.577118  1
  Cd  Cd17  1  0.579625  0.579625  0.261335  1
  Cd  Cd18  1  0.579732  0.260677  0.579966  1
  Cd  Cd19  1  0.260677  0.579732  0.579966  1
  Os  Os20  1  0.143012  0.143012  0.138068  1
  Os  Os21  1  0.142448  0.142448  0.577431  1
  Pd  Pd22  1  0.145787  0.576016  0.139526  1
  Pd  Pd23  1  0.576016  0.145787  0.139526  1
