# generated using pymatgen
data_Tm4As6IrRh6
_symmetry_space_group_name_H-M   'P 1'
_cell_length_a   7.24264029
_cell_length_b   7.24263988
_cell_length_c   7.24263969
_cell_angle_alpha   109.35557501
_cell_angle_beta   109.52907882
_cell_angle_gamma   109.52906793
_symmetry_Int_Tables_number   1
_chemical_formula_structural   Tm4As6IrRh6
_chemical_formula_sum   'Tm4 As6 Ir1 Rh6'
_cell_volume   292.46067747
_cell_formula_units_Z   1
loop_
 _symmetry_equiv_pos_site_id
 _symmetry_equiv_pos_as_xyz
  1  'x, y, z'
loop_
 _atom_site_type_symbol
 _atom_site_label
 _atom_site_symmetry_multiplicity
 _atom_site_fract_x
 _atom_site_fract_y
 _atom_site_fract_z
 _atom_site_occupancy
  Tm  Tm0  1  0.500000  0.500104  0.499896  1
  Tm  Tm1  1  0.000209  0.500104  0.000104  1
  Tm  Tm2  1  0.500000  0.999896  0.000104  1
  Tm  Tm3  1  0.999791  0.999896  0.499896  1
  As  As4  1  0.682680  0.000643  0.683323  1
  As  As5  1  0.682680  0.682037  0.999357  1
  As  As6  1  0.317320  0.316677  0.999357  1
  As  As7  1  0.000000  0.682317  0.682317  1
  As  As8  1  0.000000  0.317683  0.317683  1
  As  As9  1  0.317320  0.000643  0.317963  1
  Ir  Ir10  1  0.500000  0.750000  0.250000  1
  Rh  Rh11  1  0.750310  0.249864  0.499555  1
  Rh  Rh12  1  0.249690  0.749245  0.499555  1
  Rh  Rh13  1  0.249690  0.500445  0.750136  1
  Rh  Rh14  1  0.000000  0.000000  0.000000  1
  Rh  Rh15  1  0.500000  0.250000  0.750000  1
  Rh  Rh16  1  0.750310  0.500445  0.250755  1
