# generated using pymatgen
data_Cr11P4Ir
_symmetry_space_group_name_H-M   'P 1'
_cell_length_a   4.48419813
_cell_length_b   6.88560547
_cell_length_c   6.83834065
_cell_angle_alpha   95.56703647
_cell_angle_beta   109.15548576
_cell_angle_gamma   71.18848499
_symmetry_Int_Tables_number   1
_chemical_formula_structural   Cr11P4Ir
_chemical_formula_sum   'Cr11 P4 Ir1'
_cell_volume   188.78977854
_cell_formula_units_Z   1
loop_
 _symmetry_equiv_pos_site_id
 _symmetry_equiv_pos_as_xyz
  1  'x, y, z'
loop_
 _atom_site_type_symbol
 _atom_site_label
 _atom_site_symmetry_multiplicity
 _atom_site_fract_x
 _atom_site_fract_y
 _atom_site_fract_z
 _atom_site_occupancy
  Cr  Cr0  1  0.079995  0.397502  0.060807  1
  Cr  Cr1  1  0.341859  0.966130  0.178251  1
  Cr  Cr2  1  0.360124  0.609252  0.331837  1
  Cr  Cr3  1  0.024869  0.328552  0.388805  1
  Cr  Cr4  1  0.990125  0.940285  0.383294  1
  Cr  Cr5  1  0.542094  0.057862  0.613753  1
  Cr  Cr6  1  0.962640  0.673055  0.608899  1
  Cr  Cr7  1  0.637258  0.393852  0.671597  1
  Cr  Cr8  1  0.131119  0.027171  0.817691  1
  Cr  Cr9  1  0.397644  0.610406  0.944545  1
  Cr  Cr10  1  0.851101  0.810942  0.969661  1
  P  P11  1  0.787382  0.661272  0.245177  1
  P  P12  1  0.549502  0.242894  0.344023  1
  P  P13  1  0.453409  0.757124  0.663582  1
  P  P14  1  0.196190  0.340842  0.750004  1
  Ir  Ir15  1  0.694690  0.182859  0.028073  1
