# generated using pymatgen
data_DyHo3(MgIr)4
_symmetry_space_group_name_H-M   'P 1'
_cell_length_a   7.11400020
_cell_length_b   4.07226900
_cell_length_c   8.74173700
_cell_angle_alpha   90.00000000
_cell_angle_beta   90.37356081
_cell_angle_gamma   90.00000000
_symmetry_Int_Tables_number   1
_chemical_formula_structural   DyHo3(MgIr)4
_chemical_formula_sum   'Dy1 Ho3 Mg4 Ir4'
_cell_volume   253.24380906
_cell_formula_units_Z   1
loop_
 _symmetry_equiv_pos_site_id
 _symmetry_equiv_pos_as_xyz
  1  'x, y, z'
loop_
 _atom_site_type_symbol
 _atom_site_label
 _atom_site_symmetry_multiplicity
 _atom_site_fract_x
 _atom_site_fract_y
 _atom_site_fract_z
 _atom_site_occupancy
  Dy  Dy0  1  0.960382  0.250000  0.173645  1
  Ho  Ho1  1  0.459968  0.250000  0.326687  1
  Ho  Ho2  1  0.039768  0.750000  0.826143  1
  Ho  Ho3  1  0.539761  0.750000  0.673494  1
  Mg  Mg4  1  0.865187  0.250000  0.558615  1
  Mg  Mg5  1  0.365477  0.250000  0.941446  1
  Mg  Mg6  1  0.134801  0.750000  0.441790  1
  Mg  Mg7  1  0.634720  0.750000  0.058018  1
  Ir  Ir8  1  0.748852  0.250000  0.866420  1
  Ir  Ir9  1  0.249017  0.250000  0.633333  1
  Ir  Ir10  1  0.251997  0.750000  0.133107  1
  Ir  Ir11  1  0.750066  0.750000  0.367305  1
