# generated using pymatgen
data_La8CoB8Rh19
_symmetry_space_group_name_H-M   'P 1'
_cell_length_a   5.53662579
_cell_length_b   5.55856169
_cell_length_c   21.25140700
_cell_angle_alpha   90.00000000
_cell_angle_beta   90.00000000
_cell_angle_gamma   120.13266167
_symmetry_Int_Tables_number   1
_chemical_formula_structural   La8CoB8Rh19
_chemical_formula_sum   'La8 Co1 B8 Rh19'
_cell_volume   565.64481306
_cell_formula_units_Z   1
loop_
 _symmetry_equiv_pos_site_id
 _symmetry_equiv_pos_as_xyz
  1  'x, y, z'
loop_
 _atom_site_type_symbol
 _atom_site_label
 _atom_site_symmetry_multiplicity
 _atom_site_fract_x
 _atom_site_fract_y
 _atom_site_fract_z
 _atom_site_occupancy
  La  La0  1  0.666517  0.333300  0.520738  1
  La  La1  1  0.333868  0.666905  0.478395  1
  La  La2  1  0.333868  0.666905  0.021605  1
  La  La3  1  0.666517  0.333300  0.979262  1
  La  La4  1  0.666758  0.333400  0.673771  1
  La  La5  1  0.333308  0.666620  0.325518  1
  La  La6  1  0.333308  0.666620  0.174482  1
  La  La7  1  0.666758  0.333400  0.826229  1
  Co  Co8  1  0.334187  0.167051  0.250000  1
  B  B9  1  0.000464  0.000277  0.677571  1
  B  B10  1  0.010670  0.005296  0.320105  1
  B  B11  1  0.010670  0.005296  0.179895  1
  B  B12  1  0.000464  0.000277  0.822429  1
  B  B13  1  0.658164  0.329040  0.323139  1
  B  B14  1  0.332318  0.666200  0.674626  1
  B  B15  1  0.332318  0.666200  0.825374  1
  B  B16  1  0.658164  0.329040  0.176861  1
  Rh  Rh17  1  0.999591  0.999801  0.499485  1
  Rh  Rh18  1  0.999591  0.999801  0.000515  1
  Rh  Rh19  1  0.167477  0.334960  0.750000  1
  Rh  Rh20  1  0.167461  0.832589  0.750000  1
  Rh  Rh21  1  0.665177  0.832608  0.750000  1
  Rh  Rh22  1  0.831524  0.664253  0.250000  1
  Rh  Rh23  1  0.831506  0.167189  0.250000  1
  Rh  Rh24  1  0.163224  0.326424  0.609476  1
  Rh  Rh25  1  0.163233  0.836902  0.609481  1
  Rh  Rh26  1  0.673286  0.836694  0.609544  1
  Rh  Rh27  1  0.836714  0.673708  0.389069  1
  Rh  Rh28  1  0.836709  0.162901  0.389067  1
  Rh  Rh29  1  0.326509  0.163207  0.389144  1
  Rh  Rh30  1  0.836714  0.673708  0.110931  1
  Rh  Rh31  1  0.836709  0.162901  0.110933  1
  Rh  Rh32  1  0.326509  0.163207  0.110856  1
  Rh  Rh33  1  0.163224  0.326424  0.890524  1
  Rh  Rh34  1  0.163233  0.836902  0.890519  1
  Rh  Rh35  1  0.673286  0.836694  0.890456  1
