# generated using pymatgen
data_Lu9Sc3(Si3Os)4
_symmetry_space_group_name_H-M   'P 1'
_cell_length_a   4.07091700
_cell_length_b   10.59400316
_cell_length_c   11.94461409
_cell_angle_alpha   89.90982330
_cell_angle_beta   90.00000000
_cell_angle_gamma   90.00000000
_symmetry_Int_Tables_number   1
_chemical_formula_structural   Lu9Sc3(Si3Os)4
_chemical_formula_sum   'Lu9 Sc3 Si12 Os4'
_cell_volume   515.13840751
_cell_formula_units_Z   1
loop_
 _symmetry_equiv_pos_site_id
 _symmetry_equiv_pos_as_xyz
  1  'x, y, z'
loop_
 _atom_site_type_symbol
 _atom_site_label
 _atom_site_symmetry_multiplicity
 _atom_site_fract_x
 _atom_site_fract_y
 _atom_site_fract_z
 _atom_site_occupancy
  Lu  Lu0  1  0.250000  0.880289  0.019289  1
  Lu  Lu1  1  0.250000  0.621316  0.515641  1
  Lu  Lu2  1  0.750000  0.121845  0.982473  1
  Lu  Lu3  1  0.750000  0.377704  0.481697  1
  Lu  Lu4  1  0.250000  0.922922  0.604188  1
  Lu  Lu5  1  0.250000  0.578473  0.106380  1
  Lu  Lu6  1  0.750000  0.077746  0.394914  1
  Lu  Lu7  1  0.750000  0.420811  0.895198  1
  Lu  Lu8  1  0.250000  0.660741  0.798833  1
  Sc  Sc9  1  0.250000  0.841328  0.297176  1
  Sc  Sc10  1  0.750000  0.339383  0.203024  1
  Sc  Sc11  1  0.750000  0.160168  0.702607  1
  Si  Si12  1  0.250000  0.016379  0.820636  1
  Si  Si13  1  0.250000  0.482077  0.320231  1
  Si  Si14  1  0.750000  0.983974  0.179630  1
  Si  Si15  1  0.750000  0.514861  0.678213  1
  Si  Si16  1  0.250000  0.248234  0.841105  1
  Si  Si17  1  0.250000  0.250940  0.341430  1
  Si  Si18  1  0.750000  0.752385  0.160400  1
  Si  Si19  1  0.750000  0.749767  0.654680  1
  Si  Si20  1  0.250000  0.198489  0.549360  1
  Si  Si21  1  0.250000  0.301044  0.050093  1
  Si  Si22  1  0.750000  0.801125  0.448529  1
  Si  Si23  1  0.750000  0.700428  0.956104  1
  Os  Os24  1  0.250000  0.390172  0.680093  1
  Os  Os25  1  0.250000  0.108381  0.181616  1
  Os  Os26  1  0.750000  0.607261  0.318324  1
  Os  Os27  1  0.750000  0.891756  0.818141  1
