# generated using pymatgen
data_Er13Lu3In3HgRh4
_symmetry_space_group_name_H-M   'P 1'
_cell_length_a   9.54117805
_cell_length_b   9.54246806
_cell_length_c   9.53201800
_cell_angle_alpha   60.03621937
_cell_angle_beta   60.03175325
_cell_angle_gamma   59.97610716
_symmetry_Int_Tables_number   1
_chemical_formula_structural   Er13Lu3In3HgRh4
_chemical_formula_sum   'Er13 Lu3 In3 Hg1 Rh4'
_cell_volume   613.87071392
_cell_formula_units_Z   1
loop_
 _symmetry_equiv_pos_site_id
 _symmetry_equiv_pos_as_xyz
  1  'x, y, z'
loop_
 _atom_site_type_symbol
 _atom_site_label
 _atom_site_symmetry_multiplicity
 _atom_site_fract_x
 _atom_site_fract_y
 _atom_site_fract_z
 _atom_site_occupancy
  Er  Er0  1  0.064022  0.433465  0.063511  1
  Er  Er1  1  0.646842  0.053732  0.649713  1
  Er  Er2  1  0.189607  0.811325  0.810566  1
  Er  Er3  1  0.065110  0.057767  0.438562  1
  Er  Er4  1  0.810373  0.190225  0.189725  1
  Er  Er5  1  0.809608  0.809695  0.190348  1
  Er  Er6  1  0.650295  0.648954  0.046434  1
  Er  Er7  1  0.650295  0.648954  0.654317  1
  Er  Er8  1  0.064022  0.433465  0.439002  1
  Er  Er9  1  0.051704  0.647221  0.650538  1
  Er  Er10  1  0.810373  0.190225  0.809678  1
  Er  Er11  1  0.435991  0.430499  0.066755  1
  Er  Er12  1  0.189607  0.811325  0.188501  1
  Lu  Lu13  1  0.191668  0.190407  0.808963  1
  Lu  Lu14  1  0.437694  0.057837  0.065525  1
  Lu  Lu15  1  0.437694  0.057837  0.438944  1
  In  In16  1  0.416717  0.420249  0.748000  1
  In  In17  1  0.746839  0.420974  0.416094  1
  In  In18  1  0.416717  0.420249  0.415035  1
  Hg  Hg19  1  0.414101  0.762166  0.411866  1
  Rh  Rh20  1  0.861661  0.422964  0.857687  1
  Rh  Rh21  1  0.856691  0.858683  0.427921  1
  Rh  Rh22  1  0.425681  0.863100  0.855609  1
  Rh  Rh23  1  0.856691  0.858683  0.856703  1
