# generated using pymatgen
data_Tb2Ho2GeS3
_symmetry_space_group_name_H-M   'P 1'
_cell_length_a   6.89212912
_cell_length_b   6.89212888
_cell_length_c   6.89212982
_cell_angle_alpha   131.92623460
_cell_angle_beta   131.92623187
_cell_angle_gamma   70.34555850
_symmetry_Int_Tables_number   1
_chemical_formula_structural   Tb2Ho2GeS3
_chemical_formula_sum   'Tb2 Ho2 Ge1 S3'
_cell_volume   177.60130537
_cell_formula_units_Z   1
loop_
 _symmetry_equiv_pos_site_id
 _symmetry_equiv_pos_as_xyz
  1  'x, y, z'
loop_
 _atom_site_type_symbol
 _atom_site_label
 _atom_site_symmetry_multiplicity
 _atom_site_fract_x
 _atom_site_fract_y
 _atom_site_fract_z
 _atom_site_occupancy
  Tb  Tb0  1  0.249680  0.249680  0.000000  1
  Tb  Tb1  1  0.750320  0.750320  0.000000  1
  Ho  Ho2  1  0.500000  0.000000  0.500000  1
  Ho  Ho3  1  0.000000  0.500000  0.500000  1
  Ge  Ge4  1  0.000000  0.000000  0.000000  1
  S  S5  1  0.500000  0.500000  0.000000  1
  S  S6  1  0.750000  0.250000  0.500000  1
  S  S7  1  0.250000  0.750000  0.500000  1
