# generated using pymatgen
data_Zr6GaNiTe
_symmetry_space_group_name_H-M   'P 1'
_cell_length_a   7.79363100
_cell_length_b   7.79363037
_cell_length_c   3.57172100
_cell_angle_alpha   90.00000000
_cell_angle_beta   90.00000000
_cell_angle_gamma   119.99999841
_symmetry_Int_Tables_number   1
_chemical_formula_structural   Zr6GaNiTe
_chemical_formula_sum   'Zr6 Ga1 Ni1 Te1'
_cell_volume   187.88314029
_cell_formula_units_Z   1
loop_
 _symmetry_equiv_pos_site_id
 _symmetry_equiv_pos_as_xyz
  1  'x, y, z'
loop_
 _atom_site_type_symbol
 _atom_site_label
 _atom_site_symmetry_multiplicity
 _atom_site_fract_x
 _atom_site_fract_y
 _atom_site_fract_z
 _atom_site_occupancy
  Zr  Zr0  1  0.251768  0.008995  0.500000  1
  Zr  Zr1  1  0.991005  0.242773  0.500000  1
  Zr  Zr2  1  0.757227  0.748232  0.500000  1
  Zr  Zr3  1  0.598669  0.006600  0.000000  1
  Zr  Zr4  1  0.993400  0.592069  0.000000  1
  Zr  Zr5  1  0.407931  0.401331  0.000000  1
  Ga  Ga6  1  0.666667  0.333333  0.500000  1
  Ni  Ni7  1  0.000000  0.000000  0.000000  1
  Te  Te8  1  0.333333  0.666667  0.500000  1
