# generated using pymatgen
data_HfTa11Al8(AuC)4
_symmetry_space_group_name_H-M   'P 1'
_cell_length_a   8.43500017
_cell_length_b   8.47520684
_cell_length_c   8.43499930
_cell_angle_alpha   59.84219181
_cell_angle_beta   59.98666438
_cell_angle_gamma   59.84219834
_symmetry_Int_Tables_number   1
_chemical_formula_structural   HfTa11Al8(AuC)4
_chemical_formula_sum   'Hf1 Ta11 Al8 Au4 C4'
_cell_volume   425.32592862
_cell_formula_units_Z   1
loop_
 _symmetry_equiv_pos_site_id
 _symmetry_equiv_pos_as_xyz
  1  'x, y, z'
loop_
 _atom_site_type_symbol
 _atom_site_label
 _atom_site_symmetry_multiplicity
 _atom_site_fract_x
 _atom_site_fract_y
 _atom_site_fract_z
 _atom_site_occupancy
  Hf  Hf0  1  0.564930  0.935070  0.564930  1
  Ta  Ta1  1  0.321126  0.676782  0.679633  1
  Ta  Ta2  1  0.679633  0.322459  0.321126  1
  Ta  Ta3  1  0.321377  0.678623  0.321377  1
  Ta  Ta4  1  0.679633  0.676782  0.321126  1
  Ta  Ta5  1  0.321126  0.322459  0.679633  1
  Ta  Ta6  1  0.570617  0.568722  0.929449  1
  Ta  Ta7  1  0.929449  0.568722  0.570617  1
  Ta  Ta8  1  0.570617  0.931213  0.929449  1
  Ta  Ta9  1  0.929449  0.931213  0.570617  1
  Ta  Ta10  1  0.682068  0.317932  0.682068  1
  Ta  Ta11  1  0.926175  0.573825  0.926175  1
  Al  Al12  1  0.914411  0.913875  0.914411  1
  Al  Al13  1  0.992344  0.335546  0.336565  1
  Al  Al14  1  0.335319  0.990938  0.335319  1
  Al  Al15  1  0.336565  0.335546  0.992344  1
  Al  Al16  1  0.914411  0.257304  0.914411  1
  Al  Al17  1  0.918958  0.912010  0.257022  1
  Al  Al18  1  0.257022  0.912010  0.918958  1
  Al  Al19  1  0.335319  0.338423  0.335319  1
  Au  Au20  1  0.124728  0.126845  0.124728  1
  Au  Au21  1  0.625611  0.123993  0.126403  1
  Au  Au22  1  0.124728  0.623700  0.124728  1
  Au  Au23  1  0.126403  0.123993  0.625611  1
  C  C24  1  0.625204  0.622619  0.625204  1
  C  C25  1  0.124113  0.626211  0.623466  1
  C  C26  1  0.625204  0.126973  0.625204  1
  C  C27  1  0.623466  0.626211  0.124113  1
