# generated using pymatgen
data_Au3(NCl)4
_symmetry_space_group_name_H-M   'P 1'
_cell_length_a   6.09306844
_cell_length_b   8.16238809
_cell_length_c   8.42624000
_cell_angle_alpha   127.14618651
_cell_angle_beta   113.17003734
_cell_angle_gamma   88.15711250
_symmetry_Int_Tables_number   1
_chemical_formula_structural   Au3(NCl)4
_chemical_formula_sum   'Au3 N4 Cl4'
_cell_volume   294.78261563
_cell_formula_units_Z   1
loop_
 _symmetry_equiv_pos_site_id
 _symmetry_equiv_pos_as_xyz
  1  'x, y, z'
loop_
 _atom_site_type_symbol
 _atom_site_label
 _atom_site_symmetry_multiplicity
 _atom_site_fract_x
 _atom_site_fract_y
 _atom_site_fract_z
 _atom_site_occupancy
  Au  Au0  1  0.760377  0.450723  0.870373  1
  Au  Au1  1  0.239623  0.549277  0.129627  1
  Au  Au2  1  0.500000  0.000000  0.500000  1
  N  N3  1  0.384438  0.765877  0.771718  1
  N  N4  1  0.615562  0.234123  0.228282  1
  N  N5  1  0.268053  0.774716  0.638305  1
  N  N6  1  0.731947  0.225284  0.361695  1
  Cl  Cl7  1  0.682186  0.723949  0.355693  1
  Cl  Cl8  1  0.317814  0.276051  0.644307  1
  Cl  Cl9  1  0.013838  0.249394  0.035721  1
  Cl  Cl10  1  0.986162  0.750606  0.964279  1
