# generated using pymatgen
data_Sm5InBi2S
_symmetry_space_group_name_H-M   'P 1'
_cell_length_a   9.38145700
_cell_length_b   9.38145611
_cell_length_c   6.57151100
_cell_angle_alpha   90.00000000
_cell_angle_beta   90.00000000
_cell_angle_gamma   119.26469561
_symmetry_Int_Tables_number   1
_chemical_formula_structural   Sm5InBi2S
_chemical_formula_sum   'Sm10 In2 Bi4 S2'
_cell_volume   504.55304357
_cell_formula_units_Z   2
loop_
 _symmetry_equiv_pos_site_id
 _symmetry_equiv_pos_as_xyz
  1  'x, y, z'
loop_
 _atom_site_type_symbol
 _atom_site_label
 _atom_site_symmetry_multiplicity
 _atom_site_fract_x
 _atom_site_fract_y
 _atom_site_fract_z
 _atom_site_occupancy
  Sm  Sm0  1  0.753879  0.753879  0.250000  1
  Sm  Sm1  1  0.996694  0.754409  0.750000  1
  Sm  Sm2  1  0.754409  0.996694  0.750000  1
  Sm  Sm3  1  0.336420  0.663580  0.500000  1
  Sm  Sm4  1  0.246121  0.246121  0.750000  1
  Sm  Sm5  1  0.003306  0.245591  0.250000  1
  Sm  Sm6  1  0.663580  0.336420  0.500000  1
  Sm  Sm7  1  0.245591  0.003306  0.250000  1
  Sm  Sm8  1  0.336420  0.663580  0.000000  1
  Sm  Sm9  1  0.663580  0.336420  0.000000  1
  In  In10  1  0.398055  0.398055  0.250000  1
  In  In11  1  0.601945  0.601945  0.750000  1
  Bi  Bi12  1  0.392315  0.998449  0.750000  1
  Bi  Bi13  1  0.001551  0.607685  0.250000  1
  Bi  Bi14  1  0.607685  0.001551  0.250000  1
  Bi  Bi15  1  0.998449  0.392315  0.750000  1
  S  S16  1  0.000000  0.000000  0.500000  1
  S  S17  1  0.000000  0.000000  0.000000  1
