# generated using pymatgen
data_CaGaBPt3
_symmetry_space_group_name_H-M   'P 1'
_cell_length_a   5.57806600
_cell_length_b   5.57806562
_cell_length_c   6.98752100
_cell_angle_alpha   90.00000000
_cell_angle_beta   90.00000000
_cell_angle_gamma   119.99999039
_symmetry_Int_Tables_number   1
_chemical_formula_structural   CaGaBPt3
_chemical_formula_sum   'Ca2 Ga2 B2 Pt6'
_cell_volume   188.28731722
_cell_formula_units_Z   2
loop_
 _symmetry_equiv_pos_site_id
 _symmetry_equiv_pos_as_xyz
  1  'x, y, z'
loop_
 _atom_site_type_symbol
 _atom_site_label
 _atom_site_symmetry_multiplicity
 _atom_site_fract_x
 _atom_site_fract_y
 _atom_site_fract_z
 _atom_site_occupancy
  Ca  Ca0  1  0.000000  0.000000  0.000000  1
  Ca  Ca1  1  0.000000  0.000000  0.500000  1
  Ga  Ga2  1  0.666666  0.333332  0.000000  1
  Ga  Ga3  1  0.333333  0.666667  0.000000  1
  B  B4  1  0.666666  0.333332  0.500000  1
  B  B5  1  0.333333  0.666667  0.500000  1
  Pt  Pt6  1  0.500000  0.000000  0.290942  1
  Pt  Pt7  1  0.000000  0.500001  0.290942  1
  Pt  Pt8  1  0.500001  0.500001  0.290942  1
  Pt  Pt9  1  0.500000  0.000000  0.709058  1
  Pt  Pt10  1  0.000000  0.500001  0.709058  1
  Pt  Pt11  1  0.500001  0.500001  0.709058  1
