# generated using pymatgen
data_Cs6Tm3RhBr18
_symmetry_space_group_name_H-M   'P 1'
_cell_length_a   7.95060800
_cell_length_b   7.95060756
_cell_length_c   20.19578600
_cell_angle_alpha   90.00000000
_cell_angle_beta   90.00000000
_cell_angle_gamma   120.00000181
_symmetry_Int_Tables_number   1
_chemical_formula_structural   Cs6Tm3RhBr18
_chemical_formula_sum   'Cs6 Tm3 Rh1 Br18'
_cell_volume   1105.58475816
_cell_formula_units_Z   1
loop_
 _symmetry_equiv_pos_site_id
 _symmetry_equiv_pos_as_xyz
  1  'x, y, z'
loop_
 _atom_site_type_symbol
 _atom_site_label
 _atom_site_symmetry_multiplicity
 _atom_site_fract_x
 _atom_site_fract_y
 _atom_site_fract_z
 _atom_site_occupancy
  Cs  Cs0  1  0.333333  0.666667  0.067402  1
  Cs  Cs1  1  0.666667  0.333333  0.934149  1
  Cs  Cs2  1  0.666667  0.333333  0.571591  1
  Cs  Cs3  1  0.333333  0.666667  0.437229  1
  Cs  Cs4  1  0.000000  0.000000  0.250645  1
  Cs  Cs5  1  0.000000  0.000000  0.744531  1
  Tm  Tm6  1  0.666667  0.333333  0.345405  1
  Tm  Tm7  1  0.666667  0.333333  0.155831  1
  Tm  Tm8  1  0.333333  0.666667  0.837961  1
  Rh  Rh9  1  0.333333  0.666667  0.666691  1
  Br  Br10  1  0.185181  0.370364  0.595785  1
  Br  Br11  1  0.832966  0.665930  0.413993  1
  Br  Br12  1  0.629636  0.814819  0.595785  1
  Br  Br13  1  0.832672  0.665343  0.086775  1
  Br  Br14  1  0.334070  0.167034  0.413993  1
  Br  Br15  1  0.168044  0.336089  0.908324  1
  Br  Br16  1  0.185181  0.814819  0.595785  1
  Br  Br17  1  0.334657  0.167328  0.086775  1
  Br  Br18  1  0.832966  0.167034  0.413993  1
  Br  Br19  1  0.663911  0.831956  0.908324  1
  Br  Br20  1  0.832672  0.167328  0.086775  1
  Br  Br21  1  0.168044  0.831956  0.908324  1
  Br  Br22  1  0.509542  0.019084  0.250298  1
  Br  Br23  1  0.485650  0.971300  0.741015  1
  Br  Br24  1  0.980916  0.490458  0.250298  1
  Br  Br25  1  0.028700  0.514350  0.741015  1
  Br  Br26  1  0.509542  0.490458  0.250298  1
  Br  Br27  1  0.485650  0.514350  0.741015  1
