# generated using pymatgen
data_Lu12Al2CoNi3
_symmetry_space_group_name_H-M   'P 1'
_cell_length_a   8.17930479
_cell_length_b   8.17930463
_cell_length_c   8.17930500
_cell_angle_alpha   112.61209890
_cell_angle_beta   110.14540835
_cell_angle_gamma   105.73009175
_symmetry_Int_Tables_number   1
_chemical_formula_structural   Lu12Al2CoNi3
_chemical_formula_sum   'Lu12 Al2 Co1 Ni3'
_cell_volume   419.69328707
_cell_formula_units_Z   1
loop_
 _symmetry_equiv_pos_site_id
 _symmetry_equiv_pos_as_xyz
  1  'x, y, z'
loop_
 _atom_site_type_symbol
 _atom_site_label
 _atom_site_symmetry_multiplicity
 _atom_site_fract_x
 _atom_site_fract_y
 _atom_site_fract_z
 _atom_site_occupancy
  Lu  Lu0  1  0.040558  0.738637  0.301921  1
  Lu  Lu1  1  0.960080  0.262949  0.697132  1
  Lu  Lu2  1  0.563284  0.261363  0.301921  1
  Lu  Lu3  1  0.434183  0.737051  0.697132  1
  Lu  Lu4  1  0.673585  0.863628  0.193668  1
  Lu  Lu5  1  0.330041  0.520082  0.193668  1
  Lu  Lu6  1  0.330041  0.136372  0.809960  1
  Lu  Lu7  1  0.673585  0.479918  0.809960  1
  Lu  Lu8  1  0.179671  0.215466  0.395138  1
  Lu  Lu9  1  0.815433  0.218071  0.033503  1
  Lu  Lu10  1  0.179671  0.784534  0.964205  1
  Lu  Lu11  1  0.815433  0.781929  0.597361  1
  Al  Al12  1  0.994850  0.500000  0.494850  1
  Al  Al13  1  0.500796  0.000000  0.500796  1
  Co  Co14  1  0.671664  0.500000  0.171664  1
  Ni  Ni15  1  0.338985  0.500000  0.838985  1
  Ni  Ni16  1  0.876787  0.877717  0.999070  1
  Ni  Ni17  1  0.121353  0.122283  0.999070  1
