# generated using pymatgen
data_Ti24O11
_symmetry_space_group_name_H-M   'P 1'
_cell_length_a   7.65780408
_cell_length_b   7.65780415
_cell_length_c   15.57570900
_cell_angle_alpha   89.95777152
_cell_angle_beta   89.95777152
_cell_angle_gamma   103.42870065
_symmetry_Int_Tables_number   1
_chemical_formula_structural   Ti24O11
_chemical_formula_sum   'Ti48 O22'
_cell_volume   888.41714597
_cell_formula_units_Z   2
loop_
 _symmetry_equiv_pos_site_id
 _symmetry_equiv_pos_as_xyz
  1  'x, y, z'
loop_
 _atom_site_type_symbol
 _atom_site_label
 _atom_site_symmetry_multiplicity
 _atom_site_fract_x
 _atom_site_fract_y
 _atom_site_fract_z
 _atom_site_occupancy
  Ti  Ti0  1  0.183042  0.058523  0.972577  1
  Ti  Ti1  1  0.183220  0.058382  0.639318  1
  Ti  Ti2  1  0.183245  0.057060  0.305629  1
  Ti  Ti3  1  0.683685  0.058927  0.861151  1
  Ti  Ti4  1  0.558098  0.184473  0.694933  1
  Ti  Ti5  1  0.684226  0.058067  0.528669  1
  Ti  Ti6  1  0.561052  0.183251  0.362339  1
  Ti  Ti7  1  0.687479  0.058652  0.193525  1
  Ti  Ti8  1  0.560149  0.183464  0.028350  1
  Ti  Ti9  1  0.441355  0.315237  0.860922  1
  Ti  Ti10  1  0.441682  0.317017  0.527251  1
  Ti  Ti11  1  0.443491  0.322403  0.192052  1
  Ti  Ti12  1  0.682983  0.558318  0.972749  1
  Ti  Ti13  1  0.057060  0.183245  0.805629  1
  Ti  Ti14  1  0.684763  0.558645  0.639078  1
  Ti  Ti15  1  0.058523  0.183042  0.472577  1
  Ti  Ti16  1  0.677597  0.556509  0.307948  1
  Ti  Ti17  1  0.058382  0.183220  0.139318  1
  Ti  Ti18  1  0.941933  0.315774  0.971331  1
  Ti  Ti19  1  0.815527  0.441902  0.805067  1
  Ti  Ti20  1  0.941073  0.316315  0.638849  1
  Ti  Ti21  1  0.816536  0.439851  0.471650  1
  Ti  Ti22  1  0.941348  0.312521  0.306475  1
  Ti  Ti23  1  0.816749  0.438948  0.137661  1
  Ti  Ti24  1  0.058652  0.687479  0.693525  1
  Ti  Ti25  1  0.183251  0.561052  0.862339  1
  Ti  Ti26  1  0.183464  0.560149  0.528350  1
  Ti  Ti27  1  0.058927  0.683685  0.361151  1
  Ti  Ti28  1  0.184473  0.558098  0.194933  1
  Ti  Ti29  1  0.058067  0.684226  0.028669  1
  Ti  Ti30  1  0.941618  0.816780  0.860682  1
  Ti  Ti31  1  0.941477  0.816958  0.527423  1
  Ti  Ti32  1  0.322403  0.443491  0.692052  1
  Ti  Ti33  1  0.315237  0.441355  0.360922  1
  Ti  Ti34  1  0.942940  0.816755  0.194371  1
  Ti  Ti35  1  0.317017  0.441682  0.027251  1
  Ti  Ti36  1  0.556509  0.677597  0.807948  1
  Ti  Ti37  1  0.558318  0.682983  0.472749  1
  Ti  Ti38  1  0.558645  0.684763  0.139078  1
  Ti  Ti39  1  0.439851  0.816536  0.971650  1
  Ti  Ti40  1  0.312521  0.941348  0.806475  1
  Ti  Ti41  1  0.438948  0.816749  0.637661  1
  Ti  Ti42  1  0.315774  0.941933  0.471331  1
  Ti  Ti43  1  0.316315  0.941073  0.138849  1
  Ti  Ti44  1  0.441902  0.815527  0.305067  1
  Ti  Ti45  1  0.816755  0.942940  0.694371  1
  Ti  Ti46  1  0.816780  0.941618  0.360682  1
  Ti  Ti47  1  0.816958  0.941477  0.027423  1
  O  O48  1  0.308924  0.191681  0.750024  1
  O  O49  1  0.309885  0.190385  0.415957  1
  O  O50  1  0.311539  0.189318  0.083266  1
  O  O51  1  0.689905  0.309729  0.916551  1
  O  O52  1  0.809496  0.190504  0.750000  1
  O  O53  1  0.690271  0.310095  0.583449  1
  O  O54  1  0.811069  0.189468  0.082916  1
  O  O55  1  0.810532  0.188931  0.417084  1
  O  O56  1  0.808319  0.691076  0.749976  1
  O  O57  1  0.809615  0.690115  0.084043  1
  O  O58  1  0.810682  0.688461  0.416734  1
  O  O59  1  0.190385  0.309885  0.915957  1
  O  O60  1  0.189318  0.311539  0.583266  1
  O  O61  1  0.191681  0.308924  0.250024  1
  O  O62  1  0.309729  0.689905  0.416551  1
  O  O63  1  0.310095  0.690271  0.083449  1
  O  O64  1  0.188931  0.810532  0.917084  1
  O  O65  1  0.189468  0.811069  0.582916  1
  O  O66  1  0.190504  0.809496  0.250000  1
  O  O67  1  0.688461  0.810682  0.916734  1
  O  O68  1  0.690115  0.809615  0.584043  1
  O  O69  1  0.691076  0.808319  0.249976  1
