# generated using pymatgen
data_Ac5Er(SnRh)6
_symmetry_space_group_name_H-M   'P 1'
_cell_length_a   7.71892500
_cell_length_b   7.73568190
_cell_length_c   8.45360000
_cell_angle_alpha   90.00000000
_cell_angle_beta   90.00000000
_cell_angle_gamma   119.92239111
_symmetry_Int_Tables_number   1
_chemical_formula_structural   Ac5Er(SnRh)6
_chemical_formula_sum   'Ac5 Er1 Sn6 Rh6'
_cell_volume   437.48871410
_cell_formula_units_Z   1
loop_
 _symmetry_equiv_pos_site_id
 _symmetry_equiv_pos_as_xyz
  1  'x, y, z'
loop_
 _atom_site_type_symbol
 _atom_site_label
 _atom_site_symmetry_multiplicity
 _atom_site_fract_x
 _atom_site_fract_y
 _atom_site_fract_z
 _atom_site_occupancy
  Ac  Ac0  1  0.417874  0.419215  0.750000  1
  Ac  Ac1  1  0.998770  0.580874  0.750000  1
  Ac  Ac2  1  0.579826  0.999938  0.250000  1
  Ac  Ac3  1  0.414102  0.414936  0.250000  1
  Ac  Ac4  1  0.999164  0.585034  0.250000  1
  Er  Er5  1  0.594916  0.000209  0.750000  1
  Sn  Sn6  1  0.249855  0.000004  0.988919  1
  Sn  Sn7  1  0.755237  0.762281  0.502070  1
  Sn  Sn8  1  0.992963  0.237725  0.502081  1
  Sn  Sn9  1  0.992963  0.237725  0.997919  1
  Sn  Sn10  1  0.755237  0.762281  0.997930  1
  Sn  Sn11  1  0.249855  0.000004  0.511081  1
  Rh  Rh12  1  0.662559  0.322364  0.990557  1
  Rh  Rh13  1  0.662559  0.322364  0.509443  1
  Rh  Rh14  1  0.340033  0.677515  0.990351  1
  Rh  Rh15  1  0.340033  0.677515  0.509649  1
  Rh  Rh16  1  0.990367  0.999834  0.750000  1
  Rh  Rh17  1  0.003687  0.000184  0.250000  1
