# generated using pymatgen
data_Y4Lu(GaSb)2
_symmetry_space_group_name_H-M   'P 1'
_cell_length_a   8.64283328
_cell_length_b   8.64283432
_cell_length_c   7.89999100
_cell_angle_alpha   90.00000000
_cell_angle_beta   90.00000000
_cell_angle_gamma   125.59660845
_symmetry_Int_Tables_number   1
_chemical_formula_structural   Y4Lu(GaSb)2
_chemical_formula_sum   'Y8 Lu2 Ga4 Sb4'
_cell_volume   479.84579261
_cell_formula_units_Z   2
loop_
 _symmetry_equiv_pos_site_id
 _symmetry_equiv_pos_as_xyz
  1  'x, y, z'
loop_
 _atom_site_type_symbol
 _atom_site_label
 _atom_site_symmetry_multiplicity
 _atom_site_fract_x
 _atom_site_fract_y
 _atom_site_fract_z
 _atom_site_occupancy
  Y  Y0  1  0.038916  0.300185  0.332305  1
  Y  Y1  1  0.961084  0.699815  0.667695  1
  Y  Y2  1  0.461084  0.199815  0.832305  1
  Y  Y3  1  0.800185  0.538916  0.167695  1
  Y  Y4  1  0.538916  0.800185  0.167695  1
  Y  Y5  1  0.199815  0.461084  0.832305  1
  Y  Y6  1  0.699815  0.961084  0.667695  1
  Y  Y7  1  0.300185  0.038916  0.332305  1
  Lu  Lu8  1  0.000000  0.000000  0.000000  1
  Lu  Lu9  1  0.500000  0.500000  0.500000  1
  Ga  Ga10  1  0.374469  0.374469  0.125115  1
  Ga  Ga11  1  0.625531  0.625531  0.874885  1
  Ga  Ga12  1  0.125531  0.125531  0.625115  1
  Ga  Ga13  1  0.874469  0.874469  0.374885  1
  Sb  Sb14  1  0.795331  0.204669  0.000000  1
  Sb  Sb15  1  0.204669  0.795331  0.000000  1
  Sb  Sb16  1  0.704669  0.295331  0.500000  1
  Sb  Sb17  1  0.295331  0.704669  0.500000  1
