# generated using pymatgen
data_Sc3In3PdPt2
_symmetry_space_group_name_H-M   'P 1'
_cell_length_a   7.68303500
_cell_length_b   7.68303519
_cell_length_c   3.46841900
_cell_angle_alpha   90.00000000
_cell_angle_beta   90.00000000
_cell_angle_gamma   119.99999486
_symmetry_Int_Tables_number   1
_chemical_formula_structural   Sc3In3PdPt2
_chemical_formula_sum   'Sc3 In3 Pd1 Pt2'
_cell_volume   177.30780154
_cell_formula_units_Z   1
loop_
 _symmetry_equiv_pos_site_id
 _symmetry_equiv_pos_as_xyz
  1  'x, y, z'
loop_
 _atom_site_type_symbol
 _atom_site_label
 _atom_site_symmetry_multiplicity
 _atom_site_fract_x
 _atom_site_fract_y
 _atom_site_fract_z
 _atom_site_occupancy
  Sc  Sc0  1  0.600300  0.000000  0.000000  1
  Sc  Sc1  1  0.399700  0.399700  0.000000  1
  Sc  Sc2  1  0.000000  0.600300  0.000000  1
  In  In3  1  0.726757  0.726757  0.500000  1
  In  In4  1  0.000000  0.273243  0.500000  1
  In  In5  1  0.273243  0.000000  0.500000  1
  Pd  Pd6  1  0.000000  0.000000  0.000000  1
  Pt  Pt7  1  0.666667  0.333333  0.500000  1
  Pt  Pt8  1  0.333333  0.666667  0.500000  1
