# generated using pymatgen
data_Dy12Co3HgRu2
_symmetry_space_group_name_H-M   'P 1'
_cell_length_a   8.32903099
_cell_length_b   8.32903276
_cell_length_c   8.32903300
_cell_angle_alpha   111.75284378
_cell_angle_beta   110.21160072
_cell_angle_gamma   106.49360116
_symmetry_Int_Tables_number   1
_chemical_formula_structural   Dy12Co3HgRu2
_chemical_formula_sum   'Dy12 Co3 Hg1 Ru2'
_cell_volume   443.81691129
_cell_formula_units_Z   1
loop_
 _symmetry_equiv_pos_site_id
 _symmetry_equiv_pos_as_xyz
  1  'x, y, z'
loop_
 _atom_site_type_symbol
 _atom_site_label
 _atom_site_symmetry_multiplicity
 _atom_site_fract_x
 _atom_site_fract_y
 _atom_site_fract_z
 _atom_site_occupancy
  Dy  Dy0  1  0.820024  0.722968  0.542993  1
  Dy  Dy1  1  0.177446  0.275384  0.452829  1
  Dy  Dy2  1  0.177446  0.724616  0.902063  1
  Dy  Dy3  1  0.820024  0.277032  0.097054  1
  Dy  Dy4  1  0.679065  0.364575  0.685603  1
  Dy  Dy5  1  0.321028  0.635425  0.314490  1
  Dy  Dy6  1  0.679065  0.993463  0.314492  1
  Dy  Dy7  1  0.321029  0.006537  0.685602  1
  Dy  Dy8  1  0.582835  0.768667  0.814168  1
  Dy  Dy9  1  0.417266  0.226067  0.191200  1
  Dy  Dy10  1  0.965133  0.773933  0.191199  1
  Dy  Dy11  1  0.045502  0.231333  0.814169  1
  Co  Co12  1  0.338131  0.000000  0.338131  1
  Co  Co13  1  0.109632  0.610816  0.498816  1
  Co  Co14  1  0.888000  0.389184  0.498816  1
  Hg  Hg15  1  0.503621  0.500000  0.003621  1
  Ru  Ru16  1  0.655012  0.000000  0.655012  1
  Ru  Ru17  1  0.999739  0.000000  0.999739  1
