# generated using pymatgen
data_Co4ReW7C2
_symmetry_space_group_name_H-M   'P 1'
_cell_length_a   8.01994826
_cell_length_b   7.98796191
_cell_length_c   7.98796207
_cell_angle_alpha   59.73486807
_cell_angle_beta   59.86744947
_cell_angle_gamma   59.86745649
_symmetry_Int_Tables_number   1
_chemical_formula_structural   Co4ReW7C2
_chemical_formula_sum   'Co8 Re2 W14 C4'
_cell_volume   360.39708056
_cell_formula_units_Z   2
loop_
 _symmetry_equiv_pos_site_id
 _symmetry_equiv_pos_as_xyz
  1  'x, y, z'
loop_
 _atom_site_type_symbol
 _atom_site_label
 _atom_site_symmetry_multiplicity
 _atom_site_fract_x
 _atom_site_fract_y
 _atom_site_fract_z
 _atom_site_occupancy
  Co  Co0  1  0.919447  0.241530  0.919577  1
  Co  Co1  1  0.247076  0.917737  0.917737  1
  Co  Co2  1  0.919447  0.919577  0.241530  1
  Co  Co3  1  0.002924  0.332263  0.332263  1
  Co  Co4  1  0.330553  0.008470  0.330423  1
  Co  Co5  1  0.917450  0.917737  0.917737  1
  Co  Co6  1  0.332550  0.332263  0.332263  1
  Co  Co7  1  0.330553  0.330423  0.008470  1
  Re  Re8  1  0.625000  0.125000  0.125000  1
  Re  Re9  1  0.125000  0.125000  0.125000  1
  W  W10  1  0.562797  0.939248  0.559029  1
  W  W11  1  0.687203  0.310752  0.690971  1
  W  W12  1  0.687203  0.690971  0.310752  1
  W  W13  1  0.311074  0.310752  0.690971  1
  W  W14  1  0.691170  0.308830  0.308830  1
  W  W15  1  0.313112  0.686888  0.686888  1
  W  W16  1  0.936888  0.563112  0.563112  1
  W  W17  1  0.125000  0.125000  0.625000  1
  W  W18  1  0.938926  0.939248  0.559029  1
  W  W19  1  0.311074  0.690971  0.310752  1
  W  W20  1  0.562797  0.559029  0.939248  1
  W  W21  1  0.938926  0.559029  0.939248  1
  W  W22  1  0.125000  0.625000  0.125000  1
  W  W23  1  0.558830  0.941170  0.941170  1
  C  C24  1  0.625000  0.625000  0.625000  1
  C  C25  1  0.125000  0.625000  0.625000  1
  C  C26  1  0.625000  0.125000  0.625000  1
  C  C27  1  0.625000  0.625000  0.125000  1
