# generated using pymatgen
data_YHoTmFe9
_symmetry_space_group_name_H-M   'P 1'
_cell_length_a   8.59875587
_cell_length_b   8.59875664
_cell_length_c   8.59875691
_cell_angle_alpha   34.39907934
_cell_angle_beta   34.39907104
_cell_angle_gamma   34.39907545
_symmetry_Int_Tables_number   1
_chemical_formula_structural   YHoTmFe9
_chemical_formula_sum   'Y1 Ho1 Tm1 Fe9'
_cell_volume   181.00210541
_cell_formula_units_Z   1
loop_
 _symmetry_equiv_pos_site_id
 _symmetry_equiv_pos_as_xyz
  1  'x, y, z'
loop_
 _atom_site_type_symbol
 _atom_site_label
 _atom_site_symmetry_multiplicity
 _atom_site_fract_x
 _atom_site_fract_y
 _atom_site_fract_z
 _atom_site_occupancy
  Y  Y0  1  0.000064  0.000064  0.000064  1
  Ho  Ho1  1  0.857895  0.857895  0.857895  1
  Tm  Tm2  1  0.142002  0.142002  0.142002  1
  Fe  Fe3  1  0.499964  0.499964  0.499964  1
  Fe  Fe4  1  0.332576  0.332576  0.332576  1
  Fe  Fe5  1  0.667456  0.667456  0.667456  1
  Fe  Fe6  1  0.082590  0.581581  0.581581  1
  Fe  Fe7  1  0.581581  0.581581  0.082590  1
  Fe  Fe8  1  0.581581  0.082590  0.581581  1
  Fe  Fe9  1  0.418398  0.917493  0.418398  1
  Fe  Fe10  1  0.917493  0.418398  0.418398  1
  Fe  Fe11  1  0.418398  0.418398  0.917493  1
