# generated using pymatgen
data_TbHf(Ni2P)4
_symmetry_space_group_name_H-M   'P 1'
_cell_length_a   3.58110800
_cell_length_b   7.00352849
_cell_length_c   7.00352849
_cell_angle_alpha   89.57802371
_cell_angle_beta   90.00000000
_cell_angle_gamma   90.00000000
_symmetry_Int_Tables_number   1
_chemical_formula_structural   TbHf(Ni2P)4
_chemical_formula_sum   'Tb1 Hf1 Ni8 P4'
_cell_volume   175.64647523
_cell_formula_units_Z   1
loop_
 _symmetry_equiv_pos_site_id
 _symmetry_equiv_pos_as_xyz
  1  'x, y, z'
loop_
 _atom_site_type_symbol
 _atom_site_label
 _atom_site_symmetry_multiplicity
 _atom_site_fract_x
 _atom_site_fract_y
 _atom_site_fract_z
 _atom_site_occupancy
  Tb  Tb0  1  0.000000  0.500000  0.500000  1
  Hf  Hf1  1  0.500000  0.000000  0.000000  1
  Ni  Ni2  1  0.500000  0.162943  0.585925  1
  Ni  Ni3  1  0.500000  0.837057  0.414075  1
  Ni  Ni4  1  0.000000  0.333716  0.082855  1
  Ni  Ni5  1  0.000000  0.666284  0.917145  1
  Ni  Ni6  1  0.500000  0.585925  0.162943  1
  Ni  Ni7  1  0.500000  0.414075  0.837057  1
  Ni  Ni8  1  0.000000  0.082855  0.333716  1
  Ni  Ni9  1  0.000000  0.917145  0.666284  1
  P  P10  1  0.500000  0.727905  0.727905  1
  P  P11  1  0.500000  0.272095  0.272095  1
  P  P12  1  0.000000  0.788506  0.211494  1
  P  P13  1  0.000000  0.211494  0.788506  1
