# generated using pymatgen
data_Hf2ZrB2Ru5
_symmetry_space_group_name_H-M   'P 1'
_cell_length_a   9.51860317
_cell_length_b   9.51860317
_cell_length_c   3.13539600
_cell_angle_alpha   90.00000000
_cell_angle_beta   90.00000000
_cell_angle_gamma   90.22391987
_symmetry_Int_Tables_number   1
_chemical_formula_structural   Hf2ZrB2Ru5
_chemical_formula_sum   'Hf4 Zr2 B4 Ru10'
_cell_volume   284.07664261
_cell_formula_units_Z   2
loop_
 _symmetry_equiv_pos_site_id
 _symmetry_equiv_pos_as_xyz
  1  'x, y, z'
loop_
 _atom_site_type_symbol
 _atom_site_label
 _atom_site_symmetry_multiplicity
 _atom_site_fract_x
 _atom_site_fract_y
 _atom_site_fract_z
 _atom_site_occupancy
  Hf  Hf0  1  0.325220  0.825220  0.000000  1
  Hf  Hf1  1  0.674780  0.174780  0.000000  1
  Hf  Hf2  1  0.500000  0.500000  0.000000  1
  Hf  Hf3  1  0.000000  0.000000  0.000000  1
  Zr  Zr4  1  0.824643  0.675357  0.000000  1
  Zr  Zr5  1  0.175357  0.324643  0.000000  1
  B  B6  1  0.621691  0.878309  0.000000  1
  B  B7  1  0.378309  0.121691  0.000000  1
  B  B8  1  0.122716  0.622716  0.000000  1
  B  B9  1  0.877284  0.377284  0.000000  1
  Ru  Ru10  1  0.571089  0.721182  0.500000  1
  Ru  Ru11  1  0.428911  0.278818  0.500000  1
  Ru  Ru12  1  0.073869  0.779929  0.500000  1
  Ru  Ru13  1  0.926131  0.220071  0.500000  1
  Ru  Ru14  1  0.279929  0.573869  0.500000  1
  Ru  Ru15  1  0.720071  0.426131  0.500000  1
  Ru  Ru16  1  0.221182  0.071089  0.500000  1
  Ru  Ru17  1  0.778818  0.928911  0.500000  1
  Ru  Ru18  1  0.500000  0.000000  0.500000  1
  Ru  Ru19  1  0.000000  0.500000  0.500000  1
