# generated using pymatgen
data_Gd8Cd4Pt5Au3
_symmetry_space_group_name_H-M   'P 1'
_cell_length_a   8.05417963
_cell_length_b   8.05091046
_cell_length_c   7.21256300
_cell_angle_alpha   90.15656723
_cell_angle_beta   90.16309108
_cell_angle_gamma   90.22873257
_symmetry_Int_Tables_number   1
_chemical_formula_structural   Gd8Cd4Pt5Au3
_chemical_formula_sum   'Gd8 Cd4 Pt5 Au3'
_cell_volume   467.68029561
_cell_formula_units_Z   1
loop_
 _symmetry_equiv_pos_site_id
 _symmetry_equiv_pos_as_xyz
  1  'x, y, z'
loop_
 _atom_site_type_symbol
 _atom_site_label
 _atom_site_symmetry_multiplicity
 _atom_site_fract_x
 _atom_site_fract_y
 _atom_site_fract_z
 _atom_site_occupancy
  Gd  Gd0  1  0.149205  0.170006  0.004630  1
  Gd  Gd1  1  0.821591  0.842080  0.999302  1
  Gd  Gd2  1  0.671797  0.335401  0.496521  1
  Gd  Gd3  1  0.354089  0.654965  0.495505  1
  Gd  Gd4  1  0.684048  0.324356  0.003009  1
  Gd  Gd5  1  0.340713  0.673134  0.003435  1
  Gd  Gd6  1  0.809425  0.828954  0.500430  1
  Gd  Gd7  1  0.163715  0.186645  0.495815  1
  Cd  Cd8  1  0.494273  0.008338  0.249846  1
  Cd  Cd9  1  0.495725  0.001077  0.748985  1
  Cd  Cd10  1  0.002391  0.506931  0.248402  1
  Cd  Cd11  1  0.997284  0.506519  0.750562  1
  Pt  Pt12  1  0.371962  0.366963  0.236847  1
  Pt  Pt13  1  0.631753  0.622570  0.761621  1
  Pt  Pt14  1  0.635037  0.623547  0.236952  1
  Pt  Pt15  1  0.871524  0.125348  0.737906  1
  Pt  Pt16  1  0.871129  0.123573  0.262594  1
  Au  Au17  1  0.374545  0.364977  0.767557  1
  Au  Au18  1  0.129323  0.867067  0.267088  1
  Au  Au19  1  0.130471  0.867550  0.732992  1
