# generated using pymatgen
data_Th4InRh4Au
_symmetry_space_group_name_H-M   'P 1'
_cell_length_a   7.74725900
_cell_length_b   7.74725900
_cell_length_c   3.79057600
_cell_angle_alpha   90.00000000
_cell_angle_beta   90.00000000
_cell_angle_gamma   90.00000000
_symmetry_Int_Tables_number   1
_chemical_formula_structural   Th4InRh4Au
_chemical_formula_sum   'Th4 In1 Rh4 Au1'
_cell_volume   227.51045496
_cell_formula_units_Z   1
loop_
 _symmetry_equiv_pos_site_id
 _symmetry_equiv_pos_as_xyz
  1  'x, y, z'
loop_
 _atom_site_type_symbol
 _atom_site_label
 _atom_site_symmetry_multiplicity
 _atom_site_fract_x
 _atom_site_fract_y
 _atom_site_fract_z
 _atom_site_occupancy
  Th  Th0  1  0.679032  0.165916  0.500000  1
  Th  Th1  1  0.320968  0.834084  0.500000  1
  Th  Th2  1  0.165916  0.320968  0.500000  1
  Th  Th3  1  0.834084  0.679032  0.500000  1
  In  In4  1  0.500000  0.500000  0.000000  1
  Rh  Rh5  1  0.134941  0.632022  0.000000  1
  Rh  Rh6  1  0.865059  0.367978  0.000000  1
  Rh  Rh7  1  0.632022  0.865059  0.000000  1
  Rh  Rh8  1  0.367978  0.134941  0.000000  1
  Au  Au9  1  0.000000  0.000000  0.000000  1
