# generated using pymatgen
data_Ac2Zn25Cu
_symmetry_space_group_name_H-M   'P 1'
_cell_length_a   8.68558589
_cell_length_b   8.68558639
_cell_length_c   8.68558800
_cell_angle_alpha   60.00000148
_cell_angle_beta   59.99999960
_cell_angle_gamma   60.00000602
_symmetry_Int_Tables_number   1
_chemical_formula_structural   Ac2Zn25Cu
_chemical_formula_sum   'Ac2 Zn25 Cu1'
_cell_volume   463.32156437
_cell_formula_units_Z   1
loop_
 _symmetry_equiv_pos_site_id
 _symmetry_equiv_pos_as_xyz
  1  'x, y, z'
loop_
 _atom_site_type_symbol
 _atom_site_label
 _atom_site_symmetry_multiplicity
 _atom_site_fract_x
 _atom_site_fract_y
 _atom_site_fract_z
 _atom_site_occupancy
  Ac  Ac0  1  0.250000  0.250000  0.250000  1
  Ac  Ac1  1  0.750000  0.750000  0.750000  1
  Zn  Zn2  1  0.000000  0.000000  0.000000  1
  Zn  Zn3  1  0.797033  0.558785  0.202967  1
  Zn  Zn4  1  0.202967  0.441215  0.797033  1
  Zn  Zn5  1  0.558785  0.797033  0.441215  1
  Zn  Zn6  1  0.441215  0.202967  0.558785  1
  Zn  Zn7  1  0.301187  0.942531  0.698813  1
  Zn  Zn8  1  0.698813  0.057469  0.301187  1
  Zn  Zn9  1  0.942531  0.301187  0.057469  1
  Zn  Zn10  1  0.057469  0.698813  0.942531  1
  Zn  Zn11  1  0.202967  0.797033  0.558785  1
  Zn  Zn12  1  0.797033  0.202967  0.441215  1
  Zn  Zn13  1  0.441215  0.558785  0.797033  1
  Zn  Zn14  1  0.558785  0.441215  0.202967  1
  Zn  Zn15  1  0.698813  0.301187  0.942531  1
  Zn  Zn16  1  0.301187  0.698813  0.057469  1
  Zn  Zn17  1  0.057469  0.942531  0.301187  1
  Zn  Zn18  1  0.942531  0.057469  0.698813  1
  Zn  Zn19  1  0.558785  0.202967  0.797033  1
  Zn  Zn20  1  0.441215  0.797033  0.202967  1
  Zn  Zn21  1  0.797033  0.441215  0.558785  1
  Zn  Zn22  1  0.202967  0.558785  0.441215  1
  Zn  Zn23  1  0.942531  0.698813  0.301187  1
  Zn  Zn24  1  0.057469  0.301187  0.698813  1
  Zn  Zn25  1  0.301187  0.057469  0.942531  1
  Zn  Zn26  1  0.698813  0.942531  0.057469  1
  Cu  Cu27  1  0.500000  0.500000  0.500000  1
