# generated using pymatgen
data_Pr2B4OsRu3
_symmetry_space_group_name_H-M   'P 1'
_cell_length_a   6.82383581
_cell_length_b   6.01474532
_cell_length_c   5.64181689
_cell_angle_alpha   71.58220734
_cell_angle_beta   56.74967029
_cell_angle_gamma   51.83754122
_symmetry_Int_Tables_number   1
_chemical_formula_structural   Pr2B4OsRu3
_chemical_formula_sum   'Pr2 B4 Os1 Ru3'
_cell_volume   152.16788647
_cell_formula_units_Z   1
loop_
 _symmetry_equiv_pos_site_id
 _symmetry_equiv_pos_as_xyz
  1  'x, y, z'
loop_
 _atom_site_type_symbol
 _atom_site_label
 _atom_site_symmetry_multiplicity
 _atom_site_fract_x
 _atom_site_fract_y
 _atom_site_fract_z
 _atom_site_occupancy
  Pr  Pr0  1  0.998435  0.998435  0.001565  1
  Pr  Pr1  1  0.251760  0.251760  0.248240  1
  B  B2  1  0.681645  0.318436  0.685344  1
  B  B3  1  0.318436  0.681645  0.314575  1
  B  B4  1  0.931039  0.567565  0.931026  1
  B  B5  1  0.567565  0.931039  0.570371  1
  Os  Os6  1  0.614476  0.614476  0.885524  1
  Ru  Ru7  1  0.635811  0.635811  0.364188  1
  Ru  Ru8  1  0.363134  0.363135  0.636865  1
  Ru  Ru9  1  0.887700  0.887699  0.612300  1
