# generated using pymatgen
data_YbLu(NbS2)6
_symmetry_space_group_name_H-M   'P 1'
_cell_length_a   5.78893500
_cell_length_b   5.78893508
_cell_length_c   13.88619500
_cell_angle_alpha   90.00000000
_cell_angle_beta   90.00000000
_cell_angle_gamma   120.00001667
_symmetry_Int_Tables_number   1
_chemical_formula_structural   YbLu(NbS2)6
_chemical_formula_sum   'Yb1 Lu1 Nb6 S12'
_cell_volume   403.00568351
_cell_formula_units_Z   1
loop_
 _symmetry_equiv_pos_site_id
 _symmetry_equiv_pos_as_xyz
  1  'x, y, z'
loop_
 _atom_site_type_symbol
 _atom_site_label
 _atom_site_symmetry_multiplicity
 _atom_site_fract_x
 _atom_site_fract_y
 _atom_site_fract_z
 _atom_site_occupancy
  Yb  Yb0  1  0.000000  0.000000  0.000000  1
  Lu  Lu1  1  0.000000  0.000000  0.500000  1
  Nb  Nb2  1  0.333333  0.666667  0.257513  1
  Nb  Nb3  1  0.666667  0.333333  0.742487  1
  Nb  Nb4  1  0.666667  0.333333  0.257513  1
  Nb  Nb5  1  0.333333  0.666667  0.742487  1
  Nb  Nb6  1  0.000000  0.000000  0.257258  1
  Nb  Nb7  1  0.000000  0.000000  0.742742  1
  S  S8  1  0.336406  0.000000  0.143702  1
  S  S9  1  0.000000  0.336406  0.143702  1
  S  S10  1  0.663594  0.663594  0.143702  1
  S  S11  1  0.337802  0.337802  0.628209  1
  S  S12  1  0.662198  0.662198  0.371791  1
  S  S13  1  0.662198  0.000000  0.628209  1
  S  S14  1  0.000000  0.662198  0.628209  1
  S  S15  1  0.000000  0.663594  0.856298  1
  S  S16  1  0.336406  0.336406  0.856298  1
  S  S17  1  0.000000  0.337802  0.371791  1
  S  S18  1  0.337802  0.000000  0.371791  1
  S  S19  1  0.663594  0.000000  0.856298  1
