# generated using pymatgen
data_La3RuCl3
_symmetry_space_group_name_H-M   'P 1'
_cell_length_a   10.36636849
_cell_length_b   10.36636810
_cell_length_c   10.36636800
_cell_angle_alpha   109.47122044
_cell_angle_beta   109.47121967
_cell_angle_gamma   109.47122236
_symmetry_Int_Tables_number   1
_chemical_formula_structural   La3RuCl3
_chemical_formula_sum   'La12 Ru4 Cl12'
_cell_volume   857.54712818
_cell_formula_units_Z   4
loop_
 _symmetry_equiv_pos_site_id
 _symmetry_equiv_pos_as_xyz
  1  'x, y, z'
loop_
 _atom_site_type_symbol
 _atom_site_label
 _atom_site_symmetry_multiplicity
 _atom_site_fract_x
 _atom_site_fract_y
 _atom_site_fract_z
 _atom_site_occupancy
  La  La0  1  0.262412  0.012412  0.024824  1
  La  La1  1  0.024824  0.262412  0.012412  1
  La  La2  1  0.487588  0.750000  0.012412  1
  La  La3  1  0.750000  0.237588  0.262412  1
  La  La4  1  0.012412  0.024824  0.262412  1
  La  La5  1  0.012412  0.487588  0.750000  1
  La  La6  1  0.237588  0.262412  0.750000  1
  La  La7  1  0.262412  0.750000  0.237588  1
  La  La8  1  0.237588  0.475176  0.487588  1
  La  La9  1  0.475176  0.487588  0.237588  1
  La  La10  1  0.750000  0.012412  0.487588  1
  La  La11  1  0.487588  0.237588  0.475176  1
  Ru  Ru12  1  0.000000  0.250000  0.500000  1
  Ru  Ru13  1  0.250000  0.500000  0.000000  1
  Ru  Ru14  1  0.500000  0.000000  0.250000  1
  Ru  Ru15  1  0.250000  0.250000  0.250000  1
  Cl  Cl16  1  0.750501  0.749499  0.250000  1
  Cl  Cl17  1  0.500501  0.250000  0.999499  1
  Cl  Cl18  1  0.250000  0.999499  0.500501  1
  Cl  Cl19  1  0.501002  0.500501  0.750501  1
  Cl  Cl20  1  0.999499  0.998998  0.749499  1
  Cl  Cl21  1  0.749499  0.999499  0.998998  1
  Cl  Cl22  1  0.500501  0.750501  0.501002  1
  Cl  Cl23  1  0.750501  0.501002  0.500501  1
  Cl  Cl24  1  0.999499  0.500501  0.250000  1
  Cl  Cl25  1  0.998998  0.749499  0.999499  1
  Cl  Cl26  1  0.250000  0.750501  0.749499  1
  Cl  Cl27  1  0.749499  0.250000  0.750501  1
