# generated using pymatgen
data_LiPaB6Os
_symmetry_space_group_name_H-M   'P 1'
_cell_length_a   3.58694900
_cell_length_b   8.81981400
_cell_length_c   11.22611700
_cell_angle_alpha   90.00000000
_cell_angle_beta   90.00000000
_cell_angle_gamma   90.00000000
_symmetry_Int_Tables_number   1
_chemical_formula_structural   LiPaB6Os
_chemical_formula_sum   'Li4 Pa4 B24 Os4'
_cell_volume   355.15194092
_cell_formula_units_Z   4
loop_
 _symmetry_equiv_pos_site_id
 _symmetry_equiv_pos_as_xyz
  1  'x, y, z'
loop_
 _atom_site_type_symbol
 _atom_site_label
 _atom_site_symmetry_multiplicity
 _atom_site_fract_x
 _atom_site_fract_y
 _atom_site_fract_z
 _atom_site_occupancy
  Li  Li0  1  0.000000  0.947460  0.378471  1
  Li  Li1  1  0.000000  0.052540  0.621529  1
  Li  Li2  1  0.000000  0.447460  0.121529  1
  Li  Li3  1  0.000000  0.552540  0.878471  1
  Pa  Pa4  1  0.000000  0.318191  0.413638  1
  Pa  Pa5  1  0.000000  0.681809  0.586362  1
  Pa  Pa6  1  0.000000  0.818191  0.086362  1
  Pa  Pa7  1  0.000000  0.181809  0.913638  1
  B  B8  1  0.500000  0.554787  0.432840  1
  B  B9  1  0.500000  0.445213  0.567160  1
  B  B10  1  0.500000  0.054787  0.067160  1
  B  B11  1  0.500000  0.945213  0.932840  1
  B  B12  1  0.500000  0.757167  0.418527  1
  B  B13  1  0.500000  0.242833  0.581473  1
  B  B14  1  0.500000  0.257167  0.081473  1
  B  B15  1  0.500000  0.742833  0.918527  1
  B  B16  1  0.500000  0.793222  0.263821  1
  B  B17  1  0.500000  0.206778  0.736178  1
  B  B18  1  0.500000  0.293222  0.236179  1
  B  B19  1  0.500000  0.706778  0.763822  1
  B  B20  1  0.500000  0.625876  0.181074  1
  B  B21  1  0.500000  0.374124  0.818926  1
  B  B22  1  0.500000  0.125876  0.318926  1
  B  B23  1  0.500000  0.874124  0.681074  1
  B  B24  1  0.500000  0.980356  0.214056  1
  B  B25  1  0.500000  0.019644  0.785944  1
  B  B26  1  0.500000  0.480356  0.285944  1
  B  B27  1  0.500000  0.519644  0.714056  1
  B  B28  1  0.500000  0.592676  0.026180  1
  B  B29  1  0.500000  0.407324  0.973820  1
  B  B30  1  0.500000  0.092676  0.473820  1
  B  B31  1  0.500000  0.907324  0.526180  1
  Os  Os32  1  0.000000  0.641535  0.319015  1
  Os  Os33  1  0.000000  0.358465  0.680985  1
  Os  Os34  1  0.000000  0.141535  0.180985  1
  Os  Os35  1  0.000000  0.858465  0.819015  1
