# generated using pymatgen
data_Ho4Si10(IrOs)3
_symmetry_space_group_name_H-M   'P 1'
_cell_length_a   8.09371477
_cell_length_b   8.08905729
_cell_length_c   5.78237234
_cell_angle_alpha   71.03698998
_cell_angle_beta   71.01311549
_cell_angle_gamma   93.96236534
_symmetry_Int_Tables_number   1
_chemical_formula_structural   Ho4Si10(IrOs)3
_chemical_formula_sum   'Ho4 Si10 Ir3 Os3'
_cell_volume   332.01740409
_cell_formula_units_Z   1
loop_
 _symmetry_equiv_pos_site_id
 _symmetry_equiv_pos_as_xyz
  1  'x, y, z'
loop_
 _atom_site_type_symbol
 _atom_site_label
 _atom_site_symmetry_multiplicity
 _atom_site_fract_x
 _atom_site_fract_y
 _atom_site_fract_z
 _atom_site_occupancy
  Ho  Ho0  1  0.867143  0.598865  0.755676  1
  Ho  Ho1  1  0.401716  0.132843  0.741504  1
  Ho  Ho2  1  0.132207  0.400658  0.244696  1
  Ho  Ho3  1  0.599396  0.869488  0.254297  1
  Si  Si4  1  0.064507  0.260530  0.838379  1
  Si  Si5  1  0.739631  0.936583  0.661915  1
  Si  Si6  1  0.936718  0.738154  0.162880  1
  Si  Si7  1  0.262997  0.066116  0.335388  1
  Si  Si8  1  0.207171  0.792250  0.750906  1
  Si  Si9  1  0.790949  0.205153  0.252408  1
  Si  Si10  1  0.514067  0.484410  0.752789  1
  Si  Si11  1  0.485776  0.512874  0.249204  1
  Si  Si12  1  0.773356  0.224395  0.751666  1
  Si  Si13  1  0.223054  0.775766  0.248989  1
  Ir  Ir14  1  0.256590  0.542332  0.629331  1
  Ir  Ir15  1  0.458814  0.744315  0.869335  1
  Ir  Ir16  1  0.742980  0.458636  0.368498  1
  Os  Os17  1  0.542177  0.257720  0.130802  1
  Os  Os18  1  0.004047  0.995293  0.750850  1
  Os  Os19  1  0.996706  0.003621  0.250488  1
