# generated using pymatgen
data_Ti4CrB2Se
_symmetry_space_group_name_H-M   'P 1'
_cell_length_a   5.94732088
_cell_length_b   5.94732105
_cell_length_c   7.14033957
_cell_angle_alpha   114.61123567
_cell_angle_beta   114.61125236
_cell_angle_gamma   89.99999343
_symmetry_Int_Tables_number   1
_chemical_formula_structural   Ti4CrB2Se
_chemical_formula_sum   'Ti8 Cr2 B4 Se2'
_cell_volume   204.10764381
_cell_formula_units_Z   2
loop_
 _symmetry_equiv_pos_site_id
 _symmetry_equiv_pos_as_xyz
  1  'x, y, z'
loop_
 _atom_site_type_symbol
 _atom_site_label
 _atom_site_symmetry_multiplicity
 _atom_site_fract_x
 _atom_site_fract_y
 _atom_site_fract_z
 _atom_site_occupancy
  Ti  Ti0  1  0.043138  0.543138  0.738646  1
  Ti  Ti1  1  0.695508  0.195508  0.738646  1
  Ti  Ti2  1  0.195508  0.043138  0.738646  1
  Ti  Ti3  1  0.543138  0.695508  0.738646  1
  Ti  Ti4  1  0.956862  0.456862  0.261354  1
  Ti  Ti5  1  0.304492  0.804492  0.261354  1
  Ti  Ti6  1  0.804492  0.956862  0.261354  1
  Ti  Ti7  1  0.456862  0.304492  0.261354  1
  Cr  Cr8  1  0.500000  0.500000  0.000000  1
  Cr  Cr9  1  0.000000  0.000000  0.000000  1
  B  B10  1  0.386539  0.886539  0.000000  1
  B  B11  1  0.613461  0.113461  0.000000  1
  B  B12  1  0.113461  0.386539  0.000000  1
  B  B13  1  0.886539  0.613461  0.000000  1
  Se  Se14  1  0.250000  0.250000  0.500000  1
  Se  Se15  1  0.750000  0.750000  0.500000  1
