# generated using pymatgen
data_TaBe4AlTc4
_symmetry_space_group_name_H-M   'P 1'
_cell_length_a   6.12389700
_cell_length_b   6.12389700
_cell_length_c   3.18264500
_cell_angle_alpha   90.00000000
_cell_angle_beta   90.00000000
_cell_angle_gamma   90.00000000
_symmetry_Int_Tables_number   1
_chemical_formula_structural   TaBe4AlTc4
_chemical_formula_sum   'Ta1 Be4 Al1 Tc4'
_cell_volume   119.35591710
_cell_formula_units_Z   1
loop_
 _symmetry_equiv_pos_site_id
 _symmetry_equiv_pos_as_xyz
  1  'x, y, z'
loop_
 _atom_site_type_symbol
 _atom_site_label
 _atom_site_symmetry_multiplicity
 _atom_site_fract_x
 _atom_site_fract_y
 _atom_site_fract_z
 _atom_site_occupancy
  Ta  Ta0  1  0.000000  0.000000  0.000000  1
  Be  Be1  1  0.124384  0.610281  0.000000  1
  Be  Be2  1  0.875616  0.389719  0.000000  1
  Be  Be3  1  0.610281  0.875616  0.000000  1
  Be  Be4  1  0.389719  0.124384  0.000000  1
  Al  Al5  1  0.500000  0.500000  0.000000  1
  Tc  Tc6  1  0.677067  0.174933  0.500000  1
  Tc  Tc7  1  0.322933  0.825067  0.500000  1
  Tc  Tc8  1  0.174933  0.322933  0.500000  1
  Tc  Tc9  1  0.825067  0.677067  0.500000  1
