# generated using pymatgen
data_LaPr2MgCd2Au3
_symmetry_space_group_name_H-M   'P 1'
_cell_length_a   7.93688100
_cell_length_b   8.02117213
_cell_length_c   4.08920700
_cell_angle_alpha   90.00000000
_cell_angle_beta   90.00000000
_cell_angle_gamma   119.65297944
_symmetry_Int_Tables_number   1
_chemical_formula_structural   LaPr2MgCd2Au3
_chemical_formula_sum   'La1 Pr2 Mg1 Cd2 Au3'
_cell_volume   226.23796272
_cell_formula_units_Z   1
loop_
 _symmetry_equiv_pos_site_id
 _symmetry_equiv_pos_as_xyz
  1  'x, y, z'
loop_
 _atom_site_type_symbol
 _atom_site_label
 _atom_site_symmetry_multiplicity
 _atom_site_fract_x
 _atom_site_fract_y
 _atom_site_fract_z
 _atom_site_occupancy
  La  La0  1  0.599421  0.000000  0.000000  1
  Pr  Pr1  1  0.994877  0.586318  0.000000  1
  Pr  Pr2  1  0.408558  0.413682  0.000000  1
  Mg  Mg3  1  0.246702  0.000000  0.500000  1
  Cd  Cd4  1  0.003202  0.257069  0.500000  1
  Cd  Cd5  1  0.746133  0.742931  0.500000  1
  Au  Au6  1  0.331290  0.676573  0.500000  1
  Au  Au7  1  0.654718  0.323427  0.500000  1
  Au  Au8  1  0.015100  0.000000  0.000000  1
