# generated using pymatgen
data_Sc2Tc6P7Rh6
_symmetry_space_group_name_H-M   'P 1'
_cell_length_a   9.43460500
_cell_length_b   9.43460559
_cell_length_c   3.92054200
_cell_angle_alpha   90.00000000
_cell_angle_beta   90.00000000
_cell_angle_gamma   120.00000143
_symmetry_Int_Tables_number   1
_chemical_formula_structural   Sc2Tc6P7Rh6
_chemical_formula_sum   'Sc2 Tc6 P7 Rh6'
_cell_volume   302.22070049
_cell_formula_units_Z   1
loop_
 _symmetry_equiv_pos_site_id
 _symmetry_equiv_pos_as_xyz
  1  'x, y, z'
loop_
 _atom_site_type_symbol
 _atom_site_label
 _atom_site_symmetry_multiplicity
 _atom_site_fract_x
 _atom_site_fract_y
 _atom_site_fract_z
 _atom_site_occupancy
  Sc  Sc0  1  0.000000  0.000000  0.739977  1
  Sc  Sc1  1  0.333333  0.666667  0.240468  1
  Tc  Tc2  1  0.828917  0.609757  0.739930  1
  Tc  Tc3  1  0.390243  0.219160  0.739930  1
  Tc  Tc4  1  0.780840  0.171083  0.739930  1
  Tc  Tc5  1  0.541898  0.113890  0.240020  1
  Tc  Tc6  1  0.886110  0.428008  0.240020  1
  Tc  Tc7  1  0.571992  0.458102  0.240020  1
  P  P8  1  0.666667  0.333333  0.740320  1
  P  P9  1  0.081995  0.629634  0.740224  1
  P  P10  1  0.370366  0.452361  0.740224  1
  P  P11  1  0.547639  0.918005  0.740224  1
  P  P12  1  0.264304  0.052041  0.239946  1
  P  P13  1  0.947959  0.212262  0.239946  1
  P  P14  1  0.787738  0.735696  0.239946  1
  Rh  Rh15  1  0.105161  0.404502  0.739782  1
  Rh  Rh16  1  0.595498  0.700659  0.739782  1
  Rh  Rh17  1  0.299341  0.894839  0.739782  1
  Rh  Rh18  1  0.217556  0.275931  0.239822  1
  Rh  Rh19  1  0.724069  0.941626  0.239822  1
  Rh  Rh20  1  0.058374  0.782444  0.239822  1
