# generated using pymatgen
data_TbDy3Ga4RuPt3
_symmetry_space_group_name_H-M   'P 1'
_cell_length_a   4.43070200
_cell_length_b   6.90186747
_cell_length_c   7.71019916
_cell_angle_alpha   89.44822233
_cell_angle_beta   90.00000000
_cell_angle_gamma   90.00000000
_symmetry_Int_Tables_number   1
_chemical_formula_structural   TbDy3Ga4RuPt3
_chemical_formula_sum   'Tb1 Dy3 Ga4 Ru1 Pt3'
_cell_volume   235.76786673
_cell_formula_units_Z   1
loop_
 _symmetry_equiv_pos_site_id
 _symmetry_equiv_pos_as_xyz
  1  'x, y, z'
loop_
 _atom_site_type_symbol
 _atom_site_label
 _atom_site_symmetry_multiplicity
 _atom_site_fract_x
 _atom_site_fract_y
 _atom_site_fract_z
 _atom_site_occupancy
  Tb  Tb0  1  0.250000  0.979844  0.307689  1
  Dy  Dy1  1  0.250000  0.477157  0.188859  1
  Dy  Dy2  1  0.750000  0.019444  0.697734  1
  Dy  Dy3  1  0.750000  0.515831  0.805214  1
  Ga  Ga4  1  0.250000  0.331038  0.576244  1
  Ga  Ga5  1  0.250000  0.840944  0.926299  1
  Ga  Ga6  1  0.750000  0.665496  0.427889  1
  Ga  Ga7  1  0.750000  0.171111  0.069737  1
  Ru  Ru8  1  0.250000  0.227154  0.898479  1
  Pt  Pt9  1  0.250000  0.721803  0.603871  1
  Pt  Pt10  1  0.750000  0.774240  0.101475  1
  Pt  Pt11  1  0.750000  0.275937  0.396510  1
