# generated using pymatgen
data_LiCa8(FeN4)2
_symmetry_space_group_name_H-M   'P 1'
_cell_length_a   9.31604880
_cell_length_b   4.98294406
_cell_length_c   7.17267725
_cell_angle_alpha   90.00000764
_cell_angle_beta   73.63201842
_cell_angle_gamma   74.48810101
_symmetry_Int_Tables_number   1
_chemical_formula_structural   LiCa8(FeN4)2
_chemical_formula_sum   'Li1 Ca8 Fe2 N8'
_cell_volume   306.80953948
_cell_formula_units_Z   1
loop_
 _symmetry_equiv_pos_site_id
 _symmetry_equiv_pos_as_xyz
  1  'x, y, z'
loop_
 _atom_site_type_symbol
 _atom_site_label
 _atom_site_symmetry_multiplicity
 _atom_site_fract_x
 _atom_site_fract_y
 _atom_site_fract_z
 _atom_site_occupancy
  Li  Li0  1  0.000000  0.500000  0.500000  1
  Ca  Ca1  1  0.063648  0.968176  0.750394  1
  Ca  Ca2  1  0.936352  0.031824  0.249606  1
  Ca  Ca3  1  0.669736  0.665133  0.462534  1
  Ca  Ca4  1  0.330264  0.334867  0.537466  1
  Ca  Ca5  1  0.820803  0.589599  0.970117  1
  Ca  Ca6  1  0.179197  0.410401  0.029883  1
  Ca  Ca7  1  0.599123  0.200439  0.812067  1
  Ca  Ca8  1  0.400877  0.799561  0.187933  1
  Fe  Fe9  1  0.378682  0.810658  0.791299  1
  Fe  Fe10  1  0.621318  0.189342  0.208701  1
  N  N11  1  0.212245  0.893878  0.996081  1
  N  N12  1  0.787755  0.106122  0.003919  1
  N  N13  1  0.353385  0.823308  0.559886  1
  N  N14  1  0.646615  0.176692  0.440114  1
  N  N15  1  0.564375  0.717813  0.824781  1
  N  N16  1  0.435625  0.282187  0.175219  1
  N  N17  1  0.061745  0.469128  0.732334  1
  N  N18  1  0.938255  0.530872  0.267666  1
