# generated using pymatgen
data_Er5Nb2P12Ir17
_symmetry_space_group_name_H-M   'P 1'
_cell_length_a   12.57078300
_cell_length_b   12.77474384
_cell_length_c   3.99101300
_cell_angle_alpha   90.00000000
_cell_angle_beta   90.00000000
_cell_angle_gamma   119.47323884
_symmetry_Int_Tables_number   1
_chemical_formula_structural   Er5Nb2P12Ir17
_chemical_formula_sum   'Er5 Nb2 P12 Ir17'
_cell_volume   557.96781771
_cell_formula_units_Z   1
loop_
 _symmetry_equiv_pos_site_id
 _symmetry_equiv_pos_as_xyz
  1  'x, y, z'
loop_
 _atom_site_type_symbol
 _atom_site_label
 _atom_site_symmetry_multiplicity
 _atom_site_fract_x
 _atom_site_fract_y
 _atom_site_fract_z
 _atom_site_occupancy
  Er  Er0  1  0.330403  0.661480  0.500000  1
  Er  Er1  1  0.668924  0.338520  0.500000  1
  Er  Er2  1  0.998908  0.813276  0.000000  1
  Er  Er3  1  0.185632  0.186724  0.000000  1
  Er  Er4  1  0.814992  0.000000  0.000000  1
  Nb  Nb5  1  0.997598  0.450976  0.500000  1
  Nb  Nb6  1  0.546622  0.549024  0.500000  1
  P  P7  1  0.003005  0.642697  0.500000  1
  P  P8  1  0.360308  0.357303  0.500000  1
  P  P9  1  0.646075  0.000000  0.500000  1
  P  P10  1  0.514259  0.683160  0.000000  1
  P  P11  1  0.309124  0.824009  0.000000  1
  P  P12  1  0.163616  0.481123  0.000000  1
  P  P13  1  0.485115  0.175991  0.000000  1
  P  P14  1  0.682494  0.518877  0.000000  1
  P  P15  1  0.831099  0.316840  0.000000  1
  P  P16  1  0.000133  0.175389  0.500000  1
  P  P17  1  0.824743  0.824611  0.500000  1
  P  P18  1  0.180500  0.000000  0.500000  1
  Ir  Ir19  1  0.505311  0.863621  0.000000  1
  Ir  Ir20  1  0.128297  0.641239  0.000000  1
  Ir  Ir21  1  0.354517  0.493722  0.000000  1
  Ir  Ir22  1  0.487059  0.358761  0.000000  1
  Ir  Ir23  1  0.860797  0.506278  0.000000  1
  Ir  Ir24  1  0.641692  0.136379  0.000000  1
  Ir  Ir25  1  0.464556  0.000000  0.500000  1
  Ir  Ir26  1  0.997396  0.281925  0.000000  1
  Ir  Ir27  1  0.715470  0.718075  0.000000  1
  Ir  Ir28  1  0.291209  0.000000  0.000000  1
  Ir  Ir29  1  0.624776  0.807451  0.500000  1
  Ir  Ir30  1  0.200973  0.823715  0.500000  1
  Ir  Ir31  1  0.177631  0.368020  0.500000  1
  Ir  Ir32  1  0.377257  0.176285  0.500000  1
  Ir  Ir33  1  0.809610  0.631980  0.500000  1
  Ir  Ir34  1  0.817325  0.192549  0.500000  1
  Ir  Ir35  1  0.002576  0.000000  0.500000  1
