# generated using pymatgen
data_La4Pr12Mg3HgIr4
_symmetry_space_group_name_H-M   'P 1'
_cell_length_a   10.08046155
_cell_length_b   10.08046201
_cell_length_c   10.08046300
_cell_angle_alpha   60.14990659
_cell_angle_beta   60.14990618
_cell_angle_gamma   60.14990322
_symmetry_Int_Tables_number   1
_chemical_formula_structural   La4Pr12Mg3HgIr4
_chemical_formula_sum   'La4 Pr12 Mg3 Hg1 Ir4'
_cell_volume   726.77250202
_cell_formula_units_Z   1
loop_
 _symmetry_equiv_pos_site_id
 _symmetry_equiv_pos_as_xyz
  1  'x, y, z'
loop_
 _atom_site_type_symbol
 _atom_site_label
 _atom_site_symmetry_multiplicity
 _atom_site_fract_x
 _atom_site_fract_y
 _atom_site_fract_z
 _atom_site_occupancy
  La  La0  1  0.345901  0.345901  0.345901  1
  La  La1  1  0.347434  0.347434  0.959307  1
  La  La2  1  0.347434  0.959307  0.347434  1
  La  La3  1  0.959307  0.347434  0.347434  1
  Pr  Pr4  1  0.811884  0.187795  0.187795  1
  Pr  Pr5  1  0.189185  0.809210  0.809210  1
  Pr  Pr6  1  0.187795  0.811884  0.187795  1
  Pr  Pr7  1  0.809210  0.189185  0.809210  1
  Pr  Pr8  1  0.187795  0.187795  0.811884  1
  Pr  Pr9  1  0.809210  0.809210  0.189185  1
  Pr  Pr10  1  0.937466  0.561262  0.561262  1
  Pr  Pr11  1  0.559873  0.938303  0.938303  1
  Pr  Pr12  1  0.561262  0.937466  0.561262  1
  Pr  Pr13  1  0.938303  0.559873  0.938303  1
  Pr  Pr14  1  0.561262  0.561262  0.937466  1
  Pr  Pr15  1  0.938303  0.938303  0.559873  1
  Mg  Mg16  1  0.578850  0.578850  0.266642  1
  Mg  Mg17  1  0.578850  0.266642  0.578850  1
  Mg  Mg18  1  0.266642  0.578850  0.578850  1
  Hg  Hg19  1  0.581825  0.581825  0.581825  1
  Ir  Ir20  1  0.142460  0.142460  0.142460  1
  Ir  Ir21  1  0.143010  0.143010  0.573729  1
  Ir  Ir22  1  0.143010  0.573729  0.143010  1
  Ir  Ir23  1  0.573729  0.143010  0.143010  1
