# generated using pymatgen
data_Rb4Ba2HfSb4
_symmetry_space_group_name_H-M   'P 1'
_cell_length_a   11.46477323
_cell_length_b   11.46477191
_cell_length_c   8.69642802
_cell_angle_alpha   88.55395426
_cell_angle_beta   88.55394618
_cell_angle_gamma   119.48329985
_symmetry_Int_Tables_number   1
_chemical_formula_structural   Rb4Ba2HfSb4
_chemical_formula_sum   'Rb8 Ba4 Hf2 Sb8'
_cell_volume   993.79054083
_cell_formula_units_Z   2
loop_
 _symmetry_equiv_pos_site_id
 _symmetry_equiv_pos_as_xyz
  1  'x, y, z'
loop_
 _atom_site_type_symbol
 _atom_site_label
 _atom_site_symmetry_multiplicity
 _atom_site_fract_x
 _atom_site_fract_y
 _atom_site_fract_z
 _atom_site_occupancy
  Rb  Rb0  1  0.474960  0.946184  0.383596  1
  Rb  Rb1  1  0.946184  0.474960  0.883596  1
  Rb  Rb2  1  0.864327  0.722958  0.180646  1
  Rb  Rb3  1  0.273490  0.130463  0.226273  1
  Rb  Rb4  1  0.854918  0.138145  0.200267  1
  Rb  Rb5  1  0.130463  0.273490  0.726273  1
  Rb  Rb6  1  0.722958  0.864327  0.680646  1
  Rb  Rb7  1  0.138145  0.854918  0.700267  1
  Ba  Ba8  1  0.060999  0.530723  0.388713  1
  Ba  Ba9  1  0.476016  0.530153  0.379844  1
  Ba  Ba10  1  0.530723  0.060999  0.888713  1
  Ba  Ba11  1  0.530153  0.476016  0.879844  1
  Hf  Hf12  1  0.664414  0.333922  0.490993  1
  Hf  Hf13  1  0.333922  0.664414  0.990993  1
  Sb  Sb14  1  0.649415  0.331301  0.165524  1
  Sb  Sb15  1  0.331301  0.649415  0.665524  1
  Sb  Sb16  1  0.208578  0.401422  0.123537  1
  Sb  Sb17  1  0.602525  0.796207  0.080645  1
  Sb  Sb18  1  0.205763  0.802927  0.097632  1
  Sb  Sb19  1  0.796207  0.602525  0.580645  1
  Sb  Sb20  1  0.401422  0.208578  0.623537  1
  Sb  Sb21  1  0.802927  0.205763  0.597632  1
