# generated using pymatgen
data_HfZr5MnI12
_symmetry_space_group_name_H-M   'P 1'
_cell_length_a   9.43267754
_cell_length_b   9.45487162
_cell_length_c   9.40443715
_cell_angle_alpha   106.74514221
_cell_angle_beta   106.88961632
_cell_angle_gamma   106.98749688
_symmetry_Int_Tables_number   1
_chemical_formula_structural   HfZr5MnI12
_chemical_formula_sum   'Hf1 Zr5 Mn1 I12'
_cell_volume   700.88732463
_cell_formula_units_Z   1
loop_
 _symmetry_equiv_pos_site_id
 _symmetry_equiv_pos_as_xyz
  1  'x, y, z'
loop_
 _atom_site_type_symbol
 _atom_site_label
 _atom_site_symmetry_multiplicity
 _atom_site_fract_x
 _atom_site_fract_y
 _atom_site_fract_z
 _atom_site_occupancy
  Hf  Hf0  1  0.971286  0.724026  0.908664  1
  Zr  Zr1  1  0.281519  0.092526  0.028990  1
  Zr  Zr2  1  0.093297  0.029567  0.282264  1
  Zr  Zr3  1  0.906932  0.971014  0.718030  1
  Zr  Zr4  1  0.719463  0.907034  0.971045  1
  Zr  Zr5  1  0.029505  0.283810  0.093307  1
  Mn  Mn6  1  0.000486  0.003115  0.001051  1
  I  I7  1  0.922463  0.308148  0.776918  1
  I  I8  1  0.690253  0.220249  0.076603  1
  I  I9  1  0.442018  0.141972  0.368320  1
  I  I10  1  0.859351  0.631363  0.561705  1
  I  I11  1  0.222140  0.077000  0.689998  1
  I  I12  1  0.636555  0.558423  0.858492  1
  I  I13  1  0.368212  0.440684  0.141448  1
  I  I14  1  0.777499  0.922121  0.309497  1
  I  I15  1  0.142088  0.367159  0.442056  1
  I  I16  1  0.557805  0.857600  0.632018  1
  I  I17  1  0.303341  0.774576  0.921751  1
  I  I18  1  0.075787  0.689617  0.217843  1
