# generated using pymatgen
data_CuB3Ir4Au
_symmetry_space_group_name_H-M   'P 1'
_cell_length_a   13.61672038
_cell_length_b   13.61671989
_cell_length_c   2.78622000
_cell_angle_alpha   90.00000000
_cell_angle_beta   90.00000000
_cell_angle_gamma   167.65381172
_symmetry_Int_Tables_number   1
_chemical_formula_structural   CuB3Ir4Au
_chemical_formula_sum   'Cu1 B3 Ir4 Au1'
_cell_volume   110.45988576
_cell_formula_units_Z   1
loop_
 _symmetry_equiv_pos_site_id
 _symmetry_equiv_pos_as_xyz
  1  'x, y, z'
loop_
 _atom_site_type_symbol
 _atom_site_label
 _atom_site_symmetry_multiplicity
 _atom_site_fract_x
 _atom_site_fract_y
 _atom_site_fract_z
 _atom_site_occupancy
  Cu  Cu0  1  0.287485  0.712515  0.500000  1
  B  B1  1  0.386971  0.613029  0.500000  1
  B  B2  1  0.607033  0.392967  0.000000  1
  B  B3  1  0.988973  0.011027  0.500000  1
  Ir  Ir4  1  0.139265  0.860735  0.500000  1
  Ir  Ir5  1  0.856270  0.143730  0.000000  1
  Ir  Ir6  1  0.545193  0.454807  0.500000  1
  Ir  Ir7  1  0.452324  0.547676  0.000000  1
  Au  Au8  1  0.720485  0.279515  0.000000  1
