# generated using pymatgen
data_HoTm3Co4(P3Ir4)4
_symmetry_space_group_name_H-M   'P 1'
_cell_length_a   3.91566800
_cell_length_b   10.71221600
_cell_length_c   12.37970800
_cell_angle_alpha   89.99941458
_cell_angle_beta   90.00000000
_cell_angle_gamma   90.00000000
_symmetry_Int_Tables_number   1
_chemical_formula_structural   HoTm3Co4(P3Ir4)4
_chemical_formula_sum   'Ho1 Tm3 Co4 P12 Ir16'
_cell_volume   519.27281165
_cell_formula_units_Z   1
loop_
 _symmetry_equiv_pos_site_id
 _symmetry_equiv_pos_as_xyz
  1  'x, y, z'
loop_
 _atom_site_type_symbol
 _atom_site_label
 _atom_site_symmetry_multiplicity
 _atom_site_fract_x
 _atom_site_fract_y
 _atom_site_fract_z
 _atom_site_occupancy
  Ho  Ho0  1  0.250000  0.585111  0.709916  1
  Tm  Tm1  1  0.250000  0.914915  0.209863  1
  Tm  Tm2  1  0.750000  0.414738  0.290093  1
  Tm  Tm3  1  0.750000  0.085099  0.789932  1
  Co  Co4  1  0.250000  0.460798  0.934180  1
  Co  Co5  1  0.250000  0.039025  0.433828  1
  Co  Co6  1  0.750000  0.539328  0.066421  1
  Co  Co7  1  0.750000  0.961520  0.566133  1
  P  P8  1  0.250000  0.426373  0.106060  1
  P  P9  1  0.250000  0.073559  0.605843  1
  P  P10  1  0.750000  0.573305  0.894413  1
  P  P11  1  0.750000  0.926432  0.394264  1
  P  P12  1  0.250000  0.270123  0.870995  1
  P  P13  1  0.250000  0.229783  0.371332  1
  P  P14  1  0.750000  0.729993  0.128678  1
  P  P15  1  0.750000  0.770605  0.628348  1
  P  P16  1  0.250000  0.594225  0.384882  1
  P  P17  1  0.250000  0.905567  0.884525  1
  P  P18  1  0.750000  0.405267  0.615210  1
  P  P19  1  0.750000  0.094305  0.115278  1
  Ir  Ir20  1  0.250000  0.720979  0.981330  1
  Ir  Ir21  1  0.250000  0.779276  0.480330  1
  Ir  Ir22  1  0.750000  0.279548  0.019968  1
  Ir  Ir23  1  0.750000  0.220766  0.518777  1
  Ir  Ir24  1  0.250000  0.407608  0.477354  1
  Ir  Ir25  1  0.250000  0.092447  0.977123  1
  Ir  Ir26  1  0.750000  0.592234  0.521599  1
  Ir  Ir27  1  0.750000  0.907843  0.022630  1
  Ir  Ir28  1  0.250000  0.233150  0.180744  1
  Ir  Ir29  1  0.250000  0.266957  0.679991  1
  Ir  Ir30  1  0.750000  0.767457  0.820111  1
  Ir  Ir31  1  0.750000  0.733502  0.319221  1
  Ir  Ir32  1  0.250000  0.886548  0.699159  1
  Ir  Ir33  1  0.250000  0.613120  0.199684  1
  Ir  Ir34  1  0.750000  0.113107  0.300570  1
  Ir  Ir35  1  0.750000  0.385384  0.801211  1
