# generated using pymatgen
data_LaCeNi7Ir3
_symmetry_space_group_name_H-M   'P 1'
_cell_length_a   4.04146000
_cell_length_b   5.10027502
_cell_length_c   8.80332828
_cell_angle_alpha   92.71509803
_cell_angle_beta   90.00000000
_cell_angle_gamma   90.00000000
_symmetry_Int_Tables_number   1
_chemical_formula_structural   LaCeNi7Ir3
_chemical_formula_sum   'La1 Ce1 Ni7 Ir3'
_cell_volume   181.25540894
_cell_formula_units_Z   1
loop_
 _symmetry_equiv_pos_site_id
 _symmetry_equiv_pos_as_xyz
  1  'x, y, z'
loop_
 _atom_site_type_symbol
 _atom_site_label
 _atom_site_symmetry_multiplicity
 _atom_site_fract_x
 _atom_site_fract_y
 _atom_site_fract_z
 _atom_site_occupancy
  La  La0  1  0.000000  0.000000  0.500000  1
  Ce  Ce1  1  0.000000  0.500000  0.000000  1
  Ni  Ni2  1  0.000000  0.482123  0.323840  1
  Ni  Ni3  1  0.000000  0.993414  0.843853  1
  Ni  Ni4  1  0.000000  0.006586  0.156147  1
  Ni  Ni5  1  0.000000  0.517877  0.676160  1
  Ni  Ni6  1  0.500000  0.000000  0.000000  1
  Ni  Ni7  1  0.500000  0.242475  0.245746  1
  Ni  Ni8  1  0.500000  0.757525  0.754254  1
  Ir  Ir9  1  0.500000  0.500000  0.500000  1
  Ir  Ir10  1  0.500000  0.745271  0.239980  1
  Ir  Ir11  1  0.500000  0.254729  0.760020  1
