# generated using pymatgen
data_Ho3In3CoNiHg
_symmetry_space_group_name_H-M   'P 1'
_cell_length_a   7.76753300
_cell_length_b   7.76753297
_cell_length_c   3.67926800
_cell_angle_alpha   90.00000000
_cell_angle_beta   90.00000000
_cell_angle_gamma   120.00000554
_symmetry_Int_Tables_number   1
_chemical_formula_structural   Ho3In3CoNiHg
_chemical_formula_sum   'Ho3 In3 Co1 Ni1 Hg1'
_cell_volume   192.24641195
_cell_formula_units_Z   1
loop_
 _symmetry_equiv_pos_site_id
 _symmetry_equiv_pos_as_xyz
  1  'x, y, z'
loop_
 _atom_site_type_symbol
 _atom_site_label
 _atom_site_symmetry_multiplicity
 _atom_site_fract_x
 _atom_site_fract_y
 _atom_site_fract_z
 _atom_site_occupancy
  Ho  Ho0  1  0.964409  0.573684  0.500000  1
  Ho  Ho1  1  0.426316  0.390726  0.500000  1
  Ho  Ho2  1  0.609274  0.035591  0.500000  1
  In  In3  1  0.252341  0.003088  0.000000  1
  In  In4  1  0.750746  0.747659  0.000000  1
  In  In5  1  0.996912  0.249254  0.000000  1
  Co  Co6  1  0.666667  0.333333  0.000000  1
  Ni  Ni7  1  0.000000  0.000000  0.500000  1
  Hg  Hg8  1  0.333333  0.666667  0.000000  1
