# generated using pymatgen
data_UTa3O10
_symmetry_space_group_name_H-M   'P 1'
_cell_length_a   10.29269072
_cell_length_b   8.81743378
_cell_length_c   7.50436000
_cell_angle_alpha   77.73059580
_cell_angle_beta   56.83538754
_cell_angle_gamma   45.43401914
_symmetry_Int_Tables_number   1
_chemical_formula_structural   UTa3O10
_chemical_formula_sum   'U2 Ta6 O20'
_cell_volume   389.04533350
_cell_formula_units_Z   2
loop_
 _symmetry_equiv_pos_site_id
 _symmetry_equiv_pos_as_xyz
  1  'x, y, z'
loop_
 _atom_site_type_symbol
 _atom_site_label
 _atom_site_symmetry_multiplicity
 _atom_site_fract_x
 _atom_site_fract_y
 _atom_site_fract_z
 _atom_site_occupancy
  U  U0  1  0.000000  0.000000  0.000000  1
  U  U1  1  0.250000  0.250000  0.250000  1
  Ta  Ta2  1  0.740827  0.740827  0.259173  1
  Ta  Ta3  1  0.259173  0.259173  0.740827  1
  Ta  Ta4  1  0.509173  0.509173  0.990827  1
  Ta  Ta5  1  0.990827  0.990827  0.509173  1
  Ta  Ta6  1  0.500000  0.500000  0.500000  1
  Ta  Ta7  1  0.750000  0.750000  0.750000  1
  O  O8  1  0.796574  0.203426  0.796574  1
  O  O9  1  0.203426  0.796574  0.203426  1
  O  O10  1  0.453426  0.046574  0.453426  1
  O  O11  1  0.046574  0.453426  0.046574  1
  O  O12  1  0.881186  0.881186  0.118814  1
  O  O13  1  0.118814  0.118814  0.881186  1
  O  O14  1  0.368814  0.368814  0.131186  1
  O  O15  1  0.131186  0.131186  0.368814  1
  O  O16  1  0.848710  0.655613  0.448512  1
  O  O17  1  0.047166  0.448512  0.655613  1
  O  O18  1  0.448512  0.047166  0.848710  1
  O  O19  1  0.655613  0.848710  0.047166  1
  O  O20  1  0.401290  0.594387  0.801488  1
  O  O21  1  0.202834  0.801488  0.594387  1
  O  O22  1  0.801488  0.202834  0.401290  1
  O  O23  1  0.594387  0.401290  0.202834  1
  O  O24  1  0.873818  0.873818  0.626182  1
  O  O25  1  0.626182  0.626182  0.873818  1
  O  O26  1  0.376182  0.376182  0.623818  1
  O  O27  1  0.623818  0.623818  0.376182  1
