# generated using pymatgen
data_Ba2La3Pb4
_symmetry_space_group_name_H-M   'P 1'
_cell_length_a   8.56367000
_cell_length_b   9.08555000
_cell_length_c   17.06475500
_cell_angle_alpha   90.00000000
_cell_angle_beta   90.00000000
_cell_angle_gamma   90.00000000
_symmetry_Int_Tables_number   1
_chemical_formula_structural   Ba2La3Pb4
_chemical_formula_sum   'Ba8 La12 Pb16'
_cell_volume   1327.73438846
_cell_formula_units_Z   4
loop_
 _symmetry_equiv_pos_site_id
 _symmetry_equiv_pos_as_xyz
  1  'x, y, z'
loop_
 _atom_site_type_symbol
 _atom_site_label
 _atom_site_symmetry_multiplicity
 _atom_site_fract_x
 _atom_site_fract_y
 _atom_site_fract_z
 _atom_site_occupancy
  Ba  Ba0  1  0.004051  0.177475  0.092215  1
  Ba  Ba1  1  0.504051  0.322525  0.407785  1
  Ba  Ba2  1  0.495949  0.677475  0.907785  1
  Ba  Ba3  1  0.995949  0.822525  0.592215  1
  Ba  Ba4  1  0.995949  0.822525  0.907785  1
  Ba  Ba5  1  0.495949  0.677475  0.592215  1
  Ba  Ba6  1  0.504051  0.322525  0.092215  1
  Ba  Ba7  1  0.004051  0.177475  0.407785  1
  La  La8  1  0.832160  0.658775  0.122523  1
  La  La9  1  0.332160  0.841225  0.377477  1
  La  La10  1  0.667840  0.158775  0.877477  1
  La  La11  1  0.167840  0.341225  0.622523  1
  La  La12  1  0.167840  0.341225  0.877477  1
  La  La13  1  0.667840  0.158775  0.622523  1
  La  La14  1  0.332160  0.841225  0.122523  1
  La  La15  1  0.832160  0.658775  0.377477  1
  La  La16  1  0.677143  0.008093  0.250000  1
  La  La17  1  0.177143  0.491907  0.250000  1
  La  La18  1  0.822857  0.508093  0.750000  1
  La  La19  1  0.322857  0.991907  0.750000  1
  Pb  Pb20  1  0.034753  0.864430  0.250000  1
  Pb  Pb21  1  0.534753  0.635570  0.250000  1
  Pb  Pb22  1  0.465247  0.364430  0.750000  1
  Pb  Pb23  1  0.965247  0.135570  0.750000  1
  Pb  Pb24  1  0.800635  0.367009  0.250000  1
  Pb  Pb25  1  0.300635  0.132991  0.250000  1
  Pb  Pb26  1  0.699365  0.867009  0.750000  1
  Pb  Pb27  1  0.199365  0.632991  0.750000  1
  Pb  Pb28  1  0.832198  0.454951  0.955762  1
  Pb  Pb29  1  0.332198  0.045049  0.544238  1
  Pb  Pb30  1  0.667802  0.954951  0.044238  1
  Pb  Pb31  1  0.167802  0.545049  0.455762  1
  Pb  Pb32  1  0.167802  0.545049  0.044238  1
  Pb  Pb33  1  0.667802  0.954951  0.455762  1
  Pb  Pb34  1  0.332198  0.045049  0.955762  1
  Pb  Pb35  1  0.832198  0.454951  0.544238  1
