# generated using pymatgen
data_YSc2(CuSi)4
_symmetry_space_group_name_H-M   'P 1'
_cell_length_a   7.61841194
_cell_length_b   7.61841327
_cell_length_c   7.61841282
_cell_angle_alpha   149.62268425
_cell_angle_beta   129.03892611
_cell_angle_gamma   60.49087449
_symmetry_Int_Tables_number   1
_chemical_formula_structural   YSc2(CuSi)4
_chemical_formula_sum   'Y1 Sc2 Cu4 Si4'
_cell_volume   172.21771359
_cell_formula_units_Z   1
loop_
 _symmetry_equiv_pos_site_id
 _symmetry_equiv_pos_as_xyz
  1  'x, y, z'
loop_
 _atom_site_type_symbol
 _atom_site_label
 _atom_site_symmetry_multiplicity
 _atom_site_fract_x
 _atom_site_fract_y
 _atom_site_fract_z
 _atom_site_occupancy
  Y  Y0  1  0.000000  0.000000  0.000000  1
  Sc  Sc1  1  0.374637  0.874637  0.500000  1
  Sc  Sc2  1  0.625363  0.125363  0.500000  1
  Cu  Cu3  1  0.635165  0.328354  0.306812  1
  Cu  Cu4  1  0.364835  0.671646  0.693188  1
  Cu  Cu5  1  0.021542  0.328354  0.693188  1
  Cu  Cu6  1  0.978458  0.671646  0.306812  1
  Si  Si7  1  0.220554  0.220554  0.000000  1
  Si  Si8  1  0.779446  0.779446  0.000000  1
  Si  Si9  1  0.680968  0.500000  0.180968  1
  Si  Si10  1  0.319032  0.500000  0.819032  1
