# generated using pymatgen
data_YHo9InPb5
_symmetry_space_group_name_H-M   'P 1'
_cell_length_a   9.01161304
_cell_length_b   9.01606811
_cell_length_c   6.65147400
_cell_angle_alpha   90.00000000
_cell_angle_beta   90.00000000
_cell_angle_gamma   119.99440884
_symmetry_Int_Tables_number   1
_chemical_formula_structural   YHo9InPb5
_chemical_formula_sum   'Y1 Ho9 In1 Pb5'
_cell_volume   468.05049984
_cell_formula_units_Z   1
loop_
 _symmetry_equiv_pos_site_id
 _symmetry_equiv_pos_as_xyz
  1  'x, y, z'
loop_
 _atom_site_type_symbol
 _atom_site_label
 _atom_site_symmetry_multiplicity
 _atom_site_fract_x
 _atom_site_fract_y
 _atom_site_fract_z
 _atom_site_occupancy
  Y  Y0  1  0.237125  0.236845  0.750000  1
  Ho  Ho1  1  0.335702  0.669446  0.001715  1
  Ho  Ho2  1  0.666363  0.330637  0.498288  1
  Ho  Ho3  1  0.666363  0.330637  0.001712  1
  Ho  Ho4  1  0.335702  0.669446  0.498285  1
  Ho  Ho5  1  0.238661  0.999868  0.250000  1
  Ho  Ho6  1  0.000193  0.762947  0.750000  1
  Ho  Ho7  1  0.995912  0.234386  0.250000  1
  Ho  Ho8  1  0.761773  0.765732  0.250000  1
  Ho  Ho9  1  0.762409  0.999911  0.750000  1
  In  In10  1  0.603818  0.000019  0.250000  1
  Pb  Pb11  1  0.605352  0.604418  0.750000  1
  Pb  Pb12  1  0.000735  0.395886  0.750000  1
  Pb  Pb13  1  0.999910  0.605486  0.250000  1
  Pb  Pb14  1  0.394412  0.394524  0.250000  1
  Pb  Pb15  1  0.395572  0.999812  0.750000  1
