# generated using pymatgen
data_HoTm9Ru4
_symmetry_space_group_name_H-M   'P 1'
_cell_length_a   6.24525788
_cell_length_b   7.23528463
_cell_length_c   8.34911034
_cell_angle_alpha   96.83395448
_cell_angle_beta   112.04034047
_cell_angle_gamma   90.02472546
_symmetry_Int_Tables_number   1
_chemical_formula_structural   HoTm9Ru4
_chemical_formula_sum   'Ho1 Tm9 Ru4'
_cell_volume   346.79279318
_cell_formula_units_Z   1
loop_
 _symmetry_equiv_pos_site_id
 _symmetry_equiv_pos_as_xyz
  1  'x, y, z'
loop_
 _atom_site_type_symbol
 _atom_site_label
 _atom_site_symmetry_multiplicity
 _atom_site_fract_x
 _atom_site_fract_y
 _atom_site_fract_z
 _atom_site_occupancy
  Ho  Ho0  1  0.790764  0.083951  0.813334  1
  Tm  Tm1  1  0.977873  0.415834  0.186360  1
  Tm  Tm2  1  0.208803  0.915638  0.186608  1
  Tm  Tm3  1  0.022713  0.584250  0.814008  1
  Tm  Tm4  1  0.205446  0.184263  0.564974  1
  Tm  Tm5  1  0.640643  0.315814  0.434784  1
  Tm  Tm6  1  0.794025  0.815520  0.434456  1
  Tm  Tm7  1  0.359179  0.684326  0.564935  1
  Tm  Tm8  1  0.419024  0.249938  0.000133  1
  Tm  Tm9  1  0.580966  0.750077  0.000318  1
  Ru  Ru10  1  0.602369  0.424350  0.779437  1
  Ru  Ru11  1  0.823456  0.076964  0.220482  1
  Ru  Ru12  1  0.397116  0.576286  0.220405  1
  Ru  Ru13  1  0.177626  0.922791  0.779764  1
