# generated using pymatgen
data_Tm8MgCdPt2
_symmetry_space_group_name_H-M   'P 1'
_cell_length_a   9.58150423
_cell_length_b   9.58150392
_cell_length_c   9.61606700
_cell_angle_alpha   59.88059706
_cell_angle_beta   59.88059813
_cell_angle_gamma   59.70332034
_symmetry_Int_Tables_number   1
_chemical_formula_structural   Tm8MgCdPt2
_chemical_formula_sum   'Tm16 Mg2 Cd2 Pt4'
_cell_volume   621.70445931
_cell_formula_units_Z   2
loop_
 _symmetry_equiv_pos_site_id
 _symmetry_equiv_pos_as_xyz
  1  'x, y, z'
loop_
 _atom_site_type_symbol
 _atom_site_label
 _atom_site_symmetry_multiplicity
 _atom_site_fract_x
 _atom_site_fract_y
 _atom_site_fract_z
 _atom_site_occupancy
  Tm  Tm0  1  0.352089  0.352089  0.350054  1
  Tm  Tm1  1  0.352089  0.352089  0.945769  1
  Tm  Tm2  1  0.353061  0.944204  0.351368  1
  Tm  Tm3  1  0.944204  0.353061  0.351368  1
  Tm  Tm4  1  0.810645  0.189438  0.189147  1
  Tm  Tm5  1  0.189438  0.810645  0.810770  1
  Tm  Tm6  1  0.189438  0.810645  0.189147  1
  Tm  Tm7  1  0.810645  0.189438  0.810770  1
  Tm  Tm8  1  0.191073  0.191073  0.808927  1
  Tm  Tm9  1  0.812218  0.812218  0.187782  1
  Tm  Tm10  1  0.936619  0.564731  0.565112  1
  Tm  Tm11  1  0.564731  0.936619  0.933537  1
  Tm  Tm12  1  0.564731  0.936619  0.565112  1
  Tm  Tm13  1  0.936619  0.564731  0.933537  1
  Tm  Tm14  1  0.566809  0.566809  0.933191  1
  Tm  Tm15  1  0.936238  0.936238  0.563762  1
  Mg  Mg16  1  0.577345  0.577345  0.581208  1
  Mg  Mg17  1  0.577345  0.577345  0.264102  1
  Cd  Cd18  1  0.582344  0.252931  0.582363  1
  Cd  Cd19  1  0.252931  0.582344  0.582363  1
  Pt  Pt20  1  0.142987  0.142987  0.143336  1
  Pt  Pt21  1  0.142987  0.142987  0.570692  1
  Pt  Pt22  1  0.142463  0.570953  0.143292  1
  Pt  Pt23  1  0.570953  0.142463  0.143292  1
