# generated using pymatgen
data_NdDy2Er(WO6)2
_symmetry_space_group_name_H-M   'P 1'
_cell_length_a   5.44159900
_cell_length_b   7.76376468
_cell_length_c   11.52390699
_cell_angle_alpha   75.57939522
_cell_angle_beta   90.00000000
_cell_angle_gamma   90.00000000
_symmetry_Int_Tables_number   1
_chemical_formula_structural   NdDy2Er(WO6)2
_chemical_formula_sum   'Nd2 Dy4 Er2 W4 O24'
_cell_volume   471.51490645
_cell_formula_units_Z   2
loop_
 _symmetry_equiv_pos_site_id
 _symmetry_equiv_pos_as_xyz
  1  'x, y, z'
loop_
 _atom_site_type_symbol
 _atom_site_label
 _atom_site_symmetry_multiplicity
 _atom_site_fract_x
 _atom_site_fract_y
 _atom_site_fract_z
 _atom_site_occupancy
  Nd  Nd0  1  0.685271  0.500000  0.250000  1
  Nd  Nd1  1  0.315322  0.500000  0.750000  1
  Dy  Dy2  1  0.184931  0.203503  0.423221  1
  Dy  Dy3  1  0.184931  0.796497  0.076779  1
  Dy  Dy4  1  0.742577  0.000000  0.250000  1
  Dy  Dy5  1  0.257725  0.000000  0.750000  1
  Er  Er6  1  0.815209  0.795509  0.577389  1
  Er  Er7  1  0.815209  0.204491  0.922611  1
  W  W8  1  0.254682  0.272308  0.115204  1
  W  W9  1  0.254682  0.727692  0.384796  1
  W  W10  1  0.745821  0.727580  0.883764  1
  W  W11  1  0.745821  0.272420  0.616236  1
  O  O12  1  0.455594  0.205150  0.272559  1
  O  O13  1  0.455594  0.794850  0.227441  1
  O  O14  1  0.545842  0.794382  0.725987  1
  O  O15  1  0.545842  0.205618  0.774013  1
  O  O16  1  0.043488  0.059636  0.103323  1
  O  O17  1  0.043488  0.940364  0.396677  1
  O  O18  1  0.953939  0.942090  0.896036  1
  O  O19  1  0.953939  0.057910  0.603964  1
  O  O20  1  0.985445  0.281458  0.229828  1
  O  O21  1  0.985445  0.718542  0.270172  1
  O  O22  1  0.015283  0.719422  0.769440  1
  O  O23  1  0.015283  0.280578  0.730560  1
  O  O24  1  0.851928  0.359549  0.454426  1
  O  O25  1  0.851928  0.640451  0.045574  1
  O  O26  1  0.145784  0.640738  0.546321  1
  O  O27  1  0.145784  0.359262  0.953679  1
  O  O28  1  0.651802  0.507428  0.613514  1
  O  O29  1  0.651802  0.492572  0.886486  1
  O  O30  1  0.349541  0.493397  0.387122  1
  O  O31  1  0.349541  0.506603  0.112878  1
  O  O32  1  0.464702  0.155312  0.570411  1
  O  O33  1  0.464702  0.844688  0.929589  1
  O  O34  1  0.535563  0.844591  0.431815  1
  O  O35  1  0.535563  0.155409  0.068185  1
