# generated using pymatgen
data_Sc7P4S3
_symmetry_space_group_name_H-M   'P 1'
_cell_length_a   6.44842881
_cell_length_b   8.34407002
_cell_length_c   9.90593547
_cell_angle_alpha   53.74599246
_cell_angle_beta   40.26209163
_cell_angle_gamma   49.73712355
_symmetry_Int_Tables_number   1
_chemical_formula_structural   Sc7P4S3
_chemical_formula_sum   'Sc7 P4 S3'
_cell_volume   257.59908575
_cell_formula_units_Z   1
loop_
 _symmetry_equiv_pos_site_id
 _symmetry_equiv_pos_as_xyz
  1  'x, y, z'
loop_
 _atom_site_type_symbol
 _atom_site_label
 _atom_site_symmetry_multiplicity
 _atom_site_fract_x
 _atom_site_fract_y
 _atom_site_fract_z
 _atom_site_occupancy
  Sc  Sc0  1  0.856393  0.416328  0.580823  1
  Sc  Sc1  1  0.426322  0.116487  0.162474  1
  Sc  Sc2  1  0.154751  0.266873  0.863087  1
  Sc  Sc3  1  0.569843  0.556253  0.302466  1
  Sc  Sc4  1  0.998796  0.842477  0.722667  1
  Sc  Sc5  1  0.290837  0.699166  0.013183  1
  Sc  Sc6  1  0.728904  0.976196  0.438340  1
  P  P7  1  0.363462  0.910860  0.081276  1
  P  P8  1  0.647590  0.767958  0.369555  1
  P  P9  1  0.929929  0.622281  0.657308  1
  P  P10  1  0.788099  0.198359  0.510922  1
  S  S11  1  0.217285  0.481583  0.942261  1
  S  S12  1  0.072567  0.054420  0.797318  1
  S  S13  1  0.506373  0.337815  0.224871  1
