# generated using pymatgen
data_PrSmY4CoBr10
_symmetry_space_group_name_H-M   'P 1'
_cell_length_a   7.40798182
_cell_length_b   9.23329552
_cell_length_c   9.28201202
_cell_angle_alpha   108.38274440
_cell_angle_beta   96.92724667
_cell_angle_gamma   104.32236441
_symmetry_Int_Tables_number   1
_chemical_formula_structural   PrSmY4CoBr10
_chemical_formula_sum   'Pr1 Sm1 Y4 Co1 Br10'
_cell_volume   569.98370854
_cell_formula_units_Z   1
loop_
 _symmetry_equiv_pos_site_id
 _symmetry_equiv_pos_as_xyz
  1  'x, y, z'
loop_
 _atom_site_type_symbol
 _atom_site_label
 _atom_site_symmetry_multiplicity
 _atom_site_fract_x
 _atom_site_fract_y
 _atom_site_fract_z
 _atom_site_occupancy
  Pr  Pr0  1  0.467293  0.789730  0.590168  1
  Sm  Sm1  1  0.533197  0.216231  0.411542  1
  Y  Y2  1  0.377636  0.456087  0.745846  1
  Y  Y3  1  0.621087  0.544275  0.253769  1
  Y  Y4  1  0.855415  0.629248  0.677060  1
  Y  Y5  1  0.144524  0.368347  0.322517  1
  Co  Co6  1  0.499377  0.500773  0.500063  1
  Br  Br7  1  0.410891  0.138530  0.676925  1
  Br  Br8  1  0.590861  0.865831  0.317129  1
  Br  Br9  1  0.037528  0.673037  0.411675  1
  Br  Br10  1  0.956757  0.323111  0.584762  1
  Br  Br11  1  0.271807  0.747130  0.852080  1
  Br  Br12  1  0.722449  0.248615  0.152984  1
  Br  Br13  1  0.250856  0.414628  0.042524  1
  Br  Br14  1  0.748239  0.584228  0.957412  1
  Br  Br15  1  0.862925  0.948542  0.774804  1
  Br  Br16  1  0.149157  0.051657  0.228742  1
