# generated using pymatgen
data_TiMnBeB2Ir5
_symmetry_space_group_name_H-M   'P 1'
_cell_length_a   9.19483447
_cell_length_b   9.19483447
_cell_length_c   2.90501900
_cell_angle_alpha   90.00000000
_cell_angle_beta   90.00000000
_cell_angle_gamma   88.95208000
_symmetry_Int_Tables_number   1
_chemical_formula_structural   TiMnBeB2Ir5
_chemical_formula_sum   'Ti2 Mn2 Be2 B4 Ir10'
_cell_volume   245.56369827
_cell_formula_units_Z   2
loop_
 _symmetry_equiv_pos_site_id
 _symmetry_equiv_pos_as_xyz
  1  'x, y, z'
loop_
 _atom_site_type_symbol
 _atom_site_label
 _atom_site_symmetry_multiplicity
 _atom_site_fract_x
 _atom_site_fract_y
 _atom_site_fract_z
 _atom_site_occupancy
  Ti  Ti0  1  0.677344  0.177344  0.000000  1
  Ti  Ti1  1  0.322656  0.822656  0.000000  1
  Mn  Mn2  1  0.176818  0.323182  0.000000  1
  Mn  Mn3  1  0.823182  0.676818  0.000000  1
  Be  Be4  1  0.000000  0.000000  0.000000  1
  Be  Be5  1  0.500000  0.500000  0.000000  1
  B  B6  1  0.128288  0.628288  0.000000  1
  B  B7  1  0.871712  0.371712  0.000000  1
  B  B8  1  0.632691  0.867309  0.000000  1
  B  B9  1  0.367309  0.132691  0.000000  1
  Ir  Ir10  1  0.206213  0.065428  0.500000  1
  Ir  Ir11  1  0.793787  0.934572  0.500000  1
  Ir  Ir12  1  0.070279  0.794228  0.500000  1
  Ir  Ir13  1  0.705772  0.429721  0.500000  1
  Ir  Ir14  1  0.929721  0.205772  0.500000  1
  Ir  Ir15  1  0.294228  0.570279  0.500000  1
  Ir  Ir16  1  0.565428  0.706213  0.500000  1
  Ir  Ir17  1  0.434572  0.293787  0.500000  1
  Ir  Ir18  1  0.500000  0.000000  0.500000  1
  Ir  Ir19  1  0.000000  0.500000  0.500000  1
