# generated using pymatgen
data_Sc12CoTc2Rh
_symmetry_space_group_name_H-M   'P 1'
_cell_length_a   5.90412100
_cell_length_b   8.61399600
_cell_length_c   13.31646600
_cell_angle_alpha   90.00000000
_cell_angle_beta   90.00000000
_cell_angle_gamma   90.00000000
_symmetry_Int_Tables_number   1
_chemical_formula_structural   Sc12CoTc2Rh
_chemical_formula_sum   'Sc24 Co2 Tc4 Rh2'
_cell_volume   677.24982227
_cell_formula_units_Z   2
loop_
 _symmetry_equiv_pos_site_id
 _symmetry_equiv_pos_as_xyz
  1  'x, y, z'
loop_
 _atom_site_type_symbol
 _atom_site_label
 _atom_site_symmetry_multiplicity
 _atom_site_fract_x
 _atom_site_fract_y
 _atom_site_fract_z
 _atom_site_occupancy
  Sc  Sc0  1  0.531291  0.750000  0.357243  1
  Sc  Sc1  1  0.031291  0.250000  0.142757  1
  Sc  Sc2  1  0.475224  0.250000  0.649694  1
  Sc  Sc3  1  0.975224  0.750000  0.850306  1
  Sc  Sc4  1  0.801448  0.750000  0.109790  1
  Sc  Sc5  1  0.301448  0.250000  0.390210  1
  Sc  Sc6  1  0.212508  0.250000  0.884489  1
  Sc  Sc7  1  0.712508  0.750000  0.615511  1
  Sc  Sc8  1  0.413739  0.935791  0.783802  1
  Sc  Sc9  1  0.913739  0.064209  0.716198  1
  Sc  Sc10  1  0.580216  0.437851  0.209616  1
  Sc  Sc11  1  0.080216  0.562149  0.290384  1
  Sc  Sc12  1  0.580216  0.062149  0.209616  1
  Sc  Sc13  1  0.080216  0.937851  0.290384  1
  Sc  Sc14  1  0.413739  0.564209  0.783802  1
  Sc  Sc15  1  0.913739  0.435791  0.716198  1
  Sc  Sc16  1  0.244069  0.940149  0.539831  1
  Sc  Sc17  1  0.744069  0.059851  0.960169  1
  Sc  Sc18  1  0.752148  0.442994  0.471194  1
  Sc  Sc19  1  0.252148  0.557006  0.028806  1
  Sc  Sc20  1  0.752148  0.057006  0.471194  1
  Sc  Sc21  1  0.252148  0.942994  0.028806  1
  Sc  Sc22  1  0.244069  0.559851  0.539831  1
  Sc  Sc23  1  0.744069  0.440149  0.960169  1
  Co  Co24  1  0.630663  0.250000  0.819750  1
  Co  Co25  1  0.130663  0.750000  0.680250  1
  Tc  Tc26  1  0.933130  0.750000  0.442814  1
  Tc  Tc27  1  0.433130  0.250000  0.057186  1
  Tc  Tc28  1  0.072038  0.250000  0.562004  1
  Tc  Tc29  1  0.572038  0.750000  0.937996  1
  Rh  Rh30  1  0.363356  0.750000  0.177540  1
  Rh  Rh31  1  0.863356  0.250000  0.322460  1
