# generated using pymatgen
data_Th7Pa(Si3Ir)4
_symmetry_space_group_name_H-M   'P 1'
_cell_length_a   8.24229900
_cell_length_b   8.24229934
_cell_length_c   8.46724000
_cell_angle_alpha   90.00000000
_cell_angle_beta   90.00000000
_cell_angle_gamma   119.99999463
_symmetry_Int_Tables_number   1
_chemical_formula_structural   Th7Pa(Si3Ir)4
_chemical_formula_sum   'Th7 Pa1 Si12 Ir4'
_cell_volume   498.16048215
_cell_formula_units_Z   1
loop_
 _symmetry_equiv_pos_site_id
 _symmetry_equiv_pos_as_xyz
  1  'x, y, z'
loop_
 _atom_site_type_symbol
 _atom_site_label
 _atom_site_symmetry_multiplicity
 _atom_site_fract_x
 _atom_site_fract_y
 _atom_site_fract_z
 _atom_site_occupancy
  Th  Th0  1  0.499808  0.500192  0.750000  1
  Th  Th1  1  0.500157  0.499843  0.250000  1
  Th  Th2  1  0.000382  0.500192  0.750000  1
  Th  Th3  1  0.999685  0.499843  0.250000  1
  Th  Th4  1  0.499808  0.999618  0.750000  1
  Th  Th5  1  0.500157  0.000315  0.250000  1
  Th  Th6  1  0.000000  0.000000  0.750000  1
  Pa  Pa7  1  0.000000  0.000000  0.250000  1
  Si  Si8  1  0.834592  0.165408  0.002737  1
  Si  Si9  1  0.165383  0.834617  0.003235  1
  Si  Si10  1  0.330815  0.165408  0.002737  1
  Si  Si11  1  0.165383  0.834617  0.496765  1
  Si  Si12  1  0.669232  0.834617  0.003235  1
  Si  Si13  1  0.834592  0.165408  0.497263  1
  Si  Si14  1  0.834592  0.669185  0.002737  1
  Si  Si15  1  0.669232  0.834617  0.496765  1
  Si  Si16  1  0.165383  0.330768  0.003235  1
  Si  Si17  1  0.330815  0.165408  0.497263  1
  Si  Si18  1  0.165383  0.330768  0.496765  1
  Si  Si19  1  0.834592  0.669185  0.497263  1
  Ir  Ir20  1  0.666667  0.333333  0.000657  1
  Ir  Ir21  1  0.333333  0.666667  0.001493  1
  Ir  Ir22  1  0.333333  0.666667  0.498507  1
  Ir  Ir23  1  0.666667  0.333333  0.499343  1
