# generated using pymatgen
data_PuH6Ir
_symmetry_space_group_name_H-M   'P 1'
_cell_length_a   4.70484796
_cell_length_b   4.70484873
_cell_length_c   4.70977214
_cell_angle_alpha   57.65898906
_cell_angle_beta   57.65900320
_cell_angle_gamma   57.64269972
_symmetry_Int_Tables_number   1
_chemical_formula_structural   PuH6Ir
_chemical_formula_sum   'Pu1 H6 Ir1'
_cell_volume   69.74326840
_cell_formula_units_Z   1
loop_
 _symmetry_equiv_pos_site_id
 _symmetry_equiv_pos_as_xyz
  1  'x, y, z'
loop_
 _atom_site_type_symbol
 _atom_site_label
 _atom_site_symmetry_multiplicity
 _atom_site_fract_x
 _atom_site_fract_y
 _atom_site_fract_z
 _atom_site_occupancy
  Pu  Pu0  1  0.500000  0.500000  0.500000  1
  H  H1  1  0.566602  0.098439  0.098626  1
  H  H2  1  0.098439  0.566602  0.098626  1
  H  H3  1  0.901790  0.901790  0.432566  1
  H  H4  1  0.098210  0.098210  0.567433  1
  H  H5  1  0.901561  0.433397  0.901374  1
  H  H6  1  0.433397  0.901561  0.901374  1
  Ir  Ir7  1  0.000000  0.000000  0.000000  1
