# generated using pymatgen
data_ErBi4Mo3F28
_symmetry_space_group_name_H-M   'P 1'
_cell_length_a   5.70740721
_cell_length_b   9.26517834
_cell_length_c   12.42034300
_cell_angle_alpha   62.21545850
_cell_angle_beta   89.84378533
_cell_angle_gamma   89.92163390
_symmetry_Int_Tables_number   1
_chemical_formula_structural   ErBi4Mo3F28
_chemical_formula_sum   'Er1 Bi4 Mo3 F28'
_cell_volume   581.06399912
_cell_formula_units_Z   1
loop_
 _symmetry_equiv_pos_site_id
 _symmetry_equiv_pos_as_xyz
  1  'x, y, z'
loop_
 _atom_site_type_symbol
 _atom_site_label
 _atom_site_symmetry_multiplicity
 _atom_site_fract_x
 _atom_site_fract_y
 _atom_site_fract_z
 _atom_site_occupancy
  Er  Er0  1  0.750581  0.281590  0.950311  1
  Bi  Bi1  1  0.762240  0.816172  0.769765  1
  Bi  Bi2  1  0.253345  0.181627  0.736096  1
  Bi  Bi3  1  0.247024  0.199393  0.224078  1
  Bi  Bi4  1  0.732220  0.826004  0.248441  1
  Mo  Mo5  1  0.257689  0.727546  0.542681  1
  Mo  Mo6  1  0.238376  0.728622  0.041485  1
  Mo  Mo7  1  0.747355  0.273328  0.457778  1
  F  F8  1  0.424365  0.706219  0.916213  1
  F  F9  1  0.950059  0.292608  0.585375  1
  F  F10  1  0.543256  0.291973  0.092072  1
  F  F11  1  0.081073  0.700472  0.422649  1
  F  F12  1  0.452779  0.280125  0.542338  1
  F  F13  1  0.926731  0.732260  0.956393  1
  F  F14  1  0.551814  0.723762  0.463856  1
  F  F15  1  0.070492  0.277981  0.046761  1
  F  F16  1  0.786690  0.538120  0.850729  1
  F  F17  1  0.269108  0.496633  0.632297  1
  F  F18  1  0.213886  0.489549  0.139843  1
  F  F19  1  0.733250  0.512465  0.365792  1
  F  F20  1  0.759742  0.014980  0.059620  1
  F  F21  1  0.261029  0.957869  0.460767  1
  F  F22  1  0.244469  0.968718  0.947545  1
  F  F23  1  0.736908  0.030757  0.555435  1
  F  F24  1  0.969012  0.734006  0.623816  1
  F  F25  1  0.452673  0.277585  0.847759  1
  F  F26  1  0.035005  0.265053  0.372939  1
  F  F27  1  0.534061  0.723047  0.134763  1
  F  F28  1  0.061609  0.747309  0.172748  1
  F  F29  1  0.551909  0.249975  0.328988  1
  F  F30  1  0.955619  0.245167  0.821158  1
  F  F31  1  0.432483  0.742697  0.671207  1
  F  F32  1  0.402371  0.966496  0.233138  1
  F  F33  1  0.916248  0.020162  0.272636  1
  F  F34  1  0.594200  0.025708  0.779442  1
  F  F35  1  0.100324  0.954025  0.733084  1
