# generated using pymatgen
data_Dy3ErReRu7
_symmetry_space_group_name_H-M   'P 1'
_cell_length_a   5.19300047
_cell_length_b   5.44366125
_cell_length_c   8.97970900
_cell_angle_alpha   90.00227051
_cell_angle_beta   89.99819471
_cell_angle_gamma   121.56501939
_symmetry_Int_Tables_number   1
_chemical_formula_structural   Dy3ErReRu7
_chemical_formula_sum   'Dy3 Er1 Re1 Ru7'
_cell_volume   216.28933552
_cell_formula_units_Z   1
loop_
 _symmetry_equiv_pos_site_id
 _symmetry_equiv_pos_as_xyz
  1  'x, y, z'
loop_
 _atom_site_type_symbol
 _atom_site_label
 _atom_site_symmetry_multiplicity
 _atom_site_fract_x
 _atom_site_fract_y
 _atom_site_fract_z
 _atom_site_occupancy
  Dy  Dy0  1  0.331129  0.665644  0.432989  1
  Dy  Dy1  1  0.658247  0.329024  0.564936  1
  Dy  Dy2  1  0.658222  0.329032  0.935197  1
  Er  Er3  1  0.331595  0.665863  0.067016  1
  Re  Re4  1  0.681152  0.840586  0.750322  1
  Ru  Ru5  1  0.977518  0.988792  0.499780  1
  Ru  Ru6  1  0.977203  0.988642  0.000349  1
  Ru  Ru7  1  0.835433  0.168909  0.249589  1
  Ru  Ru8  1  0.834695  0.665758  0.249609  1
  Ru  Ru9  1  0.349619  0.174860  0.249659  1
  Ru  Ru10  1  0.182538  0.830887  0.750277  1
  Ru  Ru11  1  0.182647  0.352003  0.750275  1
