# generated using pymatgen
data_Y16MgCd3Pd3Rh
_symmetry_space_group_name_H-M   'P 1'
_cell_length_a   9.75879266
_cell_length_b   9.75879246
_cell_length_c   9.75879278
_cell_angle_alpha   59.68969341
_cell_angle_beta   59.68969174
_cell_angle_gamma   59.68968923
_symmetry_Int_Tables_number   1
_chemical_formula_structural   Y16MgCd3Pd3Rh
_chemical_formula_sum   'Y16 Mg1 Cd3 Pd3 Rh1'
_cell_volume   652.53086188
_cell_formula_units_Z   1
loop_
 _symmetry_equiv_pos_site_id
 _symmetry_equiv_pos_as_xyz
  1  'x, y, z'
loop_
 _atom_site_type_symbol
 _atom_site_label
 _atom_site_symmetry_multiplicity
 _atom_site_fract_x
 _atom_site_fract_y
 _atom_site_fract_z
 _atom_site_occupancy
  Y  Y0  1  0.353158  0.353158  0.353158  1
  Y  Y1  1  0.350965  0.350965  0.944433  1
  Y  Y2  1  0.350965  0.944433  0.350965  1
  Y  Y3  1  0.944433  0.350965  0.350965  1
  Y  Y4  1  0.813045  0.190299  0.190299  1
  Y  Y5  1  0.188092  0.811569  0.811569  1
  Y  Y6  1  0.190299  0.813045  0.190299  1
  Y  Y7  1  0.811569  0.188092  0.811569  1
  Y  Y8  1  0.190299  0.190299  0.813045  1
  Y  Y9  1  0.811569  0.811569  0.188092  1
  Y  Y10  1  0.935205  0.566420  0.566420  1
  Y  Y11  1  0.563934  0.935477  0.935477  1
  Y  Y12  1  0.566420  0.935205  0.566420  1
  Y  Y13  1  0.935477  0.563934  0.935477  1
  Y  Y14  1  0.566420  0.566420  0.935205  1
  Y  Y15  1  0.935477  0.935477  0.563934  1
  Mg  Mg16  1  0.576495  0.576495  0.576495  1
  Cd  Cd17  1  0.581517  0.581517  0.253245  1
  Cd  Cd18  1  0.581517  0.253245  0.581517  1
  Cd  Cd19  1  0.253245  0.581517  0.581517  1
  Pd  Pd20  1  0.143990  0.143990  0.568317  1
  Pd  Pd21  1  0.143990  0.568317  0.143990  1
  Pd  Pd22  1  0.568317  0.143990  0.143990  1
  Rh  Rh23  1  0.143607  0.143607  0.143607  1
