# generated using pymatgen
data_RuO2F
_symmetry_space_group_name_H-M   'P 1'
_cell_length_a   5.06377739
_cell_length_b   5.06377744
_cell_length_c   5.29981425
_cell_angle_alpha   61.50394431
_cell_angle_beta   61.50393972
_cell_angle_gamma   61.98795105
_symmetry_Int_Tables_number   1
_chemical_formula_structural   RuO2F
_chemical_formula_sum   'Ru2 O4 F2'
_cell_volume   99.67707987
_cell_formula_units_Z   2
loop_
 _symmetry_equiv_pos_site_id
 _symmetry_equiv_pos_as_xyz
  1  'x, y, z'
loop_
 _atom_site_type_symbol
 _atom_site_label
 _atom_site_symmetry_multiplicity
 _atom_site_fract_x
 _atom_site_fract_y
 _atom_site_fract_z
 _atom_site_occupancy
  Ru  Ru0  1  0.751248  0.192863  0.847731  1
  Ru  Ru1  1  0.192863  0.751248  0.347731  1
  O  O2  1  0.877143  0.552153  0.596772  1
  O  O3  1  0.098541  0.950045  0.614068  1
  O  O4  1  0.552153  0.877143  0.096772  1
  O  O5  1  0.950045  0.098541  0.114068  1
  F  F6  1  0.482845  0.337592  0.577782  1
  F  F7  1  0.337592  0.482845  0.077782  1
