# generated using pymatgen
data_Y2Ti3Sn4
_symmetry_space_group_name_H-M   'P 1'
_cell_length_a   7.54011200
_cell_length_b   7.60155800
_cell_length_c   14.29155500
_cell_angle_alpha   90.00000000
_cell_angle_beta   90.00000000
_cell_angle_gamma   90.00000000
_symmetry_Int_Tables_number   1
_chemical_formula_structural   Y2Ti3Sn4
_chemical_formula_sum   'Y8 Ti12 Sn16'
_cell_volume   819.14332266
_cell_formula_units_Z   4
loop_
 _symmetry_equiv_pos_site_id
 _symmetry_equiv_pos_as_xyz
  1  'x, y, z'
loop_
 _atom_site_type_symbol
 _atom_site_label
 _atom_site_symmetry_multiplicity
 _atom_site_fract_x
 _atom_site_fract_y
 _atom_site_fract_z
 _atom_site_occupancy
  Y  Y0  1  0.516051  0.326447  0.906991  1
  Y  Y1  1  0.016051  0.173553  0.593009  1
  Y  Y2  1  0.483949  0.673553  0.406991  1
  Y  Y3  1  0.983949  0.826447  0.093009  1
  Y  Y4  1  0.483949  0.673553  0.093009  1
  Y  Y5  1  0.983949  0.826447  0.406991  1
  Y  Y6  1  0.516051  0.326447  0.593009  1
  Y  Y7  1  0.016051  0.173553  0.906991  1
  Ti  Ti8  1  0.349992  0.839137  0.871116  1
  Ti  Ti9  1  0.849992  0.660863  0.628884  1
  Ti  Ti10  1  0.650008  0.160863  0.371116  1
  Ti  Ti11  1  0.150008  0.339137  0.128884  1
  Ti  Ti12  1  0.650008  0.160863  0.128884  1
  Ti  Ti13  1  0.150008  0.339137  0.371116  1
  Ti  Ti14  1  0.349992  0.839137  0.628884  1
  Ti  Ti15  1  0.849992  0.660863  0.871116  1
  Ti  Ti16  1  0.173934  0.512974  0.750000  1
  Ti  Ti17  1  0.673934  0.987026  0.750000  1
  Ti  Ti18  1  0.826066  0.487026  0.250000  1
  Ti  Ti19  1  0.326066  0.012974  0.250000  1
  Sn  Sn20  1  0.316203  0.046539  0.044699  1
  Sn  Sn21  1  0.816203  0.453461  0.455301  1
  Sn  Sn22  1  0.683797  0.953461  0.544699  1
  Sn  Sn23  1  0.183797  0.546539  0.955301  1
  Sn  Sn24  1  0.683797  0.953461  0.955301  1
  Sn  Sn25  1  0.183797  0.546539  0.544699  1
  Sn  Sn26  1  0.316203  0.046539  0.455301  1
  Sn  Sn27  1  0.816203  0.453461  0.044699  1
  Sn  Sn28  1  0.543411  0.629458  0.750000  1
  Sn  Sn29  1  0.043411  0.870542  0.750000  1
  Sn  Sn30  1  0.456589  0.370542  0.250000  1
  Sn  Sn31  1  0.956589  0.129458  0.250000  1
  Sn  Sn32  1  0.322192  0.147911  0.750000  1
  Sn  Sn33  1  0.822192  0.352089  0.750000  1
  Sn  Sn34  1  0.677808  0.852089  0.250000  1
  Sn  Sn35  1  0.177808  0.647911  0.250000  1
