# generated using pymatgen
data_Er8Th4Tc3Ru
_symmetry_space_group_name_H-M   'P 1'
_cell_length_a   6.32892318
_cell_length_b   7.28175215
_cell_length_c   9.45923300
_cell_angle_alpha   90.00000000
_cell_angle_beta   90.00000000
_cell_angle_gamma   89.97479919
_symmetry_Int_Tables_number   1
_chemical_formula_structural   Er8Th4Tc3Ru
_chemical_formula_sum   'Er8 Th4 Tc3 Ru1'
_cell_volume   435.93485875
_cell_formula_units_Z   1
loop_
 _symmetry_equiv_pos_site_id
 _symmetry_equiv_pos_as_xyz
  1  'x, y, z'
loop_
 _atom_site_type_symbol
 _atom_site_label
 _atom_site_symmetry_multiplicity
 _atom_site_fract_x
 _atom_site_fract_y
 _atom_site_fract_z
 _atom_site_occupancy
  Er  Er0  1  0.331700  0.675034  0.067052  1
  Er  Er1  1  0.165896  0.175368  0.433873  1
  Er  Er2  1  0.664846  0.325645  0.566194  1
  Er  Er3  1  0.834898  0.824618  0.934016  1
  Er  Er4  1  0.664846  0.325645  0.933806  1
  Er  Er5  1  0.834898  0.824618  0.565984  1
  Er  Er6  1  0.331700  0.675034  0.432948  1
  Er  Er7  1  0.165896  0.175368  0.066127  1
  Th  Th8  1  0.858290  0.547917  0.250000  1
  Th  Th9  1  0.639125  0.047083  0.250000  1
  Th  Th10  1  0.143825  0.451239  0.750000  1
  Th  Th11  1  0.356143  0.951842  0.750000  1
  Tc  Tc12  1  0.020897  0.870095  0.250000  1
  Tc  Tc13  1  0.478915  0.370608  0.250000  1
  Tc  Tc14  1  0.977288  0.130406  0.750000  1
  Ru  Ru15  1  0.530837  0.629478  0.750000  1
