# generated using pymatgen
data_TbSb3Pb4O13
_symmetry_space_group_name_H-M   'P 1'
_cell_length_a   7.69596421
_cell_length_b   7.69596337
_cell_length_c   7.69596277
_cell_angle_alpha   59.61062216
_cell_angle_beta   59.61062267
_cell_angle_gamma   59.61063205
_symmetry_Int_Tables_number   1
_chemical_formula_structural   TbSb3Pb4O13
_chemical_formula_sum   'Tb1 Sb3 Pb4 O13'
_cell_volume   319.45788848
_cell_formula_units_Z   1
loop_
 _symmetry_equiv_pos_site_id
 _symmetry_equiv_pos_as_xyz
  1  'x, y, z'
loop_
 _atom_site_type_symbol
 _atom_site_label
 _atom_site_symmetry_multiplicity
 _atom_site_fract_x
 _atom_site_fract_y
 _atom_site_fract_z
 _atom_site_occupancy
  Tb  Tb0  1  0.500009  0.500009  0.500009  1
  Sb  Sb1  1  0.001052  0.499952  0.499952  1
  Sb  Sb2  1  0.499952  0.499952  0.001052  1
  Sb  Sb3  1  0.499952  0.001052  0.499952  1
  Pb  Pb4  1  0.998943  0.998943  0.998943  1
  Pb  Pb5  1  0.497742  0.002879  0.002879  1
  Pb  Pb6  1  0.002879  0.002879  0.497742  1
  Pb  Pb7  1  0.002879  0.497742  0.002879  1
  O  O8  1  0.857125  0.415745  0.415745  1
  O  O9  1  0.418516  0.814946  0.814946  1
  O  O10  1  0.415745  0.415745  0.857125  1
  O  O11  1  0.814946  0.814946  0.418516  1
  O  O12  1  0.814946  0.418516  0.814946  1
  O  O13  1  0.415745  0.857125  0.415745  1
  O  O14  1  0.148274  0.580964  0.580964  1
  O  O15  1  0.581267  0.185811  0.185811  1
  O  O16  1  0.580964  0.580964  0.148274  1
  O  O17  1  0.185811  0.185811  0.581267  1
  O  O18  1  0.185811  0.581267  0.185811  1
  O  O19  1  0.580964  0.148274  0.580964  1
  O  O20  1  0.121477  0.121477  0.121477  1
