# generated using pymatgen
data_SrCdSnS4
_symmetry_space_group_name_H-M   'P 1'
_cell_length_a   6.27841149
_cell_length_b   6.27841157
_cell_length_c   10.61644900
_cell_angle_alpha   90.00000000
_cell_angle_beta   90.00000000
_cell_angle_gamma   115.83536734
_symmetry_Int_Tables_number   1
_chemical_formula_structural   SrCdSnS4
_chemical_formula_sum   'Sr2 Cd2 Sn2 S8'
_cell_volume   376.65648084
_cell_formula_units_Z   2
loop_
 _symmetry_equiv_pos_site_id
 _symmetry_equiv_pos_as_xyz
  1  'x, y, z'
loop_
 _atom_site_type_symbol
 _atom_site_label
 _atom_site_symmetry_multiplicity
 _atom_site_fract_x
 _atom_site_fract_y
 _atom_site_fract_z
 _atom_site_occupancy
  Sr  Sr0  1  0.954227  0.954227  0.500000  1
  Sr  Sr1  1  0.954227  0.954227  0.000000  1
  Cd  Cd2  1  0.672516  0.336584  0.750000  1
  Cd  Cd3  1  0.336584  0.672516  0.250000  1
  Sn  Sn4  1  0.249009  0.672673  0.750000  1
  Sn  Sn5  1  0.672673  0.249009  0.250000  1
  S  S6  1  0.996365  0.464151  0.573694  1
  S  S7  1  0.464151  0.996365  0.426306  1
  S  S8  1  0.658792  0.759117  0.750000  1
  S  S9  1  0.759117  0.658792  0.250000  1
  S  S10  1  0.996365  0.464151  0.926306  1
  S  S11  1  0.464151  0.996365  0.073694  1
  S  S12  1  0.242393  0.060231  0.750000  1
  S  S13  1  0.060231  0.242393  0.250000  1
