# generated using pymatgen
data_ZrNbP7Ru12
_symmetry_space_group_name_H-M   'P 1'
_cell_length_a   9.36110400
_cell_length_b   9.36110275
_cell_length_c   3.88447900
_cell_angle_alpha   90.00000000
_cell_angle_beta   90.00000000
_cell_angle_gamma   120.00000349
_symmetry_Int_Tables_number   1
_chemical_formula_structural   ZrNbP7Ru12
_chemical_formula_sum   'Zr1 Nb1 P7 Ru12'
_cell_volume   294.79321027
_cell_formula_units_Z   1
loop_
 _symmetry_equiv_pos_site_id
 _symmetry_equiv_pos_as_xyz
  1  'x, y, z'
loop_
 _atom_site_type_symbol
 _atom_site_label
 _atom_site_symmetry_multiplicity
 _atom_site_fract_x
 _atom_site_fract_y
 _atom_site_fract_z
 _atom_site_occupancy
  Zr  Zr0  1  0.333333  0.666667  0.000000  1
  Nb  Nb1  1  0.666667  0.333333  0.500000  1
  P  P2  1  0.594973  0.718925  0.500000  1
  P  P3  1  0.000000  0.000000  0.000000  1
  P  P4  1  0.281075  0.876048  0.500000  1
  P  P5  1  0.123952  0.405027  0.500000  1
  P  P6  1  0.885096  0.577078  0.000000  1
  P  P7  1  0.422922  0.308018  0.000000  1
  P  P8  1  0.691982  0.114904  0.000000  1
  Ru  Ru9  1  0.553221  0.948246  0.500000  1
  Ru  Ru10  1  0.395025  0.446779  0.500000  1
  Ru  Ru11  1  0.910864  0.127213  0.500000  1
  Ru  Ru12  1  0.216349  0.089136  0.500000  1
  Ru  Ru13  1  0.872787  0.783651  0.500000  1
  Ru  Ru14  1  0.724223  0.886282  0.000000  1
  Ru  Ru15  1  0.113718  0.837940  0.000000  1
  Ru  Ru16  1  0.162060  0.275777  0.000000  1
  Ru  Ru17  1  0.434936  0.076812  0.000000  1
  Ru  Ru18  1  0.923188  0.358125  0.000000  1
  Ru  Ru19  1  0.641875  0.565064  0.000000  1
  Ru  Ru20  1  0.051754  0.604975  0.500000  1
