# generated using pymatgen
data_Tb2Al2PdRh
_symmetry_space_group_name_H-M   'P 1'
_cell_length_a   4.37408600
_cell_length_b   6.89575907
_cell_length_c   7.87324311
_cell_angle_alpha   90.01740893
_cell_angle_beta   90.00000000
_cell_angle_gamma   90.00000000
_symmetry_Int_Tables_number   1
_chemical_formula_structural   Tb2Al2PdRh
_chemical_formula_sum   'Tb4 Al4 Pd2 Rh2'
_cell_volume   237.47781165
_cell_formula_units_Z   2
loop_
 _symmetry_equiv_pos_site_id
 _symmetry_equiv_pos_as_xyz
  1  'x, y, z'
loop_
 _atom_site_type_symbol
 _atom_site_label
 _atom_site_symmetry_multiplicity
 _atom_site_fract_x
 _atom_site_fract_y
 _atom_site_fract_z
 _atom_site_occupancy
  Tb  Tb0  1  0.250000  0.535767  0.816465  1
  Tb  Tb1  1  0.750000  0.464233  0.183535  1
  Tb  Tb2  1  0.250000  0.030350  0.677735  1
  Tb  Tb3  1  0.750000  0.969650  0.322265  1
  Al  Al4  1  0.250000  0.637464  0.438607  1
  Al  Al5  1  0.750000  0.362536  0.561393  1
  Al  Al6  1  0.250000  0.144464  0.064455  1
  Al  Al7  1  0.750000  0.855536  0.935545  1
  Pd  Pd8  1  0.750000  0.227022  0.881751  1
  Pd  Pd9  1  0.250000  0.772978  0.118249  1
  Rh  Rh10  1  0.750000  0.732951  0.616506  1
  Rh  Rh11  1  0.250000  0.267049  0.383494  1
