# generated using pymatgen
data_Sr2ZnGa5Pt2
_symmetry_space_group_name_H-M   'P 1'
_cell_length_a   6.15458200
_cell_length_b   6.15458150
_cell_length_c   6.11458900
_cell_angle_alpha   90.00000000
_cell_angle_beta   90.00000000
_cell_angle_gamma   117.42042736
_symmetry_Int_Tables_number   1
_chemical_formula_structural   Sr2ZnGa5Pt2
_chemical_formula_sum   'Sr2 Zn1 Ga5 Pt2'
_cell_volume   205.59224652
_cell_formula_units_Z   1
loop_
 _symmetry_equiv_pos_site_id
 _symmetry_equiv_pos_as_xyz
  1  'x, y, z'
loop_
 _atom_site_type_symbol
 _atom_site_label
 _atom_site_symmetry_multiplicity
 _atom_site_fract_x
 _atom_site_fract_y
 _atom_site_fract_z
 _atom_site_occupancy
  Sr  Sr0  1  0.239235  0.760765  0.750000  1
  Sr  Sr1  1  0.761771  0.238229  0.250000  1
  Zn  Zn2  1  0.654283  0.345717  0.750000  1
  Ga  Ga3  1  0.342431  0.657569  0.250000  1
  Ga  Ga4  1  0.726324  0.727406  0.005130  1
  Ga  Ga5  1  0.726324  0.727406  0.494870  1
  Ga  Ga6  1  0.272594  0.273676  0.005130  1
  Ga  Ga7  1  0.272594  0.273676  0.494870  1
  Pt  Pt8  1  0.897644  0.102356  0.750000  1
  Pt  Pt9  1  0.106800  0.893200  0.250000  1
