# generated using pymatgen
data_Cs3K9(GaS3)4
_symmetry_space_group_name_H-M   'P 1'
_cell_length_a   13.19345913
_cell_length_b   7.91061245
_cell_length_c   10.10137083
_cell_angle_alpha   53.04804827
_cell_angle_beta   89.54669968
_cell_angle_gamma   89.42264919
_symmetry_Int_Tables_number   1
_chemical_formula_structural   Cs3K9(GaS3)4
_chemical_formula_sum   'Cs3 K9 Ga4 S12'
_cell_volume   842.45886040
_cell_formula_units_Z   1
loop_
 _symmetry_equiv_pos_site_id
 _symmetry_equiv_pos_as_xyz
  1  'x, y, z'
loop_
 _atom_site_type_symbol
 _atom_site_label
 _atom_site_symmetry_multiplicity
 _atom_site_fract_x
 _atom_site_fract_y
 _atom_site_fract_z
 _atom_site_occupancy
  Cs  Cs0  1  0.313666  0.176729  0.054130  1
  Cs  Cs1  1  0.683698  0.828088  0.945033  1
  Cs  Cs2  1  0.817151  0.828935  0.447343  1
  K  K3  1  0.899358  0.319673  0.398653  1
  K  K4  1  0.614833  0.371226  0.473568  1
  K  K5  1  0.116587  0.627123  0.026362  1
  K  K6  1  0.382254  0.631481  0.526995  1
  K  K7  1  0.887600  0.368586  0.973873  1
  K  K8  1  0.606765  0.316600  0.900118  1
  K  K9  1  0.107285  0.680975  0.601281  1
  K  K10  1  0.391485  0.685789  0.099271  1
  K  K11  1  0.185977  0.169037  0.562051  1
  Ga  Ga12  1  0.066727  0.942518  0.158933  1
  Ga  Ga13  1  0.561747  0.049282  0.343317  1
  Ga  Ga14  1  0.431605  0.959383  0.654384  1
  Ga  Ga15  1  0.938468  0.047643  0.841580  1
  S  S16  1  0.409030  0.189834  0.364237  1
  S  S17  1  0.912864  0.818225  0.132596  1
  S  S18  1  0.583541  0.816043  0.634924  1
  S  S19  1  0.092986  0.172985  0.864897  1
  S  S20  1  0.685101  0.300084  0.210631  1
  S  S21  1  0.185067  0.677154  0.299317  1
  S  S22  1  0.305038  0.716775  0.782284  1
  S  S23  1  0.815200  0.301240  0.710288  1
  S  S24  1  0.546667  0.862761  0.240499  1
  S  S25  1  0.053570  0.135258  0.257713  1
  S  S26  1  0.450079  0.142851  0.759099  1
  S  S27  1  0.955646  0.863724  0.736623  1
