# generated using pymatgen
data_Tb20GaBi8Te3
_symmetry_space_group_name_H-M   'P 1'
_cell_length_a   8.19697874
_cell_length_b   9.45807500
_cell_length_c   12.05760188
_cell_angle_alpha   90.00000000
_cell_angle_beta   90.38574883
_cell_angle_gamma   90.00000000
_symmetry_Int_Tables_number   1
_chemical_formula_structural   Tb20GaBi8Te3
_chemical_formula_sum   'Tb20 Ga1 Bi8 Te3'
_cell_volume   934.77622839
_cell_formula_units_Z   1
loop_
 _symmetry_equiv_pos_site_id
 _symmetry_equiv_pos_as_xyz
  1  'x, y, z'
loop_
 _atom_site_type_symbol
 _atom_site_label
 _atom_site_symmetry_multiplicity
 _atom_site_fract_x
 _atom_site_fract_y
 _atom_site_fract_z
 _atom_site_occupancy
  Tb  Tb0  1  0.353004  0.750000  0.206647  1
  Tb  Tb1  1  0.853330  0.750000  0.286166  1
  Tb  Tb2  1  0.648829  0.250000  0.786130  1
  Tb  Tb3  1  0.147073  0.250000  0.715153  1
  Tb  Tb4  1  0.683331  0.566870  0.054324  1
  Tb  Tb5  1  0.191171  0.937998  0.441137  1
  Tb  Tb6  1  0.311401  0.051937  0.940860  1
  Tb  Tb7  1  0.810473  0.437822  0.558774  1
  Tb  Tb8  1  0.311401  0.448063  0.940860  1
  Tb  Tb9  1  0.810473  0.062178  0.558774  1
  Tb  Tb10  1  0.683331  0.933130  0.054324  1
  Tb  Tb11  1  0.191171  0.562002  0.441137  1
  Tb  Tb12  1  0.474349  0.250000  0.487424  1
  Tb  Tb13  1  0.978655  0.250000  0.010672  1
  Tb  Tb14  1  0.525818  0.750000  0.511841  1
  Tb  Tb15  1  0.033951  0.750000  0.991094  1
  Tb  Tb16  1  0.322667  0.250000  0.216894  1
  Tb  Tb17  1  0.820765  0.250000  0.282656  1
  Tb  Tb18  1  0.666039  0.750000  0.789060  1
  Tb  Tb19  1  0.182212  0.750000  0.720241  1
  Ga  Ga20  1  0.406676  0.750000  0.962151  1
  Bi  Bi21  1  0.568935  0.995933  0.325246  1
  Bi  Bi22  1  0.066796  0.502494  0.176104  1
  Bi  Bi23  1  0.432387  0.495585  0.673885  1
  Bi  Bi24  1  0.931685  0.001790  0.825493  1
  Bi  Bi25  1  0.432387  0.004415  0.673885  1
  Bi  Bi26  1  0.931685  0.498210  0.825493  1
  Bi  Bi27  1  0.568935  0.504067  0.325246  1
  Bi  Bi28  1  0.066796  0.997506  0.176104  1
  Te  Te29  1  0.909584  0.750000  0.540958  1
  Te  Te30  1  0.593474  0.250000  0.040562  1
  Te  Te31  1  0.091214  0.250000  0.460704  1
