# generated using pymatgen
data_Sr2ZnAgSn4
_symmetry_space_group_name_H-M   'P 1'
_cell_length_a   10.27542800
_cell_length_b   10.27542855
_cell_length_c   4.72332200
_cell_angle_alpha   90.00000000
_cell_angle_beta   90.00000000
_cell_angle_gamma   152.76434775
_symmetry_Int_Tables_number   1
_chemical_formula_structural   Sr2ZnAgSn4
_chemical_formula_sum   'Sr2 Zn1 Ag1 Sn4'
_cell_volume   228.23492216
_cell_formula_units_Z   1
loop_
 _symmetry_equiv_pos_site_id
 _symmetry_equiv_pos_as_xyz
  1  'x, y, z'
loop_
 _atom_site_type_symbol
 _atom_site_label
 _atom_site_symmetry_multiplicity
 _atom_site_fract_x
 _atom_site_fract_y
 _atom_site_fract_z
 _atom_site_occupancy
  Sr  Sr0  1  0.396939  0.603061  0.250000  1
  Sr  Sr1  1  0.603770  0.396230  0.750000  1
  Zn  Zn2  1  0.172904  0.827096  0.250000  1
  Ag  Ag3  1  0.827405  0.172595  0.750000  1
  Sn  Sn4  1  0.746885  0.253115  0.250000  1
  Sn  Sn5  1  0.041486  0.958514  0.250000  1
  Sn  Sn6  1  0.248007  0.751993  0.750000  1
  Sn  Sn7  1  0.962602  0.037398  0.750000  1
