# generated using pymatgen
data_Sc4Re2B8MoRu7
_symmetry_space_group_name_H-M   'P 1'
_cell_length_a   3.03942100
_cell_length_b   8.57893571
_cell_length_c   10.03694416
_cell_angle_alpha   89.99802569
_cell_angle_beta   90.00000000
_cell_angle_gamma   90.00000000
_symmetry_Int_Tables_number   1
_chemical_formula_structural   Sc4Re2B8MoRu7
_chemical_formula_sum   'Sc4 Re2 B8 Mo1 Ru7'
_cell_volume   261.71329216
_cell_formula_units_Z   1
loop_
 _symmetry_equiv_pos_site_id
 _symmetry_equiv_pos_as_xyz
  1  'x, y, z'
loop_
 _atom_site_type_symbol
 _atom_site_label
 _atom_site_symmetry_multiplicity
 _atom_site_fract_x
 _atom_site_fract_y
 _atom_site_fract_z
 _atom_site_occupancy
  Sc  Sc0  1  0.500000  0.840991  0.180441  1
  Sc  Sc1  1  0.500000  0.157289  0.820003  1
  Sc  Sc2  1  0.500000  0.657284  0.681507  1
  Sc  Sc3  1  0.500000  0.341274  0.316646  1
  Re  Re4  1  0.000000  0.660121  0.952584  1
  Re  Re5  1  0.000000  0.339135  0.046370  1
  B  B6  1  0.500000  0.966972  0.589130  1
  B  B7  1  0.500000  0.037375  0.412508  1
  B  B8  1  0.500000  0.849376  0.901732  1
  B  B9  1  0.500000  0.152844  0.098911  1
  B  B10  1  0.500000  0.648566  0.399533  1
  B  B11  1  0.500000  0.351206  0.599630  1
  B  B12  1  0.500000  0.464483  0.911463  1
  B  B13  1  0.500000  0.535596  0.087811  1
  Mo  Mo14  1  0.000000  0.841120  0.453537  1
  Ru  Ru15  1  0.000000  0.162944  0.549025  1
  Ru  Ru16  1  0.000000  0.000039  0.000559  1
  Ru  Ru17  1  0.000000  0.403137  0.759988  1
  Ru  Ru18  1  0.000000  0.593898  0.238662  1
  Ru  Ru19  1  0.000000  0.497189  0.499515  1
  Ru  Ru20  1  0.000000  0.904291  0.739041  1
  Ru  Ru21  1  0.000000  0.094869  0.261402  1
