# generated using pymatgen
data_PrPa3(CoGe)4
_symmetry_space_group_name_H-M   'P 1'
_cell_length_a   4.28069800
_cell_length_b   6.94122483
_cell_length_c   7.50331781
_cell_angle_alpha   93.38410607
_cell_angle_beta   90.00000000
_cell_angle_gamma   90.00000000
_symmetry_Int_Tables_number   1
_chemical_formula_structural   PrPa3(CoGe)4
_chemical_formula_sum   'Pr1 Pa3 Co4 Ge4'
_cell_volume   222.55946950
_cell_formula_units_Z   1
loop_
 _symmetry_equiv_pos_site_id
 _symmetry_equiv_pos_as_xyz
  1  'x, y, z'
loop_
 _atom_site_type_symbol
 _atom_site_label
 _atom_site_symmetry_multiplicity
 _atom_site_fract_x
 _atom_site_fract_y
 _atom_site_fract_z
 _atom_site_occupancy
  Pr  Pr0  1  0.250000  0.775449  0.480512  1
  Pa  Pa1  1  0.250000  0.696888  0.992512  1
  Pa  Pa2  1  0.750000  0.300038  0.009465  1
  Pa  Pa3  1  0.750000  0.242130  0.524581  1
  Co  Co4  1  0.250000  0.038437  0.113232  1
  Co  Co5  1  0.750000  0.959377  0.875022  1
  Co  Co6  1  0.750000  0.545257  0.235830  1
  Co  Co7  1  0.250000  0.443209  0.758609  1
  Ge  Ge8  1  0.250000  0.378749  0.293459  1
  Ge  Ge9  1  0.750000  0.617004  0.718078  1
  Ge  Ge10  1  0.750000  0.912171  0.220674  1
  Ge  Ge11  1  0.250000  0.091294  0.778024  1
