# generated using pymatgen
data_NdPa(PRh)2
_symmetry_space_group_name_H-M   'P 1'
_cell_length_a   4.16280700
_cell_length_b   4.16280695
_cell_length_c   15.29592200
_cell_angle_alpha   90.00000000
_cell_angle_beta   90.00000000
_cell_angle_gamma   119.99996066
_symmetry_Int_Tables_number   1
_chemical_formula_structural   NdPa(PRh)2
_chemical_formula_sum   'Nd2 Pa2 P4 Rh4'
_cell_volume   229.55090613
_cell_formula_units_Z   2
loop_
 _symmetry_equiv_pos_site_id
 _symmetry_equiv_pos_as_xyz
  1  'x, y, z'
loop_
 _atom_site_type_symbol
 _atom_site_label
 _atom_site_symmetry_multiplicity
 _atom_site_fract_x
 _atom_site_fract_y
 _atom_site_fract_z
 _atom_site_occupancy
  Nd  Nd0  1  0.000000  0.000000  0.500000  1
  Nd  Nd1  1  0.000000  0.000000  0.000000  1
  Pa  Pa2  1  0.000000  0.000000  0.250000  1
  Pa  Pa3  1  0.000000  0.000000  0.750000  1
  P  P4  1  0.333333  0.666667  0.877031  1
  P  P5  1  0.666667  0.333333  0.122969  1
  P  P6  1  0.666667  0.333333  0.377031  1
  P  P7  1  0.333333  0.666667  0.622969  1
  Rh  Rh8  1  0.333333  0.666667  0.357262  1
  Rh  Rh9  1  0.666667  0.333333  0.642738  1
  Rh  Rh10  1  0.666667  0.333333  0.857262  1
  Rh  Rh11  1  0.333333  0.666667  0.142738  1
