# generated using pymatgen
data_RbLi(NdS2)2
_symmetry_space_group_name_H-M   'P 1'
_cell_length_a   4.19071200
_cell_length_b   7.33559712
_cell_length_c   14.33075000
_cell_angle_alpha   90.00000000
_cell_angle_beta   90.00000000
_cell_angle_gamma   73.40275288
_symmetry_Int_Tables_number   1
_chemical_formula_structural   RbLi(NdS2)2
_chemical_formula_sum   'Rb2 Li2 Nd4 S8'
_cell_volume   422.19214160
_cell_formula_units_Z   2
loop_
 _symmetry_equiv_pos_site_id
 _symmetry_equiv_pos_as_xyz
  1  'x, y, z'
loop_
 _atom_site_type_symbol
 _atom_site_label
 _atom_site_symmetry_multiplicity
 _atom_site_fract_x
 _atom_site_fract_y
 _atom_site_fract_z
 _atom_site_occupancy
  Rb  Rb0  1  0.893543  0.212914  0.250000  1
  Rb  Rb1  1  0.106456  0.787087  0.750000  1
  Li  Li2  1  0.166322  0.667354  0.250000  1
  Li  Li3  1  0.833677  0.332647  0.750000  1
  Nd  Nd4  1  0.633698  0.732604  0.059543  1
  Nd  Nd5  1  0.633698  0.732604  0.440457  1
  Nd  Nd6  1  0.366301  0.267397  0.559543  1
  Nd  Nd7  1  0.366301  0.267397  0.940457  1
  S  S8  1  0.000000  0.000000  0.000000  1
  S  S9  1  0.258016  0.483966  0.107874  1
  S  S10  1  0.580817  0.838366  0.250000  1
  S  S11  1  0.258016  0.483966  0.392126  1
  S  S12  1  0.000000  0.000000  0.500000  1
  S  S13  1  0.741983  0.516035  0.607874  1
  S  S14  1  0.419182  0.161634  0.750000  1
  S  S15  1  0.741983  0.516035  0.892126  1
