# generated using pymatgen
data_Lu8Co(B8W)3
_symmetry_space_group_name_H-M   'P 1'
_cell_length_a   3.52631100
_cell_length_b   9.16528677
_cell_length_c   11.54069431
_cell_angle_alpha   90.22547367
_cell_angle_beta   90.00000000
_cell_angle_gamma   90.00000000
_symmetry_Int_Tables_number   1
_chemical_formula_structural   Lu8Co(B8W)3
_chemical_formula_sum   'Lu8 Co1 B24 W3'
_cell_volume   372.98833053
_cell_formula_units_Z   1
loop_
 _symmetry_equiv_pos_site_id
 _symmetry_equiv_pos_as_xyz
  1  'x, y, z'
loop_
 _atom_site_type_symbol
 _atom_site_label
 _atom_site_symmetry_multiplicity
 _atom_site_fract_x
 _atom_site_fract_y
 _atom_site_fract_z
 _atom_site_occupancy
  Lu  Lu0  1  0.000000  0.820321  0.086836  1
  Lu  Lu1  1  0.000000  0.177694  0.915275  1
  Lu  Lu2  1  0.000000  0.320991  0.414466  1
  Lu  Lu3  1  0.000000  0.679299  0.586271  1
  Lu  Lu4  1  0.000000  0.443858  0.126341  1
  Lu  Lu5  1  0.000000  0.552725  0.867923  1
  Lu  Lu6  1  0.000000  0.946177  0.373960  1
  Lu  Lu7  1  0.000000  0.061913  0.629620  1
  Co  Co8  1  0.000000  0.361014  0.679648  1
  B  B9  1  0.500000  0.050130  0.064383  1
  B  B10  1  0.500000  0.948077  0.935137  1
  B  B11  1  0.500000  0.549796  0.438262  1
  B  B12  1  0.500000  0.444524  0.568260  1
  B  B13  1  0.500000  0.251497  0.076274  1
  B  B14  1  0.500000  0.745544  0.920995  1
  B  B15  1  0.500000  0.753968  0.424168  1
  B  B16  1  0.500000  0.253553  0.582661  1
  B  B17  1  0.500000  0.296153  0.236465  1
  B  B18  1  0.500000  0.701844  0.760509  1
  B  B19  1  0.500000  0.795652  0.264009  1
  B  B20  1  0.500000  0.210710  0.735199  1
  B  B21  1  0.500000  0.132829  0.318959  1
  B  B22  1  0.500000  0.869510  0.680521  1
  B  B23  1  0.500000  0.630448  0.182203  1
  B  B24  1  0.500000  0.367662  0.814115  1
  B  B25  1  0.500000  0.476824  0.287659  1
  B  B26  1  0.500000  0.513241  0.710135  1
  B  B27  1  0.500000  0.977306  0.213699  1
  B  B28  1  0.500000  0.024374  0.787625  1
  B  B29  1  0.500000  0.105999  0.473968  1
  B  B30  1  0.500000  0.901997  0.528943  1
  B  B31  1  0.500000  0.599902  0.026262  1
  B  B32  1  0.500000  0.396713  0.968768  1
  W  W33  1  0.000000  0.139078  0.179757  1
  W  W34  1  0.000000  0.860083  0.818509  1
  W  W35  1  0.000000  0.638594  0.322215  1
