# generated using pymatgen
data_Y4HgIr
_symmetry_space_group_name_H-M   'P 1'
_cell_length_a   9.63831556
_cell_length_b   9.63831509
_cell_length_c   9.63831500
_cell_angle_alpha   59.99999686
_cell_angle_beta   59.99999850
_cell_angle_gamma   59.99999736
_symmetry_Int_Tables_number   1
_chemical_formula_structural   Y4HgIr
_chemical_formula_sum   'Y16 Hg4 Ir4'
_cell_volume   633.12338515
_cell_formula_units_Z   4
loop_
 _symmetry_equiv_pos_site_id
 _symmetry_equiv_pos_as_xyz
  1  'x, y, z'
loop_
 _atom_site_type_symbol
 _atom_site_label
 _atom_site_symmetry_multiplicity
 _atom_site_fract_x
 _atom_site_fract_y
 _atom_site_fract_z
 _atom_site_occupancy
  Y  Y0  1  0.350872  0.350872  0.350872  1
  Y  Y1  1  0.350872  0.350872  0.947384  1
  Y  Y2  1  0.350872  0.947384  0.350872  1
  Y  Y3  1  0.947384  0.350872  0.350872  1
  Y  Y4  1  0.809226  0.190774  0.190774  1
  Y  Y5  1  0.190774  0.809226  0.809226  1
  Y  Y6  1  0.190774  0.809226  0.190774  1
  Y  Y7  1  0.809226  0.190774  0.809226  1
  Y  Y8  1  0.190774  0.190774  0.809226  1
  Y  Y9  1  0.809226  0.809226  0.190774  1
  Y  Y10  1  0.938718  0.561282  0.561282  1
  Y  Y11  1  0.561282  0.938718  0.938718  1
  Y  Y12  1  0.561282  0.938718  0.561282  1
  Y  Y13  1  0.938718  0.561282  0.938718  1
  Y  Y14  1  0.561282  0.561282  0.938718  1
  Y  Y15  1  0.938718  0.938718  0.561282  1
  Hg  Hg16  1  0.584811  0.584811  0.584811  1
  Hg  Hg17  1  0.584811  0.584811  0.245569  1
  Hg  Hg18  1  0.584811  0.245569  0.584811  1
  Hg  Hg19  1  0.245569  0.584811  0.584811  1
  Ir  Ir20  1  0.141583  0.141583  0.141583  1
  Ir  Ir21  1  0.141583  0.141583  0.575252  1
  Ir  Ir22  1  0.141583  0.575252  0.141583  1
  Ir  Ir23  1  0.575252  0.141583  0.141583  1
