# generated using pymatgen
data_BaNiTe2O7
_symmetry_space_group_name_H-M   'P 1'
_cell_length_a   8.60367509
_cell_length_b   8.60366298
_cell_length_c   5.63466500
_cell_angle_alpha   89.99994699
_cell_angle_beta   89.99995963
_cell_angle_gamma   129.34111786
_symmetry_Int_Tables_number   1
_chemical_formula_structural   BaNiTe2O7
_chemical_formula_sum   'Ba2 Ni2 Te4 O14'
_cell_volume   322.57559020
_cell_formula_units_Z   2
loop_
 _symmetry_equiv_pos_site_id
 _symmetry_equiv_pos_as_xyz
  1  'x, y, z'
loop_
 _atom_site_type_symbol
 _atom_site_label
 _atom_site_symmetry_multiplicity
 _atom_site_fract_x
 _atom_site_fract_y
 _atom_site_fract_z
 _atom_site_occupancy
  Ba  Ba0  1  0.918916  0.338148  0.750000  1
  Ba  Ba1  1  0.338162  0.918925  0.249999  1
  Ni  Ni2  1  0.523634  0.759981  0.749868  1
  Ni  Ni3  1  0.759844  0.523517  0.250135  1
  Te  Te4  1  0.966323  0.812825  0.750003  1
  Te  Te5  1  0.812813  0.966320  0.249997  1
  Te  Te6  1  0.447347  0.303584  0.750002  1
  Te  Te7  1  0.303586  0.447343  0.249999  1
  O  O8  1  0.266026  0.996062  0.749999  1
  O  O9  1  0.996069  0.266036  0.249999  1
  O  O10  1  0.582505  0.296120  0.493455  1
  O  O11  1  0.296115  0.582499  0.506544  1
  O  O12  1  0.582503  0.296120  0.006550  1
  O  O13  1  0.296116  0.582500  0.993455  1
  O  O14  1  0.673504  0.646700  0.750000  1
  O  O15  1  0.646704  0.673500  0.250001  1
  O  O16  1  0.973395  0.663455  0.505162  1
  O  O17  1  0.663452  0.973385  0.494846  1
  O  O18  1  0.973392  0.663454  0.994838  1
  O  O19  1  0.663451  0.973383  0.005151  1
  O  O20  1  0.004931  0.004929  0.499999  1
  O  O21  1  0.004929  0.004927  0.999999  1
