# generated using pymatgen
data_Tb4Al4Ir3Pd
_symmetry_space_group_name_H-M   'P 1'
_cell_length_a   4.29858500
_cell_length_b   6.89790236
_cell_length_c   7.94951321
_cell_angle_alpha   90.16603915
_cell_angle_beta   90.00000000
_cell_angle_gamma   90.00000000
_symmetry_Int_Tables_number   1
_chemical_formula_structural   Tb4Al4Ir3Pd
_chemical_formula_sum   'Tb4 Al4 Ir3 Pd1'
_cell_volume   235.71177225
_cell_formula_units_Z   1
loop_
 _symmetry_equiv_pos_site_id
 _symmetry_equiv_pos_as_xyz
  1  'x, y, z'
loop_
 _atom_site_type_symbol
 _atom_site_label
 _atom_site_symmetry_multiplicity
 _atom_site_fract_x
 _atom_site_fract_y
 _atom_site_fract_z
 _atom_site_occupancy
  Tb  Tb0  1  0.250000  0.528984  0.816024  1
  Tb  Tb1  1  0.750000  0.460652  0.182092  1
  Tb  Tb2  1  0.250000  0.031144  0.679976  1
  Tb  Tb3  1  0.750000  0.971574  0.322697  1
  Al  Al4  1  0.250000  0.636729  0.441934  1
  Al  Al5  1  0.750000  0.361087  0.563049  1
  Al  Al6  1  0.250000  0.144292  0.061545  1
  Al  Al7  1  0.750000  0.863495  0.934361  1
  Ir  Ir8  1  0.750000  0.732193  0.618853  1
  Ir  Ir9  1  0.250000  0.267431  0.379677  1
  Ir  Ir10  1  0.750000  0.232371  0.881623  1
  Pd  Pd11  1  0.250000  0.770047  0.118169  1
