# generated using pymatgen
data_GaMo3PtN
_symmetry_space_group_name_H-M   'P 1'
_cell_length_a   6.88823900
_cell_length_b   6.88823900
_cell_length_c   6.88823900
_cell_angle_alpha   90.00000000
_cell_angle_beta   90.00000000
_cell_angle_gamma   90.00000000
_symmetry_Int_Tables_number   1
_chemical_formula_structural   GaMo3PtN
_chemical_formula_sum   'Ga4 Mo12 Pt4 N4'
_cell_volume   326.83203799
_cell_formula_units_Z   4
loop_
 _symmetry_equiv_pos_site_id
 _symmetry_equiv_pos_as_xyz
  1  'x, y, z'
loop_
 _atom_site_type_symbol
 _atom_site_label
 _atom_site_symmetry_multiplicity
 _atom_site_fract_x
 _atom_site_fract_y
 _atom_site_fract_z
 _atom_site_occupancy
  Ga  Ga0  1  0.179662  0.820338  0.320338  1
  Ga  Ga1  1  0.320338  0.179662  0.820338  1
  Ga  Ga2  1  0.820338  0.320338  0.179662  1
  Ga  Ga3  1  0.679662  0.679662  0.679662  1
  Mo  Mo4  1  0.797704  0.966768  0.375359  1
  Mo  Mo5  1  0.702296  0.033232  0.875359  1
  Mo  Mo6  1  0.202296  0.466768  0.124641  1
  Mo  Mo7  1  0.297704  0.533232  0.624641  1
  Mo  Mo8  1  0.966768  0.375359  0.797704  1
  Mo  Mo9  1  0.033232  0.875359  0.702296  1
  Mo  Mo10  1  0.466768  0.124641  0.202296  1
  Mo  Mo11  1  0.533232  0.624641  0.297704  1
  Mo  Mo12  1  0.375359  0.797704  0.966768  1
  Mo  Mo13  1  0.875359  0.702296  0.033232  1
  Mo  Mo14  1  0.124641  0.202296  0.466768  1
  Mo  Mo15  1  0.624641  0.297704  0.533232  1
  Pt  Pt16  1  0.567703  0.432297  0.932297  1
  Pt  Pt17  1  0.432297  0.932297  0.567703  1
  Pt  Pt18  1  0.932297  0.567703  0.432297  1
  Pt  Pt19  1  0.067703  0.067703  0.067703  1
  N  N20  1  0.870758  0.129242  0.629242  1
  N  N21  1  0.629242  0.870758  0.129242  1
  N  N22  1  0.129242  0.629242  0.870758  1
  N  N23  1  0.370758  0.370758  0.370758  1
