# generated using pymatgen
data_CaAc8Ho11Sn16
_symmetry_space_group_name_H-M   'P 1'
_cell_length_a   8.28826000
_cell_length_b   8.52948018
_cell_length_c   16.09096900
_cell_angle_alpha   90.00000000
_cell_angle_beta   90.00000000
_cell_angle_gamma   90.19847889
_symmetry_Int_Tables_number   1
_chemical_formula_structural   CaAc8Ho11Sn16
_chemical_formula_sum   'Ca1 Ac8 Ho11 Sn16'
_cell_volume   1137.53697713
_cell_formula_units_Z   1
loop_
 _symmetry_equiv_pos_site_id
 _symmetry_equiv_pos_as_xyz
  1  'x, y, z'
loop_
 _atom_site_type_symbol
 _atom_site_label
 _atom_site_symmetry_multiplicity
 _atom_site_fract_x
 _atom_site_fract_y
 _atom_site_fract_z
 _atom_site_occupancy
  Ca  Ca0  1  0.313269  0.002061  0.250000  1
  Ac  Ac1  1  0.511221  0.323706  0.903897  1
  Ac  Ac2  1  0.010205  0.176839  0.596204  1
  Ac  Ac3  1  0.489739  0.679493  0.404560  1
  Ac  Ac4  1  0.992201  0.822647  0.094261  1
  Ac  Ac5  1  0.489739  0.679493  0.095440  1
  Ac  Ac6  1  0.992201  0.822647  0.405739  1
  Ac  Ac7  1  0.511221  0.323706  0.596103  1
  Ac  Ac8  1  0.010205  0.176839  0.903796  1
  Ho  Ho9  1  0.351529  0.834546  0.874311  1
  Ho  Ho10  1  0.851980  0.664136  0.624616  1
  Ho  Ho11  1  0.646021  0.166168  0.376331  1
  Ho  Ho12  1  0.147494  0.333226  0.122784  1
  Ho  Ho13  1  0.646021  0.166168  0.123669  1
  Ho  Ho14  1  0.147494  0.333226  0.377216  1
  Ho  Ho15  1  0.351529  0.834546  0.625689  1
  Ho  Ho16  1  0.851980  0.664136  0.875384  1
  Ho  Ho17  1  0.186415  0.504452  0.750000  1
  Ho  Ho18  1  0.685250  0.995145  0.750000  1
  Ho  Ho19  1  0.813436  0.495617  0.250000  1
  Sn  Sn20  1  0.315603  0.046030  0.038637  1
  Sn  Sn21  1  0.813688  0.457238  0.456114  1
  Sn  Sn22  1  0.684218  0.955491  0.543224  1
  Sn  Sn23  1  0.185975  0.543273  0.955964  1
  Sn  Sn24  1  0.684218  0.955491  0.956776  1
  Sn  Sn25  1  0.185975  0.543273  0.544036  1
  Sn  Sn26  1  0.315603  0.046030  0.461363  1
  Sn  Sn27  1  0.813688  0.457238  0.043886  1
  Sn  Sn28  1  0.550300  0.631470  0.750000  1
  Sn  Sn29  1  0.049330  0.868429  0.750000  1
  Sn  Sn30  1  0.448530  0.375532  0.250000  1
  Sn  Sn31  1  0.944835  0.131446  0.250000  1
  Sn  Sn32  1  0.317335  0.135949  0.750000  1
  Sn  Sn33  1  0.817706  0.363929  0.750000  1
  Sn  Sn34  1  0.693819  0.863806  0.250000  1
  Sn  Sn35  1  0.180034  0.626580  0.250000  1
