# generated using pymatgen
data_Li2Zn(Rh2Pb)3
_symmetry_space_group_name_H-M   'P 1'
_cell_length_a   4.50589900
_cell_length_b   6.32877000
_cell_length_c   13.55287900
_cell_angle_alpha   90.00000423
_cell_angle_beta   89.99781151
_cell_angle_gamma   89.99974610
_symmetry_Int_Tables_number   1
_chemical_formula_structural   Li2Zn(Rh2Pb)3
_chemical_formula_sum   'Li4 Zn2 Rh12 Pb6'
_cell_volume   386.48471823
_cell_formula_units_Z   2
loop_
 _symmetry_equiv_pos_site_id
 _symmetry_equiv_pos_as_xyz
  1  'x, y, z'
loop_
 _atom_site_type_symbol
 _atom_site_label
 _atom_site_symmetry_multiplicity
 _atom_site_fract_x
 _atom_site_fract_y
 _atom_site_fract_z
 _atom_site_occupancy
  Li  Li0  1  0.999811  0.000004  0.333753  1
  Li  Li1  1  0.500002  0.499998  0.500542  1
  Li  Li2  1  0.000185  0.000004  0.666142  1
  Li  Li3  1  0.500167  0.499993  0.832890  1
  Zn  Zn4  1  0.999994  0.000000  0.999784  1
  Zn  Zn5  1  0.499820  0.500000  0.166886  1
  Rh  Rh6  1  0.499990  0.242792  0.003179  1
  Rh  Rh7  1  0.499988  0.757200  0.003174  1
  Rh  Rh8  1  0.999823  0.257210  0.163487  1
  Rh  Rh9  1  0.999814  0.742790  0.163491  1
  Rh  Rh10  1  0.499816  0.255133  0.331497  1
  Rh  Rh11  1  0.499809  0.744884  0.331489  1
  Rh  Rh12  1  0.999995  0.248083  0.501225  1
  Rh  Rh13  1  0.999994  0.751912  0.501226  1
  Rh  Rh14  1  0.500190  0.251895  0.665443  1
  Rh  Rh15  1  0.500190  0.748092  0.665440  1
  Rh  Rh16  1  0.000212  0.244867  0.835170  1
  Rh  Rh17  1  0.000209  0.755133  0.835176  1
  Pb  Pb18  1  0.999986  0.499995  0.994116  1
  Pb  Pb19  1  0.499812  0.000009  0.172541  1
  Pb  Pb20  1  0.999817  0.499994  0.338676  1
  Pb  Pb21  1  0.500001  0.000012  0.499007  1
  Pb  Pb22  1  0.000202  0.499993  0.667654  1
  Pb  Pb23  1  0.500171  0.000004  0.828015  1
