# generated using pymatgen
data_Dy4GaTc6Ir
_symmetry_space_group_name_H-M   'P 1'
_cell_length_a   5.27126800
_cell_length_b   5.27126837
_cell_length_c   9.21340400
_cell_angle_alpha   90.00000000
_cell_angle_beta   90.00000000
_cell_angle_gamma   119.99998514
_symmetry_Int_Tables_number   1
_chemical_formula_structural   Dy4GaTc6Ir
_chemical_formula_sum   'Dy4 Ga1 Tc6 Ir1'
_cell_volume   221.70783247
_cell_formula_units_Z   1
loop_
 _symmetry_equiv_pos_site_id
 _symmetry_equiv_pos_as_xyz
  1  'x, y, z'
loop_
 _atom_site_type_symbol
 _atom_site_label
 _atom_site_symmetry_multiplicity
 _atom_site_fract_x
 _atom_site_fract_y
 _atom_site_fract_z
 _atom_site_occupancy
  Dy  Dy0  1  0.333333  0.666667  0.428875  1
  Dy  Dy1  1  0.666667  0.333333  0.571125  1
  Dy  Dy2  1  0.666667  0.333333  0.934982  1
  Dy  Dy3  1  0.333333  0.666667  0.065018  1
  Ga  Ga4  1  0.000000  0.000000  0.500000  1
  Tc  Tc5  1  0.828850  0.171150  0.251499  1
  Tc  Tc6  1  0.828850  0.657701  0.251499  1
  Tc  Tc7  1  0.342299  0.171150  0.251499  1
  Tc  Tc8  1  0.171150  0.828850  0.748501  1
  Tc  Tc9  1  0.171150  0.342299  0.748501  1
  Tc  Tc10  1  0.657701  0.828850  0.748501  1
  Ir  Ir11  1  0.000000  0.000000  0.000000  1
