# generated using pymatgen
data_PaSi4PdRh5
_symmetry_space_group_name_H-M   'P 1'
_cell_length_a   7.08144300
_cell_length_b   7.08144360
_cell_length_c   3.79990400
_cell_angle_alpha   90.00000000
_cell_angle_beta   90.00000000
_cell_angle_gamma   120.59960450
_symmetry_Int_Tables_number   1
_chemical_formula_structural   PaSi4PdRh5
_chemical_formula_sum   'Pa1 Si4 Pd1 Rh5'
_cell_volume   164.01779556
_cell_formula_units_Z   1
loop_
 _symmetry_equiv_pos_site_id
 _symmetry_equiv_pos_as_xyz
  1  'x, y, z'
loop_
 _atom_site_type_symbol
 _atom_site_label
 _atom_site_symmetry_multiplicity
 _atom_site_fract_x
 _atom_site_fract_y
 _atom_site_fract_z
 _atom_site_occupancy
  Pa  Pa0  1  0.992024  0.007976  0.000000  1
  Si  Si1  1  0.797281  0.202719  0.500000  1
  Si  Si2  1  0.796344  0.594970  0.500000  1
  Si  Si3  1  0.405030  0.203656  0.500000  1
  Si  Si4  1  0.336748  0.663252  0.000000  1
  Pd  Pd5  1  0.195048  0.804952  0.500000  1
  Rh  Rh6  1  0.533548  0.466452  0.000000  1
  Rh  Rh7  1  0.533022  0.063959  0.000000  1
  Rh  Rh8  1  0.936041  0.466978  0.000000  1
  Rh  Rh9  1  0.194951  0.386704  0.500000  1
  Rh  Rh10  1  0.613296  0.805049  0.500000  1
