# generated using pymatgen
data_Ho10Co4PdRh
_symmetry_space_group_name_H-M   'P 1'
_cell_length_a   7.13345462
_cell_length_b   7.13345541
_cell_length_c   8.69139316
_cell_angle_alpha   114.22836489
_cell_angle_beta   114.22836563
_cell_angle_gamma   90.00000828
_symmetry_Int_Tables_number   1
_chemical_formula_structural   Ho10Co4PdRh
_chemical_formula_sum   'Ho10 Co4 Pd1 Rh1'
_cell_volume   360.16933476
_cell_formula_units_Z   1
loop_
 _symmetry_equiv_pos_site_id
 _symmetry_equiv_pos_as_xyz
  1  'x, y, z'
loop_
 _atom_site_type_symbol
 _atom_site_label
 _atom_site_symmetry_multiplicity
 _atom_site_fract_x
 _atom_site_fract_y
 _atom_site_fract_z
 _atom_site_occupancy
  Ho  Ho0  1  0.002513  0.002513  0.005025  1
  Ho  Ho1  1  0.497487  0.497487  0.994975  1
  Ho  Ho2  1  0.467917  0.320198  0.280078  1
  Ho  Ho3  1  0.959882  0.467917  0.280078  1
  Ho  Ho4  1  0.320198  0.812160  0.280078  1
  Ho  Ho5  1  0.812160  0.959882  0.280078  1
  Ho  Ho6  1  0.179802  0.032083  0.719921  1
  Ho  Ho7  1  0.687838  0.179802  0.719921  1
  Ho  Ho8  1  0.032083  0.540118  0.719921  1
  Ho  Ho9  1  0.540118  0.687838  0.719921  1
  Co  Co10  1  0.613362  0.113362  0.000000  1
  Co  Co11  1  0.113362  0.386639  0.000000  1
  Co  Co12  1  0.886638  0.613362  0.000000  1
  Co  Co13  1  0.386639  0.886638  0.000000  1
  Pd  Pd14  1  0.250000  0.250000  0.500000  1
  Rh  Rh15  1  0.750000  0.750000  0.500000  1
