# generated using pymatgen
data_Ca4ScTa2VO12
_symmetry_space_group_name_H-M   'P 1'
_cell_length_a   5.66711438
_cell_length_b   5.50114736
_cell_length_c   9.59932275
_cell_angle_alpha   55.20064261
_cell_angle_beta   89.99623326
_cell_angle_gamma   90.40955120
_symmetry_Int_Tables_number   1
_chemical_formula_structural   Ca4ScTa2VO12
_chemical_formula_sum   'Ca4 Sc1 Ta2 V1 O12'
_cell_volume   245.73368088
_cell_formula_units_Z   1
loop_
 _symmetry_equiv_pos_site_id
 _symmetry_equiv_pos_as_xyz
  1  'x, y, z'
loop_
 _atom_site_type_symbol
 _atom_site_label
 _atom_site_symmetry_multiplicity
 _atom_site_fract_x
 _atom_site_fract_y
 _atom_site_fract_z
 _atom_site_occupancy
  Ca  Ca0  1  0.446417  0.232684  0.754502  1
  Ca  Ca1  1  0.553583  0.767316  0.245498  1
  Ca  Ca2  1  0.951034  0.761398  0.752009  1
  Ca  Ca3  1  0.048966  0.238602  0.247991  1
  Sc  Sc4  1  0.500000  0.000000  0.500000  1
  Ta  Ta5  1  0.000000  0.500000  0.500000  1
  Ta  Ta6  1  0.500000  0.500000  0.000000  1
  V  V7  1  0.000000  0.000000  0.000000  1
  O  O8  1  0.030426  0.346663  0.746915  1
  O  O9  1  0.969574  0.653337  0.253085  1
  O  O10  1  0.531890  0.647239  0.756781  1
  O  O11  1  0.468110  0.352761  0.243219  1
  O  O12  1  0.706420  0.838830  0.954047  1
  O  O13  1  0.293580  0.161170  0.045953  1
  O  O14  1  0.195495  0.158427  0.548971  1
  O  O15  1  0.804505  0.841573  0.451029  1
  O  O16  1  0.213428  0.750092  0.949274  1
  O  O17  1  0.786572  0.249908  0.050726  1
  O  O18  1  0.708855  0.253752  0.553243  1
  O  O19  1  0.291145  0.746248  0.446757  1
