# generated using pymatgen
data_Li4YHo3Si8
_symmetry_space_group_name_H-M   'P 1'
_cell_length_a   3.78775800
_cell_length_b   7.59065456
_cell_length_c   10.14910535
_cell_angle_alpha   89.96125715
_cell_angle_beta   90.00000000
_cell_angle_gamma   90.00000000
_symmetry_Int_Tables_number   1
_chemical_formula_structural   Li4YHo3Si8
_chemical_formula_sum   'Li4 Y1 Ho3 Si8'
_cell_volume   291.80257027
_cell_formula_units_Z   1
loop_
 _symmetry_equiv_pos_site_id
 _symmetry_equiv_pos_as_xyz
  1  'x, y, z'
loop_
 _atom_site_type_symbol
 _atom_site_label
 _atom_site_symmetry_multiplicity
 _atom_site_fract_x
 _atom_site_fract_y
 _atom_site_fract_z
 _atom_site_occupancy
  Li  Li0  1  0.250000  0.991945  0.392222  1
  Li  Li1  1  0.750000  0.011185  0.608662  1
  Li  Li2  1  0.250000  0.488697  0.108315  1
  Li  Li3  1  0.750000  0.509683  0.892976  1
  Y  Y4  1  0.750000  0.361203  0.363611  1
  Ho  Ho5  1  0.250000  0.137174  0.863310  1
  Ho  Ho6  1  0.750000  0.860502  0.135953  1
  Ho  Ho7  1  0.250000  0.639163  0.636027  1
  Si  Si8  1  0.750000  0.265241  0.066161  1
  Si  Si9  1  0.250000  0.732044  0.932447  1
  Si  Si10  1  0.750000  0.769426  0.432431  1
  Si  Si11  1  0.250000  0.233678  0.568858  1
  Si  Si12  1  0.750000  0.842295  0.819571  1
  Si  Si13  1  0.250000  0.154571  0.178506  1
  Si  Si14  1  0.750000  0.344247  0.681072  1
  Si  Si15  1  0.250000  0.658945  0.319880  1
