# generated using pymatgen
data_YHo3(InAu2)2
_symmetry_space_group_name_H-M   'P 1'
_cell_length_a   7.97140634
_cell_length_b   7.97140634
_cell_length_c   3.72311000
_cell_angle_alpha   90.00000000
_cell_angle_beta   90.00000000
_cell_angle_gamma   89.76099567
_symmetry_Int_Tables_number   1
_chemical_formula_structural   YHo3(InAu2)2
_chemical_formula_sum   'Y1 Ho3 In2 Au4'
_cell_volume   236.57670814
_cell_formula_units_Z   1
loop_
 _symmetry_equiv_pos_site_id
 _symmetry_equiv_pos_as_xyz
  1  'x, y, z'
loop_
 _atom_site_type_symbol
 _atom_site_label
 _atom_site_symmetry_multiplicity
 _atom_site_fract_x
 _atom_site_fract_y
 _atom_site_fract_z
 _atom_site_occupancy
  Y  Y0  1  0.670223  0.170223  0.500000  1
  Ho  Ho1  1  0.329890  0.829890  0.500000  1
  Ho  Ho2  1  0.170089  0.330076  0.500000  1
  Ho  Ho3  1  0.830076  0.670089  0.500000  1
  In  In4  1  0.499957  0.500071  0.000000  1
  In  In5  1  0.000071  0.999957  0.000000  1
  Au  Au6  1  0.128782  0.628782  0.000000  1
  Au  Au7  1  0.872319  0.372319  0.000000  1
  Au  Au8  1  0.628276  0.870316  0.000000  1
  Au  Au9  1  0.370316  0.128276  0.000000  1
