# generated using pymatgen
data_TbEr15In6FeCo
_symmetry_space_group_name_H-M   'P 1'
_cell_length_a   10.27485300
_cell_length_b   10.26823660
_cell_length_c   6.96665562
_cell_angle_alpha   89.95802387
_cell_angle_beta   90.00000000
_cell_angle_gamma   120.02130775
_symmetry_Int_Tables_number   1
_chemical_formula_structural   TbEr15In6FeCo
_chemical_formula_sum   'Tb1 Er15 In6 Fe1 Co1'
_cell_volume   636.40416798
_cell_formula_units_Z   1
loop_
 _symmetry_equiv_pos_site_id
 _symmetry_equiv_pos_as_xyz
  1  'x, y, z'
loop_
 _atom_site_type_symbol
 _atom_site_label
 _atom_site_symmetry_multiplicity
 _atom_site_fract_x
 _atom_site_fract_y
 _atom_site_fract_z
 _atom_site_occupancy
  Tb  Tb0  1  0.535691  0.071382  0.790312  1
  Er  Er1  1  0.928679  0.464486  0.792473  1
  Er  Er2  1  0.535807  0.464486  0.792473  1
  Er  Er3  1  0.464600  0.929201  0.292005  1
  Er  Er4  1  0.069853  0.535064  0.292953  1
  Er  Er5  1  0.465210  0.535064  0.292953  1
  Er  Er6  1  0.821061  0.642122  0.498196  1
  Er  Er7  1  0.356908  0.178822  0.496918  1
  Er  Er8  1  0.821914  0.178822  0.496918  1
  Er  Er9  1  0.179073  0.358147  0.997258  1
  Er  Er10  1  0.642484  0.821033  0.997425  1
  Er  Er11  1  0.178547  0.821033  0.997425  1
  Er  Er12  1  0.666974  0.333946  0.180885  1
  Er  Er13  1  0.333061  0.666123  0.681367  1
  Er  Er14  1  0.999732  0.999463  0.779678  1
  Er  Er15  1  0.000021  0.000041  0.279333  1
  In  In16  1  0.837586  0.675174  0.041030  1
  In  In17  1  0.324590  0.162222  0.040129  1
  In  In18  1  0.837631  0.162222  0.040129  1
  In  In19  1  0.163245  0.326488  0.540076  1
  In  In20  1  0.673632  0.837218  0.539877  1
  In  In21  1  0.163587  0.837218  0.539877  1
  Fe  Fe22  1  0.666901  0.333802  0.567967  1
  Co  Co23  1  0.333213  0.666427  0.068246  1
