# generated using pymatgen
data_Tb4Er2Si24Os3Ru5
_symmetry_space_group_name_H-M   'P 1'
_cell_length_a   10.11174802
_cell_length_b   10.11174805
_cell_length_c   8.14649204
_cell_angle_alpha   90.00133594
_cell_angle_beta   90.00134096
_cell_angle_gamma   132.48786279
_symmetry_Int_Tables_number   1
_chemical_formula_structural   Tb4Er2Si24Os3Ru5
_chemical_formula_sum   'Tb4 Er2 Si24 Os3 Ru5'
_cell_volume   614.24026564
_cell_formula_units_Z   1
loop_
 _symmetry_equiv_pos_site_id
 _symmetry_equiv_pos_as_xyz
  1  'x, y, z'
loop_
 _atom_site_type_symbol
 _atom_site_label
 _atom_site_symmetry_multiplicity
 _atom_site_fract_x
 _atom_site_fract_y
 _atom_site_fract_z
 _atom_site_occupancy
  Tb  Tb0  1  0.502147  0.002198  0.750202  1
  Tb  Tb1  1  0.997802  0.497853  0.249798  1
  Tb  Tb2  1  0.497978  0.997685  0.249651  1
  Tb  Tb3  1  0.002315  0.502022  0.750349  1
  Er  Er4  1  0.500051  0.499949  0.500000  1
  Er  Er5  1  0.999965  0.000035  0.000000  1
  Si  Si6  1  0.795937  0.204063  0.500000  1
  Si  Si7  1  0.295828  0.704172  0.000000  1
  Si  Si8  1  0.204182  0.795818  0.500000  1
  Si  Si9  1  0.704772  0.295228  0.000000  1
  Si  Si10  1  0.332291  0.332020  0.833604  1
  Si  Si11  1  0.667980  0.667709  0.166396  1
  Si  Si12  1  0.166589  0.166773  0.332308  1
  Si  Si13  1  0.833227  0.833411  0.667692  1
  Si  Si14  1  0.121166  0.888324  0.728535  1
  Si  Si15  1  0.111676  0.878834  0.271465  1
  Si  Si16  1  0.612639  0.379049  0.227294  1
  Si  Si17  1  0.620951  0.387361  0.772706  1
  Si  Si18  1  0.878244  0.111596  0.270418  1
  Si  Si19  1  0.888404  0.121756  0.729582  1
  Si  Si20  1  0.388277  0.621723  0.772225  1
  Si  Si21  1  0.378277  0.611723  0.227775  1
  Si  Si22  1  0.344684  0.111864  0.505243  1
  Si  Si23  1  0.888136  0.655316  0.494757  1
  Si  Si24  1  0.388249  0.155731  0.004004  1
  Si  Si25  1  0.844269  0.611751  0.995996  1
  Si  Si26  1  0.655586  0.888316  0.494497  1
  Si  Si27  1  0.111684  0.344414  0.505503  1
  Si  Si28  1  0.613237  0.846166  0.995094  1
  Si  Si29  1  0.153834  0.386763  0.004906  1
  Os  Os30  1  0.669350  0.330650  0.500000  1
  Os  Os31  1  0.169355  0.830645  0.000000  1
  Os  Os32  1  0.330673  0.669327  0.500000  1
  Ru  Ru33  1  0.830505  0.169495  0.000000  1
  Ru  Ru34  1  0.127946  0.127816  0.626713  1
  Ru  Ru35  1  0.872184  0.872054  0.373287  1
  Ru  Ru36  1  0.373732  0.374120  0.128169  1
  Ru  Ru37  1  0.625880  0.626268  0.871831  1
