# generated using pymatgen
data_Li3SmHo2Pt3
_symmetry_space_group_name_H-M   'P 1'
_cell_length_a   7.11300100
_cell_length_b   7.11300080
_cell_length_c   4.06100900
_cell_angle_alpha   90.00000000
_cell_angle_beta   90.00000000
_cell_angle_gamma   120.21015673
_symmetry_Int_Tables_number   1
_chemical_formula_structural   Li3SmHo2Pt3
_chemical_formula_sum   'Li3 Sm1 Ho2 Pt3'
_cell_volume   177.56064511
_cell_formula_units_Z   1
loop_
 _symmetry_equiv_pos_site_id
 _symmetry_equiv_pos_as_xyz
  1  'x, y, z'
loop_
 _atom_site_type_symbol
 _atom_site_label
 _atom_site_symmetry_multiplicity
 _atom_site_fract_x
 _atom_site_fract_y
 _atom_site_fract_z
 _atom_site_occupancy
  Li  Li0  1  0.999383  0.233374  0.000000  1
  Li  Li1  1  0.766351  0.766351  0.000000  1
  Li  Li2  1  0.233374  0.999383  0.000000  1
  Sm  Sm3  1  0.411261  0.411261  0.500000  1
  Ho  Ho4  1  0.593140  0.999530  0.500000  1
  Ho  Ho5  1  0.999530  0.593140  0.500000  1
  Pt  Pt6  1  0.672052  0.330925  0.000000  1
  Pt  Pt7  1  0.993984  0.993984  0.500000  1
  Pt  Pt8  1  0.330925  0.672052  0.000000  1
