# generated using pymatgen
data_Dy4Y12Cd4Ir3Os
_symmetry_space_group_name_H-M   'P 1'
_cell_length_a   9.70444945
_cell_length_b   9.70601139
_cell_length_c   9.70543081
_cell_angle_alpha   59.41425153
_cell_angle_beta   59.40559528
_cell_angle_gamma   59.40834810
_symmetry_Int_Tables_number   1
_chemical_formula_structural   Dy4Y12Cd4Ir3Os
_chemical_formula_sum   'Dy4 Y12 Cd4 Ir3 Os1'
_cell_volume   637.72781074
_cell_formula_units_Z   1
loop_
 _symmetry_equiv_pos_site_id
 _symmetry_equiv_pos_as_xyz
  1  'x, y, z'
loop_
 _atom_site_type_symbol
 _atom_site_label
 _atom_site_symmetry_multiplicity
 _atom_site_fract_x
 _atom_site_fract_y
 _atom_site_fract_z
 _atom_site_occupancy
  Dy  Dy0  1  0.349224  0.349193  0.349212  1
  Dy  Dy1  1  0.348215  0.348226  0.958597  1
  Dy  Dy2  1  0.348214  0.958598  0.348231  1
  Dy  Dy3  1  0.958618  0.348206  0.348209  1
  Y  Y4  1  0.812124  0.189023  0.189028  1
  Y  Y5  1  0.187287  0.808926  0.808919  1
  Y  Y6  1  0.189028  0.812135  0.189026  1
  Y  Y7  1  0.808930  0.187293  0.808929  1
  Y  Y8  1  0.189029  0.189024  0.812125  1
  Y  Y9  1  0.808923  0.808931  0.187293  1
  Y  Y10  1  0.939267  0.561102  0.561108  1
  Y  Y11  1  0.557529  0.939124  0.939121  1
  Y  Y12  1  0.561096  0.939271  0.561079  1
  Y  Y13  1  0.939110  0.557530  0.939104  1
  Y  Y14  1  0.561108  0.561076  0.939269  1
  Y  Y15  1  0.939113  0.939116  0.557528  1
  Cd  Cd16  1  0.579538  0.579542  0.579547  1
  Cd  Cd17  1  0.580234  0.580222  0.256607  1
  Cd  Cd18  1  0.580229  0.256608  0.580228  1
  Cd  Cd19  1  0.256612  0.580219  0.580226  1
  Ir  Ir20  1  0.144033  0.144038  0.576073  1
  Ir  Ir21  1  0.144032  0.576091  0.144038  1
  Ir  Ir22  1  0.576056  0.144044  0.144039  1
  Os  Os23  1  0.142451  0.142464  0.142463  1
