# generated using pymatgen
data_CePr2Nd2P12Ru19
_symmetry_space_group_name_H-M   'P 1'
_cell_length_a   12.64897271
_cell_length_b   12.65162727
_cell_length_c   4.01506900
_cell_angle_alpha   90.00000000
_cell_angle_beta   90.00000000
_cell_angle_gamma   120.00694083
_symmetry_Int_Tables_number   1
_chemical_formula_structural   CePr2Nd2P12Ru19
_chemical_formula_sum   'Ce1 Pr2 Nd2 P12 Ru19'
_cell_volume   556.40997905
_cell_formula_units_Z   1
loop_
 _symmetry_equiv_pos_site_id
 _symmetry_equiv_pos_as_xyz
  1  'x, y, z'
loop_
 _atom_site_type_symbol
 _atom_site_label
 _atom_site_symmetry_multiplicity
 _atom_site_fract_x
 _atom_site_fract_y
 _atom_site_fract_z
 _atom_site_occupancy
  Ce  Ce0  1  0.000000  0.817580  0.500000  1
  Pr  Pr1  1  0.185728  0.185779  0.500000  1
  Pr  Pr2  1  0.814272  0.000051  0.500000  1
  Nd  Nd3  1  0.332905  0.666600  0.000000  1
  Nd  Nd4  1  0.667095  0.333694  0.000000  1
  P  P5  1  0.812125  0.812375  0.000000  1
  P  P6  1  0.187875  0.000251  0.000000  1
  P  P7  1  0.000000  0.187390  0.000000  1
  P  P8  1  0.171782  0.476504  0.500000  1
  P  P9  1  0.523714  0.695172  0.500000  1
  P  P10  1  0.304577  0.828223  0.500000  1
  P  P11  1  0.695423  0.523645  0.500000  1
  P  P12  1  0.828218  0.304723  0.500000  1
  P  P13  1  0.476286  0.171457  0.500000  1
  P  P14  1  0.375850  0.375749  0.000000  1
  P  P15  1  0.624150  0.999898  0.000000  1
  P  P16  1  0.000000  0.625394  0.000000  1
  Ru  Ru17  1  0.556583  0.554845  0.000000  1
  Ru  Ru18  1  0.443417  0.998262  0.000000  1
  Ru  Ru19  1  0.000000  0.445492  0.000000  1
  Ru  Ru20  1  0.715524  0.714373  0.500000  1
  Ru  Ru21  1  0.284476  0.998850  0.500000  1
  Ru  Ru22  1  0.000000  0.285381  0.500000  1
  Ru  Ru23  1  0.184866  0.379512  0.000000  1
  Ru  Ru24  1  0.620711  0.804909  0.000000  1
  Ru  Ru25  1  0.190713  0.815272  0.000000  1
  Ru  Ru26  1  0.809287  0.624559  0.000000  1
  Ru  Ru27  1  0.815134  0.194646  0.000000  1
  Ru  Ru28  1  0.379289  0.184197  0.000000  1
  Ru  Ru29  1  0.368108  0.491783  0.500000  1
  Ru  Ru30  1  0.508114  0.875101  0.500000  1
  Ru  Ru31  1  0.124425  0.633248  0.500000  1
  Ru  Ru32  1  0.875575  0.508823  0.500000  1
  Ru  Ru33  1  0.631892  0.123675  0.500000  1
  Ru  Ru34  1  0.491886  0.366986  0.500000  1
  Ru  Ru35  1  0.000000  0.995600  0.000000  1
