# generated using pymatgen
data_Tb18Dy2(IrRh3)3
_symmetry_space_group_name_H-M   'P 1'
_cell_length_a   10.93866913
_cell_length_b   10.93865440
_cell_length_c   6.38861100
_cell_angle_alpha   89.99821692
_cell_angle_beta   89.99785963
_cell_angle_gamma   89.96249123
_symmetry_Int_Tables_number   1
_chemical_formula_structural   Tb18Dy2(IrRh3)3
_chemical_formula_sum   'Tb18 Dy2 Ir3 Rh9'
_cell_volume   764.42474777
_cell_formula_units_Z   1
loop_
 _symmetry_equiv_pos_site_id
 _symmetry_equiv_pos_as_xyz
  1  'x, y, z'
loop_
 _atom_site_type_symbol
 _atom_site_label
 _atom_site_symmetry_multiplicity
 _atom_site_fract_x
 _atom_site_fract_y
 _atom_site_fract_z
 _atom_site_occupancy
  Tb  Tb0  1  0.291179  0.090020  0.378691  1
  Tb  Tb1  1  0.291264  0.909792  0.878603  1
  Tb  Tb2  1  0.708958  0.088785  0.878699  1
  Tb  Tb3  1  0.708660  0.909924  0.378526  1
  Tb  Tb4  1  0.588007  0.789779  0.879682  1
  Tb  Tb5  1  0.587628  0.209441  0.378638  1
  Tb  Tb6  1  0.411985  0.789924  0.379254  1
  Tb  Tb7  1  0.410705  0.209534  0.879855  1
  Tb  Tb8  1  0.210218  0.411994  0.620322  1
  Tb  Tb9  1  0.210076  0.588010  0.120746  1
  Tb  Tb10  1  0.790560  0.412374  0.121363  1
  Tb  Tb11  1  0.790468  0.589296  0.620148  1
  Tb  Tb12  1  0.909982  0.708821  0.121313  1
  Tb  Tb13  1  0.911214  0.291045  0.621305  1
  Tb  Tb14  1  0.090207  0.708738  0.621400  1
  Tb  Tb15  1  0.090073  0.291338  0.121477  1
  Tb  Tb16  1  0.999875  0.999950  0.499926  1
  Tb  Tb17  1  0.000048  0.000126  0.000070  1
  Dy  Dy18  1  0.499723  0.500079  0.999971  1
  Dy  Dy19  1  0.499921  0.500276  0.500032  1
  Ir  Ir20  1  0.654325  0.653789  0.250059  1
  Ir  Ir21  1  0.346211  0.345678  0.249943  1
  Ir  Ir22  1  0.345648  0.654351  0.749998  1
  Rh  Rh23  1  0.846179  0.153821  0.249999  1
  Rh  Rh24  1  0.846555  0.846838  0.750163  1
  Rh  Rh25  1  0.153165  0.153442  0.749835  1
  Rh  Rh26  1  0.153250  0.846752  0.249999  1
  Rh  Rh27  1  0.654456  0.345543  0.749997  1
  Rh  Rh28  1  0.500236  0.000420  0.123937  1
  Rh  Rh29  1  0.500295  0.000653  0.624458  1
  Rh  Rh30  1  0.999348  0.499707  0.875540  1
  Rh  Rh31  1  0.999582  0.499759  0.376054  1
