# generated using pymatgen
data_PrHg3RuPt3O14
_symmetry_space_group_name_H-M   'P 1'
_cell_length_a   7.33812641
_cell_length_b   7.39518139
_cell_length_c   7.33812600
_cell_angle_alpha   60.25489066
_cell_angle_beta   60.00000183
_cell_angle_gamma   60.25489521
_symmetry_Int_Tables_number   1
_chemical_formula_structural   PrHg3RuPt3O14
_chemical_formula_sum   'Pr1 Hg3 Ru1 Pt3 O14'
_cell_volume   282.66152703
_cell_formula_units_Z   1
loop_
 _symmetry_equiv_pos_site_id
 _symmetry_equiv_pos_as_xyz
  1  'x, y, z'
loop_
 _atom_site_type_symbol
 _atom_site_label
 _atom_site_symmetry_multiplicity
 _atom_site_fract_x
 _atom_site_fract_y
 _atom_site_fract_z
 _atom_site_occupancy
  Pr  Pr0  1  0.625000  0.125000  0.625000  1
  Hg  Hg1  1  0.625000  0.625000  0.125000  1
  Hg  Hg2  1  0.125000  0.625000  0.625000  1
  Hg  Hg3  1  0.625000  0.625000  0.625000  1
  Ru  Ru4  1  0.125000  0.625000  0.125000  1
  Pt  Pt5  1  0.125000  0.125000  0.625000  1
  Pt  Pt6  1  0.625000  0.125000  0.125000  1
  Pt  Pt7  1  0.125000  0.125000  0.125000  1
  O  O8  1  0.759630  0.721112  0.759630  1
  O  O9  1  0.490370  0.528888  0.490370  1
  O  O10  1  0.056428  0.447290  0.056428  1
  O  O11  1  0.792195  0.203376  0.792195  1
  O  O12  1  0.037765  0.046624  0.457805  1
  O  O13  1  0.457805  0.046624  0.037765  1
  O  O14  1  0.056428  0.447290  0.439854  1
  O  O15  1  0.439854  0.447290  0.056428  1
  O  O16  1  0.457805  0.046624  0.457805  1
  O  O17  1  0.193572  0.802710  0.810146  1
  O  O18  1  0.792195  0.203376  0.212235  1
  O  O19  1  0.193572  0.802710  0.193572  1
  O  O20  1  0.810146  0.802710  0.193572  1
  O  O21  1  0.212235  0.203376  0.792195  1
