# generated using pymatgen
data_Dy4Ho(In2Ni)2
_symmetry_space_group_name_H-M   'P 1'
_cell_length_a   3.58738800
_cell_length_b   8.02769700
_cell_length_c   17.97177800
_cell_angle_alpha   90.00000000
_cell_angle_beta   90.00000000
_cell_angle_gamma   90.00000000
_symmetry_Int_Tables_number   1
_chemical_formula_structural   Dy4Ho(In2Ni)2
_chemical_formula_sum   'Dy8 Ho2 In8 Ni4'
_cell_volume   517.55959969
_cell_formula_units_Z   2
loop_
 _symmetry_equiv_pos_site_id
 _symmetry_equiv_pos_as_xyz
  1  'x, y, z'
loop_
 _atom_site_type_symbol
 _atom_site_label
 _atom_site_symmetry_multiplicity
 _atom_site_fract_x
 _atom_site_fract_y
 _atom_site_fract_z
 _atom_site_occupancy
  Dy  Dy0  1  0.500000  0.117013  0.087674  1
  Dy  Dy1  1  0.500000  0.754715  0.721267  1
  Dy  Dy2  1  0.500000  0.254715  0.778733  1
  Dy  Dy3  1  0.500000  0.499895  0.999875  1
  Dy  Dy4  1  0.500000  0.745436  0.221292  1
  Dy  Dy5  1  0.500000  0.245436  0.278708  1
  Dy  Dy6  1  0.500000  0.999895  0.500125  1
  Dy  Dy7  1  0.500000  0.617013  0.412326  1
  Ho  Ho8  1  0.500000  0.383221  0.588281  1
  Ho  Ho9  1  0.500000  0.883221  0.911719  1
  In  In10  1  0.000000  0.794374  0.068719  1
  In  In11  1  0.000000  0.926252  0.347634  1
  In  In12  1  0.000000  0.074792  0.652297  1
  In  In13  1  0.000000  0.574792  0.847703  1
  In  In14  1  0.000000  0.704656  0.569181  1
  In  In15  1  0.000000  0.204656  0.930819  1
  In  In16  1  0.000000  0.294374  0.431281  1
  In  In17  1  0.000000  0.426252  0.152366  1
  Ni  Ni18  1  0.000000  0.974845  0.804506  1
  Ni  Ni19  1  0.000000  0.524801  0.304282  1
  Ni  Ni20  1  0.000000  0.474845  0.695494  1
  Ni  Ni21  1  0.000000  0.024801  0.195718  1
