# generated using pymatgen
data_AgAs2AuO8
_symmetry_space_group_name_H-M   'P 1'
_cell_length_a   5.11772929
_cell_length_b   5.13081246
_cell_length_c   7.91014639
_cell_angle_alpha   85.44448142
_cell_angle_beta   84.70304290
_cell_angle_gamma   71.46008877
_symmetry_Int_Tables_number   1
_chemical_formula_structural   AgAs2AuO8
_chemical_formula_sum   'Ag1 As2 Au1 O8'
_cell_volume   195.80912116
_cell_formula_units_Z   1
loop_
 _symmetry_equiv_pos_site_id
 _symmetry_equiv_pos_as_xyz
  1  'x, y, z'
loop_
 _atom_site_type_symbol
 _atom_site_label
 _atom_site_symmetry_multiplicity
 _atom_site_fract_x
 _atom_site_fract_y
 _atom_site_fract_z
 _atom_site_occupancy
  Ag  Ag0  1  0.000000  0.500000  0.500000  1
  As  As1  1  0.065293  0.937489  0.748775  1
  As  As2  1  0.934707  0.062511  0.251225  1
  Au  Au3  1  0.500000  0.000000  0.000000  1
  O  O4  1  0.254833  0.795815  0.924665  1
  O  O5  1  0.208328  0.745928  0.572743  1
  O  O6  1  0.745167  0.204185  0.075335  1
  O  O7  1  0.791672  0.254072  0.427257  1
  O  O8  1  0.736980  0.903700  0.781549  1
  O  O9  1  0.094165  0.265418  0.718308  1
  O  O10  1  0.263020  0.096300  0.218451  1
  O  O11  1  0.905835  0.734582  0.281692  1
