# generated using pymatgen
data_Ba4TmAuO8
_symmetry_space_group_name_H-M   'P 1'
_cell_length_a   7.44207562
_cell_length_b   7.44207539
_cell_length_c   5.94823400
_cell_angle_alpha   90.00000000
_cell_angle_beta   90.00000000
_cell_angle_gamma   132.92547100
_symmetry_Int_Tables_number   1
_chemical_formula_structural   Ba4TmAuO8
_chemical_formula_sum   'Ba4 Tm1 Au1 O8'
_cell_volume   241.22913687
_cell_formula_units_Z   1
loop_
 _symmetry_equiv_pos_site_id
 _symmetry_equiv_pos_as_xyz
  1  'x, y, z'
loop_
 _atom_site_type_symbol
 _atom_site_label
 _atom_site_symmetry_multiplicity
 _atom_site_fract_x
 _atom_site_fract_y
 _atom_site_fract_z
 _atom_site_occupancy
  Ba  Ba0  1  0.353270  0.646730  0.000000  1
  Ba  Ba1  1  0.853824  0.146176  0.500000  1
  Ba  Ba2  1  0.146176  0.853824  0.500000  1
  Ba  Ba3  1  0.646730  0.353270  0.000000  1
  Tm  Tm4  1  0.000000  0.000000  0.000000  1
  Au  Au5  1  0.500000  0.500000  0.500000  1
  O  O6  1  0.256313  0.256313  0.736885  1
  O  O7  1  0.743687  0.743687  0.263115  1
  O  O8  1  0.743687  0.743687  0.736885  1
  O  O9  1  0.256313  0.256313  0.263115  1
  O  O10  1  0.163506  0.836494  0.000000  1
  O  O11  1  0.653987  0.346013  0.500000  1
  O  O12  1  0.346013  0.653987  0.500000  1
  O  O13  1  0.836494  0.163506  0.000000  1
