# generated using pymatgen
data_TbYBi2Pt4F28
_symmetry_space_group_name_H-M   'P 1'
_cell_length_a   5.59303813
_cell_length_b   9.07724710
_cell_length_c   12.15583606
_cell_angle_alpha   61.89652756
_cell_angle_beta   89.99053153
_cell_angle_gamma   89.82995784
_symmetry_Int_Tables_number   1
_chemical_formula_structural   TbYBi2Pt4F28
_chemical_formula_sum   'Tb1 Y1 Bi2 Pt4 F28'
_cell_volume   544.37908354
_cell_formula_units_Z   1
loop_
 _symmetry_equiv_pos_site_id
 _symmetry_equiv_pos_as_xyz
  1  'x, y, z'
loop_
 _atom_site_type_symbol
 _atom_site_label
 _atom_site_symmetry_multiplicity
 _atom_site_fract_x
 _atom_site_fract_y
 _atom_site_fract_z
 _atom_site_occupancy
  Tb  Tb0  1  0.760210  0.190593  0.236640  1
  Y  Y1  1  0.239632  0.809784  0.763237  1
  Bi  Bi2  1  0.264412  0.820136  0.262494  1
  Bi  Bi3  1  0.735626  0.179764  0.737508  1
  Pt  Pt4  1  0.758681  0.725298  0.040519  1
  Pt  Pt5  1  0.241340  0.274824  0.959383  1
  Pt  Pt6  1  0.258825  0.269968  0.456951  1
  Pt  Pt7  1  0.741110  0.730043  0.543155  1
  F  F8  1  0.931978  0.707889  0.416042  1
  F  F9  1  0.067961  0.292123  0.584005  1
  F  F10  1  0.436226  0.293438  0.087987  1
  F  F11  1  0.563776  0.706466  0.912011  1
  F  F12  1  0.466871  0.725688  0.130093  1
  F  F13  1  0.533155  0.274300  0.869921  1
  F  F14  1  0.967459  0.270412  0.365166  1
  F  F15  1  0.032699  0.729547  0.634911  1
  F  F16  1  0.944199  0.738490  0.173124  1
  F  F17  1  0.055784  0.261506  0.826865  1
  F  F18  1  0.449045  0.255747  0.325014  1
  F  F19  1  0.550666  0.744252  0.675158  1
  F  F20  1  0.769334  0.479746  0.138468  1
  F  F21  1  0.230649  0.520459  0.861441  1
  F  F22  1  0.267481  0.514160  0.359788  1
  F  F23  1  0.732514  0.485845  0.640207  1
  F  F24  1  0.942441  0.280415  0.045131  1
  F  F25  1  0.057740  0.719571  0.954803  1
  F  F26  1  0.442436  0.719938  0.460623  1
  F  F27  1  0.557599  0.280057  0.539373  1
  F  F28  1  0.740021  0.976927  0.447378  1
  F  F29  1  0.259989  0.023060  0.552565  1
  F  F30  1  0.241369  0.028718  0.049558  1
  F  F31  1  0.758624  0.971342  0.950427  1
  F  F32  1  0.594833  0.973294  0.230116  1
  F  F33  1  0.404931  0.026398  0.769895  1
  F  F34  1  0.092364  0.036092  0.269212  1
  F  F35  1  0.908018  0.963711  0.730831  1
