# generated using pymatgen
data_LiYP3Ir4
_symmetry_space_group_name_H-M   'P 1'
_cell_length_a   3.98581600
_cell_length_b   10.71539800
_cell_length_c   12.73772700
_cell_angle_alpha   90.00000000
_cell_angle_beta   90.00000000
_cell_angle_gamma   90.00000000
_symmetry_Int_Tables_number   1
_chemical_formula_structural   LiYP3Ir4
_chemical_formula_sum   'Li4 Y4 P12 Ir16'
_cell_volume   544.02328615
_cell_formula_units_Z   4
loop_
 _symmetry_equiv_pos_site_id
 _symmetry_equiv_pos_as_xyz
  1  'x, y, z'
loop_
 _atom_site_type_symbol
 _atom_site_label
 _atom_site_symmetry_multiplicity
 _atom_site_fract_x
 _atom_site_fract_y
 _atom_site_fract_z
 _atom_site_occupancy
  Li  Li0  1  0.250000  0.789902  0.493904  1
  Li  Li1  1  0.750000  0.210098  0.506096  1
  Li  Li2  1  0.750000  0.289902  0.006096  1
  Li  Li3  1  0.250000  0.710098  0.993904  1
  Y  Y4  1  0.250000  0.922939  0.203483  1
  Y  Y5  1  0.750000  0.077061  0.796517  1
  Y  Y6  1  0.750000  0.422939  0.296517  1
  Y  Y7  1  0.250000  0.577061  0.703483  1
  P  P8  1  0.250000  0.074287  0.615506  1
  P  P9  1  0.750000  0.925713  0.384494  1
  P  P10  1  0.750000  0.574287  0.884494  1
  P  P11  1  0.250000  0.425713  0.115506  1
  P  P12  1  0.250000  0.238526  0.358392  1
  P  P13  1  0.750000  0.761474  0.641608  1
  P  P14  1  0.750000  0.738526  0.141608  1
  P  P15  1  0.250000  0.261474  0.858392  1
  P  P16  1  0.250000  0.896979  0.889966  1
  P  P17  1  0.750000  0.103021  0.110034  1
  P  P18  1  0.750000  0.396979  0.610034  1
  P  P19  1  0.250000  0.603021  0.389966  1
  Ir  Ir20  1  0.250000  0.093094  0.972746  1
  Ir  Ir21  1  0.750000  0.906906  0.027254  1
  Ir  Ir22  1  0.750000  0.593094  0.527254  1
  Ir  Ir23  1  0.250000  0.406906  0.472746  1
  Ir  Ir24  1  0.250000  0.273722  0.671967  1
  Ir  Ir25  1  0.750000  0.726278  0.328033  1
  Ir  Ir26  1  0.750000  0.773722  0.828033  1
  Ir  Ir27  1  0.250000  0.226278  0.171967  1
  Ir  Ir28  1  0.250000  0.619963  0.202113  1
  Ir  Ir29  1  0.750000  0.380037  0.797887  1
  Ir  Ir30  1  0.750000  0.119963  0.297887  1
  Ir  Ir31  1  0.250000  0.880037  0.702113  1
  Ir  Ir32  1  0.250000  0.038057  0.432623  1
  Ir  Ir33  1  0.750000  0.961943  0.567377  1
  Ir  Ir34  1  0.750000  0.538057  0.067377  1
  Ir  Ir35  1  0.250000  0.461943  0.932623  1
