# generated using pymatgen
data_Th4Mo(WN4)3
_symmetry_space_group_name_H-M   'P 1'
_cell_length_a   5.60047423
_cell_length_b   5.67121120
_cell_length_c   8.00615944
_cell_angle_alpha   89.97447916
_cell_angle_beta   90.02789742
_cell_angle_gamma   89.98306612
_symmetry_Int_Tables_number   1
_chemical_formula_structural   Th4Mo(WN4)3
_chemical_formula_sum   'Th4 Mo1 W3 N12'
_cell_volume   254.28734368
_cell_formula_units_Z   1
loop_
 _symmetry_equiv_pos_site_id
 _symmetry_equiv_pos_as_xyz
  1  'x, y, z'
loop_
 _atom_site_type_symbol
 _atom_site_label
 _atom_site_symmetry_multiplicity
 _atom_site_fract_x
 _atom_site_fract_y
 _atom_site_fract_z
 _atom_site_occupancy
  Th  Th0  1  0.502162  0.543534  0.248250  1
  Th  Th1  1  0.997281  0.045946  0.248082  1
  Th  Th2  1  0.497838  0.456466  0.751750  1
  Th  Th3  1  0.002719  0.954054  0.751918  1
  Mo  Mo4  1  0.000000  0.500000  0.000000  1
  W  W5  1  0.500000  0.000000  0.500000  1
  W  W6  1  0.000000  0.500000  0.500000  1
  W  W7  1  0.500000  0.000000  0.000000  1
  N  N8  1  0.425804  0.983424  0.251029  1
  N  N9  1  0.073942  0.483091  0.252542  1
  N  N10  1  0.574196  0.016576  0.748971  1
  N  N11  1  0.926058  0.516909  0.747458  1
  N  N12  1  0.797355  0.799167  0.037252  1
  N  N13  1  0.701492  0.296667  0.461901  1
  N  N14  1  0.202292  0.202592  0.538375  1
  N  N15  1  0.300675  0.703737  0.962809  1
  N  N16  1  0.202645  0.200833  0.962748  1
  N  N17  1  0.298508  0.703333  0.538099  1
  N  N18  1  0.797708  0.797408  0.461625  1
  N  N19  1  0.699325  0.296263  0.037191  1
