# generated using pymatgen
data_NaHf2(AsPd)3
_symmetry_space_group_name_H-M   'P 1'
_cell_length_a   6.82252300
_cell_length_b   6.96092788
_cell_length_c   3.81792500
_cell_angle_alpha   90.00000000
_cell_angle_beta   90.00000000
_cell_angle_gamma   119.34442786
_symmetry_Int_Tables_number   1
_chemical_formula_structural   NaHf2(AsPd)3
_chemical_formula_sum   'Na1 Hf2 As3 Pd3'
_cell_volume   158.05249956
_cell_formula_units_Z   1
loop_
 _symmetry_equiv_pos_site_id
 _symmetry_equiv_pos_as_xyz
  1  'x, y, z'
loop_
 _atom_site_type_symbol
 _atom_site_label
 _atom_site_symmetry_multiplicity
 _atom_site_fract_x
 _atom_site_fract_y
 _atom_site_fract_z
 _atom_site_occupancy
  Na  Na0  1  0.594353  0.000000  0.000000  1
  Hf  Hf1  1  0.995909  0.593497  0.000000  1
  Hf  Hf2  1  0.402412  0.406503  0.000000  1
  As  As3  1  0.321184  0.654428  0.500000  1
  As  As4  1  0.666757  0.345572  0.500000  1
  As  As5  1  0.013126  0.000000  0.000000  1
  Pd  Pd6  1  0.266480  0.000000  0.500000  1
  Pd  Pd7  1  0.998147  0.256515  0.500000  1
  Pd  Pd8  1  0.741632  0.743485  0.500000  1
