# generated using pymatgen
data_Tm5Hf3(ReB6)4
_symmetry_space_group_name_H-M   'P 1'
_cell_length_a   3.59681500
_cell_length_b   9.00896367
_cell_length_c   11.36723407
_cell_angle_alpha   89.97142181
_cell_angle_beta   90.00000000
_cell_angle_gamma   90.00000000
_symmetry_Int_Tables_number   1
_chemical_formula_structural   Tm5Hf3(ReB6)4
_chemical_formula_sum   'Tm5 Hf3 Re4 B24'
_cell_volume   368.33898367
_cell_formula_units_Z   1
loop_
 _symmetry_equiv_pos_site_id
 _symmetry_equiv_pos_as_xyz
  1  'x, y, z'
loop_
 _atom_site_type_symbol
 _atom_site_label
 _atom_site_symmetry_multiplicity
 _atom_site_fract_x
 _atom_site_fract_y
 _atom_site_fract_z
 _atom_site_occupancy
  Tm  Tm0  1  0.000000  0.321380  0.413077  1
  Tm  Tm1  1  0.000000  0.678197  0.586067  1
  Tm  Tm2  1  0.000000  0.821206  0.086340  1
  Tm  Tm3  1  0.000000  0.179089  0.914358  1
  Tm  Tm4  1  0.000000  0.944216  0.372372  1
  Hf  Hf5  1  0.000000  0.056469  0.629708  1
  Hf  Hf6  1  0.000000  0.444337  0.126683  1
  Hf  Hf7  1  0.000000  0.555870  0.872727  1
  Re  Re8  1  0.000000  0.635804  0.317906  1
  Re  Re9  1  0.000000  0.360515  0.682336  1
  Re  Re10  1  0.000000  0.142933  0.177978  1
  Re  Re11  1  0.000000  0.859866  0.820085  1
  B  B12  1  0.500000  0.551850  0.433436  1
  B  B13  1  0.500000  0.445731  0.566559  1
  B  B14  1  0.500000  0.054552  0.065795  1
  B  B15  1  0.500000  0.946311  0.933844  1
  B  B16  1  0.500000  0.749662  0.418261  1
  B  B17  1  0.500000  0.247256  0.582388  1
  B  B18  1  0.500000  0.253659  0.080419  1
  B  B19  1  0.500000  0.747156  0.918863  1
  B  B20  1  0.500000  0.792635  0.263387  1
  B  B21  1  0.500000  0.205566  0.736773  1
  B  B22  1  0.500000  0.295190  0.234558  1
  B  B23  1  0.500000  0.705307  0.764335  1
  B  B24  1  0.500000  0.629439  0.182539  1
  B  B25  1  0.500000  0.370246  0.817232  1
  B  B26  1  0.500000  0.132284  0.315619  1
  B  B27  1  0.500000  0.869770  0.683607  1
  B  B28  1  0.500000  0.983133  0.211854  1
  B  B29  1  0.500000  0.018334  0.787428  1
  B  B30  1  0.500000  0.480341  0.286036  1
  B  B31  1  0.500000  0.518913  0.713276  1
  B  B32  1  0.500000  0.600041  0.026575  1
  B  B33  1  0.500000  0.400738  0.972560  1
  B  B34  1  0.500000  0.101994  0.475321  1
  B  B35  1  0.500000  0.900013  0.529695  1
