# generated using pymatgen
data_YBiCl8
_symmetry_space_group_name_H-M   'P 1'
_cell_length_a   7.09195826
_cell_length_b   7.09195902
_cell_length_c   9.02062265
_cell_angle_alpha   92.46404996
_cell_angle_beta   92.46405214
_cell_angle_gamma   119.46627366
_symmetry_Int_Tables_number   1
_chemical_formula_structural   YBiCl8
_chemical_formula_sum   'Y1 Bi1 Cl8'
_cell_volume   393.57230886
_cell_formula_units_Z   1
loop_
 _symmetry_equiv_pos_site_id
 _symmetry_equiv_pos_as_xyz
  1  'x, y, z'
loop_
 _atom_site_type_symbol
 _atom_site_label
 _atom_site_symmetry_multiplicity
 _atom_site_fract_x
 _atom_site_fract_y
 _atom_site_fract_z
 _atom_site_occupancy
  Y  Y0  1  0.168630  0.831370  0.000000  1
  Bi  Bi1  1  0.830993  0.169007  0.000000  1
  Cl  Cl2  1  0.508727  0.139320  0.169245  1
  Cl  Cl3  1  0.147064  0.524172  0.169199  1
  Cl  Cl4  1  0.900818  0.892621  0.169979  1
  Cl  Cl5  1  0.613229  0.613348  0.442205  1
  Cl  Cl6  1  0.386652  0.386771  0.557795  1
  Cl  Cl7  1  0.107380  0.099183  0.830020  1
  Cl  Cl8  1  0.860681  0.491274  0.830754  1
  Cl  Cl9  1  0.475829  0.852937  0.830800  1
