# generated using pymatgen
data_CePr2(BN2)2
_symmetry_space_group_name_H-M   'P 1'
_cell_length_a   6.47002947
_cell_length_b   6.47003060
_cell_length_c   6.47002996
_cell_angle_alpha   147.80623044
_cell_angle_beta   121.61681401
_cell_angle_gamma   68.25434501
_symmetry_Int_Tables_number   1
_chemical_formula_structural   CePr2(BN2)2
_chemical_formula_sum   'Ce1 Pr2 B2 N4'
_cell_volume   121.27553722
_cell_formula_units_Z   1
loop_
 _symmetry_equiv_pos_site_id
 _symmetry_equiv_pos_as_xyz
  1  'x, y, z'
loop_
 _atom_site_type_symbol
 _atom_site_label
 _atom_site_symmetry_multiplicity
 _atom_site_fract_x
 _atom_site_fract_y
 _atom_site_fract_z
 _atom_site_occupancy
  Ce  Ce0  1  0.297724  0.797724  0.500000  1
  Pr  Pr1  1  0.699043  0.199043  0.500000  1
  Pr  Pr2  1  0.000150  0.000150  0.000000  1
  B  B3  1  0.359908  0.501765  0.858143  1
  B  B4  1  0.643622  0.501765  0.141857  1
  N  N5  1  0.359024  0.620969  0.738055  1
  N  N6  1  0.882913  0.620969  0.261945  1
  N  N7  1  0.131068  0.378807  0.752260  1
  N  N8  1  0.626547  0.378807  0.247740  1
