# generated using pymatgen
data_YHo2Ta3(B2Ru5)2
_symmetry_space_group_name_H-M   'P 1'
_cell_length_a   9.59962495
_cell_length_b   9.59887945
_cell_length_c   3.12007700
_cell_angle_alpha   90.00000000
_cell_angle_beta   90.00000000
_cell_angle_gamma   90.43613188
_symmetry_Int_Tables_number   1
_chemical_formula_structural   YHo2Ta3(B2Ru5)2
_chemical_formula_sum   'Y1 Ho2 Ta3 B4 Ru10'
_cell_volume   287.49317121
_cell_formula_units_Z   1
loop_
 _symmetry_equiv_pos_site_id
 _symmetry_equiv_pos_as_xyz
  1  'x, y, z'
loop_
 _atom_site_type_symbol
 _atom_site_label
 _atom_site_symmetry_multiplicity
 _atom_site_fract_x
 _atom_site_fract_y
 _atom_site_fract_z
 _atom_site_occupancy
  Y  Y0  1  0.823986  0.674968  0.000000  1
  Ho  Ho1  1  0.175338  0.323797  0.000000  1
  Ho  Ho2  1  0.325498  0.825711  0.000000  1
  Ta  Ta3  1  0.675967  0.175994  0.000000  1
  Ta  Ta4  1  0.497833  0.502715  0.000000  1
  Ta  Ta5  1  0.002849  0.998125  0.000000  1
  B  B6  1  0.622916  0.881407  0.000000  1
  B  B7  1  0.381140  0.123229  0.000000  1
  B  B8  1  0.119517  0.619003  0.000000  1
  B  B9  1  0.876336  0.375924  0.000000  1
  Ru  Ru10  1  0.570288  0.722488  0.500000  1
  Ru  Ru11  1  0.440375  0.280489  0.500000  1
  Ru  Ru12  1  0.070288  0.780625  0.500000  1
  Ru  Ru13  1  0.915955  0.213121  0.500000  1
  Ru  Ru14  1  0.280694  0.569304  0.500000  1
  Ru  Ru15  1  0.713104  0.415163  0.500000  1
  Ru  Ru16  1  0.221915  0.071588  0.500000  1
  Ru  Ru17  1  0.780032  0.941488  0.500000  1
  Ru  Ru18  1  0.509167  0.009712  0.500000  1
  Ru  Ru19  1  0.996800  0.495147  0.500000  1
