# generated using pymatgen
data_Dy10In3Pb3Br2
_symmetry_space_group_name_H-M   'P 1'
_cell_length_a   9.23424123
_cell_length_b   9.23054418
_cell_length_c   6.74892700
_cell_angle_alpha   90.00000000
_cell_angle_beta   90.00000000
_cell_angle_gamma   120.09299643
_symmetry_Int_Tables_number   1
_chemical_formula_structural   Dy10In3Pb3Br2
_chemical_formula_sum   'Dy10 In3 Pb3 Br2'
_cell_volume   497.72120645
_cell_formula_units_Z   1
loop_
 _symmetry_equiv_pos_site_id
 _symmetry_equiv_pos_as_xyz
  1  'x, y, z'
loop_
 _atom_site_type_symbol
 _atom_site_label
 _atom_site_symmetry_multiplicity
 _atom_site_fract_x
 _atom_site_fract_y
 _atom_site_fract_z
 _atom_site_occupancy
  Dy  Dy0  1  0.265772  0.996092  0.250000  1
  Dy  Dy1  1  0.731999  0.999499  0.750000  1
  Dy  Dy2  1  0.997176  0.264684  0.250000  1
  Dy  Dy3  1  0.002851  0.737004  0.750000  1
  Dy  Dy4  1  0.736965  0.735732  0.250000  1
  Dy  Dy5  1  0.265103  0.261909  0.750000  1
  Dy  Dy6  1  0.332852  0.671398  0.001662  1
  Dy  Dy7  1  0.667394  0.331298  0.001435  1
  Dy  Dy8  1  0.667394  0.331298  0.498565  1
  Dy  Dy9  1  0.332852  0.671398  0.498338  1
  In  In10  1  0.608465  0.999868  0.250000  1
  In  In11  1  0.392436  0.000310  0.750000  1
  In  In12  1  0.999198  0.609326  0.250000  1
  Pb  Pb13  1  0.000751  0.389999  0.750000  1
  Pb  Pb14  1  0.388779  0.389078  0.250000  1
  Pb  Pb15  1  0.610227  0.609890  0.750000  1
  Br  Br16  1  0.999894  0.000609  0.999672  1
  Br  Br17  1  0.999894  0.000609  0.500328  1
