# generated using pymatgen
data_CaTm(TaN2)2
_symmetry_space_group_name_H-M   'P 1'
_cell_length_a   3.15584200
_cell_length_b   3.15584034
_cell_length_c   11.16886400
_cell_angle_alpha   90.00000000
_cell_angle_beta   90.00000000
_cell_angle_gamma   119.99999646
_symmetry_Int_Tables_number   1
_chemical_formula_structural   CaTm(TaN2)2
_chemical_formula_sum   'Ca1 Tm1 Ta2 N4'
_cell_volume   96.33185529
_cell_formula_units_Z   1
loop_
 _symmetry_equiv_pos_site_id
 _symmetry_equiv_pos_as_xyz
  1  'x, y, z'
loop_
 _atom_site_type_symbol
 _atom_site_label
 _atom_site_symmetry_multiplicity
 _atom_site_fract_x
 _atom_site_fract_y
 _atom_site_fract_z
 _atom_site_occupancy
  Ca  Ca0  1  0.000000  0.000000  0.500000  1
  Tm  Tm1  1  0.000000  0.000000  0.000000  1
  Ta  Ta2  1  0.333333  0.666667  0.246715  1
  Ta  Ta3  1  0.666667  0.333333  0.753285  1
  N  N4  1  0.333333  0.666667  0.642768  1
  N  N5  1  0.666667  0.333333  0.357232  1
  N  N6  1  0.666667  0.333333  0.128451  1
  N  N7  1  0.333333  0.666667  0.871549  1
