# generated using pymatgen
data_Y8HoErIr4
_symmetry_space_group_name_H-M   'P 1'
_cell_length_a   6.52330987
_cell_length_b   7.24713839
_cell_length_c   8.54640813
_cell_angle_alpha   96.75063856
_cell_angle_beta   112.43533082
_cell_angle_gamma   90.00000794
_symmetry_Int_Tables_number   1
_chemical_formula_structural   Y8HoErIr4
_chemical_formula_sum   'Y8 Ho1 Er1 Ir4'
_cell_volume   370.42096659
_cell_formula_units_Z   1
loop_
 _symmetry_equiv_pos_site_id
 _symmetry_equiv_pos_as_xyz
  1  'x, y, z'
loop_
 _atom_site_type_symbol
 _atom_site_label
 _atom_site_symmetry_multiplicity
 _atom_site_fract_x
 _atom_site_fract_y
 _atom_site_fract_z
 _atom_site_occupancy
  Y  Y0  1  0.970674  0.917715  0.181668  1
  Y  Y1  1  0.789006  0.582285  0.818332  1
  Y  Y2  1  0.029333  0.082259  0.818325  1
  Y  Y3  1  0.211007  0.417741  0.181675  1
  Y  Y4  1  0.653696  0.817691  0.441199  1
  Y  Y5  1  0.212498  0.682309  0.558801  1
  Y  Y6  1  0.346284  0.182301  0.558782  1
  Y  Y7  1  0.787502  0.317699  0.441218  1
  Ho  Ho8  1  0.571143  0.250000  0.000000  1
  Er  Er9  1  0.428887  0.750000  0.000000  1
  Ir  Ir10  1  0.822285  0.572292  0.216971  1
  Ir  Ir11  1  0.605315  0.927708  0.783029  1
  Ir  Ir12  1  0.177698  0.427766  0.783024  1
  Ir  Ir13  1  0.394672  0.072234  0.216976  1
