# generated using pymatgen
data_YHoPaCo2
_symmetry_space_group_name_H-M   'P 1'
_cell_length_a   3.60898564
_cell_length_b   5.95608303
_cell_length_c   5.95608179
_cell_angle_alpha   60.92853911
_cell_angle_beta   72.36412921
_cell_angle_gamma   72.36413877
_symmetry_Int_Tables_number   1
_chemical_formula_structural   YHoPaCo2
_chemical_formula_sum   'Y1 Ho1 Pa1 Co2'
_cell_volume   104.75858307
_cell_formula_units_Z   1
loop_
 _symmetry_equiv_pos_site_id
 _symmetry_equiv_pos_as_xyz
  1  'x, y, z'
loop_
 _atom_site_type_symbol
 _atom_site_label
 _atom_site_symmetry_multiplicity
 _atom_site_fract_x
 _atom_site_fract_y
 _atom_site_fract_z
 _atom_site_occupancy
  Y  Y0  1  0.193377  0.306623  0.306623  1
  Ho  Ho1  1  0.807759  0.692241  0.692241  1
  Pa  Pa2  1  0.000255  0.999745  0.999745  1
  Co  Co3  1  0.499305  0.285301  0.716090  1
  Co  Co4  1  0.499305  0.716090  0.285301  1
