# generated using pymatgen
data_Ce(PuS2)2
_symmetry_space_group_name_H-M   'P 1'
_cell_length_a   7.28757376
_cell_length_b   7.30662308
_cell_length_c   7.30429718
_cell_angle_alpha   109.48173531
_cell_angle_beta   109.41738776
_cell_angle_gamma   109.49796726
_symmetry_Int_Tables_number   1
_chemical_formula_structural   Ce(PuS2)2
_chemical_formula_sum   'Ce2 Pu4 S8'
_cell_volume   299.46413693
_cell_formula_units_Z   2
loop_
 _symmetry_equiv_pos_site_id
 _symmetry_equiv_pos_as_xyz
  1  'x, y, z'
loop_
 _atom_site_type_symbol
 _atom_site_label
 _atom_site_symmetry_multiplicity
 _atom_site_fract_x
 _atom_site_fract_y
 _atom_site_fract_z
 _atom_site_occupancy
  Ce  Ce0  1  0.750536  0.375360  0.625792  1
  Ce  Ce1  1  0.624852  0.749467  0.374159  1
  Pu  Pu2  1  0.874751  0.249315  0.124182  1
  Pu  Pu3  1  0.125519  0.876121  0.250807  1
  Pu  Pu4  1  0.374341  0.625334  0.749349  1
  Pu  Pu5  1  0.250593  0.125309  0.875665  1
  S  S6  1  0.497023  0.997429  0.649575  1
  S  S7  1  0.150172  0.501408  0.002392  1
  S  S8  1  0.347745  0.348058  0.350403  1
  S  S9  1  0.002818  0.150579  0.501978  1
  S  S10  1  0.853456  0.854202  0.854366  1
  S  S11  1  0.001227  0.648713  0.497899  1
  S  S12  1  0.499326  0.999816  0.145805  1
  S  S13  1  0.647641  0.498888  0.997628  1
