# generated using pymatgen
data_Eu5Y5(Pb3Se)2
_symmetry_space_group_name_H-M   'P 1'
_cell_length_a   9.53130300
_cell_length_b   9.53173210
_cell_length_c   6.97132100
_cell_angle_alpha   90.00000000
_cell_angle_beta   90.00000000
_cell_angle_gamma   120.19410667
_symmetry_Int_Tables_number   1
_chemical_formula_structural   Eu5Y5(Pb3Se)2
_chemical_formula_sum   'Eu5 Y5 Pb6 Se2'
_cell_volume   547.41542582
_cell_formula_units_Z   1
loop_
 _symmetry_equiv_pos_site_id
 _symmetry_equiv_pos_as_xyz
  1  'x, y, z'
loop_
 _atom_site_type_symbol
 _atom_site_label
 _atom_site_symmetry_multiplicity
 _atom_site_fract_x
 _atom_site_fract_y
 _atom_site_fract_z
 _atom_site_occupancy
  Eu  Eu0  1  0.249343  0.000270  0.750000  1
  Eu  Eu1  1  0.000427  0.249412  0.750000  1
  Eu  Eu2  1  0.244699  0.244599  0.250000  1
  Eu  Eu3  1  0.750774  0.998941  0.250000  1
  Eu  Eu4  1  0.998397  0.749543  0.250000  1
  Y  Y5  1  0.757372  0.756739  0.750000  1
  Y  Y6  1  0.668101  0.334837  0.000261  1
  Y  Y7  1  0.333867  0.667421  0.000302  1
  Y  Y8  1  0.333867  0.667421  0.499698  1
  Y  Y9  1  0.668101  0.334837  0.499739  1
  Pb  Pb10  1  0.415347  0.415581  0.750000  1
  Pb  Pb11  1  0.593902  0.993906  0.750000  1
  Pb  Pb12  1  0.993790  0.594550  0.750000  1
  Pb  Pb13  1  0.592900  0.592765  0.250000  1
  Pb  Pb14  1  0.407503  0.000509  0.250000  1
  Pb  Pb15  1  0.000585  0.407211  0.250000  1
  Se  Se16  1  0.995514  0.995731  0.996875  1
  Se  Se17  1  0.995514  0.995731  0.503125  1
