# generated using pymatgen
data_Y3Er5Te12
_symmetry_space_group_name_H-M   'P 1'
_cell_length_a   14.38636859
_cell_length_b   13.72012137
_cell_length_c   7.53081811
_cell_angle_alpha   79.40725490
_cell_angle_beta   69.62546763
_cell_angle_gamma   30.99162698
_symmetry_Int_Tables_number   1
_chemical_formula_structural   Y3Er5Te12
_chemical_formula_sum   'Y3 Er5 Te12'
_cell_volume   696.98385982
_cell_formula_units_Z   1
loop_
 _symmetry_equiv_pos_site_id
 _symmetry_equiv_pos_as_xyz
  1  'x, y, z'
loop_
 _atom_site_type_symbol
 _atom_site_label
 _atom_site_symmetry_multiplicity
 _atom_site_fract_x
 _atom_site_fract_y
 _atom_site_fract_z
 _atom_site_occupancy
  Y  Y0  1  0.000520  0.000520  0.499480  1
  Y  Y1  1  0.499467  0.499467  0.000533  1
  Y  Y2  1  0.249474  0.249474  0.750526  1
  Er  Er3  1  0.750486  0.750486  0.249514  1
  Er  Er4  1  0.667340  0.667340  0.832660  1
  Er  Er5  1  0.832639  0.832639  0.667361  1
  Er  Er6  1  0.582651  0.582651  0.417349  1
  Er  Er7  1  0.417279  0.417279  0.582721  1
  Te  Te8  1  0.668094  0.165287  0.830537  1
  Te  Te9  1  0.336088  0.830529  0.165281  1
  Te  Te10  1  0.830529  0.336088  0.668102  1
  Te  Te11  1  0.165287  0.668094  0.336082  1
  Te  Te12  1  0.582480  0.083542  0.418845  1
  Te  Te13  1  0.913304  0.420813  0.085416  1
  Te  Te14  1  0.420813  0.913304  0.580466  1
  Te  Te15  1  0.083542  0.582480  0.915133  1
  Te  Te16  1  0.750685  0.249311  0.249318  1
  Te  Te17  1  0.249311  0.750685  0.750686  1
  Te  Te18  1  0.500170  0.999842  0.001606  1
  Te  Te19  1  0.999842  0.500170  0.498381  1
