# generated using pymatgen
data_MnNb3FeSiN
_symmetry_space_group_name_H-M   'P 1'
_cell_length_a   8.02405247
_cell_length_b   8.02232529
_cell_length_c   8.02397294
_cell_angle_alpha   59.94805345
_cell_angle_beta   59.96275013
_cell_angle_gamma   59.94959962
_symmetry_Int_Tables_number   1
_chemical_formula_structural   MnNb3FeSiN
_chemical_formula_sum   'Mn4 Nb12 Fe4 Si4 N4'
_cell_volume   364.84626962
_cell_formula_units_Z   4
loop_
 _symmetry_equiv_pos_site_id
 _symmetry_equiv_pos_as_xyz
  1  'x, y, z'
loop_
 _atom_site_type_symbol
 _atom_site_label
 _atom_site_symmetry_multiplicity
 _atom_site_fract_x
 _atom_site_fract_y
 _atom_site_fract_z
 _atom_site_occupancy
  Mn  Mn0  1  0.734954  0.421744  0.421668  1
  Mn  Mn1  1  0.421741  0.734957  0.421634  1
  Mn  Mn2  1  0.421763  0.421745  0.734847  1
  Mn  Mn3  1  0.421651  0.421695  0.421670  1
  Nb  Nb4  1  0.799029  0.799015  0.200943  1
  Nb  Nb5  1  0.200940  0.200931  0.799044  1
  Nb  Nb6  1  0.799032  0.200937  0.799028  1
  Nb  Nb7  1  0.200970  0.799000  0.200974  1
  Nb  Nb8  1  0.200933  0.799030  0.799037  1
  Nb  Nb9  1  0.799039  0.200931  0.200953  1
  Nb  Nb10  1  0.450859  0.450887  0.049140  1
  Nb  Nb11  1  0.049167  0.049186  0.450876  1
  Nb  Nb12  1  0.450829  0.049182  0.450864  1
  Nb  Nb13  1  0.049157  0.450900  0.049138  1
  Nb  Nb14  1  0.049155  0.450855  0.450877  1
  Nb  Nb15  1  0.450870  0.049182  0.049138  1
  Fe  Fe16  1  0.512975  0.828991  0.829031  1
  Fe  Fe17  1  0.829015  0.512937  0.829048  1
  Fe  Fe18  1  0.828994  0.829002  0.512979  1
  Fe  Fe19  1  0.828975  0.828978  0.828994  1
  Si  Si20  1  0.118714  0.627035  0.627147  1
  Si  Si21  1  0.627043  0.118757  0.627110  1
  Si  Si22  1  0.627101  0.627057  0.118671  1
  Si  Si23  1  0.627094  0.627083  0.627171  1
  N  N24  1  0.621451  0.126187  0.126171  1
  N  N25  1  0.126191  0.621444  0.126179  1
  N  N26  1  0.126169  0.126167  0.621497  1
  N  N27  1  0.126191  0.126187  0.126171  1
