# generated using pymatgen
data_Dy2Tm2B12RhW
_symmetry_space_group_name_H-M   'P 1'
_cell_length_a   3.63431400
_cell_length_b   9.16965153
_cell_length_c   11.58948408
_cell_angle_alpha   90.43157040
_cell_angle_beta   90.00000000
_cell_angle_gamma   90.00000000
_symmetry_Int_Tables_number   1
_chemical_formula_structural   Dy2Tm2B12RhW
_chemical_formula_sum   'Dy4 Tm4 B24 Rh2 W2'
_cell_volume   386.21315452
_cell_formula_units_Z   2
loop_
 _symmetry_equiv_pos_site_id
 _symmetry_equiv_pos_as_xyz
  1  'x, y, z'
loop_
 _atom_site_type_symbol
 _atom_site_label
 _atom_site_symmetry_multiplicity
 _atom_site_fract_x
 _atom_site_fract_y
 _atom_site_fract_z
 _atom_site_occupancy
  Dy  Dy0  1  0.500000  0.320136  0.412319  1
  Dy  Dy1  1  0.500000  0.679864  0.587681  1
  Dy  Dy2  1  0.500000  0.175759  0.916228  1
  Dy  Dy3  1  0.500000  0.824241  0.083772  1
  Tm  Tm4  1  0.500000  0.444429  0.126921  1
  Tm  Tm5  1  0.500000  0.555571  0.873079  1
  Tm  Tm6  1  0.500000  0.055208  0.627633  1
  Tm  Tm7  1  0.500000  0.944792  0.372367  1
  B  B8  1  0.000000  0.105986  0.472314  1
  B  B9  1  0.000000  0.894014  0.527686  1
  B  B10  1  0.000000  0.397253  0.970844  1
  B  B11  1  0.000000  0.602747  0.029156  1
  B  B12  1  0.000000  0.132434  0.318124  1
  B  B13  1  0.000000  0.867566  0.681876  1
  B  B14  1  0.000000  0.368242  0.815634  1
  B  B15  1  0.000000  0.631758  0.184366  1
  B  B16  1  0.000000  0.051888  0.066096  1
  B  B17  1  0.000000  0.948112  0.933904  1
  B  B18  1  0.000000  0.445909  0.565950  1
  B  B19  1  0.000000  0.554091  0.434050  1
  B  B20  1  0.000000  0.484212  0.288367  1
  B  B21  1  0.000000  0.515788  0.711633  1
  B  B22  1  0.000000  0.020429  0.785101  1
  B  B23  1  0.000000  0.979571  0.214899  1
  B  B24  1  0.000000  0.252026  0.079762  1
  B  B25  1  0.000000  0.747974  0.920238  1
  B  B26  1  0.000000  0.250519  0.579536  1
  B  B27  1  0.000000  0.749481  0.420464  1
  B  B28  1  0.000000  0.297061  0.236659  1
  B  B29  1  0.000000  0.702939  0.763341  1
  B  B30  1  0.000000  0.208771  0.733898  1
  B  B31  1  0.000000  0.791229  0.266102  1
  Rh  Rh32  1  0.500000  0.360681  0.679375  1
  Rh  Rh33  1  0.500000  0.639319  0.320625  1
  W  W34  1  0.500000  0.139648  0.181146  1
  W  W35  1  0.500000  0.860352  0.818854  1
