# generated using pymatgen
data_Li4TbDy3Si8
_symmetry_space_group_name_H-M   'P 1'
_cell_length_a   3.79768400
_cell_length_b   7.58779639
_cell_length_c   10.18752109
_cell_angle_alpha   90.02237318
_cell_angle_beta   90.00000000
_cell_angle_gamma   90.00000000
_symmetry_Int_Tables_number   1
_chemical_formula_structural   Li4TbDy3Si8
_chemical_formula_sum   'Li4 Tb1 Dy3 Si8'
_cell_volume   293.56412455
_cell_formula_units_Z   1
loop_
 _symmetry_equiv_pos_site_id
 _symmetry_equiv_pos_as_xyz
  1  'x, y, z'
loop_
 _atom_site_type_symbol
 _atom_site_label
 _atom_site_symmetry_multiplicity
 _atom_site_fract_x
 _atom_site_fract_y
 _atom_site_fract_z
 _atom_site_occupancy
  Li  Li0  1  0.250000  0.989110  0.391172  1
  Li  Li1  1  0.750000  0.009735  0.608475  1
  Li  Li2  1  0.250000  0.490802  0.108821  1
  Li  Li3  1  0.750000  0.509103  0.891516  1
  Tb  Tb4  1  0.250000  0.140085  0.864126  1
  Dy  Dy5  1  0.750000  0.861229  0.136180  1
  Dy  Dy6  1  0.250000  0.638870  0.635753  1
  Dy  Dy7  1  0.750000  0.360831  0.364042  1
  Si  Si8  1  0.750000  0.269340  0.068937  1
  Si  Si9  1  0.250000  0.731787  0.932101  1
  Si  Si10  1  0.750000  0.767740  0.432114  1
  Si  Si11  1  0.250000  0.231625  0.567088  1
  Si  Si12  1  0.750000  0.842753  0.820528  1
  Si  Si13  1  0.250000  0.157436  0.179959  1
  Si  Si14  1  0.750000  0.343127  0.678562  1
  Si  Si15  1  0.250000  0.656428  0.320625  1
