# generated using pymatgen
data_Zr3Si2MoAsRu2
_symmetry_space_group_name_H-M   'P 1'
_cell_length_a   6.84441998
_cell_length_b   6.94566965
_cell_length_c   3.63651200
_cell_angle_alpha   90.00000000
_cell_angle_beta   90.00000000
_cell_angle_gamma   120.41184119
_symmetry_Int_Tables_number   1
_chemical_formula_structural   Zr3Si2MoAsRu2
_chemical_formula_sum   'Zr3 Si2 Mo1 As1 Ru2'
_cell_volume   149.09020600
_cell_formula_units_Z   1
loop_
 _symmetry_equiv_pos_site_id
 _symmetry_equiv_pos_as_xyz
  1  'x, y, z'
loop_
 _atom_site_type_symbol
 _atom_site_label
 _atom_site_symmetry_multiplicity
 _atom_site_fract_x
 _atom_site_fract_y
 _atom_site_fract_z
 _atom_site_occupancy
  Zr  Zr0  1  0.401440  0.412966  0.500000  1
  Zr  Zr1  1  0.593364  0.998828  0.500000  1
  Zr  Zr2  1  0.004925  0.594155  0.500000  1
  Si  Si3  1  0.001968  0.990123  0.500000  1
  Si  Si4  1  0.335431  0.670525  0.000000  1
  Mo  Mo5  1  0.003165  0.246178  0.000000  1
  As  As6  1  0.663062  0.334772  0.000000  1
  Ru  Ru7  1  0.244087  0.994665  0.000000  1
  Ru  Ru8  1  0.752557  0.757787  0.000000  1
