# generated using pymatgen
data_Lu5SnBi2Se
_symmetry_space_group_name_H-M   'P 1'
_cell_length_a   9.03049332
_cell_length_b   9.03049430
_cell_length_c   6.57117000
_cell_angle_alpha   90.00000000
_cell_angle_beta   90.00000000
_cell_angle_gamma   120.14593612
_symmetry_Int_Tables_number   1
_chemical_formula_structural   Lu5SnBi2Se
_chemical_formula_sum   'Lu10 Sn2 Bi4 Se2'
_cell_volume   463.39975675
_cell_formula_units_Z   2
loop_
 _symmetry_equiv_pos_site_id
 _symmetry_equiv_pos_as_xyz
  1  'x, y, z'
loop_
 _atom_site_type_symbol
 _atom_site_label
 _atom_site_symmetry_multiplicity
 _atom_site_fract_x
 _atom_site_fract_y
 _atom_site_fract_z
 _atom_site_occupancy
  Lu  Lu0  1  0.668223  0.329844  0.004211  1
  Lu  Lu1  1  0.329844  0.668223  0.004211  1
  Lu  Lu2  1  0.329844  0.668223  0.495789  1
  Lu  Lu3  1  0.668223  0.329844  0.495789  1
  Lu  Lu4  1  0.745200  0.745200  0.750000  1
  Lu  Lu5  1  0.255127  0.000598  0.750000  1
  Lu  Lu6  1  0.000598  0.255127  0.750000  1
  Lu  Lu7  1  0.252222  0.252222  0.250000  1
  Lu  Lu8  1  0.745896  0.006639  0.250000  1
  Lu  Lu9  1  0.006639  0.745896  0.250000  1
  Sn  Sn10  1  0.396330  0.002036  0.250000  1
  Sn  Sn11  1  0.002036  0.396330  0.250000  1
  Bi  Bi12  1  0.396184  0.396184  0.750000  1
  Bi  Bi13  1  0.603136  0.998388  0.750000  1
  Bi  Bi14  1  0.998388  0.603136  0.750000  1
  Bi  Bi15  1  0.606132  0.606132  0.250000  1
  Se  Se16  1  0.997988  0.997988  0.999494  1
  Se  Se17  1  0.997988  0.997988  0.500506  1
