# generated using pymatgen
data_TbHf3B8
_symmetry_space_group_name_H-M   'P 1'
_cell_length_a   3.16778200
_cell_length_b   3.16778277
_cell_length_c   14.22554800
_cell_angle_alpha   90.00000000
_cell_angle_beta   90.00000000
_cell_angle_gamma   120.00001282
_symmetry_Int_Tables_number   1
_chemical_formula_structural   TbHf3B8
_chemical_formula_sum   'Tb1 Hf3 B8'
_cell_volume   123.62612602
_cell_formula_units_Z   1
loop_
 _symmetry_equiv_pos_site_id
 _symmetry_equiv_pos_as_xyz
  1  'x, y, z'
loop_
 _atom_site_type_symbol
 _atom_site_label
 _atom_site_symmetry_multiplicity
 _atom_site_fract_x
 _atom_site_fract_y
 _atom_site_fract_z
 _atom_site_occupancy
  Tb  Tb0  1  0.000000  0.000000  0.000000  1
  Hf  Hf1  1  0.000000  0.000000  0.741005  1
  Hf  Hf2  1  0.000000  0.000000  0.500000  1
  Hf  Hf3  1  0.000000  0.000000  0.258995  1
  B  B4  1  0.666667  0.333333  0.860637  1
  B  B5  1  0.666667  0.333333  0.620611  1
  B  B6  1  0.666667  0.333333  0.379389  1
  B  B7  1  0.666667  0.333333  0.139363  1
  B  B8  1  0.333333  0.666667  0.860637  1
  B  B9  1  0.333333  0.666667  0.620611  1
  B  B10  1  0.333333  0.666667  0.379389  1
  B  B11  1  0.333333  0.666667  0.139363  1
