# generated using pymatgen
data_Nd16In4TcNi3
_symmetry_space_group_name_H-M   'P 1'
_cell_length_a   9.93521507
_cell_length_b   9.92961185
_cell_length_c   9.92715348
_cell_angle_alpha   60.04718783
_cell_angle_beta   60.06436961
_cell_angle_gamma   60.07500403
_symmetry_Int_Tables_number   1
_chemical_formula_structural   Nd16In4TcNi3
_chemical_formula_sum   'Nd16 In4 Tc1 Ni3'
_cell_volume   693.47512672
_cell_formula_units_Z   1
loop_
 _symmetry_equiv_pos_site_id
 _symmetry_equiv_pos_as_xyz
  1  'x, y, z'
loop_
 _atom_site_type_symbol
 _atom_site_label
 _atom_site_symmetry_multiplicity
 _atom_site_fract_x
 _atom_site_fract_y
 _atom_site_fract_z
 _atom_site_occupancy
  Nd  Nd0  1  0.597283  0.597788  0.597981  1
  Nd  Nd1  1  0.598292  0.598651  0.208625  1
  Nd  Nd2  1  0.598234  0.208687  0.598717  1
  Nd  Nd3  1  0.208914  0.598395  0.598521  1
  Nd  Nd4  1  0.060123  0.438765  0.438728  1
  Nd  Nd5  1  0.438237  0.057472  0.057337  1
  Nd  Nd6  1  0.438751  0.059981  0.438620  1
  Nd  Nd7  1  0.057656  0.438164  0.057146  1
  Nd  Nd8  1  0.438710  0.438624  0.059940  1
  Nd  Nd9  1  0.057573  0.057228  0.438153  1
  Nd  Nd10  1  0.187772  0.814114  0.814101  1
  Nd  Nd11  1  0.801147  0.191323  0.191259  1
  Nd  Nd12  1  0.814091  0.187790  0.813999  1
  Nd  Nd13  1  0.191340  0.801199  0.191171  1
  Nd  Nd14  1  0.814070  0.813971  0.187772  1
  Nd  Nd15  1  0.191295  0.191187  0.801218  1
  In  In16  1  0.830580  0.830575  0.830576  1
  In  In17  1  0.830823  0.830802  0.508830  1
  In  In18  1  0.830856  0.508797  0.830775  1
  In  In19  1  0.508722  0.830831  0.830839  1
  Tc  Tc20  1  0.390585  0.390606  0.390622  1
  Ni  Ni21  1  0.393856  0.393900  0.827171  1
  Ni  Ni22  1  0.393857  0.827201  0.393930  1
  Ni  Ni23  1  0.827232  0.393947  0.393968  1
