# generated using pymatgen
data_Dy20HgRh11
_symmetry_space_group_name_H-M   'P 1'
_cell_length_a   11.01607547
_cell_length_b   11.01607497
_cell_length_c   6.34454583
_cell_angle_alpha   90.08153753
_cell_angle_beta   90.08153887
_cell_angle_gamma   89.79650879
_symmetry_Int_Tables_number   1
_chemical_formula_structural   Dy20HgRh11
_chemical_formula_sum   'Dy20 Hg1 Rh11'
_cell_volume   769.92905420
_cell_formula_units_Z   1
loop_
 _symmetry_equiv_pos_site_id
 _symmetry_equiv_pos_as_xyz
  1  'x, y, z'
loop_
 _atom_site_type_symbol
 _atom_site_label
 _atom_site_symmetry_multiplicity
 _atom_site_fract_x
 _atom_site_fract_y
 _atom_site_fract_z
 _atom_site_occupancy
  Dy  Dy0  1  0.291376  0.092037  0.380711  1
  Dy  Dy1  1  0.288648  0.923029  0.879576  1
  Dy  Dy2  1  0.709133  0.090956  0.880416  1
  Dy  Dy3  1  0.710132  0.910929  0.381580  1
  Dy  Dy4  1  0.597562  0.795020  0.880854  1
  Dy  Dy5  1  0.590486  0.205680  0.377038  1
  Dy  Dy6  1  0.416486  0.798282  0.358505  1
  Dy  Dy7  1  0.411044  0.210463  0.876228  1
  Dy  Dy8  1  0.204980  0.402438  0.619146  1
  Dy  Dy9  1  0.201718  0.583514  0.141495  1
  Dy  Dy10  1  0.794320  0.409514  0.122962  1
  Dy  Dy11  1  0.789537  0.588956  0.623772  1
  Dy  Dy12  1  0.907963  0.708624  0.119289  1
  Dy  Dy13  1  0.909044  0.290867  0.619584  1
  Dy  Dy14  1  0.076971  0.711352  0.620424  1
  Dy  Dy15  1  0.089071  0.289868  0.118420  1
  Dy  Dy16  1  0.000780  0.001999  0.498539  1
  Dy  Dy17  1  0.998001  0.999220  0.001461  1
  Dy  Dy18  1  0.507618  0.494002  0.002400  1
  Dy  Dy19  1  0.505998  0.492382  0.497600  1
  Hg  Hg20  1  0.343072  0.656928  0.750000  1
  Rh  Rh21  1  0.845505  0.154495  0.250000  1
  Rh  Rh22  1  0.846694  0.845786  0.748336  1
  Rh  Rh23  1  0.154214  0.153306  0.751664  1
  Rh  Rh24  1  0.154561  0.845439  0.250000  1
  Rh  Rh25  1  0.656445  0.343555  0.750000  1
  Rh  Rh26  1  0.653038  0.653505  0.249270  1
  Rh  Rh27  1  0.346495  0.346962  0.250730  1
  Rh  Rh28  1  0.499779  0.001240  0.121595  1
  Rh  Rh29  1  0.500488  0.999918  0.626603  1
  Rh  Rh30  1  0.000082  0.499512  0.873397  1
  Rh  Rh31  1  0.998760  0.500221  0.378405  1
