# generated using pymatgen
data_DyThCu2(Ni3B)2
_symmetry_space_group_name_H-M   'P 1'
_cell_length_a   5.08015600
_cell_length_b   5.08897715
_cell_length_c   6.91164600
_cell_angle_alpha   90.00000000
_cell_angle_beta   90.00000000
_cell_angle_gamma   119.94267666
_symmetry_Int_Tables_number   1
_chemical_formula_structural   DyThCu2(Ni3B)2
_chemical_formula_sum   'Dy1 Th1 Cu2 Ni6 B2'
_cell_volume   154.83539230
_cell_formula_units_Z   1
loop_
 _symmetry_equiv_pos_site_id
 _symmetry_equiv_pos_as_xyz
  1  'x, y, z'
loop_
 _atom_site_type_symbol
 _atom_site_label
 _atom_site_symmetry_multiplicity
 _atom_site_fract_x
 _atom_site_fract_y
 _atom_site_fract_z
 _atom_site_occupancy
  Dy  Dy0  1  0.500000  0.000000  0.500000  1
  Th  Th1  1  0.500000  0.000000  0.000000  1
  Cu  Cu2  1  0.833245  0.666488  0.000000  1
  Cu  Cu3  1  0.166755  0.333512  0.000000  1
  Ni  Ni4  1  0.000000  0.000000  0.703096  1
  Ni  Ni5  1  0.500000  0.500000  0.702994  1
  Ni  Ni6  1  0.000000  0.500000  0.702994  1
  Ni  Ni7  1  0.000000  0.000000  0.296904  1
  Ni  Ni8  1  0.500000  0.500000  0.297006  1
  Ni  Ni9  1  0.000000  0.500000  0.297006  1
  B  B10  1  0.833415  0.666828  0.500000  1
  B  B11  1  0.166585  0.333172  0.500000  1
