# generated using pymatgen
data_Tb4AlRu3F28
_symmetry_space_group_name_H-M   'P 1'
_cell_length_a   5.54734578
_cell_length_b   8.89004827
_cell_length_c   11.89066722
_cell_angle_alpha   63.20308625
_cell_angle_beta   90.28738858
_cell_angle_gamma   89.82812172
_symmetry_Int_Tables_number   1
_chemical_formula_structural   Tb4AlRu3F28
_chemical_formula_sum   'Tb4 Al1 Ru3 F28'
_cell_volume   523.41283996
_cell_formula_units_Z   1
loop_
 _symmetry_equiv_pos_site_id
 _symmetry_equiv_pos_as_xyz
  1  'x, y, z'
loop_
 _atom_site_type_symbol
 _atom_site_label
 _atom_site_symmetry_multiplicity
 _atom_site_fract_x
 _atom_site_fract_y
 _atom_site_fract_z
 _atom_site_occupancy
  Tb  Tb0  1  0.261139  0.813273  0.254961  1
  Tb  Tb1  1  0.742043  0.166704  0.747433  1
  Tb  Tb2  1  0.761161  0.208070  0.222410  1
  Tb  Tb3  1  0.242076  0.801245  0.787384  1
  Al  Al4  1  0.757091  0.724931  0.046177  1
  Ru  Ru5  1  0.245632  0.274267  0.952655  1
  Ru  Ru6  1  0.257929  0.270494  0.459542  1
  Ru  Ru7  1  0.744592  0.724283  0.546958  1
  F  F8  1  0.948754  0.704463  0.423211  1
  F  F9  1  0.054565  0.291338  0.583083  1
  F  F10  1  0.432613  0.302925  0.079870  1
  F  F11  1  0.540990  0.711833  0.932540  1
  F  F12  1  0.509327  0.739176  0.142310  1
  F  F13  1  0.541577  0.271833  0.866102  1
  F  F14  1  0.972148  0.266880  0.365582  1
  F  F15  1  0.026473  0.725372  0.643102  1
  F  F16  1  0.968380  0.748781  0.157883  1
  F  F17  1  0.059168  0.256319  0.819847  1
  F  F18  1  0.455409  0.252484  0.330881  1
  F  F19  1  0.540574  0.743847  0.673082  1
  F  F20  1  0.766679  0.493362  0.137141  1
  F  F21  1  0.236081  0.512343  0.855478  1
  F  F22  1  0.267244  0.510696  0.364302  1
  F  F23  1  0.731178  0.484277  0.641496  1
  F  F24  1  0.943643  0.286100  0.032800  1
  F  F25  1  0.016041  0.709396  0.954955  1
  F  F26  1  0.458954  0.718111  0.453064  1
  F  F27  1  0.548763  0.277843  0.549663  1
  F  F28  1  0.748764  0.962187  0.456383  1
  F  F29  1  0.261166  0.032952  0.548617  1
  F  F30  1  0.248512  0.036317  0.041151  1
  F  F31  1  0.765502  0.957555  0.946302  1
  F  F32  1  0.564795  0.988527  0.231930  1
  F  F33  1  0.398260  0.034982  0.770165  1
  F  F34  1  0.067337  0.030972  0.258040  1
  F  F35  1  0.915442  0.965862  0.723500  1
