# generated using pymatgen
data_CaEu4Ta2WO14
_symmetry_space_group_name_H-M   'P 1'
_cell_length_a   7.76990889
_cell_length_b   7.76990906
_cell_length_c   7.70852700
_cell_angle_alpha   59.56249748
_cell_angle_beta   59.56248821
_cell_angle_gamma   59.84548608
_symmetry_Int_Tables_number   1
_chemical_formula_structural   CaEu4Ta2WO14
_chemical_formula_sum   'Ca1 Eu4 Ta2 W1 O14'
_cell_volume   326.49875160
_cell_formula_units_Z   1
loop_
 _symmetry_equiv_pos_site_id
 _symmetry_equiv_pos_as_xyz
  1  'x, y, z'
loop_
 _atom_site_type_symbol
 _atom_site_label
 _atom_site_symmetry_multiplicity
 _atom_site_fract_x
 _atom_site_fract_y
 _atom_site_fract_z
 _atom_site_occupancy
  Ca  Ca0  1  0.625000  0.625000  0.125000  1
  Eu  Eu1  1  0.125000  0.625000  0.125000  1
  Eu  Eu2  1  0.125000  0.125000  0.625000  1
  Eu  Eu3  1  0.625000  0.125000  0.125000  1
  Eu  Eu4  1  0.125000  0.125000  0.125000  1
  Ta  Ta5  1  0.125000  0.625000  0.625000  1
  Ta  Ta6  1  0.625000  0.125000  0.625000  1
  W  W7  1  0.625000  0.625000  0.625000  1
  O  O8  1  0.331065  0.699291  0.649010  1
  O  O9  1  0.531687  0.000521  0.940396  1
  O  O10  1  0.717097  0.717097  0.316853  1
  O  O11  1  0.321062  0.321062  0.651823  1
  O  O12  1  0.002619  0.002619  0.986840  1
  O  O13  1  0.249479  0.718313  0.309604  1
  O  O14  1  0.699291  0.331065  0.649010  1
  O  O15  1  0.000521  0.531687  0.940396  1
  O  O16  1  0.532903  0.532903  0.933147  1
  O  O17  1  0.928938  0.928938  0.598177  1
  O  O18  1  0.247381  0.247381  0.263160  1
  O  O19  1  0.550709  0.918935  0.600990  1
  O  O20  1  0.718313  0.249479  0.309604  1
  O  O21  1  0.918935  0.550709  0.600990  1
