# generated using pymatgen
data_Er15Th(InRh)4
_symmetry_space_group_name_H-M   'P 1'
_cell_length_a   9.61891306
_cell_length_b   9.61891361
_cell_length_c   9.62081600
_cell_angle_alpha   59.99345739
_cell_angle_beta   59.99345552
_cell_angle_gamma   59.56131498
_symmetry_Int_Tables_number   1
_chemical_formula_structural   Er15Th(InRh)4
_chemical_formula_sum   'Er15 Th1 In4 Rh4'
_cell_volume   627.25726263
_cell_formula_units_Z   1
loop_
 _symmetry_equiv_pos_site_id
 _symmetry_equiv_pos_as_xyz
  1  'x, y, z'
loop_
 _atom_site_type_symbol
 _atom_site_label
 _atom_site_symmetry_multiplicity
 _atom_site_fract_x
 _atom_site_fract_y
 _atom_site_fract_z
 _atom_site_occupancy
  Er  Er0  1  0.440249  0.060061  0.062527  1
  Er  Er1  1  0.440249  0.060061  0.437164  1
  Er  Er2  1  0.060061  0.440249  0.062527  1
  Er  Er3  1  0.653169  0.050280  0.648275  1
  Er  Er4  1  0.188177  0.806480  0.811857  1
  Er  Er5  1  0.063529  0.063529  0.436471  1
  Er  Er6  1  0.806480  0.188177  0.193486  1
  Er  Er7  1  0.810872  0.810872  0.189128  1
  Er  Er8  1  0.649971  0.649971  0.048679  1
  Er  Er9  1  0.649971  0.649971  0.651378  1
  Er  Er10  1  0.060061  0.440249  0.437164  1
  Er  Er11  1  0.050280  0.653169  0.648275  1
  Er  Er12  1  0.806480  0.188177  0.811857  1
  Er  Er13  1  0.436991  0.436991  0.063009  1
  Er  Er14  1  0.188177  0.806480  0.193486  1
  Th  Th15  1  0.186215  0.186215  0.813785  1
  In  In16  1  0.418161  0.748886  0.416477  1
  In  In17  1  0.418071  0.418071  0.750249  1
  In  In18  1  0.748886  0.418161  0.416477  1
  In  In19  1  0.418071  0.418071  0.413610  1
  Rh  Rh20  1  0.869562  0.423162  0.853638  1
  Rh  Rh21  1  0.856578  0.856578  0.428271  1
  Rh  Rh22  1  0.423162  0.869562  0.853638  1
  Rh  Rh23  1  0.856578  0.856578  0.858573  1
