# generated using pymatgen
data_Ho10In8CuIrPd2
_symmetry_space_group_name_H-M   'P 1'
_cell_length_a   3.62985400
_cell_length_b   8.08927730
_cell_length_c   18.16021604
_cell_angle_alpha   90.08741015
_cell_angle_beta   90.00000000
_cell_angle_gamma   90.00000000
_symmetry_Int_Tables_number   1
_chemical_formula_structural   Ho10In8CuIrPd2
_chemical_formula_sum   'Ho10 In8 Cu1 Ir1 Pd2'
_cell_volume   533.23590652
_cell_formula_units_Z   1
loop_
 _symmetry_equiv_pos_site_id
 _symmetry_equiv_pos_as_xyz
  1  'x, y, z'
loop_
 _atom_site_type_symbol
 _atom_site_label
 _atom_site_symmetry_multiplicity
 _atom_site_fract_x
 _atom_site_fract_y
 _atom_site_fract_z
 _atom_site_occupancy
  Ho  Ho0  1  0.000000  0.501478  0.499558  1
  Ho  Ho1  1  0.000000  0.001280  0.000175  1
  Ho  Ho2  1  0.000000  0.729698  0.277609  1
  Ho  Ho3  1  0.000000  0.260675  0.720373  1
  Ho  Ho4  1  0.000000  0.760371  0.780027  1
  Ho  Ho5  1  0.000000  0.253307  0.219837  1
  Ho  Ho6  1  0.000000  0.613659  0.085924  1
  Ho  Ho7  1  0.000000  0.383079  0.916032  1
  Ho  Ho8  1  0.000000  0.883464  0.582973  1
  Ho  Ho9  1  0.000000  0.116379  0.416357  1
  In  In10  1  0.500000  0.709112  0.931486  1
  In  In11  1  0.500000  0.290310  0.068085  1
  In  In12  1  0.500000  0.790353  0.431643  1
  In  In13  1  0.500000  0.209856  0.567876  1
  In  In14  1  0.500000  0.579825  0.650690  1
  In  In15  1  0.500000  0.420803  0.351356  1
  In  In16  1  0.500000  0.920873  0.149773  1
  In  In17  1  0.500000  0.080363  0.850639  1
  Cu  Cu18  1  0.500000  0.476333  0.803652  1
  Ir  Ir19  1  0.500000  0.520684  0.195434  1
  Pd  Pd20  1  0.500000  0.976192  0.696543  1
  Pd  Pd21  1  0.500000  0.021907  0.303961  1
