# generated using pymatgen
data_TbNd5Cd23P
_symmetry_space_group_name_H-M   'P 1'
_cell_length_a   10.07264493
_cell_length_b   10.07265392
_cell_length_c   10.00049200
_cell_angle_alpha   60.23693398
_cell_angle_beta   60.23691583
_cell_angle_gamma   59.52650458
_symmetry_Int_Tables_number   1
_chemical_formula_structural   TbNd5Cd23P
_chemical_formula_sum   'Tb1 Nd5 Cd23 P1'
_cell_volume   717.38231523
_cell_formula_units_Z   1
loop_
 _symmetry_equiv_pos_site_id
 _symmetry_equiv_pos_as_xyz
  1  'x, y, z'
loop_
 _atom_site_type_symbol
 _atom_site_label
 _atom_site_symmetry_multiplicity
 _atom_site_fract_x
 _atom_site_fract_y
 _atom_site_fract_z
 _atom_site_occupancy
  Tb  Tb0  1  0.803776  0.803776  0.196223  1
  Nd  Nd1  1  0.202889  0.797047  0.202951  1
  Nd  Nd2  1  0.797045  0.202889  0.202952  1
  Nd  Nd3  1  0.198644  0.198644  0.801356  1
  Nd  Nd4  1  0.797052  0.202890  0.797110  1
  Nd  Nd5  1  0.202890  0.797050  0.797111  1
  Cd  Cd6  1  0.835642  0.835642  0.491951  1
  Cd  Cd7  1  0.832521  0.496825  0.835327  1
  Cd  Cd8  1  0.496825  0.832521  0.835327  1
  Cd  Cd9  1  0.835642  0.835643  0.836765  1
  Cd  Cd10  1  0.164673  0.164673  0.503175  1
  Cd  Cd11  1  0.163235  0.508048  0.164358  1
  Cd  Cd12  1  0.508048  0.163235  0.164357  1
  Cd  Cd13  1  0.164672  0.164672  0.167479  1
  Cd  Cd14  1  0.623595  0.623596  0.136284  1
  Cd  Cd15  1  0.620928  0.133019  0.623027  1
  Cd  Cd16  1  0.133019  0.620927  0.623028  1
  Cd  Cd17  1  0.623596  0.623595  0.616526  1
  Cd  Cd18  1  0.376973  0.376973  0.866981  1
  Cd  Cd19  1  0.383474  0.863716  0.376404  1
  Cd  Cd20  1  0.863717  0.383473  0.376404  1
  Cd  Cd21  1  0.376973  0.376972  0.379073  1
  Cd  Cd22  1  0.999207  0.999208  0.500792  1
  Cd  Cd23  1  0.500022  0.999646  0.499977  1
  Cd  Cd24  1  0.999646  0.500022  0.499978  1
  Cd  Cd25  1  0.499207  0.499207  0.000792  1
  Cd  Cd26  1  0.999646  0.500022  0.000354  1
  Cd  Cd27  1  0.500022  0.999646  0.000354  1
  Cd  Cd28  1  0.498164  0.498164  0.501836  1
  P  P29  1  0.998256  0.998257  0.001744  1
