# generated using pymatgen
data_Tm16Co3NiAg4
_symmetry_space_group_name_H-M   'P 1'
_cell_length_a   9.25287129
_cell_length_b   9.27410801
_cell_length_c   9.27410800
_cell_angle_alpha   60.00000005
_cell_angle_beta   59.92404804
_cell_angle_gamma   59.92405448
_symmetry_Int_Tables_number   1
_chemical_formula_structural   Tm16Co3NiAg4
_chemical_formula_sum   'Tm16 Co3 Ni1 Ag4'
_cell_volume   562.09058718
_cell_formula_units_Z   1
loop_
 _symmetry_equiv_pos_site_id
 _symmetry_equiv_pos_as_xyz
  1  'x, y, z'
loop_
 _atom_site_type_symbol
 _atom_site_label
 _atom_site_symmetry_multiplicity
 _atom_site_fract_x
 _atom_site_fract_y
 _atom_site_fract_z
 _atom_site_occupancy
  Tm  Tm0  1  0.347508  0.349599  0.349599  1
  Tm  Tm1  1  0.347508  0.349599  0.953295  1
  Tm  Tm2  1  0.347508  0.953295  0.349599  1
  Tm  Tm3  1  0.956011  0.347997  0.347997  1
  Tm  Tm4  1  0.813551  0.188764  0.188764  1
  Tm  Tm5  1  0.187966  0.811986  0.811986  1
  Tm  Tm6  1  0.187966  0.811986  0.188063  1
  Tm  Tm7  1  0.813551  0.188764  0.808919  1
  Tm  Tm8  1  0.187966  0.188063  0.811986  1
  Tm  Tm9  1  0.813551  0.808919  0.188764  1
  Tm  Tm10  1  0.936287  0.563423  0.563423  1
  Tm  Tm11  1  0.562388  0.936546  0.936546  1
  Tm  Tm12  1  0.562388  0.936546  0.564521  1
  Tm  Tm13  1  0.936287  0.563423  0.936865  1
  Tm  Tm14  1  0.562388  0.564521  0.936546  1
  Tm  Tm15  1  0.936287  0.936865  0.563423  1
  Co  Co16  1  0.142663  0.141678  0.141678  1
  Co  Co17  1  0.142663  0.141678  0.573982  1
  Co  Co18  1  0.142663  0.573982  0.141678  1
  Ni  Ni19  1  0.574164  0.141946  0.141946  1
  Ag  Ag20  1  0.581564  0.581876  0.581876  1
  Ag  Ag21  1  0.581564  0.581876  0.254685  1
  Ag  Ag22  1  0.581564  0.254685  0.581876  1
  Ag  Ag23  1  0.254044  0.581986  0.581986  1
