# generated using pymatgen
data_Th4VB16W3
_symmetry_space_group_name_H-M   'P 1'
_cell_length_a   3.74867200
_cell_length_b   6.12257025
_cell_length_c   11.83476060
_cell_angle_alpha   90.13553537
_cell_angle_beta   90.00000000
_cell_angle_gamma   90.00000000
_symmetry_Int_Tables_number   1
_chemical_formula_structural   Th4VB16W3
_chemical_formula_sum   'Th4 V1 B16 W3'
_cell_volume   271.62483860
_cell_formula_units_Z   1
loop_
 _symmetry_equiv_pos_site_id
 _symmetry_equiv_pos_as_xyz
  1  'x, y, z'
loop_
 _atom_site_type_symbol
 _atom_site_label
 _atom_site_symmetry_multiplicity
 _atom_site_fract_x
 _atom_site_fract_y
 _atom_site_fract_z
 _atom_site_occupancy
  Th  Th0  1  0.000000  0.623289  0.346305  1
  Th  Th1  1  0.000000  0.377002  0.651860  1
  Th  Th2  1  0.000000  0.122022  0.149865  1
  Th  Th3  1  0.000000  0.876167  0.850768  1
  V  V4  1  0.000000  0.626677  0.083177  1
  B  B5  1  0.500000  0.780133  0.182152  1
  B  B6  1  0.500000  0.218183  0.817021  1
  B  B7  1  0.500000  0.282289  0.315332  1
  B  B8  1  0.500000  0.717551  0.684526  1
  B  B9  1  0.500000  0.859421  0.033336  1
  B  B10  1  0.500000  0.140026  0.967714  1
  B  B11  1  0.500000  0.361649  0.467553  1
  B  B12  1  0.500000  0.638242  0.531872  1
  B  B13  1  0.500000  0.886866  0.453894  1
  B  B14  1  0.500000  0.112638  0.545707  1
  B  B15  1  0.500000  0.389563  0.046217  1
  B  B16  1  0.500000  0.612731  0.955853  1
  B  B17  1  0.500000  0.973455  0.309581  1
  B  B18  1  0.500000  0.026491  0.690211  1
  B  B19  1  0.500000  0.475622  0.188930  1
  B  B20  1  0.500000  0.525826  0.810954  1
  W  W21  1  0.000000  0.374383  0.917180  1
  W  W22  1  0.000000  0.129949  0.414577  1
  W  W23  1  0.000000  0.869822  0.585415  1
