# generated using pymatgen
data_K5TbO4
_symmetry_space_group_name_H-M   'P 1'
_cell_length_a   6.34493600
_cell_length_b   8.33277300
_cell_length_c   8.73944300
_cell_angle_alpha   90.00000000
_cell_angle_beta   90.00000000
_cell_angle_gamma   90.00000000
_symmetry_Int_Tables_number   1
_chemical_formula_structural   K5TbO4
_chemical_formula_sum   'K10 Tb2 O8'
_cell_volume   462.06231643
_cell_formula_units_Z   2
loop_
 _symmetry_equiv_pos_site_id
 _symmetry_equiv_pos_as_xyz
  1  'x, y, z'
loop_
 _atom_site_type_symbol
 _atom_site_label
 _atom_site_symmetry_multiplicity
 _atom_site_fract_x
 _atom_site_fract_y
 _atom_site_fract_z
 _atom_site_occupancy
  K  K0  1  0.257092  0.762998  0.810450  1
  K  K1  1  0.257092  0.237002  0.810450  1
  K  K2  1  0.813674  0.500000  0.000000  1
  K  K3  1  0.257092  0.762998  0.189550  1
  K  K4  1  0.257092  0.237002  0.189550  1
  K  K5  1  0.742908  0.737002  0.310450  1
  K  K6  1  0.742908  0.262998  0.310450  1
  K  K7  1  0.186326  0.000000  0.500000  1
  K  K8  1  0.742908  0.737002  0.689550  1
  K  K9  1  0.742908  0.262998  0.689550  1
  Tb  Tb10  1  0.781374  0.000000  0.000000  1
  Tb  Tb11  1  0.218626  0.500000  0.500000  1
  O  O12  1  0.967783  0.000000  0.788063  1
  O  O13  1  0.597492  0.778763  0.000000  1
  O  O14  1  0.597492  0.221237  0.000000  1
  O  O15  1  0.967783  0.000000  0.211937  1
  O  O16  1  0.032217  0.500000  0.288063  1
  O  O17  1  0.402508  0.721237  0.500000  1
  O  O18  1  0.402508  0.278763  0.500000  1
  O  O19  1  0.032217  0.500000  0.711937  1
