# generated using pymatgen
data_Hf9Zr(Sn3As)2
_symmetry_space_group_name_H-M   'P 1'
_cell_length_a   8.60516500
_cell_length_b   8.61507847
_cell_length_c   5.92470800
_cell_angle_alpha   90.00000000
_cell_angle_beta   90.00000000
_cell_angle_gamma   120.03811120
_symmetry_Int_Tables_number   1
_chemical_formula_structural   Hf9Zr(Sn3As)2
_chemical_formula_sum   'Hf9 Zr1 Sn6 As2'
_cell_volume   380.23239092
_cell_formula_units_Z   1
loop_
 _symmetry_equiv_pos_site_id
 _symmetry_equiv_pos_as_xyz
  1  'x, y, z'
loop_
 _atom_site_type_symbol
 _atom_site_label
 _atom_site_symmetry_multiplicity
 _atom_site_fract_x
 _atom_site_fract_y
 _atom_site_fract_z
 _atom_site_occupancy
  Hf  Hf0  1  0.666276  0.332750  0.999885  1
  Hf  Hf1  1  0.333724  0.666477  0.999885  1
  Hf  Hf2  1  0.333724  0.666477  0.500115  1
  Hf  Hf3  1  0.666276  0.332750  0.500115  1
  Hf  Hf4  1  0.736534  0.736919  0.750000  1
  Hf  Hf5  1  0.263466  0.000385  0.750000  1
  Hf  Hf6  1  0.000000  0.264211  0.750000  1
  Hf  Hf7  1  0.263026  0.262508  0.250000  1
  Hf  Hf8  1  0.736974  0.999482  0.250000  1
  Zr  Zr9  1  0.000000  0.737040  0.250000  1
  Sn  Sn10  1  0.394747  0.394660  0.750000  1
  Sn  Sn11  1  0.605253  0.999914  0.750000  1
  Sn  Sn12  1  0.000000  0.605298  0.750000  1
  Sn  Sn13  1  0.604441  0.604636  0.250000  1
  Sn  Sn14  1  0.395559  0.000195  0.250000  1
  Sn  Sn15  1  0.000000  0.393770  0.250000  1
  As  As16  1  0.000000  0.001265  0.998737  1
  As  As17  1  0.000000  0.001265  0.501263  1
