# generated using pymatgen
data_Ba4FeReTeO12
_symmetry_space_group_name_H-M   'P 1'
_cell_length_a   9.99294393
_cell_length_b   9.99294423
_cell_length_c   9.99294400
_cell_angle_alpha   33.72233652
_cell_angle_beta   33.72234424
_cell_angle_gamma   33.72233281
_symmetry_Int_Tables_number   1
_chemical_formula_structural   Ba4FeReTeO12
_chemical_formula_sum   'Ba4 Fe1 Re1 Te1 O12'
_cell_volume   274.02578574
_cell_formula_units_Z   1
loop_
 _symmetry_equiv_pos_site_id
 _symmetry_equiv_pos_as_xyz
  1  'x, y, z'
loop_
 _atom_site_type_symbol
 _atom_site_label
 _atom_site_symmetry_multiplicity
 _atom_site_fract_x
 _atom_site_fract_y
 _atom_site_fract_z
 _atom_site_occupancy
  Ba  Ba0  1  0.708084  0.708084  0.708084  1
  Ba  Ba1  1  0.289398  0.289398  0.289398  1
  Ba  Ba2  1  0.871244  0.871244  0.871244  1
  Ba  Ba3  1  0.137438  0.137438  0.137438  1
  Fe  Fe4  1  0.000331  0.000331  0.000331  1
  Re  Re5  1  0.417813  0.417813  0.417813  1
  Te  Te6  1  0.581652  0.581652  0.581652  1
  O  O7  1  0.384210  0.384210  0.870513  1
  O  O8  1  0.870513  0.384210  0.384210  1
  O  O9  1  0.384210  0.870513  0.384210  1
  O  O10  1  0.606824  0.606824  0.141111  1
  O  O11  1  0.141111  0.606824  0.606824  1
  O  O12  1  0.606824  0.141111  0.606824  1
  O  O13  1  0.214216  0.214216  0.696292  1
  O  O14  1  0.696292  0.214216  0.214216  1
  O  O15  1  0.214216  0.696292  0.214216  1
  O  O16  1  0.787215  0.787215  0.301191  1
  O  O17  1  0.301191  0.787215  0.787215  1
  O  O18  1  0.787215  0.301191  0.787215  1
