# generated using pymatgen
data_Ho10SnBi5Se2
_symmetry_space_group_name_H-M   'P 1'
_cell_length_a   9.20611079
_cell_length_b   9.21605683
_cell_length_c   6.61715500
_cell_angle_alpha   90.00000000
_cell_angle_beta   90.00000000
_cell_angle_gamma   120.03575295
_symmetry_Int_Tables_number   1
_chemical_formula_structural   Ho10SnBi5Se2
_chemical_formula_sum   'Ho10 Sn1 Bi5 Se2'
_cell_volume   486.03405984
_cell_formula_units_Z   1
loop_
 _symmetry_equiv_pos_site_id
 _symmetry_equiv_pos_as_xyz
  1  'x, y, z'
loop_
 _atom_site_type_symbol
 _atom_site_label
 _atom_site_symmetry_multiplicity
 _atom_site_fract_x
 _atom_site_fract_y
 _atom_site_fract_z
 _atom_site_occupancy
  Ho  Ho0  1  0.669710  0.334132  0.001823  1
  Ho  Ho1  1  0.330290  0.664423  0.001823  1
  Ho  Ho2  1  0.330290  0.664423  0.498177  1
  Ho  Ho3  1  0.669710  0.334132  0.498177  1
  Ho  Ho4  1  0.746396  0.746254  0.750000  1
  Ho  Ho5  1  0.253604  0.999858  0.750000  1
  Ho  Ho6  1  0.000000  0.254677  0.750000  1
  Ho  Ho7  1  0.250554  0.255494  0.250000  1
  Ho  Ho8  1  0.749446  0.004941  0.250000  1
  Ho  Ho9  1  0.000000  0.743645  0.250000  1
  Sn  Sn10  1  0.000000  0.396189  0.250000  1
  Bi  Bi11  1  0.395474  0.394953  0.750000  1
  Bi  Bi12  1  0.604526  0.999479  0.750000  1
  Bi  Bi13  1  0.000000  0.603747  0.750000  1
  Bi  Bi14  1  0.605009  0.605399  0.250000  1
  Bi  Bi15  1  0.394991  0.000390  0.250000  1
  Se  Se16  1  0.000000  0.998932  0.999771  1
  Se  Se17  1  0.000000  0.998932  0.500229  1
