# generated using pymatgen
data_Rb3Cu2P2Au
_symmetry_space_group_name_H-M   'P 1'
_cell_length_a   7.64359098
_cell_length_b   7.64359091
_cell_length_c   7.74331753
_cell_angle_alpha   47.23281994
_cell_angle_beta   47.23282046
_cell_angle_gamma   45.96645347
_symmetry_Int_Tables_number   1
_chemical_formula_structural   Rb3Cu2P2Au
_chemical_formula_sum   'Rb3 Cu2 P2 Au1'
_cell_volume   219.62834447
_cell_formula_units_Z   1
loop_
 _symmetry_equiv_pos_site_id
 _symmetry_equiv_pos_as_xyz
  1  'x, y, z'
loop_
 _atom_site_type_symbol
 _atom_site_label
 _atom_site_symmetry_multiplicity
 _atom_site_fract_x
 _atom_site_fract_y
 _atom_site_fract_z
 _atom_site_occupancy
  Rb  Rb0  1  0.905165  0.905165  0.916133  1
  Rb  Rb1  1  0.500000  0.500000  0.500000  1
  Rb  Rb2  1  0.094835  0.094835  0.083867  1
  Cu  Cu3  1  0.000000  0.500000  0.500000  1
  Cu  Cu4  1  0.500000  0.000000  0.500000  1
  P  P5  1  0.247617  0.247617  0.285211  1
  P  P6  1  0.752383  0.752383  0.714789  1
  Au  Au7  1  0.500000  0.500000  0.000000  1
