# generated using pymatgen
data_Lu12Ru3Rh
_symmetry_space_group_name_H-M   'P 1'
_cell_length_a   6.17554136
_cell_length_b   7.18508044
_cell_length_c   8.93551200
_cell_angle_alpha   90.00000000
_cell_angle_beta   90.00000000
_cell_angle_gamma   89.96021447
_symmetry_Int_Tables_number   1
_chemical_formula_structural   Lu12Ru3Rh
_chemical_formula_sum   'Lu12 Ru3 Rh1'
_cell_volume   396.48431156
_cell_formula_units_Z   1
loop_
 _symmetry_equiv_pos_site_id
 _symmetry_equiv_pos_as_xyz
  1  'x, y, z'
loop_
 _atom_site_type_symbol
 _atom_site_label
 _atom_site_symmetry_multiplicity
 _atom_site_fract_x
 _atom_site_fract_y
 _atom_site_fract_z
 _atom_site_occupancy
  Lu  Lu0  1  0.332431  0.674448  0.061343  1
  Lu  Lu1  1  0.170120  0.179571  0.438482  1
  Lu  Lu2  1  0.669802  0.323422  0.562977  1
  Lu  Lu3  1  0.827956  0.822375  0.934644  1
  Lu  Lu4  1  0.669802  0.323422  0.937023  1
  Lu  Lu5  1  0.827956  0.822375  0.565356  1
  Lu  Lu6  1  0.332431  0.674448  0.438657  1
  Lu  Lu7  1  0.170120  0.179571  0.061518  1
  Lu  Lu8  1  0.871669  0.538853  0.250000  1
  Lu  Lu9  1  0.629065  0.038880  0.250000  1
  Lu  Lu10  1  0.126809  0.460590  0.750000  1
  Lu  Lu11  1  0.370356  0.961478  0.750000  1
  Ru  Ru12  1  0.463572  0.385107  0.250000  1
  Ru  Ru13  1  0.963299  0.114077  0.750000  1
  Ru  Ru14  1  0.533428  0.614883  0.750000  1
  Rh  Rh15  1  0.041184  0.886501  0.250000  1
