# generated using pymatgen
data_Ti8Al15PdRu6
_symmetry_space_group_name_H-M   'P 1'
_cell_length_a   8.67923908
_cell_length_b   8.65679210
_cell_length_c   8.66033202
_cell_angle_alpha   120.10905903
_cell_angle_beta   119.93557381
_cell_angle_gamma   90.00376004
_symmetry_Int_Tables_number   1
_chemical_formula_structural   Ti8Al15PdRu6
_chemical_formula_sum   'Ti8 Al15 Pd1 Ru6'
_cell_volume   459.77954640
_cell_formula_units_Z   1
loop_
 _symmetry_equiv_pos_site_id
 _symmetry_equiv_pos_as_xyz
  1  'x, y, z'
loop_
 _atom_site_type_symbol
 _atom_site_label
 _atom_site_symmetry_multiplicity
 _atom_site_fract_x
 _atom_site_fract_y
 _atom_site_fract_z
 _atom_site_occupancy
  Ti  Ti0  1  0.789930  0.284130  0.066741  1
  Ti  Ti1  1  0.219483  0.284689  0.494884  1
  Ti  Ti2  1  0.215168  0.710623  0.499756  1
  Ti  Ti3  1  0.218482  0.721391  0.932772  1
  Ti  Ti4  1  0.785419  0.719884  0.505607  1
  Ti  Ti5  1  0.775958  0.281328  0.500450  1
  Ti  Ti6  1  0.391418  0.124997  0.751475  1
  Ti  Ti7  1  0.378703  0.635916  0.258741  1
  Al  Al8  1  0.996529  0.496288  0.500377  1
  Al  Al9  1  0.155116  0.344664  0.189135  1
  Al  Al10  1  0.155499  0.964523  0.811518  1
  Al  Al11  1  0.152577  0.349175  0.806265  1
  Al  Al12  1  0.540725  0.347004  0.194092  1
  Al  Al13  1  0.846875  0.653275  0.807259  1
  Al  Al14  1  0.844269  0.042165  0.191640  1
  Al  Al15  1  0.842103  0.651149  0.188142  1
  Al  Al16  1  0.464600  0.654107  0.809448  1
  Al  Al17  1  0.378730  0.121759  0.257000  1
  Al  Al18  1  0.862368  0.123685  0.745775  1
  Al  Al19  1  0.615743  0.875011  0.253065  1
  Al  Al20  1  0.619646  0.364739  0.743348  1
  Al  Al21  1  0.620124  0.876417  0.741823  1
  Al  Al22  1  0.137637  0.876358  0.253494  1
  Pd  Pd23  1  0.999408  0.999326  0.499116  1
  Ru  Ru24  1  0.498162  0.999659  0.998368  1
  Ru  Ru25  1  0.497870  0.498878  0.999994  1
  Ru  Ru26  1  0.498942  0.499292  0.498363  1
  Ru  Ru27  1  0.999749  0.499957  0.001135  1
  Ru  Ru28  1  0.999364  0.000287  0.999737  1
  Ru  Ru29  1  0.499402  0.999324  0.500479  1
