# generated using pymatgen
data_Cs4Li2HoInAs4
_symmetry_space_group_name_H-M   'P 1'
_cell_length_a   9.93790426
_cell_length_b   9.93790381
_cell_length_c   9.93790319
_cell_angle_alpha   139.98877594
_cell_angle_beta   57.88751932
_cell_angle_gamma   139.96614957
_symmetry_Int_Tables_number   1
_chemical_formula_structural   Cs4Li2HoInAs4
_chemical_formula_sum   'Cs4 Li2 Ho1 In1 As4'
_cell_volume   402.32051076
_cell_formula_units_Z   1
loop_
 _symmetry_equiv_pos_site_id
 _symmetry_equiv_pos_as_xyz
  1  'x, y, z'
loop_
 _atom_site_type_symbol
 _atom_site_label
 _atom_site_symmetry_multiplicity
 _atom_site_fract_x
 _atom_site_fract_y
 _atom_site_fract_z
 _atom_site_occupancy
  Cs  Cs0  1  0.332300  0.777041  0.098575  1
  Cs  Cs1  1  0.167700  0.266275  0.444741  1
  Cs  Cs2  1  0.821535  0.722961  0.555259  1
  Cs  Cs3  1  0.678465  0.233726  0.901425  1
  Li  Li4  1  0.750000  0.250000  0.500000  1
  Li  Li5  1  0.250000  0.750001  0.500001  1
  Ho  Ho6  1  0.250000  0.250000  0.000000  1
  In  In7  1  0.749999  0.749999  0.000000  1
  As  As8  1  0.911660  0.238326  0.156911  1
  As  As9  1  0.588340  0.745252  0.326666  1
  As  As10  1  0.418586  0.261675  0.673335  1
  As  As11  1  0.081414  0.754749  0.843089  1
