# generated using pymatgen
data_Dy5Y3Re2(OsC4)2
_symmetry_space_group_name_H-M   'P 1'
_cell_length_a   5.12181200
_cell_length_b   6.54296252
_cell_length_c   9.83898511
_cell_angle_alpha   89.77541332
_cell_angle_beta   90.00000000
_cell_angle_gamma   90.00000000
_symmetry_Int_Tables_number   1
_chemical_formula_structural   Dy5Y3Re2(OsC4)2
_chemical_formula_sum   'Dy5 Y3 Re2 Os2 C8'
_cell_volume   329.71980362
_cell_formula_units_Z   1
loop_
 _symmetry_equiv_pos_site_id
 _symmetry_equiv_pos_as_xyz
  1  'x, y, z'
loop_
 _atom_site_type_symbol
 _atom_site_label
 _atom_site_symmetry_multiplicity
 _atom_site_fract_x
 _atom_site_fract_y
 _atom_site_fract_z
 _atom_site_occupancy
  Dy  Dy0  1  0.250000  0.678996  0.554733  1
  Dy  Dy1  1  0.750000  0.320936  0.445191  1
  Dy  Dy2  1  0.750000  0.819784  0.055322  1
  Dy  Dy3  1  0.250000  0.180375  0.944702  1
  Dy  Dy4  1  0.250000  0.531650  0.215536  1
  Y  Y5  1  0.750000  0.468265  0.784431  1
  Y  Y6  1  0.750000  0.969987  0.714246  1
  Y  Y7  1  0.250000  0.030011  0.285768  1
  Re  Re8  1  0.250000  0.723071  0.864763  1
  Re  Re9  1  0.750000  0.277163  0.135369  1
  Os  Os10  1  0.750000  0.775601  0.364178  1
  Os  Os11  1  0.250000  0.224375  0.635765  1
  C  C12  1  0.250000  0.457239  0.759808  1
  C  C13  1  0.750000  0.542779  0.240170  1
  C  C14  1  0.750000  0.042211  0.258621  1
  C  C15  1  0.250000  0.957709  0.741398  1
  C  C16  1  0.250000  0.821971  0.050124  1
  C  C17  1  0.750000  0.177811  0.949975  1
  C  C18  1  0.750000  0.676881  0.549082  1
  C  C19  1  0.250000  0.323186  0.450819  1
