# generated using pymatgen
data_Tb3Yb3Si24Os3Ru5
_symmetry_space_group_name_H-M   'P 1'
_cell_length_a   10.15927906
_cell_length_b   10.15957782
_cell_length_c   8.15376128
_cell_angle_alpha   89.94792950
_cell_angle_beta   90.06038988
_cell_angle_gamma   132.67367541
_symmetry_Int_Tables_number   1
_chemical_formula_structural   Tb3Yb3Si24Os3Ru5
_chemical_formula_sum   'Tb3 Yb3 Si24 Os3 Ru5'
_cell_volume   618.75283588
_cell_formula_units_Z   1
loop_
 _symmetry_equiv_pos_site_id
 _symmetry_equiv_pos_as_xyz
  1  'x, y, z'
loop_
 _atom_site_type_symbol
 _atom_site_label
 _atom_site_symmetry_multiplicity
 _atom_site_fract_x
 _atom_site_fract_y
 _atom_site_fract_z
 _atom_site_occupancy
  Tb  Tb0  1  0.999800  0.499750  0.249962  1
  Tb  Tb1  1  0.499275  0.999354  0.249909  1
  Tb  Tb2  1  0.000628  0.500725  0.750132  1
  Yb  Yb3  1  0.500311  0.500154  0.500240  1
  Yb  Yb4  1  0.000157  0.000317  0.999789  1
  Yb  Yb5  1  0.501354  0.001202  0.750064  1
  Si  Si6  1  0.795201  0.202449  0.501090  1
  Si  Si7  1  0.297943  0.705496  0.998186  1
  Si  Si8  1  0.205453  0.797880  0.501807  1
  Si  Si9  1  0.703091  0.294842  0.999038  1
  Si  Si10  1  0.333001  0.333666  0.832240  1
  Si  Si11  1  0.666500  0.668170  0.167462  1
  Si  Si12  1  0.168387  0.166262  0.332408  1
  Si  Si13  1  0.833990  0.832798  0.667906  1
  Si  Si14  1  0.122202  0.890123  0.730520  1
  Si  Si15  1  0.109085  0.877790  0.270481  1
  Si  Si16  1  0.609222  0.377735  0.228807  1
  Si  Si17  1  0.622083  0.389824  0.770408  1
  Si  Si18  1  0.876748  0.108565  0.269459  1
  Si  Si19  1  0.890659  0.122967  0.731174  1
  Si  Si20  1  0.390437  0.622580  0.769758  1
  Si  Si21  1  0.377379  0.608702  0.229256  1
  Si  Si22  1  0.346178  0.113917  0.506130  1
  Si  Si23  1  0.886306  0.654525  0.493619  1
  Si  Si24  1  0.386466  0.154024  0.005365  1
  Si  Si25  1  0.844697  0.613218  0.993550  1
  Si  Si26  1  0.653623  0.885944  0.493285  1
  Si  Si27  1  0.113721  0.345130  0.507799  1
  Si  Si28  1  0.614348  0.846955  0.994042  1
  Si  Si29  1  0.153424  0.385749  0.006365  1
  Os  Os30  1  0.671825  0.329356  0.498888  1
  Os  Os31  1  0.169747  0.827754  0.001213  1
  Os  Os32  1  0.327764  0.669743  0.498752  1
  Ru  Ru33  1  0.829225  0.171698  0.000943  1
  Ru  Ru34  1  0.126097  0.126118  0.625538  1
  Ru  Ru35  1  0.873791  0.874297  0.374778  1
  Ru  Ru36  1  0.374004  0.373987  0.125267  1
  Ru  Ru37  1  0.625878  0.626234  0.874368  1
