# generated using pymatgen
data_Cs4AcUSe6
_symmetry_space_group_name_H-M   'P 1'
_cell_length_a   7.98182424
_cell_length_b   7.98182464
_cell_length_c   8.77837000
_cell_angle_alpha   81.13295727
_cell_angle_beta   81.13295682
_cell_angle_gamma   119.77624521
_symmetry_Int_Tables_number   1
_chemical_formula_structural   Cs4AcUSe6
_chemical_formula_sum   'Cs4 Ac1 U1 Se6'
_cell_volume   461.94672155
_cell_formula_units_Z   1
loop_
 _symmetry_equiv_pos_site_id
 _symmetry_equiv_pos_as_xyz
  1  'x, y, z'
loop_
 _atom_site_type_symbol
 _atom_site_label
 _atom_site_symmetry_multiplicity
 _atom_site_fract_x
 _atom_site_fract_y
 _atom_site_fract_z
 _atom_site_occupancy
  Cs  Cs0  1  0.500190  0.499810  0.000000  1
  Cs  Cs1  1  0.653696  0.346304  0.500000  1
  Cs  Cs2  1  0.346663  0.653337  0.500000  1
  Cs  Cs3  1  0.999650  0.000350  0.500000  1
  Ac  Ac4  1  0.832103  0.167897  0.000000  1
  U  U5  1  0.167267  0.832733  0.000000  1
  Se  Se6  1  0.836296  0.805158  0.192228  1
  Se  Se7  1  0.194842  0.163704  0.807772  1
  Se  Se8  1  0.400887  0.028925  0.196789  1
  Se  Se9  1  0.535407  0.938076  0.803144  1
  Se  Se10  1  0.971075  0.599113  0.803211  1
  Se  Se11  1  0.061924  0.464593  0.196856  1
