# generated using pymatgen
data_Pr8Be2Si12PdAu
_symmetry_space_group_name_H-M   'P 1'
_cell_length_a   8.14445600
_cell_length_b   8.14445927
_cell_length_c   8.70843800
_cell_angle_alpha   89.99998593
_cell_angle_beta   90.00001407
_cell_angle_gamma   119.99999482
_symmetry_Int_Tables_number   1
_chemical_formula_structural   Pr8Be2Si12PdAu
_chemical_formula_sum   'Pr8 Be2 Si12 Pd1 Au1'
_cell_volume   500.25939779
_cell_formula_units_Z   1
loop_
 _symmetry_equiv_pos_site_id
 _symmetry_equiv_pos_as_xyz
  1  'x, y, z'
loop_
 _atom_site_type_symbol
 _atom_site_label
 _atom_site_symmetry_multiplicity
 _atom_site_fract_x
 _atom_site_fract_y
 _atom_site_fract_z
 _atom_site_occupancy
  Pr  Pr0  1  0.500411  0.499588  0.755067  1
  Pr  Pr1  1  0.500466  0.499534  0.244934  1
  Pr  Pr2  1  0.999177  0.499588  0.755067  1
  Pr  Pr3  1  0.999068  0.499534  0.244934  1
  Pr  Pr4  1  0.500411  0.000823  0.755067  1
  Pr  Pr5  1  0.500466  0.000932  0.244934  1
  Pr  Pr6  1  0.000000  0.000000  0.751798  1
  Pr  Pr7  1  0.000000  0.000000  0.248207  1
  Be  Be8  1  0.666667  0.333333  0.999384  1
  Be  Be9  1  0.333333  0.666667  0.000600  1
  Si  Si10  1  0.827610  0.172390  0.000096  1
  Si  Si11  1  0.172424  0.827576  0.999952  1
  Si  Si12  1  0.344780  0.172390  0.000096  1
  Si  Si13  1  0.162039  0.837961  0.499921  1
  Si  Si14  1  0.655153  0.827576  0.999952  1
  Si  Si15  1  0.832466  0.167534  0.500108  1
  Si  Si16  1  0.827610  0.655220  0.000096  1
  Si  Si17  1  0.675921  0.837960  0.499921  1
  Si  Si18  1  0.172424  0.344847  0.999952  1
  Si  Si19  1  0.335067  0.167534  0.500108  1
  Si  Si20  1  0.162040  0.324079  0.499921  1
  Si  Si21  1  0.832466  0.664933  0.500108  1
  Pd  Pd22  1  0.666667  0.333333  0.499942  1
  Au  Au23  1  0.333333  0.666667  0.499836  1
