# generated using pymatgen
data_Hf18MnVRe7Si
_symmetry_space_group_name_H-M   'P 1'
_cell_length_a   8.56419700
_cell_length_b   8.56419711
_cell_length_c   8.56027100
_cell_angle_alpha   90.00000000
_cell_angle_beta   90.00000000
_cell_angle_gamma   120.00000345
_symmetry_Int_Tables_number   1
_chemical_formula_structural   Hf18MnVRe7Si
_chemical_formula_sum   'Hf18 Mn1 V1 Re7 Si1'
_cell_volume   543.74018818
_cell_formula_units_Z   1
loop_
 _symmetry_equiv_pos_site_id
 _symmetry_equiv_pos_as_xyz
  1  'x, y, z'
loop_
 _atom_site_type_symbol
 _atom_site_label
 _atom_site_symmetry_multiplicity
 _atom_site_fract_x
 _atom_site_fract_y
 _atom_site_fract_z
 _atom_site_occupancy
  Hf  Hf0  1  0.200835  0.799165  0.444207  1
  Hf  Hf1  1  0.200835  0.401671  0.444207  1
  Hf  Hf2  1  0.598329  0.799165  0.444207  1
  Hf  Hf3  1  0.805998  0.194002  0.548451  1
  Hf  Hf4  1  0.805998  0.611996  0.548451  1
  Hf  Hf5  1  0.388004  0.194002  0.548451  1
  Hf  Hf6  1  0.807785  0.192215  0.952123  1
  Hf  Hf7  1  0.807785  0.615568  0.952123  1
  Hf  Hf8  1  0.384432  0.192215  0.952123  1
  Hf  Hf9  1  0.202965  0.797035  0.057754  1
  Hf  Hf10  1  0.202965  0.405931  0.057754  1
  Hf  Hf11  1  0.594069  0.797035  0.057754  1
  Hf  Hf12  1  0.539315  0.460685  0.250400  1
  Hf  Hf13  1  0.539315  0.078630  0.250400  1
  Hf  Hf14  1  0.921370  0.460685  0.250400  1
  Hf  Hf15  1  0.461405  0.538595  0.750619  1
  Hf  Hf16  1  0.461405  0.922812  0.750619  1
  Hf  Hf17  1  0.077188  0.538595  0.750619  1
  Mn  Mn18  1  0.333333  0.666667  0.251682  1
  V  V19  1  0.000000  0.000000  0.495592  1
  Re  Re20  1  0.889571  0.110429  0.251796  1
  Re  Re21  1  0.889571  0.779140  0.251796  1
  Re  Re22  1  0.220860  0.110429  0.251796  1
  Re  Re23  1  0.110438  0.889562  0.745520  1
  Re  Re24  1  0.110438  0.220876  0.745520  1
  Re  Re25  1  0.779124  0.889562  0.745520  1
  Re  Re26  1  0.000000  0.000000  0.998052  1
  Si  Si27  1  0.666667  0.333333  0.752065  1
