# generated using pymatgen
data_Nd3CBr2Cl3
_symmetry_space_group_name_H-M   'P 1'
_cell_length_a   7.56319302
_cell_length_b   8.85939522
_cell_length_c   9.21874164
_cell_angle_alpha   108.78341070
_cell_angle_beta   97.68169812
_cell_angle_gamma   104.95741151
_symmetry_Int_Tables_number   1
_chemical_formula_structural   Nd3CBr2Cl3
_chemical_formula_sum   'Nd6 C2 Br4 Cl6'
_cell_volume   548.89592982
_cell_formula_units_Z   2
loop_
 _symmetry_equiv_pos_site_id
 _symmetry_equiv_pos_as_xyz
  1  'x, y, z'
loop_
 _atom_site_type_symbol
 _atom_site_label
 _atom_site_symmetry_multiplicity
 _atom_site_fract_x
 _atom_site_fract_y
 _atom_site_fract_z
 _atom_site_occupancy
  Nd  Nd0  1  0.887094  0.953835  0.228852  1
  Nd  Nd1  1  0.112906  0.046165  0.771148  1
  Nd  Nd2  1  0.025434  0.710304  0.908965  1
  Nd  Nd3  1  0.974566  0.289696  0.091035  1
  Nd  Nd4  1  0.606372  0.841143  0.794722  1
  Nd  Nd5  1  0.393628  0.158857  0.205278  1
  C  C6  1  0.906714  0.966482  0.953494  1
  C  C7  1  0.093286  0.033518  0.046506  1
  Br  Br8  1  0.746634  0.910859  0.532635  1
  Br  Br9  1  0.253366  0.089141  0.467365  1
  Br  Br10  1  0.457563  0.809985  0.081028  1
  Br  Br11  1  0.542437  0.190015  0.918972  1
  Cl  Cl12  1  0.812988  0.260792  0.342416  1
  Cl  Cl13  1  0.187012  0.739208  0.657584  1
  Cl  Cl14  1  0.914115  0.629143  0.159671  1
  Cl  Cl15  1  0.085885  0.370857  0.840329  1
  Cl  Cl16  1  0.661627  0.536007  0.717989  1
  Cl  Cl17  1  0.338373  0.463993  0.282011  1
