# generated using pymatgen
data_Zr3Al3CoNi2
_symmetry_space_group_name_H-M   'P 1'
_cell_length_a   6.96108900
_cell_length_b   6.96108846
_cell_length_c   3.43882900
_cell_angle_alpha   90.00000000
_cell_angle_beta   90.00000000
_cell_angle_gamma   120.00000732
_symmetry_Int_Tables_number   1
_chemical_formula_structural   Zr3Al3CoNi2
_chemical_formula_sum   'Zr3 Al3 Co1 Ni2'
_cell_volume   144.30969850
_cell_formula_units_Z   1
loop_
 _symmetry_equiv_pos_site_id
 _symmetry_equiv_pos_as_xyz
  1  'x, y, z'
loop_
 _atom_site_type_symbol
 _atom_site_label
 _atom_site_symmetry_multiplicity
 _atom_site_fract_x
 _atom_site_fract_y
 _atom_site_fract_z
 _atom_site_occupancy
  Zr  Zr0  1  0.405348  0.992059  0.500000  1
  Zr  Zr1  1  0.007941  0.413289  0.500000  1
  Zr  Zr2  1  0.586711  0.594652  0.500000  1
  Al  Al3  1  0.750323  0.002713  0.000000  1
  Al  Al4  1  0.997287  0.747611  0.000000  1
  Al  Al5  1  0.252389  0.249677  0.000000  1
  Co  Co6  1  0.333333  0.666667  0.000000  1
  Ni  Ni7  1  0.666667  0.333333  0.000000  1
  Ni  Ni8  1  0.000000  0.000000  0.500000  1
