# generated using pymatgen
data_Ba4Al5Ga3Au20
_symmetry_space_group_name_H-M   'P 1'
_cell_length_a   7.30205500
_cell_length_b   9.21063704
_cell_length_c   10.13695823
_cell_angle_alpha   90.10881845
_cell_angle_beta   90.00000000
_cell_angle_gamma   90.00000000
_symmetry_Int_Tables_number   1
_chemical_formula_structural   Ba4Al5Ga3Au20
_chemical_formula_sum   'Ba4 Al5 Ga3 Au20'
_cell_volume   681.77589494
_cell_formula_units_Z   1
loop_
 _symmetry_equiv_pos_site_id
 _symmetry_equiv_pos_as_xyz
  1  'x, y, z'
loop_
 _atom_site_type_symbol
 _atom_site_label
 _atom_site_symmetry_multiplicity
 _atom_site_fract_x
 _atom_site_fract_y
 _atom_site_fract_z
 _atom_site_occupancy
  Ba  Ba0  1  0.250000  0.244806  0.119612  1
  Ba  Ba1  1  0.250000  0.750270  0.377592  1
  Ba  Ba2  1  0.750000  0.754575  0.878618  1
  Ba  Ba3  1  0.750000  0.254346  0.622988  1
  Al  Al4  1  0.250000  0.055419  0.619261  1
  Al  Al5  1  0.250000  0.556217  0.879821  1
  Al  Al6  1  0.750000  0.946036  0.378848  1
  Al  Al7  1  0.750000  0.442882  0.120524  1
  Al  Al8  1  0.250000  0.351580  0.481361  1
  Ga  Ga9  1  0.250000  0.852087  0.024148  1
  Ga  Ga10  1  0.750000  0.649512  0.527892  1
  Ga  Ga11  1  0.750000  0.148468  0.973182  1
  Au  Au12  1  0.054259  0.109360  0.400125  1
  Au  Au13  1  0.445566  0.600562  0.103459  1
  Au  Au14  1  0.554611  0.899913  0.599854  1
  Au  Au15  1  0.945087  0.401663  0.897973  1
  Au  Au16  1  0.945389  0.899913  0.599854  1
  Au  Au17  1  0.554913  0.401663  0.897973  1
  Au  Au18  1  0.445741  0.109360  0.400125  1
  Au  Au19  1  0.054434  0.600562  0.103459  1
  Au  Au20  1  0.041672  0.063644  0.855325  1
  Au  Au21  1  0.453634  0.560098  0.636773  1
  Au  Au22  1  0.541546  0.932594  0.146708  1
  Au  Au23  1  0.964543  0.432840  0.357301  1
  Au  Au24  1  0.958454  0.932594  0.146708  1
  Au  Au25  1  0.535457  0.432840  0.357301  1
  Au  Au26  1  0.458328  0.063644  0.855325  1
  Au  Au27  1  0.046366  0.560098  0.636773  1
  Au  Au28  1  0.250000  0.305737  0.732587  1
  Au  Au29  1  0.250000  0.805839  0.767586  1
  Au  Au30  1  0.750000  0.689170  0.272698  1
  Au  Au31  1  0.750000  0.191704  0.228249  1
