# generated using pymatgen
data_AcDy6Sn23Rh6
_symmetry_space_group_name_H-M   'P 1'
_cell_length_a   9.91230700
_cell_length_b   9.91230703
_cell_length_c   10.12533800
_cell_angle_alpha   90.00000000
_cell_angle_beta   90.00000000
_cell_angle_gamma   119.99999655
_symmetry_Int_Tables_number   1
_chemical_formula_structural   AcDy6Sn23Rh6
_chemical_formula_sum   'Ac1 Dy6 Sn23 Rh6'
_cell_volume   861.56821107
_cell_formula_units_Z   1
loop_
 _symmetry_equiv_pos_site_id
 _symmetry_equiv_pos_as_xyz
  1  'x, y, z'
loop_
 _atom_site_type_symbol
 _atom_site_label
 _atom_site_symmetry_multiplicity
 _atom_site_fract_x
 _atom_site_fract_y
 _atom_site_fract_z
 _atom_site_occupancy
  Ac  Ac0  1  0.000000  0.000000  0.000000  1
  Dy  Dy1  1  0.479499  0.520501  0.307474  1
  Dy  Dy2  1  0.520501  0.479499  0.692526  1
  Dy  Dy3  1  0.479499  0.958997  0.307474  1
  Dy  Dy4  1  0.520501  0.041003  0.692526  1
  Dy  Dy5  1  0.041003  0.520501  0.307474  1
  Dy  Dy6  1  0.958997  0.479499  0.692526  1
  Sn  Sn7  1  0.354056  0.000000  0.000000  1
  Sn  Sn8  1  0.645944  0.000000  0.000000  1
  Sn  Sn9  1  0.000000  0.354056  0.000000  1
  Sn  Sn10  1  0.000000  0.645944  0.000000  1
  Sn  Sn11  1  0.645944  0.645944  0.000000  1
  Sn  Sn12  1  0.354056  0.354056  0.000000  1
  Sn  Sn13  1  0.333333  0.666667  0.821530  1
  Sn  Sn14  1  0.666667  0.333333  0.178470  1
  Sn  Sn15  1  0.000000  0.000000  0.500000  1
  Sn  Sn16  1  0.777760  0.222240  0.455474  1
  Sn  Sn17  1  0.222240  0.777760  0.544526  1
  Sn  Sn18  1  0.777760  0.555520  0.455474  1
  Sn  Sn19  1  0.222240  0.444480  0.544526  1
  Sn  Sn20  1  0.444480  0.222240  0.455474  1
  Sn  Sn21  1  0.555520  0.777760  0.544526  1
  Sn  Sn22  1  0.333333  0.666667  0.119847  1
  Sn  Sn23  1  0.666667  0.333333  0.880153  1
  Sn  Sn24  1  0.120670  0.879330  0.284308  1
  Sn  Sn25  1  0.879330  0.120670  0.715692  1
  Sn  Sn26  1  0.120670  0.241338  0.284308  1
  Sn  Sn27  1  0.879330  0.758662  0.715692  1
  Sn  Sn28  1  0.758662  0.879330  0.284308  1
  Sn  Sn29  1  0.241338  0.120670  0.715692  1
  Rh  Rh30  1  0.830667  0.169333  0.199478  1
  Rh  Rh31  1  0.169333  0.830667  0.800522  1
  Rh  Rh32  1  0.830667  0.661331  0.199478  1
  Rh  Rh33  1  0.169333  0.338669  0.800522  1
  Rh  Rh34  1  0.338669  0.169333  0.199478  1
  Rh  Rh35  1  0.661331  0.830667  0.800522  1
