# generated using pymatgen
data_Tm5LuSi10
_symmetry_space_group_name_H-M   'P 1'
_cell_length_a   6.53528000
_cell_length_b   6.53691043
_cell_length_c   8.21499358
_cell_angle_alpha   90.06155197
_cell_angle_beta   90.00000000
_cell_angle_gamma   119.99174960
_symmetry_Int_Tables_number   1
_chemical_formula_structural   Tm5LuSi10
_chemical_formula_sum   'Tm5 Lu1 Si10'
_cell_volume   303.95574744
_cell_formula_units_Z   1
loop_
 _symmetry_equiv_pos_site_id
 _symmetry_equiv_pos_as_xyz
  1  'x, y, z'
loop_
 _atom_site_type_symbol
 _atom_site_label
 _atom_site_symmetry_multiplicity
 _atom_site_fract_x
 _atom_site_fract_y
 _atom_site_fract_z
 _atom_site_occupancy
  Tm  Tm0  1  0.669976  0.669920  0.500004  1
  Tm  Tm1  1  0.000056  0.330080  0.499996  1
  Tm  Tm2  1  0.000017  0.330014  0.000009  1
  Tm  Tm3  1  0.670003  0.669986  0.999991  1
  Tm  Tm4  1  0.330029  0.000000  0.000000  1
  Lu  Lu5  1  0.330190  0.000000  0.500000  1
  Si  Si6  1  0.000259  0.999972  0.749785  1
  Si  Si7  1  0.667901  0.065187  0.749706  1
  Si  Si8  1  0.396808  0.331155  0.749622  1
  Si  Si9  1  0.934744  0.603137  0.749929  1
  Si  Si10  1  0.333320  0.666884  0.749780  1
  Si  Si11  1  0.000287  0.000028  0.250215  1
  Si  Si12  1  0.666437  0.333116  0.250220  1
  Si  Si13  1  0.331607  0.396863  0.250071  1
  Si  Si14  1  0.065653  0.668845  0.250378  1
  Si  Si15  1  0.602714  0.934813  0.250294  1
