# generated using pymatgen
data_ZrSc5Te3
_symmetry_space_group_name_H-M   'P 1'
_cell_length_a   3.96513300
_cell_length_b   10.70236100
_cell_length_c   20.13511900
_cell_angle_alpha   90.00000000
_cell_angle_beta   90.00000000
_cell_angle_gamma   90.00000000
_symmetry_Int_Tables_number   1
_chemical_formula_structural   ZrSc5Te3
_chemical_formula_sum   'Zr4 Sc20 Te12'
_cell_volume   854.45964394
_cell_formula_units_Z   4
loop_
 _symmetry_equiv_pos_site_id
 _symmetry_equiv_pos_as_xyz
  1  'x, y, z'
loop_
 _atom_site_type_symbol
 _atom_site_label
 _atom_site_symmetry_multiplicity
 _atom_site_fract_x
 _atom_site_fract_y
 _atom_site_fract_z
 _atom_site_occupancy
  Zr  Zr0  1  0.250000  0.898900  0.490613  1
  Zr  Zr1  1  0.750000  0.101100  0.509387  1
  Zr  Zr2  1  0.750000  0.398900  0.009387  1
  Zr  Zr3  1  0.250000  0.601100  0.990613  1
  Sc  Sc4  1  0.250000  0.071296  0.634957  1
  Sc  Sc5  1  0.750000  0.928704  0.365043  1
  Sc  Sc6  1  0.750000  0.571296  0.865043  1
  Sc  Sc7  1  0.250000  0.428704  0.134957  1
  Sc  Sc8  1  0.250000  0.379399  0.532646  1
  Sc  Sc9  1  0.750000  0.620601  0.467354  1
  Sc  Sc10  1  0.750000  0.879399  0.967354  1
  Sc  Sc11  1  0.250000  0.120601  0.032646  1
  Sc  Sc12  1  0.750000  0.654151  0.103552  1
  Sc  Sc13  1  0.250000  0.345849  0.896448  1
  Sc  Sc14  1  0.250000  0.154151  0.396448  1
  Sc  Sc15  1  0.750000  0.845849  0.603552  1
  Sc  Sc16  1  0.750000  0.964882  0.163085  1
  Sc  Sc17  1  0.250000  0.035118  0.836915  1
  Sc  Sc18  1  0.250000  0.464882  0.336915  1
  Sc  Sc19  1  0.750000  0.535118  0.663085  1
  Sc  Sc20  1  0.250000  0.745696  0.226689  1
  Sc  Sc21  1  0.750000  0.254304  0.773311  1
  Sc  Sc22  1  0.750000  0.245696  0.273311  1
  Sc  Sc23  1  0.250000  0.754304  0.726689  1
  Te  Te24  1  0.750000  0.967367  0.735368  1
  Te  Te25  1  0.250000  0.032633  0.264632  1
  Te  Te26  1  0.250000  0.467367  0.764632  1
  Te  Te27  1  0.750000  0.532633  0.235368  1
  Te  Te28  1  0.750000  0.277664  0.626826  1
  Te  Te29  1  0.250000  0.722336  0.373174  1
  Te  Te30  1  0.250000  0.777664  0.873174  1
  Te  Te31  1  0.750000  0.222336  0.126826  1
  Te  Te32  1  0.250000  0.646998  0.574609  1
  Te  Te33  1  0.750000  0.353002  0.425391  1
  Te  Te34  1  0.750000  0.146998  0.925391  1
  Te  Te35  1  0.250000  0.853002  0.074609  1
