# generated using pymatgen
data_Co8Si4Mo12CN3
_symmetry_space_group_name_H-M   'P 1'
_cell_length_a   7.82595603
_cell_length_b   7.81804145
_cell_length_c   7.81804100
_cell_angle_alpha   59.99999766
_cell_angle_beta   60.03344636
_cell_angle_gamma   60.03344592
_symmetry_Int_Tables_number   1
_chemical_formula_structural   Co8Si4Mo12CN3
_chemical_formula_sum   'Co8 Si4 Mo12 C1 N3'
_cell_volume   338.40570614
_cell_formula_units_Z   1
loop_
 _symmetry_equiv_pos_site_id
 _symmetry_equiv_pos_as_xyz
  1  'x, y, z'
loop_
 _atom_site_type_symbol
 _atom_site_label
 _atom_site_symmetry_multiplicity
 _atom_site_fract_x
 _atom_site_fract_y
 _atom_site_fract_z
 _atom_site_occupancy
  Co  Co0  1  0.245221  0.918260  0.918260  1
  Co  Co1  1  0.918092  0.245295  0.918307  1
  Co  Co2  1  0.918092  0.918307  0.918307  1
  Co  Co3  1  0.918092  0.918307  0.245295  1
  Co  Co4  1  0.004779  0.331740  0.331740  1
  Co  Co5  1  0.331908  0.331693  0.004705  1
  Co  Co6  1  0.331908  0.004705  0.331693  1
  Co  Co7  1  0.331908  0.331693  0.331693  1
  Si  Si8  1  0.625000  0.125000  0.125000  1
  Si  Si9  1  0.125000  0.125000  0.625000  1
  Si  Si10  1  0.125000  0.625000  0.125000  1
  Si  Si11  1  0.125000  0.125000  0.125000  1
  Mo  Mo12  1  0.695437  0.304209  0.696145  1
  Mo  Mo13  1  0.554563  0.553855  0.945791  1
  Mo  Mo14  1  0.554563  0.945791  0.553855  1
  Mo  Mo15  1  0.946023  0.946018  0.553979  1
  Mo  Mo16  1  0.946023  0.553979  0.553979  1
  Mo  Mo17  1  0.946023  0.553979  0.946018  1
  Mo  Mo18  1  0.695437  0.304209  0.304209  1
  Mo  Mo19  1  0.303977  0.696021  0.303982  1
  Mo  Mo20  1  0.303977  0.303982  0.696021  1
  Mo  Mo21  1  0.303977  0.696021  0.696021  1
  Mo  Mo22  1  0.695437  0.696145  0.304209  1
  Mo  Mo23  1  0.554563  0.945791  0.945791  1
  C  C24  1  0.125000  0.625000  0.625000  1
  N  N25  1  0.625000  0.625000  0.625000  1
  N  N26  1  0.625000  0.125000  0.625000  1
  N  N27  1  0.625000  0.625000  0.125000  1
