# generated using pymatgen
data_Ta7Nb3(B2As)2
_symmetry_space_group_name_H-M   'P 1'
_cell_length_a   7.33998258
_cell_length_b   7.33998272
_cell_length_c   7.33789510
_cell_angle_alpha   129.34466945
_cell_angle_beta   129.34467392
_cell_angle_gamma   74.46601694
_symmetry_Int_Tables_number   1
_chemical_formula_structural   Ta7Nb3(B2As)2
_chemical_formula_sum   'Ta7 Nb3 B4 As2'
_cell_volume   230.41123992
_cell_formula_units_Z   1
loop_
 _symmetry_equiv_pos_site_id
 _symmetry_equiv_pos_as_xyz
  1  'x, y, z'
loop_
 _atom_site_type_symbol
 _atom_site_label
 _atom_site_symmetry_multiplicity
 _atom_site_fract_x
 _atom_site_fract_y
 _atom_site_fract_z
 _atom_site_occupancy
  Ta  Ta0  1  0.697388  0.197388  0.170481  1
  Ta  Ta1  1  0.472887  0.302697  0.499718  1
  Ta  Ta2  1  0.802697  0.972887  0.499718  1
  Ta  Ta3  1  0.972253  0.472253  0.169291  1
  Ta  Ta4  1  0.302810  0.802810  0.830416  1
  Ta  Ta5  1  0.498974  0.499553  0.999619  1
  Ta  Ta6  1  0.999553  0.998974  0.999619  1
  Nb  Nb7  1  0.527366  0.696394  0.500309  1
  Nb  Nb8  1  0.196394  0.027366  0.500309  1
  Nb  Nb9  1  0.026784  0.526784  0.830622  1
  B  B10  1  0.880531  0.620011  0.498845  1
  B  B11  1  0.120011  0.380531  0.498845  1
  B  B12  1  0.381453  0.881453  0.260421  1
  B  B13  1  0.621741  0.121741  0.741833  1
  As  As14  1  0.249755  0.249405  0.999976  1
  As  As15  1  0.749405  0.749755  0.999976  1
