# generated using pymatgen
data_Er4Co9NiB4
_symmetry_space_group_name_H-M   'P 1'
_cell_length_a   5.03030200
_cell_length_b   5.03030172
_cell_length_c   19.95331300
_cell_angle_alpha   90.00000000
_cell_angle_beta   90.00000000
_cell_angle_gamma   120.00000183
_symmetry_Int_Tables_number   1
_chemical_formula_structural   Er4Co9NiB4
_chemical_formula_sum   'Er8 Co18 Ni2 B8'
_cell_volume   437.25394187
_cell_formula_units_Z   2
loop_
 _symmetry_equiv_pos_site_id
 _symmetry_equiv_pos_as_xyz
  1  'x, y, z'
loop_
 _atom_site_type_symbol
 _atom_site_label
 _atom_site_symmetry_multiplicity
 _atom_site_fract_x
 _atom_site_fract_y
 _atom_site_fract_z
 _atom_site_occupancy
  Er  Er0  1  0.666667  0.333333  0.824564  1
  Er  Er1  1  0.666667  0.333333  0.976165  1
  Er  Er2  1  0.333333  0.666667  0.476165  1
  Er  Er3  1  0.333333  0.666667  0.023835  1
  Er  Er4  1  0.333333  0.666667  0.175436  1
  Er  Er5  1  0.666667  0.333333  0.523835  1
  Er  Er6  1  0.666667  0.333333  0.675436  1
  Er  Er7  1  0.333333  0.666667  0.324564  1
  Co  Co8  1  0.163800  0.327599  0.894806  1
  Co  Co9  1  0.163800  0.836200  0.605194  1
  Co  Co10  1  0.836200  0.163800  0.394806  1
  Co  Co11  1  0.334404  0.167203  0.250000  1
  Co  Co12  1  0.327599  0.163800  0.394806  1
  Co  Co13  1  0.836200  0.672401  0.105194  1
  Co  Co14  1  0.836200  0.672401  0.394806  1
  Co  Co15  1  0.832797  0.665596  0.250000  1
  Co  Co16  1  0.672401  0.836200  0.605194  1
  Co  Co17  1  0.665596  0.832797  0.750000  1
  Co  Co18  1  0.836200  0.163800  0.105194  1
  Co  Co19  1  0.672401  0.836200  0.894806  1
  Co  Co20  1  0.167203  0.334404  0.750000  1
  Co  Co21  1  0.167203  0.832797  0.750000  1
  Co  Co22  1  0.832797  0.167203  0.250000  1
  Co  Co23  1  0.327599  0.163800  0.105194  1
  Co  Co24  1  0.163800  0.836200  0.894806  1
  Co  Co25  1  0.163800  0.327599  0.605194  1
  Ni  Ni26  1  0.000000  0.000000  0.000000  1
  Ni  Ni27  1  0.000000  0.000000  0.500000  1
  B  B28  1  0.333333  0.666667  0.825188  1
  B  B29  1  0.333333  0.666667  0.674812  1
  B  B30  1  0.666667  0.333333  0.325188  1
  B  B31  1  0.000000  0.000000  0.823034  1
  B  B32  1  0.666667  0.333333  0.174812  1
  B  B33  1  0.000000  0.000000  0.676966  1
  B  B34  1  0.000000  0.000000  0.323034  1
  B  B35  1  0.000000  0.000000  0.176966  1
