# generated using pymatgen
data_RbCaCeF7
_symmetry_space_group_name_H-M   'P 1'
_cell_length_a   6.86775469
_cell_length_b   6.86775475
_cell_length_c   8.90923700
_cell_angle_alpha   90.00000000
_cell_angle_beta   90.00000000
_cell_angle_gamma   116.90705946
_symmetry_Int_Tables_number   1
_chemical_formula_structural   RbCaCeF7
_chemical_formula_sum   'Rb2 Ca2 Ce2 F14'
_cell_volume   374.72198841
_cell_formula_units_Z   2
loop_
 _symmetry_equiv_pos_site_id
 _symmetry_equiv_pos_as_xyz
  1  'x, y, z'
loop_
 _atom_site_type_symbol
 _atom_site_label
 _atom_site_symmetry_multiplicity
 _atom_site_fract_x
 _atom_site_fract_y
 _atom_site_fract_z
 _atom_site_occupancy
  Rb  Rb0  1  0.000000  0.000000  0.000000  1
  Rb  Rb1  1  0.000000  0.000000  0.500000  1
  Ca  Ca2  1  0.307885  0.692115  0.750000  1
  Ca  Ca3  1  0.692115  0.307885  0.250000  1
  Ce  Ce4  1  0.691726  0.308274  0.750000  1
  Ce  Ce5  1  0.308274  0.691726  0.250000  1
  F  F6  1  0.504020  0.495980  0.750000  1
  F  F7  1  0.495980  0.504020  0.250000  1
  F  F8  1  0.700935  0.299065  0.995736  1
  F  F9  1  0.299065  0.700935  0.004264  1
  F  F10  1  0.299065  0.700935  0.495736  1
  F  F11  1  0.700935  0.299065  0.504264  1
  F  F12  1  0.669251  0.967204  0.750000  1
  F  F13  1  0.330749  0.032796  0.250000  1
  F  F14  1  0.032796  0.330749  0.750000  1
  F  F15  1  0.967204  0.669251  0.250000  1
  F  F16  1  0.338017  0.052548  0.750000  1
  F  F17  1  0.661983  0.947452  0.250000  1
  F  F18  1  0.947452  0.661983  0.750000  1
  F  F19  1  0.052548  0.338017  0.250000  1
