# generated using pymatgen
data_Zr6Ti2Al14AsRu7
_symmetry_space_group_name_H-M   'P 1'
_cell_length_a   8.82643265
_cell_length_b   8.82647201
_cell_length_c   8.82643172
_cell_angle_alpha   120.15253869
_cell_angle_beta   119.87339541
_cell_angle_gamma   89.97759449
_symmetry_Int_Tables_number   1
_chemical_formula_structural   Zr6Ti2Al14AsRu7
_chemical_formula_sum   'Zr6 Ti2 Al14 As1 Ru7'
_cell_volume   486.13242083
_cell_formula_units_Z   1
loop_
 _symmetry_equiv_pos_site_id
 _symmetry_equiv_pos_as_xyz
  1  'x, y, z'
loop_
 _atom_site_type_symbol
 _atom_site_label
 _atom_site_symmetry_multiplicity
 _atom_site_fract_x
 _atom_site_fract_y
 _atom_site_fract_z
 _atom_site_occupancy
  Zr  Zr0  1  0.794856  0.288387  0.076662  1
  Zr  Zr1  1  0.211725  0.288387  0.493531  1
  Zr  Zr2  1  0.208925  0.708929  0.500005  1
  Zr  Zr3  1  0.211727  0.718195  0.923331  1
  Zr  Zr4  1  0.794865  0.718195  0.506468  1
  Zr  Zr5  1  0.785179  0.285175  0.499996  1
  Ti  Ti6  1  0.379979  0.120640  0.740661  1
  Ti  Ti7  1  0.379979  0.639323  0.259343  1
  Al  Al8  1  0.165679  0.336117  0.170437  1
  Al  Al9  1  0.165681  0.995252  0.829571  1
  Al  Al10  1  0.163328  0.336693  0.826639  1
  Al  Al11  1  0.510053  0.336693  0.173364  1
  Al  Al12  1  0.835651  0.663736  0.828086  1
  Al  Al13  1  0.835648  0.007554  0.171906  1
  Al  Al14  1  0.834558  0.663721  0.170839  1
  Al  Al15  1  0.492882  0.663721  0.829163  1
  Al  Al16  1  0.381541  0.120534  0.261012  1
  Al  Al17  1  0.859522  0.120534  0.738992  1
  Al  Al18  1  0.618467  0.876895  0.258428  1
  Al  Al19  1  0.618468  0.360041  0.741573  1
  Al  Al20  1  0.617712  0.878820  0.738879  1
  Al  Al21  1  0.139940  0.878820  0.261108  1
  As  As22  1  0.996702  0.496697  0.499994  1
  Ru  Ru23  1  0.000385  0.000486  0.500883  1
  Ru  Ru24  1  0.499602  0.000486  0.000101  1
  Ru  Ru25  1  0.498423  0.498427  0.000005  1
  Ru  Ru26  1  0.499598  0.499504  0.499116  1
  Ru  Ru27  1  0.000387  0.499504  0.999906  1
  Ru  Ru28  1  0.000862  0.000861  0.999999  1
  Ru  Ru29  1  0.497670  0.997674  0.500002  1
