# generated using pymatgen
data_LiHo6Co8(P4Rh3)3
_symmetry_space_group_name_H-M   'P 1'
_cell_length_a   3.77024900
_cell_length_b   10.92094700
_cell_length_c   12.62828800
_cell_angle_alpha   90.00000000
_cell_angle_beta   90.00000000
_cell_angle_gamma   90.00000000
_symmetry_Int_Tables_number   1
_chemical_formula_structural   LiHo6Co8(P4Rh3)3
_chemical_formula_sum   'Li1 Ho6 Co8 P12 Rh9'
_cell_volume   519.96583739
_cell_formula_units_Z   1
loop_
 _symmetry_equiv_pos_site_id
 _symmetry_equiv_pos_as_xyz
  1  'x, y, z'
loop_
 _atom_site_type_symbol
 _atom_site_label
 _atom_site_symmetry_multiplicity
 _atom_site_fract_x
 _atom_site_fract_y
 _atom_site_fract_z
 _atom_site_occupancy
  Li  Li0  1  0.000000  0.000000  0.849271  1
  Ho  Ho1  1  0.000000  0.500000  0.518935  1
  Ho  Ho2  1  0.500000  0.000000  0.479417  1
  Ho  Ho3  1  0.500000  0.816166  0.197892  1
  Ho  Ho4  1  0.500000  0.183834  0.197892  1
  Ho  Ho5  1  0.000000  0.680889  0.804192  1
  Ho  Ho6  1  0.000000  0.319111  0.804192  1
  Co  Co7  1  0.000000  0.500000  0.992317  1
  Co  Co8  1  0.500000  0.000000  0.013754  1
  Co  Co9  1  0.000000  0.619257  0.283748  1
  Co  Co10  1  0.000000  0.380743  0.283748  1
  Co  Co11  1  0.500000  0.334493  0.998753  1
  Co  Co12  1  0.500000  0.665507  0.998753  1
  Co  Co13  1  0.000000  0.169503  0.006509  1
  Co  Co14  1  0.000000  0.830497  0.006509  1
  P  P15  1  0.500000  0.315795  0.619284  1
  P  P16  1  0.500000  0.684205  0.619284  1
  P  P17  1  0.000000  0.191729  0.372927  1
  P  P18  1  0.000000  0.808271  0.372927  1
  P  P19  1  0.500000  0.500000  0.893975  1
  P  P20  1  0.000000  0.000000  0.107417  1
  P  P21  1  0.500000  0.840261  0.903578  1
  P  P22  1  0.500000  0.159739  0.903578  1
  P  P23  1  0.000000  0.655759  0.104942  1
  P  P24  1  0.000000  0.344241  0.104942  1
  P  P25  1  0.500000  0.500000  0.340884  1
  P  P26  1  0.000000  0.000000  0.653971  1
  Rh  Rh27  1  0.500000  0.302147  0.423639  1
  Rh  Rh28  1  0.500000  0.697853  0.423639  1
  Rh  Rh29  1  0.000000  0.207798  0.565034  1
  Rh  Rh30  1  0.000000  0.792202  0.565034  1
  Rh  Rh31  1  0.500000  0.872826  0.714972  1
  Rh  Rh32  1  0.500000  0.127174  0.714972  1
  Rh  Rh33  1  0.500000  0.500000  0.157975  1
  Rh  Rh34  1  0.500000  0.500000  0.709064  1
  Rh  Rh35  1  0.000000  0.000000  0.292083  1
