# generated using pymatgen
data_Ho2Al(GaPt2)2
_symmetry_space_group_name_H-M   'P 1'
_cell_length_a   8.11057609
_cell_length_b   8.11057615
_cell_length_c   7.64595900
_cell_angle_alpha   90.00000000
_cell_angle_beta   90.00000000
_cell_angle_gamma   139.92040643
_symmetry_Int_Tables_number   1
_chemical_formula_structural   Ho2Al(GaPt2)2
_chemical_formula_sum   'Ho4 Al2 Ga4 Pt8'
_cell_volume   323.83281341
_cell_formula_units_Z   2
loop_
 _symmetry_equiv_pos_site_id
 _symmetry_equiv_pos_as_xyz
  1  'x, y, z'
loop_
 _atom_site_type_symbol
 _atom_site_label
 _atom_site_symmetry_multiplicity
 _atom_site_fract_x
 _atom_site_fract_y
 _atom_site_fract_z
 _atom_site_occupancy
  Ho  Ho0  1  0.107035  0.892965  0.406665  1
  Ho  Ho1  1  0.892965  0.107035  0.593335  1
  Ho  Ho2  1  0.392965  0.607035  0.906665  1
  Ho  Ho3  1  0.607035  0.392965  0.093335  1
  Al  Al4  1  0.000000  0.000000  0.000000  1
  Al  Al5  1  0.500000  0.500000  0.500000  1
  Ga  Ga6  1  0.022152  0.477848  0.250000  1
  Ga  Ga7  1  0.477848  0.022152  0.750000  1
  Ga  Ga8  1  0.977848  0.522152  0.750000  1
  Ga  Ga9  1  0.522152  0.977848  0.250000  1
  Pt  Pt10  1  0.193224  0.306776  0.250000  1
  Pt  Pt11  1  0.306776  0.193224  0.750000  1
  Pt  Pt12  1  0.806776  0.693224  0.750000  1
  Pt  Pt13  1  0.693224  0.806776  0.250000  1
  Pt  Pt14  1  0.180834  0.819166  0.027118  1
  Pt  Pt15  1  0.819166  0.180834  0.972882  1
  Pt  Pt16  1  0.319166  0.680834  0.527118  1
  Pt  Pt17  1  0.680834  0.319166  0.472882  1
