# generated using pymatgen
data_LuPa2(ZnPd)3
_symmetry_space_group_name_H-M   'P 1'
_cell_length_a   7.32920132
_cell_length_b   7.40733314
_cell_length_c   3.76188300
_cell_angle_alpha   90.00000000
_cell_angle_beta   90.00000000
_cell_angle_gamma   120.35326843
_symmetry_Int_Tables_number   1
_chemical_formula_structural   LuPa2(ZnPd)3
_chemical_formula_sum   'Lu1 Pa2 Zn3 Pd3'
_cell_volume   176.23713489
_cell_formula_units_Z   1
loop_
 _symmetry_equiv_pos_site_id
 _symmetry_equiv_pos_as_xyz
  1  'x, y, z'
loop_
 _atom_site_type_symbol
 _atom_site_label
 _atom_site_symmetry_multiplicity
 _atom_site_fract_x
 _atom_site_fract_y
 _atom_site_fract_z
 _atom_site_occupancy
  Lu  Lu0  1  0.000000  0.400084  0.000000  1
  Pa  Pa1  1  0.591274  0.593911  0.000000  1
  Pa  Pa2  1  0.408726  0.002637  0.000000  1
  Zn  Zn3  1  0.245491  0.256637  0.500000  1
  Zn  Zn4  1  0.754509  0.011146  0.500000  1
  Zn  Zn5  1  0.000000  0.735898  0.500000  1
  Pd  Pd6  1  0.000000  0.991436  0.000000  1
  Pd  Pd7  1  0.656627  0.332438  0.500000  1
  Pd  Pd8  1  0.343373  0.675812  0.500000  1
