# generated using pymatgen
data_Gd5Ga2Ru3
_symmetry_space_group_name_H-M   'P 1'
_cell_length_a   8.39915274
_cell_length_b   8.39915349
_cell_length_c   8.39915300
_cell_angle_alpha   109.47122185
_cell_angle_beta   109.47122367
_cell_angle_gamma   109.47121920
_symmetry_Int_Tables_number   1
_chemical_formula_structural   Gd5Ga2Ru3
_chemical_formula_sum   'Gd10 Ga4 Ru6'
_cell_volume   456.12574307
_cell_formula_units_Z   2
loop_
 _symmetry_equiv_pos_site_id
 _symmetry_equiv_pos_as_xyz
  1  'x, y, z'
loop_
 _atom_site_type_symbol
 _atom_site_label
 _atom_site_symmetry_multiplicity
 _atom_site_fract_x
 _atom_site_fract_y
 _atom_site_fract_z
 _atom_site_occupancy
  Gd  Gd0  1  0.000000  0.215311  0.000000  1
  Gd  Gd1  1  0.750000  0.434248  0.184249  1
  Gd  Gd2  1  0.434249  0.684250  0.250000  1
  Gd  Gd3  1  0.250000  0.065751  0.315752  1
  Gd  Gd4  1  0.215311  0.500001  0.500001  1
  Gd  Gd5  1  0.815751  0.250000  0.565751  1
  Gd  Gd6  1  0.500000  0.000000  0.715311  1
  Gd  Gd7  1  0.065751  0.815751  0.750000  1
  Gd  Gd8  1  0.284689  0.284689  0.784690  1
  Gd  Gd9  1  0.684250  0.750000  0.934249  1
  Ga  Ga10  1  0.000000  0.587242  0.000000  1
  Ga  Ga11  1  0.500000  0.000000  0.087242  1
  Ga  Ga12  1  0.912758  0.912758  0.412758  1
  Ga  Ga13  1  0.587242  0.500000  0.500000  1
  Ru  Ru14  1  0.375866  0.250000  0.125866  1
  Ru  Ru15  1  0.874135  0.124135  0.249999  1
  Ru  Ru16  1  0.124135  0.750000  0.374134  1
  Ru  Ru17  1  0.750000  0.874135  0.624135  1
  Ru  Ru18  1  0.625865  0.375866  0.750000  1
  Ru  Ru19  1  0.250000  0.625865  0.875866  1
