# generated using pymatgen
data_TbNd2Si4(AsPd10)2
_symmetry_space_group_name_H-M   'P 1'
_cell_length_a   8.74980080
_cell_length_b   8.84818591
_cell_length_c   8.84818501
_cell_angle_alpha   59.26570954
_cell_angle_beta   60.36714589
_cell_angle_gamma   60.36714527
_symmetry_Int_Tables_number   1
_chemical_formula_structural   TbNd2Si4(AsPd10)2
_chemical_formula_sum   'Tb1 Nd2 Si4 As2 Pd20'
_cell_volume   484.26756098
_cell_formula_units_Z   1
loop_
 _symmetry_equiv_pos_site_id
 _symmetry_equiv_pos_as_xyz
  1  'x, y, z'
loop_
 _atom_site_type_symbol
 _atom_site_label
 _atom_site_symmetry_multiplicity
 _atom_site_fract_x
 _atom_site_fract_y
 _atom_site_fract_z
 _atom_site_occupancy
  Tb  Tb0  1  0.000000  0.000000  0.000000  1
  Nd  Nd1  1  0.250000  0.250000  0.250000  1
  Nd  Nd2  1  0.750000  0.750000  0.750000  1
  Si  Si3  1  0.266785  0.733215  0.266785  1
  Si  Si4  1  0.733215  0.266785  0.733215  1
  Si  Si5  1  0.266785  0.266785  0.733215  1
  Si  Si6  1  0.733215  0.733215  0.266785  1
  As  As7  1  0.736711  0.263289  0.263289  1
  As  As8  1  0.263289  0.736711  0.736711  1
  Pd  Pd9  1  0.345658  0.000000  0.000000  1
  Pd  Pd10  1  0.654342  0.000000  0.000000  1
  Pd  Pd11  1  0.000000  0.345658  0.654342  1
  Pd  Pd12  1  0.000000  0.654342  0.345658  1
  Pd  Pd13  1  0.009022  0.346750  0.990978  1
  Pd  Pd14  1  0.653250  0.990978  0.346750  1
  Pd  Pd15  1  0.990978  0.653250  0.009022  1
  Pd  Pd16  1  0.346750  0.009022  0.653250  1
  Pd  Pd17  1  0.009022  0.990978  0.346750  1
  Pd  Pd18  1  0.990978  0.009022  0.653250  1
  Pd  Pd19  1  0.653250  0.346750  0.990978  1
  Pd  Pd20  1  0.346750  0.653250  0.009022  1
  Pd  Pd21  1  0.380157  0.387674  0.387674  1
  Pd  Pd22  1  0.619843  0.612326  0.612326  1
  Pd  Pd23  1  0.387674  0.380157  0.844493  1
  Pd  Pd24  1  0.387674  0.844493  0.380157  1
  Pd  Pd25  1  0.612326  0.619843  0.155507  1
  Pd  Pd26  1  0.612326  0.155507  0.619843  1
  Pd  Pd27  1  0.844493  0.387674  0.387674  1
  Pd  Pd28  1  0.155507  0.612326  0.612326  1
