# generated using pymatgen
data_Tb3Ho5CdHgIr2
_symmetry_space_group_name_H-M   'P 1'
_cell_length_a   9.61015939
_cell_length_b   9.61015952
_cell_length_c   9.61612000
_cell_angle_alpha   59.97948094
_cell_angle_beta   59.97948049
_cell_angle_gamma   59.99465719
_symmetry_Int_Tables_number   1
_chemical_formula_structural   Tb3Ho5CdHgIr2
_chemical_formula_sum   'Tb6 Ho10 Cd2 Hg2 Ir4'
_cell_volume   627.76018861
_cell_formula_units_Z   2
loop_
 _symmetry_equiv_pos_site_id
 _symmetry_equiv_pos_as_xyz
  1  'x, y, z'
loop_
 _atom_site_type_symbol
 _atom_site_label
 _atom_site_symmetry_multiplicity
 _atom_site_fract_x
 _atom_site_fract_y
 _atom_site_fract_z
 _atom_site_occupancy
  Tb  Tb0  1  0.188120  0.810770  0.811910  1
  Tb  Tb1  1  0.810770  0.188120  0.189200  1
  Tb  Tb2  1  0.810770  0.188120  0.811910  1
  Tb  Tb3  1  0.188120  0.810770  0.189200  1
  Tb  Tb4  1  0.811329  0.811329  0.188671  1
  Tb  Tb5  1  0.188590  0.188590  0.811410  1
  Ho  Ho6  1  0.599561  0.599561  0.598017  1
  Ho  Ho7  1  0.599561  0.599561  0.202863  1
  Ho  Ho8  1  0.601003  0.200003  0.599497  1
  Ho  Ho9  1  0.200003  0.601003  0.599497  1
  Ho  Ho10  1  0.060312  0.438117  0.440480  1
  Ho  Ho11  1  0.438117  0.060312  0.061091  1
  Ho  Ho12  1  0.438117  0.060312  0.440480  1
  Ho  Ho13  1  0.060312  0.438117  0.061091  1
  Ho  Ho14  1  0.438668  0.438668  0.061332  1
  Ho  Ho15  1  0.059877  0.059877  0.440123  1
  Cd  Cd16  1  0.830020  0.508361  0.830810  1
  Cd  Cd17  1  0.508361  0.830020  0.830810  1
  Hg  Hg18  1  0.833621  0.833621  0.835591  1
  Hg  Hg19  1  0.833621  0.833621  0.497166  1
  Ir  Ir20  1  0.392121  0.392121  0.391598  1
  Ir  Ir21  1  0.392121  0.392121  0.824159  1
  Ir  Ir22  1  0.392050  0.824857  0.391546  1
  Ir  Ir23  1  0.824857  0.392050  0.391546  1
