# generated using pymatgen
data_YLuNi12P7
_symmetry_space_group_name_H-M   'P 1'
_cell_length_a   9.03076100
_cell_length_b   9.03076123
_cell_length_c   3.66365500
_cell_angle_alpha   90.00000000
_cell_angle_beta   90.00000000
_cell_angle_gamma   119.99999548
_symmetry_Int_Tables_number   1
_chemical_formula_structural   YLuNi12P7
_chemical_formula_sum   'Y1 Lu1 Ni12 P7'
_cell_volume   258.75808623
_cell_formula_units_Z   1
loop_
 _symmetry_equiv_pos_site_id
 _symmetry_equiv_pos_as_xyz
  1  'x, y, z'
loop_
 _atom_site_type_symbol
 _atom_site_label
 _atom_site_symmetry_multiplicity
 _atom_site_fract_x
 _atom_site_fract_y
 _atom_site_fract_z
 _atom_site_occupancy
  Y  Y0  1  0.666667  0.333333  0.000000  1
  Lu  Lu1  1  0.333333  0.666667  0.500000  1
  Ni  Ni2  1  0.062412  0.626949  0.000000  1
  Ni  Ni3  1  0.564536  0.937588  0.000000  1
  Ni  Ni4  1  0.373051  0.435464  0.000000  1
  Ni  Ni5  1  0.274266  0.122389  0.000000  1
  Ni  Ni6  1  0.848124  0.725734  0.000000  1
  Ni  Ni7  1  0.877611  0.151876  0.000000  1
  Ni  Ni8  1  0.430006  0.047851  0.500000  1
  Ni  Ni9  1  0.617844  0.569994  0.500000  1
  Ni  Ni10  1  0.952149  0.382156  0.500000  1
  Ni  Ni11  1  0.094603  0.877855  0.500000  1
  Ni  Ni12  1  0.783253  0.905397  0.500000  1
  Ni  Ni13  1  0.122145  0.216747  0.500000  1
  P  P14  1  0.293801  0.885152  0.000000  1
  P  P15  1  0.591350  0.706199  0.000000  1
  P  P16  1  0.114848  0.408650  0.000000  1
  P  P17  1  0.405062  0.294319  0.500000  1
  P  P18  1  0.889258  0.594938  0.500000  1
  P  P19  1  0.705681  0.110742  0.500000  1
  P  P20  1  0.000000  0.000000  0.000000  1
