# generated using pymatgen
data_Cd(BrO3)2
_symmetry_space_group_name_H-M   'P 1'
_cell_length_a   6.84767240
_cell_length_b   6.81217142
_cell_length_c   12.56766337
_cell_angle_alpha   83.87747221
_cell_angle_beta   87.51512903
_cell_angle_gamma   66.26335354
_symmetry_Int_Tables_number   1
_chemical_formula_structural   Cd(BrO3)2
_chemical_formula_sum   'Cd4 Br8 O24'
_cell_volume   533.59554810
_cell_formula_units_Z   4
loop_
 _symmetry_equiv_pos_site_id
 _symmetry_equiv_pos_as_xyz
  1  'x, y, z'
loop_
 _atom_site_type_symbol
 _atom_site_label
 _atom_site_symmetry_multiplicity
 _atom_site_fract_x
 _atom_site_fract_y
 _atom_site_fract_z
 _atom_site_occupancy
  Cd  Cd0  1  0.959121  0.866331  0.875396  1
  Cd  Cd1  1  0.040879  0.133669  0.124604  1
  Cd  Cd2  1  0.949770  0.315431  0.618976  1
  Cd  Cd3  1  0.050230  0.684569  0.381024  1
  Br  Br4  1  0.706854  0.921589  0.619371  1
  Br  Br5  1  0.293146  0.078411  0.380629  1
  Br  Br6  1  0.355223  0.574077  0.622741  1
  Br  Br7  1  0.644777  0.425923  0.377259  1
  Br  Br8  1  0.313176  0.138848  0.856580  1
  Br  Br9  1  0.686824  0.861152  0.143420  1
  Br  Br10  1  0.714401  0.481066  0.894867  1
  Br  Br11  1  0.285599  0.518934  0.105133  1
  O  O12  1  0.916119  0.941420  0.682894  1
  O  O13  1  0.083881  0.058580  0.317106  1
  O  O14  1  0.774666  0.937729  0.489120  1
  O  O15  1  0.225334  0.062271  0.510880  1
  O  O16  1  0.720293  0.669522  0.654377  1
  O  O17  1  0.279707  0.330478  0.345623  1
  O  O18  1  0.580588  0.349726  0.601772  1
  O  O19  1  0.419412  0.650274  0.398228  1
  O  O20  1  0.310484  0.550648  0.753291  1
  O  O21  1  0.689516  0.449352  0.246709  1
  O  O22  1  0.158749  0.524998  0.563224  1
  O  O23  1  0.841251  0.475002  0.436776  1
  O  O24  1  0.558286  0.940411  0.865336  1
  O  O25  1  0.441714  0.059589  0.134664  1
  O  O26  1  0.231208  0.109228  0.736294  1
  O  O27  1  0.768792  0.890772  0.263706  1
  O  O28  1  0.166599  0.041236  0.944335  1
  O  O29  1  0.833401  0.958764  0.055665  1
  O  O30  1  0.934691  0.534437  0.864255  1
  O  O31  1  0.065309  0.465563  0.135745  1
  O  O32  1  0.735308  0.410273  0.028252  1
  O  O33  1  0.264692  0.589727  0.971748  1
  O  O34  1  0.765214  0.257795  0.832135  1
  O  O35  1  0.234786  0.742205  0.167865  1
