# generated using pymatgen
data_Cs2ErAgCl6
_symmetry_space_group_name_H-M   'P 1'
_cell_length_a   7.66013459
_cell_length_b   7.66012535
_cell_length_c   7.66002900
_cell_angle_alpha   89.99865579
_cell_angle_beta   119.99931409
_cell_angle_gamma   120.00213826
_symmetry_Int_Tables_number   1
_chemical_formula_structural   Cs2ErAgCl6
_chemical_formula_sum   'Cs2 Er1 Ag1 Cl6'
_cell_volume   317.82148559
_cell_formula_units_Z   1
loop_
 _symmetry_equiv_pos_site_id
 _symmetry_equiv_pos_as_xyz
  1  'x, y, z'
loop_
 _atom_site_type_symbol
 _atom_site_label
 _atom_site_symmetry_multiplicity
 _atom_site_fract_x
 _atom_site_fract_y
 _atom_site_fract_z
 _atom_site_occupancy
  Cs  Cs0  1  0.500001  0.750005  0.249995  1
  Cs  Cs1  1  0.500002  0.249993  0.749993  1
  Er  Er2  1  0.000043  0.000022  0.999951  1
  Ag  Ag3  1  0.000004  0.500019  0.500016  1
  Cl  Cl4  1  0.999992  0.242387  0.242398  1
  Cl  Cl5  1  0.484749  0.242365  0.242382  1
  Cl  Cl6  1  0.000005  0.757630  0.242377  1
  Cl  Cl7  1  0.515233  0.757600  0.757623  1
  Cl  Cl8  1  0.999979  0.757614  0.757635  1
  Cl  Cl9  1  0.999995  0.242371  0.757633  1
