# generated using pymatgen
data_LiTbCo3P3Rh
_symmetry_space_group_name_H-M   'P 1'
_cell_length_a   3.71930000
_cell_length_b   10.37205500
_cell_length_c   12.24831400
_cell_angle_alpha   90.00000000
_cell_angle_beta   90.00000000
_cell_angle_gamma   90.00000000
_symmetry_Int_Tables_number   1
_chemical_formula_structural   LiTbCo3P3Rh
_chemical_formula_sum   'Li4 Tb4 Co12 P12 Rh4'
_cell_volume   472.50056552
_cell_formula_units_Z   4
loop_
 _symmetry_equiv_pos_site_id
 _symmetry_equiv_pos_as_xyz
  1  'x, y, z'
loop_
 _atom_site_type_symbol
 _atom_site_label
 _atom_site_symmetry_multiplicity
 _atom_site_fract_x
 _atom_site_fract_y
 _atom_site_fract_z
 _atom_site_occupancy
  Li  Li0  1  0.250000  0.704108  0.991942  1
  Li  Li1  1  0.250000  0.795892  0.491942  1
  Li  Li2  1  0.750000  0.295892  0.008058  1
  Li  Li3  1  0.750000  0.204108  0.508058  1
  Tb  Tb4  1  0.250000  0.580685  0.708229  1
  Tb  Tb5  1  0.250000  0.919315  0.208229  1
  Tb  Tb6  1  0.750000  0.419315  0.291771  1
  Tb  Tb7  1  0.750000  0.080685  0.791771  1
  Co  Co8  1  0.250000  0.221182  0.177365  1
  Co  Co9  1  0.250000  0.278818  0.677365  1
  Co  Co10  1  0.750000  0.778818  0.822635  1
  Co  Co11  1  0.750000  0.721182  0.322635  1
  Co  Co12  1  0.250000  0.881838  0.695871  1
  Co  Co13  1  0.250000  0.618162  0.195871  1
  Co  Co14  1  0.750000  0.118162  0.304129  1
  Co  Co15  1  0.750000  0.381838  0.804129  1
  Co  Co16  1  0.250000  0.467591  0.934233  1
  Co  Co17  1  0.250000  0.032409  0.434233  1
  Co  Co18  1  0.750000  0.532409  0.065767  1
  Co  Co19  1  0.750000  0.967591  0.565767  1
  P  P20  1  0.250000  0.423115  0.113455  1
  P  P21  1  0.250000  0.076885  0.613455  1
  P  P22  1  0.750000  0.576885  0.886545  1
  P  P23  1  0.750000  0.923115  0.386545  1
  P  P24  1  0.250000  0.276596  0.857943  1
  P  P25  1  0.250000  0.223404  0.357943  1
  P  P26  1  0.750000  0.723404  0.142057  1
  P  P27  1  0.750000  0.776596  0.642057  1
  P  P28  1  0.250000  0.607231  0.380549  1
  P  P29  1  0.250000  0.892769  0.880549  1
  P  P30  1  0.750000  0.392769  0.619451  1
  P  P31  1  0.750000  0.107231  0.119451  1
  Rh  Rh32  1  0.250000  0.400279  0.482457  1
  Rh  Rh33  1  0.250000  0.099721  0.982457  1
  Rh  Rh34  1  0.750000  0.599721  0.517543  1
  Rh  Rh35  1  0.750000  0.900279  0.017543  1
