# generated using pymatgen
data_Dy6Al24FeRu7
_symmetry_space_group_name_H-M   'P 1'
_cell_length_a   8.80349800
_cell_length_b   8.80349758
_cell_length_c   9.54512900
_cell_angle_alpha   90.00000000
_cell_angle_beta   90.00000000
_cell_angle_gamma   119.99999407
_symmetry_Int_Tables_number   1
_chemical_formula_structural   Dy6Al24FeRu7
_chemical_formula_sum   'Dy6 Al24 Fe1 Ru7'
_cell_volume   640.65316906
_cell_formula_units_Z   1
loop_
 _symmetry_equiv_pos_site_id
 _symmetry_equiv_pos_as_xyz
  1  'x, y, z'
loop_
 _atom_site_type_symbol
 _atom_site_label
 _atom_site_symmetry_multiplicity
 _atom_site_fract_x
 _atom_site_fract_y
 _atom_site_fract_z
 _atom_site_occupancy
  Dy  Dy0  1  0.193480  0.386960  0.249957  1
  Dy  Dy1  1  0.806520  0.613040  0.750043  1
  Dy  Dy2  1  0.613040  0.806520  0.249957  1
  Dy  Dy3  1  0.386960  0.193480  0.750043  1
  Dy  Dy4  1  0.193480  0.806520  0.249957  1
  Dy  Dy5  1  0.806520  0.193480  0.750043  1
  Al  Al6  1  0.333333  0.666667  0.014271  1
  Al  Al7  1  0.666667  0.333333  0.985729  1
  Al  Al8  1  0.666667  0.333333  0.515560  1
  Al  Al9  1  0.333333  0.666667  0.484440  1
  Al  Al10  1  0.161721  0.323442  0.577832  1
  Al  Al11  1  0.838279  0.676558  0.422168  1
  Al  Al12  1  0.676558  0.838279  0.577832  1
  Al  Al13  1  0.840824  0.681650  0.076318  1
  Al  Al14  1  0.323442  0.161721  0.422168  1
  Al  Al15  1  0.159176  0.318350  0.923682  1
  Al  Al16  1  0.161721  0.838279  0.577832  1
  Al  Al17  1  0.318350  0.159176  0.076318  1
  Al  Al18  1  0.838279  0.161721  0.422168  1
  Al  Al19  1  0.681650  0.840824  0.923682  1
  Al  Al20  1  0.840824  0.159176  0.076318  1
  Al  Al21  1  0.159176  0.840824  0.923682  1
  Al  Al22  1  0.561084  0.122166  0.249407  1
  Al  Al23  1  0.438916  0.877834  0.750593  1
  Al  Al24  1  0.877834  0.438916  0.249407  1
  Al  Al25  1  0.122166  0.561084  0.750593  1
  Al  Al26  1  0.561084  0.438916  0.249407  1
  Al  Al27  1  0.438916  0.561084  0.750593  1
  Al  Al28  1  0.000000  0.000000  0.244317  1
  Al  Al29  1  0.000000  0.000000  0.755683  1
  Fe  Fe30  1  0.000000  0.000000  0.000000  1
  Ru  Ru31  1  0.500000  0.000000  0.000000  1
  Ru  Ru32  1  0.000000  0.500000  0.000000  1
  Ru  Ru33  1  0.500000  0.000000  0.500000  1
  Ru  Ru34  1  0.500000  0.500000  0.000000  1
  Ru  Ru35  1  0.000000  0.500000  0.500000  1
  Ru  Ru36  1  0.500000  0.500000  0.500000  1
  Ru  Ru37  1  0.000000  0.000000  0.500000  1
