# generated using pymatgen
data_CePa3(Ni2Sn)2
_symmetry_space_group_name_H-M   'P 1'
_cell_length_a   7.41785937
_cell_length_b   7.41785937
_cell_length_c   3.62094500
_cell_angle_alpha   90.00000000
_cell_angle_beta   90.00000000
_cell_angle_gamma   89.11470905
_symmetry_Int_Tables_number   1
_chemical_formula_structural   CePa3(Ni2Sn)2
_chemical_formula_sum   'Ce1 Pa3 Ni4 Sn2'
_cell_volume   199.21740333
_cell_formula_units_Z   1
loop_
 _symmetry_equiv_pos_site_id
 _symmetry_equiv_pos_as_xyz
  1  'x, y, z'
loop_
 _atom_site_type_symbol
 _atom_site_label
 _atom_site_symmetry_multiplicity
 _atom_site_fract_x
 _atom_site_fract_y
 _atom_site_fract_z
 _atom_site_occupancy
  Ce  Ce0  1  0.674180  0.174180  0.500000  1
  Pa  Pa1  1  0.327958  0.827958  0.500000  1
  Pa  Pa2  1  0.826874  0.672734  0.500000  1
  Pa  Pa3  1  0.172734  0.326874  0.500000  1
  Ni  Ni4  1  0.620533  0.863029  0.000000  1
  Ni  Ni5  1  0.129672  0.629672  0.000000  1
  Ni  Ni6  1  0.885104  0.385104  0.000000  1
  Ni  Ni7  1  0.363029  0.120533  0.000000  1
  Sn  Sn8  1  0.500904  0.499012  0.000000  1
  Sn  Sn9  1  0.999012  0.000904  0.000000  1
