# generated using pymatgen
data_La6ScAlSiSe14
_symmetry_space_group_name_H-M   'P 1'
_cell_length_a   10.72376300
_cell_length_b   10.72376359
_cell_length_c   6.26920100
_cell_angle_alpha   90.00000000
_cell_angle_beta   90.00000000
_cell_angle_gamma   120.00000743
_symmetry_Int_Tables_number   1
_chemical_formula_structural   La6ScAlSiSe14
_chemical_formula_sum   'La6 Sc1 Al1 Si1 Se14'
_cell_volume   624.36310539
_cell_formula_units_Z   1
loop_
 _symmetry_equiv_pos_site_id
 _symmetry_equiv_pos_as_xyz
  1  'x, y, z'
loop_
 _atom_site_type_symbol
 _atom_site_label
 _atom_site_symmetry_multiplicity
 _atom_site_fract_x
 _atom_site_fract_y
 _atom_site_fract_z
 _atom_site_occupancy
  La  La0  1  0.807622  0.701437  0.524099  1
  La  La1  1  0.893816  0.192378  0.524099  1
  La  La2  1  0.298563  0.106184  0.524099  1
  La  La3  1  0.518827  0.964948  0.036632  1
  La  La4  1  0.446121  0.481173  0.036632  1
  La  La5  1  0.035052  0.553879  0.036632  1
  Sc  Sc6  1  0.666667  0.333333  0.325398  1
  Al  Al7  1  0.333333  0.666667  0.445834  1
  Si  Si8  1  0.000000  0.000000  0.939638  1
  Se  Se9  1  0.000000  0.000000  0.304151  1
  Se  Se10  1  0.333333  0.666667  0.823695  1
  Se  Se11  1  0.085157  0.857542  0.801494  1
  Se  Se12  1  0.772384  0.914843  0.801494  1
  Se  Se13  1  0.142458  0.227616  0.801494  1
  Se  Se14  1  0.239404  0.812315  0.301767  1
  Se  Se15  1  0.572910  0.760596  0.301767  1
  Se  Se16  1  0.187685  0.427090  0.301767  1
  Se  Se17  1  0.911507  0.484053  0.557435  1
  Se  Se18  1  0.572547  0.088493  0.557435  1
  Se  Se19  1  0.515947  0.427453  0.557435  1
  Se  Se20  1  0.424113  0.189269  0.079671  1
  Se  Se21  1  0.765156  0.575887  0.079671  1
  Se  Se22  1  0.810731  0.234844  0.079671  1
