# generated using pymatgen
data_ErPa(B2Os)2
_symmetry_space_group_name_H-M   'P 1'
_cell_length_a   5.33322000
_cell_length_b   5.81305900
_cell_length_c   6.47510900
_cell_angle_alpha   90.00000000
_cell_angle_beta   90.00000000
_cell_angle_gamma   90.00000000
_symmetry_Int_Tables_number   1
_chemical_formula_structural   ErPa(B2Os)2
_chemical_formula_sum   'Er2 Pa2 B8 Os4'
_cell_volume   200.74341757
_cell_formula_units_Z   2
loop_
 _symmetry_equiv_pos_site_id
 _symmetry_equiv_pos_as_xyz
  1  'x, y, z'
loop_
 _atom_site_type_symbol
 _atom_site_label
 _atom_site_symmetry_multiplicity
 _atom_site_fract_x
 _atom_site_fract_y
 _atom_site_fract_z
 _atom_site_occupancy
  Er  Er0  1  0.750000  0.993518  0.663895  1
  Er  Er1  1  0.750000  0.493518  0.836105  1
  Pa  Pa2  1  0.250000  0.001115  0.332347  1
  Pa  Pa3  1  0.250000  0.501115  0.167653  1
  B  B4  1  0.085092  0.366035  0.539932  1
  B  B5  1  0.414908  0.866035  0.960068  1
  B  B6  1  0.587153  0.634727  0.468043  1
  B  B7  1  0.912847  0.134727  0.031957  1
  B  B8  1  0.912847  0.634727  0.468043  1
  B  B9  1  0.587153  0.134727  0.031957  1
  B  B10  1  0.414908  0.366035  0.539932  1
  B  B11  1  0.085092  0.866035  0.960068  1
  Os  Os12  1  0.250000  0.188140  0.819165  1
  Os  Os13  1  0.250000  0.688140  0.680835  1
  Os  Os14  1  0.750000  0.815704  0.190414  1
  Os  Os15  1  0.750000  0.315704  0.309586  1
