# generated using pymatgen
data_TaSb3F20
_symmetry_space_group_name_H-M   'P 1'
_cell_length_a   8.83128938
_cell_length_b   8.83129106
_cell_length_c   5.49878631
_cell_angle_alpha   88.37795318
_cell_angle_beta   88.37794967
_cell_angle_gamma   110.99460314
_symmetry_Int_Tables_number   1
_chemical_formula_structural   TaSb3F20
_chemical_formula_sum   'Ta1 Sb3 F20'
_cell_volume   399.88918626
_cell_formula_units_Z   1
loop_
 _symmetry_equiv_pos_site_id
 _symmetry_equiv_pos_as_xyz
  1  'x, y, z'
loop_
 _atom_site_type_symbol
 _atom_site_label
 _atom_site_symmetry_multiplicity
 _atom_site_fract_x
 _atom_site_fract_y
 _atom_site_fract_z
 _atom_site_occupancy
  Ta  Ta0  1  0.794924  0.205076  0.000000  1
  Sb  Sb1  1  0.201184  0.798816  0.000000  1
  Sb  Sb2  1  0.251790  0.253972  0.244403  1
  Sb  Sb3  1  0.746028  0.748210  0.755597  1
  F  F4  1  0.263381  0.459282  0.345596  1
  F  F5  1  0.456587  0.259189  0.340772  1
  F  F6  1  0.740811  0.543413  0.659228  1
  F  F7  1  0.540718  0.736619  0.654404  1
  F  F8  1  0.326731  0.324616  0.922367  1
  F  F9  1  0.675384  0.673269  0.077633  1
  F  F10  1  0.829741  0.405303  0.127527  1
  F  F11  1  0.406598  0.839320  0.128937  1
  F  F12  1  0.160680  0.593402  0.871063  1
  F  F13  1  0.594697  0.170259  0.872473  1
  F  F14  1  0.026190  0.212975  0.120805  1
  F  F15  1  0.206868  0.021878  0.116791  1
  F  F16  1  0.978122  0.793132  0.883209  1
  F  F17  1  0.787025  0.973810  0.879195  1
  F  F18  1  0.142169  0.139436  0.528329  1
  F  F19  1  0.860564  0.857831  0.471671  1
  F  F20  1  0.916416  0.277836  0.706086  1
  F  F21  1  0.284441  0.913216  0.703646  1
  F  F22  1  0.086784  0.715559  0.296354  1
  F  F23  1  0.722164  0.083584  0.293914  1
