# generated using pymatgen
data_Ti3Tc2As3Ru
_symmetry_space_group_name_H-M   'P 1'
_cell_length_a   7.55035589
_cell_length_b   7.55035516
_cell_length_c   7.55035637
_cell_angle_alpha   128.21327513
_cell_angle_beta   122.43881268
_cell_angle_gamma   81.08383519
_symmetry_Int_Tables_number   1
_chemical_formula_structural   Ti3Tc2As3Ru
_chemical_formula_sum   'Ti6 Tc4 As6 Ru2'
_cell_volume   275.08970074
_cell_formula_units_Z   2
loop_
 _symmetry_equiv_pos_site_id
 _symmetry_equiv_pos_as_xyz
  1  'x, y, z'
loop_
 _atom_site_type_symbol
 _atom_site_label
 _atom_site_symmetry_multiplicity
 _atom_site_fract_x
 _atom_site_fract_y
 _atom_site_fract_z
 _atom_site_occupancy
  Ti  Ti0  1  0.469129  0.251709  0.282580  1
  Ti  Ti1  1  0.530871  0.813450  0.782580  1
  Ti  Ti2  1  0.749158  0.656181  0.407022  1
  Ti  Ti3  1  0.250842  0.657864  0.907022  1
  Ti  Ti4  1  0.050551  0.846202  0.295651  1
  Ti  Ti5  1  0.949449  0.245100  0.795651  1
  Tc  Tc6  1  0.663069  0.498738  0.910434  1
  Tc  Tc7  1  0.336931  0.247365  0.835670  1
  Tc  Tc8  1  0.911696  0.247365  0.410434  1
  Tc  Tc9  1  0.088304  0.498738  0.335670  1
  As  As10  1  0.836338  0.582248  0.751089  1
  As  As11  1  0.163662  0.914751  0.745911  1
  As  As12  1  0.668840  0.914751  0.251089  1
  As  As13  1  0.331160  0.582248  0.245911  1
  As  As14  1  0.280062  0.276742  0.496680  1
  As  As15  1  0.719938  0.216618  0.996680  1
  Ru  Ru16  1  0.000000  0.995164  0.995164  1
  Ru  Ru17  1  0.500000  0.995164  0.495164  1
