# generated using pymatgen
data_CaY(NiRh)2
_symmetry_space_group_name_H-M   'P 1'
_cell_length_a   5.08392991
_cell_length_b   5.20826100
_cell_length_c   5.20826137
_cell_angle_alpha   61.99956112
_cell_angle_beta   60.78660183
_cell_angle_gamma   60.78659274
_symmetry_Int_Tables_number   1
_chemical_formula_structural   CaY(NiRh)2
_chemical_formula_sum   'Ca1 Y1 Ni2 Rh2'
_cell_volume   100.09805088
_cell_formula_units_Z   1
loop_
 _symmetry_equiv_pos_site_id
 _symmetry_equiv_pos_as_xyz
  1  'x, y, z'
loop_
 _atom_site_type_symbol
 _atom_site_label
 _atom_site_symmetry_multiplicity
 _atom_site_fract_x
 _atom_site_fract_y
 _atom_site_fract_z
 _atom_site_occupancy
  Ca  Ca0  1  0.002171  0.997829  0.997829  1
  Y  Y1  1  0.248563  0.251437  0.251437  1
  Ni  Ni2  1  0.125033  0.625108  0.625108  1
  Ni  Ni3  1  0.624751  0.625108  0.625108  1
  Rh  Rh4  1  0.624741  0.625318  0.125200  1
  Rh  Rh5  1  0.624741  0.125200  0.625318  1
