# generated using pymatgen
data_YbEuSi3Pt
_symmetry_space_group_name_H-M   'P 1'
_cell_length_a   8.25549138
_cell_length_b   8.25549320
_cell_length_c   4.23544400
_cell_angle_alpha   90.00000000
_cell_angle_beta   90.00000000
_cell_angle_gamma   120.13023688
_symmetry_Int_Tables_number   1
_chemical_formula_structural   YbEuSi3Pt
_chemical_formula_sum   'Yb2 Eu2 Si6 Pt2'
_cell_volume   249.65719292
_cell_formula_units_Z   2
loop_
 _symmetry_equiv_pos_site_id
 _symmetry_equiv_pos_as_xyz
  1  'x, y, z'
loop_
 _atom_site_type_symbol
 _atom_site_label
 _atom_site_symmetry_multiplicity
 _atom_site_fract_x
 _atom_site_fract_y
 _atom_site_fract_z
 _atom_site_occupancy
  Yb  Yb0  1  0.000000  0.500000  0.000000  1
  Yb  Yb1  1  0.500000  0.000000  0.000000  1
  Eu  Eu2  1  0.500000  0.500000  0.000000  1
  Eu  Eu3  1  0.000000  0.000000  0.000000  1
  Si  Si4  1  0.835024  0.668997  0.500000  1
  Si  Si5  1  0.165266  0.834734  0.500000  1
  Si  Si6  1  0.668997  0.835024  0.500000  1
  Si  Si7  1  0.164976  0.331003  0.500000  1
  Si  Si8  1  0.834734  0.165266  0.500000  1
  Si  Si9  1  0.331003  0.164976  0.500000  1
  Pt  Pt10  1  0.331625  0.668375  0.500000  1
  Pt  Pt11  1  0.668375  0.331625  0.500000  1
