# generated using pymatgen
data_Yb11Er9Sn16
_symmetry_space_group_name_H-M   'P 1'
_cell_length_a   7.80588557
_cell_length_b   8.40990809
_cell_length_c   15.91819800
_cell_angle_alpha   90.00000000
_cell_angle_beta   90.00000000
_cell_angle_gamma   89.88944790
_symmetry_Int_Tables_number   1
_chemical_formula_structural   Yb11Er9Sn16
_chemical_formula_sum   'Yb11 Er9 Sn16'
_cell_volume   1044.97649928
_cell_formula_units_Z   1
loop_
 _symmetry_equiv_pos_site_id
 _symmetry_equiv_pos_as_xyz
  1  'x, y, z'
loop_
 _atom_site_type_symbol
 _atom_site_label
 _atom_site_symmetry_multiplicity
 _atom_site_fract_x
 _atom_site_fract_y
 _atom_site_fract_z
 _atom_site_occupancy
  Yb  Yb0  1  0.503488  0.687310  0.593733  1
  Yb  Yb1  1  0.003526  0.814489  0.907983  1
  Yb  Yb2  1  0.495068  0.311790  0.091944  1
  Yb  Yb3  1  0.996399  0.187566  0.408386  1
  Yb  Yb4  1  0.495068  0.311790  0.408056  1
  Yb  Yb5  1  0.996399  0.187566  0.091614  1
  Yb  Yb6  1  0.503488  0.687310  0.906267  1
  Yb  Yb7  1  0.003526  0.814489  0.592017  1
  Yb  Yb8  1  0.335526  0.989088  0.750000  1
  Yb  Yb9  1  0.164465  0.488311  0.250000  1
  Yb  Yb10  1  0.663990  0.010570  0.250000  1
  Er  Er11  1  0.673923  0.163105  0.622318  1
  Er  Er12  1  0.175144  0.335404  0.877053  1
  Er  Er13  1  0.326214  0.833837  0.121976  1
  Er  Er14  1  0.826677  0.664188  0.378480  1
  Er  Er15  1  0.326214  0.833837  0.378024  1
  Er  Er16  1  0.826677  0.664188  0.121520  1
  Er  Er17  1  0.673923  0.163105  0.877682  1
  Er  Er18  1  0.175144  0.335404  0.622947  1
  Er  Er19  1  0.836932  0.509654  0.750000  1
  Sn  Sn20  1  0.672187  0.962705  0.459308  1
  Sn  Sn21  1  0.172484  0.536724  0.039931  1
  Sn  Sn22  1  0.328051  0.037295  0.959151  1
  Sn  Sn23  1  0.828075  0.465171  0.543954  1
  Sn  Sn24  1  0.328051  0.037295  0.540849  1
  Sn  Sn25  1  0.828075  0.465171  0.956046  1
  Sn  Sn26  1  0.672187  0.962705  0.040692  1
  Sn  Sn27  1  0.172484  0.536724  0.460069  1
  Sn  Sn28  1  0.475422  0.377384  0.750000  1
  Sn  Sn29  1  0.971660  0.133539  0.750000  1
  Sn  Sn30  1  0.528149  0.626708  0.250000  1
  Sn  Sn31  1  0.027339  0.871305  0.250000  1
  Sn  Sn32  1  0.721834  0.865312  0.750000  1
  Sn  Sn33  1  0.209537  0.630533  0.750000  1
  Sn  Sn34  1  0.280509  0.126327  0.250000  1
  Sn  Sn35  1  0.782165  0.372102  0.250000  1
