# generated using pymatgen
data_Sr3LiRhO6
_symmetry_space_group_name_H-M   'P 1'
_cell_length_a   6.74066961
_cell_length_b   6.74067071
_cell_length_c   6.74067050
_cell_angle_alpha   92.27585854
_cell_angle_beta   92.27585627
_cell_angle_gamma   92.27586055
_symmetry_Int_Tables_number   1
_chemical_formula_structural   Sr3LiRhO6
_chemical_formula_sum   'Sr6 Li2 Rh2 O12'
_cell_volume   305.52883069
_cell_formula_units_Z   2
loop_
 _symmetry_equiv_pos_site_id
 _symmetry_equiv_pos_as_xyz
  1  'x, y, z'
loop_
 _atom_site_type_symbol
 _atom_site_label
 _atom_site_symmetry_multiplicity
 _atom_site_fract_x
 _atom_site_fract_y
 _atom_site_fract_z
 _atom_site_occupancy
  Sr  Sr0  1  0.109750  0.750000  0.390250  1
  Sr  Sr1  1  0.390250  0.109750  0.750000  1
  Sr  Sr2  1  0.750000  0.390250  0.109750  1
  Sr  Sr3  1  0.890250  0.250000  0.609750  1
  Sr  Sr4  1  0.609750  0.890250  0.250000  1
  Sr  Sr5  1  0.250000  0.609750  0.890250  1
  Li  Li6  1  0.250000  0.250000  0.250000  1
  Li  Li7  1  0.750000  0.750000  0.750000  1
  Rh  Rh8  1  0.500000  0.500000  0.500000  1
  Rh  Rh9  1  0.000000  0.000000  0.000000  1
  O  O10  1  0.217505  0.416730  0.547007  1
  O  O11  1  0.547007  0.217505  0.416730  1
  O  O12  1  0.416730  0.547007  0.217505  1
  O  O13  1  0.047007  0.916730  0.717505  1
  O  O14  1  0.717505  0.047007  0.916730  1
  O  O15  1  0.916730  0.717505  0.047007  1
  O  O16  1  0.782495  0.583270  0.452993  1
  O  O17  1  0.452993  0.782495  0.583270  1
  O  O18  1  0.583270  0.452993  0.782495  1
  O  O19  1  0.952993  0.083270  0.282495  1
  O  O20  1  0.282495  0.952993  0.083270  1
  O  O21  1  0.083270  0.282495  0.952993  1
