# generated using pymatgen
data_Rb2LiAlBi2
_symmetry_space_group_name_H-M   'P 1'
_cell_length_a   9.88061716
_cell_length_b   9.88061741
_cell_length_c   9.88061790
_cell_angle_alpha   138.23296383
_cell_angle_beta   60.63422753
_cell_angle_gamma   138.11821040
_symmetry_Int_Tables_number   1
_chemical_formula_structural   Rb2LiAlBi2
_chemical_formula_sum   'Rb4 Li2 Al2 Bi4'
_cell_volume   424.35424717
_cell_formula_units_Z   2
loop_
 _symmetry_equiv_pos_site_id
 _symmetry_equiv_pos_as_xyz
  1  'x, y, z'
loop_
 _atom_site_type_symbol
 _atom_site_label
 _atom_site_symmetry_multiplicity
 _atom_site_fract_x
 _atom_site_fract_y
 _atom_site_fract_z
 _atom_site_occupancy
  Rb  Rb0  1  0.833052  0.263608  0.096659  1
  Rb  Rb1  1  0.666950  0.763607  0.430555  1
  Rb  Rb2  1  0.333051  0.236393  0.569444  1
  Rb  Rb3  1  0.166949  0.736392  0.903340  1
  Li  Li4  1  0.750001  0.250000  0.500000  1
  Li  Li5  1  0.250000  0.750000  0.499999  1
  Al  Al6  1  0.250000  0.250000  0.000000  1
  Al  Al7  1  0.750000  0.750000  0.000000  1
  Bi  Bi8  1  0.408036  0.728944  0.136979  1
  Bi  Bi9  1  0.091965  0.228944  0.320908  1
  Bi  Bi10  1  0.908036  0.771056  0.679091  1
  Bi  Bi11  1  0.591965  0.271056  0.863021  1
