# generated using pymatgen
data_Hf16Ni4PtW3
_symmetry_space_group_name_H-M   'P 1'
_cell_length_a   8.68016943
_cell_length_b   8.68016871
_cell_length_c   8.68016927
_cell_angle_alpha   60.05502160
_cell_angle_beta   60.05502155
_cell_angle_gamma   60.05502020
_symmetry_Int_Tables_number   1
_chemical_formula_structural   Hf16Ni4PtW3
_chemical_formula_sum   'Hf16 Ni4 Pt1 W3'
_cell_volume   463.03178837
_cell_formula_units_Z   1
loop_
 _symmetry_equiv_pos_site_id
 _symmetry_equiv_pos_as_xyz
  1  'x, y, z'
loop_
 _atom_site_type_symbol
 _atom_site_label
 _atom_site_symmetry_multiplicity
 _atom_site_fract_x
 _atom_site_fract_y
 _atom_site_fract_z
 _atom_site_occupancy
  Hf  Hf0  1  0.693102  0.101843  0.101843  1
  Hf  Hf1  1  0.101843  0.693102  0.101843  1
  Hf  Hf2  1  0.101843  0.101843  0.693102  1
  Hf  Hf3  1  0.103570  0.103570  0.103570  1
  Hf  Hf4  1  0.315496  0.315496  0.689137  1
  Hf  Hf5  1  0.685028  0.685028  0.315468  1
  Hf  Hf6  1  0.315496  0.689137  0.315496  1
  Hf  Hf7  1  0.685028  0.315468  0.685028  1
  Hf  Hf8  1  0.689137  0.315496  0.315496  1
  Hf  Hf9  1  0.315468  0.685028  0.685028  1
  Hf  Hf10  1  0.954825  0.954825  0.543990  1
  Hf  Hf11  1  0.548190  0.548190  0.950561  1
  Hf  Hf12  1  0.954825  0.543990  0.954825  1
  Hf  Hf13  1  0.548190  0.950561  0.548190  1
  Hf  Hf14  1  0.543990  0.954825  0.954825  1
  Hf  Hf15  1  0.950561  0.548190  0.548190  1
  Ni  Ni16  1  0.326069  0.890127  0.890127  1
  Ni  Ni17  1  0.890127  0.326069  0.890127  1
  Ni  Ni18  1  0.890127  0.890127  0.326069  1
  Ni  Ni19  1  0.890858  0.890858  0.890858  1
  Pt  Pt20  1  0.332667  0.332667  0.332667  1
  W  W21  1  0.998605  0.332475  0.332475  1
  W  W22  1  0.332475  0.998605  0.332475  1
  W  W23  1  0.332475  0.332475  0.998605  1
