# generated using pymatgen
data_SmEu(ReB4)2
_symmetry_space_group_name_H-M   'P 1'
_cell_length_a   3.62928300
_cell_length_b   6.02638934
_cell_length_c   11.65998000
_cell_angle_alpha   89.80940319
_cell_angle_beta   90.00000000
_cell_angle_gamma   90.00000000
_symmetry_Int_Tables_number   1
_chemical_formula_structural   SmEu(ReB4)2
_chemical_formula_sum   'Sm2 Eu2 Re4 B16'
_cell_volume   255.01951970
_cell_formula_units_Z   2
loop_
 _symmetry_equiv_pos_site_id
 _symmetry_equiv_pos_as_xyz
  1  'x, y, z'
loop_
 _atom_site_type_symbol
 _atom_site_label
 _atom_site_symmetry_multiplicity
 _atom_site_fract_x
 _atom_site_fract_y
 _atom_site_fract_z
 _atom_site_occupancy
  Sm  Sm0  1  0.000000  0.126344  0.150994  1
  Sm  Sm1  1  0.000000  0.873656  0.849006  1
  Eu  Eu2  1  0.000000  0.626283  0.349983  1
  Eu  Eu3  1  0.000000  0.373717  0.650017  1
  Re  Re4  1  0.000000  0.631531  0.085449  1
  Re  Re5  1  0.000000  0.368469  0.914551  1
  Re  Re6  1  0.000000  0.129843  0.414246  1
  Re  Re7  1  0.000000  0.870157  0.585754  1
  B  B8  1  0.500000  0.783056  0.184448  1
  B  B9  1  0.500000  0.216944  0.815552  1
  B  B10  1  0.500000  0.284277  0.315888  1
  B  B11  1  0.500000  0.715723  0.684112  1
  B  B12  1  0.500000  0.861869  0.031785  1
  B  B13  1  0.500000  0.138131  0.968215  1
  B  B14  1  0.500000  0.362800  0.467803  1
  B  B15  1  0.500000  0.637200  0.532197  1
  B  B16  1  0.500000  0.886811  0.453549  1
  B  B17  1  0.500000  0.113189  0.546451  1
  B  B18  1  0.500000  0.387282  0.046812  1
  B  B19  1  0.500000  0.612718  0.953188  1
  B  B20  1  0.500000  0.976163  0.309029  1
  B  B21  1  0.500000  0.023837  0.690971  1
  B  B22  1  0.500000  0.476014  0.191152  1
  B  B23  1  0.500000  0.523986  0.808848  1
