# generated using pymatgen
data_Nd3Al24RePd8
_symmetry_space_group_name_H-M   'P 1'
_cell_length_a   8.50239971
_cell_length_b   8.50279164
_cell_length_c   8.48903049
_cell_angle_alpha   89.55878188
_cell_angle_beta   89.55031236
_cell_angle_gamma   89.82642950
_symmetry_Int_Tables_number   1
_chemical_formula_structural   Nd3Al24RePd8
_chemical_formula_sum   'Nd3 Al24 Re1 Pd8'
_cell_volume   613.66729759
_cell_formula_units_Z   1
loop_
 _symmetry_equiv_pos_site_id
 _symmetry_equiv_pos_as_xyz
  1  'x, y, z'
loop_
 _atom_site_type_symbol
 _atom_site_label
 _atom_site_symmetry_multiplicity
 _atom_site_fract_x
 _atom_site_fract_y
 _atom_site_fract_z
 _atom_site_occupancy
  Nd  Nd0  1  0.000000  0.500000  0.000000  1
  Nd  Nd1  1  0.500000  0.000000  0.000000  1
  Nd  Nd2  1  0.000000  0.000000  0.500000  1
  Al  Al3  1  0.992466  0.638797  0.638905  1
  Al  Al4  1  0.639441  0.639434  0.992535  1
  Al  Al5  1  0.638781  0.992468  0.638887  1
  Al  Al6  1  0.007534  0.361203  0.361095  1
  Al  Al7  1  0.360559  0.360566  0.007465  1
  Al  Al8  1  0.361219  0.007532  0.361113  1
  Al  Al9  1  0.733655  0.499316  0.267450  1
  Al  Al10  1  0.266345  0.500684  0.732550  1
  Al  Al11  1  0.500701  0.266325  0.732542  1
  Al  Al12  1  0.499299  0.733675  0.267458  1
  Al  Al13  1  0.266687  0.733353  0.499980  1
  Al  Al14  1  0.733313  0.266647  0.500020  1
  Al  Al15  1  0.834318  0.145042  0.834151  1
  Al  Al16  1  0.145020  0.834358  0.834185  1
  Al  Al17  1  0.835600  0.835608  0.144334  1
  Al  Al18  1  0.165682  0.854958  0.165849  1
  Al  Al19  1  0.854980  0.165642  0.165815  1
  Al  Al20  1  0.164400  0.164392  0.855666  1
  Al  Al21  1  0.728849  0.491568  0.728118  1
  Al  Al22  1  0.491612  0.728858  0.728109  1
  Al  Al23  1  0.728423  0.728442  0.493227  1
  Al  Al24  1  0.271151  0.508432  0.271882  1
  Al  Al25  1  0.508388  0.271142  0.271891  1
  Al  Al26  1  0.271577  0.271558  0.506773  1
  Re  Re27  1  0.500000  0.500000  0.500000  1
  Pd  Pd28  1  0.827199  0.827240  0.826036  1
  Pd  Pd29  1  0.172801  0.172760  0.173964  1
  Pd  Pd30  1  0.662306  0.337694  0.000018  1
  Pd  Pd31  1  0.000726  0.337315  0.662721  1
  Pd  Pd32  1  0.337301  0.000705  0.662732  1
  Pd  Pd33  1  0.337694  0.662306  0.999982  1
  Pd  Pd34  1  0.999274  0.662685  0.337279  1
  Pd  Pd35  1  0.662699  0.999295  0.337268  1
