# generated using pymatgen
data_NdNi5AsP2
_symmetry_space_group_name_H-M   'P 1'
_cell_length_a   6.19037238
_cell_length_b   6.19037134
_cell_length_c   11.49440900
_cell_angle_alpha   90.00000000
_cell_angle_beta   90.00000000
_cell_angle_gamma   145.41464080
_symmetry_Int_Tables_number   1
_chemical_formula_structural   NdNi5AsP2
_chemical_formula_sum   'Nd2 Ni10 As2 P4'
_cell_volume   250.02766041
_cell_formula_units_Z   2
loop_
 _symmetry_equiv_pos_site_id
 _symmetry_equiv_pos_as_xyz
  1  'x, y, z'
loop_
 _atom_site_type_symbol
 _atom_site_label
 _atom_site_symmetry_multiplicity
 _atom_site_fract_x
 _atom_site_fract_y
 _atom_site_fract_z
 _atom_site_occupancy
  Nd  Nd0  1  0.159412  0.840588  0.250000  1
  Nd  Nd1  1  0.840588  0.159412  0.750000  1
  Ni  Ni2  1  0.199705  0.800295  0.939021  1
  Ni  Ni3  1  0.800295  0.199705  0.439021  1
  Ni  Ni4  1  0.000000  0.000000  0.000000  1
  Ni  Ni5  1  0.000000  0.000000  0.500000  1
  Ni  Ni6  1  0.544696  0.455304  0.642688  1
  Ni  Ni7  1  0.455304  0.544696  0.357312  1
  Ni  Ni8  1  0.455304  0.544696  0.142688  1
  Ni  Ni9  1  0.199705  0.800295  0.560979  1
  Ni  Ni10  1  0.800295  0.199705  0.060979  1
  Ni  Ni11  1  0.544696  0.455304  0.857312  1
  As  As12  1  0.119352  0.880648  0.750000  1
  As  As13  1  0.880648  0.119352  0.250000  1
  P  P14  1  0.618580  0.381420  0.460835  1
  P  P15  1  0.618580  0.381420  0.039165  1
  P  P16  1  0.381420  0.618580  0.960835  1
  P  P17  1  0.381420  0.618580  0.539165  1
