# generated using pymatgen
data_NpMnSb12IrOs2
_symmetry_space_group_name_H-M   'P 1'
_cell_length_a   8.12693319
_cell_length_b   8.11244185
_cell_length_c   8.12345618
_cell_angle_alpha   109.43787320
_cell_angle_beta   109.53386409
_cell_angle_gamma   109.56290157
_symmetry_Int_Tables_number   1
_chemical_formula_structural   NpMnSb12IrOs2
_chemical_formula_sum   'Np1 Mn1 Sb12 Ir1 Os2'
_cell_volume   411.66761688
_cell_formula_units_Z   1
loop_
 _symmetry_equiv_pos_site_id
 _symmetry_equiv_pos_as_xyz
  1  'x, y, z'
loop_
 _atom_site_type_symbol
 _atom_site_label
 _atom_site_symmetry_multiplicity
 _atom_site_fract_x
 _atom_site_fract_y
 _atom_site_fract_z
 _atom_site_occupancy
  Np  Np0  1  0.000000  0.000000  0.000000  1
  Mn  Mn1  1  0.500000  0.000000  0.000000  1
  Sb  Sb2  1  0.340543  0.178220  0.847597  1
  Sb  Sb3  1  0.659457  0.821780  0.152403  1
  Sb  Sb4  1  0.661669  0.505327  0.843386  1
  Sb  Sb5  1  0.338331  0.494673  0.156614  1
  Sb  Sb6  1  0.184639  0.844259  0.338442  1
  Sb  Sb7  1  0.815361  0.155741  0.661558  1
  Sb  Sb8  1  0.506056  0.844730  0.669311  1
  Sb  Sb9  1  0.493944  0.155270  0.330689  1
  Sb  Sb10  1  0.837739  0.331271  0.175646  1
  Sb  Sb11  1  0.162261  0.668729  0.824354  1
  Sb  Sb12  1  0.843914  0.659583  0.505752  1
  Sb  Sb13  1  0.156086  0.340417  0.494248  1
  Ir  Ir14  1  0.000000  0.000000  0.500000  1
  Os  Os15  1  0.000000  0.500000  0.000000  1
  Os  Os16  1  0.500000  0.500000  0.500000  1
