# generated using pymatgen
data_NpPd7Pt
_symmetry_space_group_name_H-M   'P 1'
_cell_length_a   6.35929400
_cell_length_b   6.35929418
_cell_length_c   6.30387068
_cell_angle_alpha   96.12365522
_cell_angle_beta   96.12366878
_cell_angle_gamma   142.04647458
_symmetry_Int_Tables_number   1
_chemical_formula_structural   NpPd7Pt
_chemical_formula_sum   'Np1 Pd7 Pt1'
_cell_volume   148.11279052
_cell_formula_units_Z   1
loop_
 _symmetry_equiv_pos_site_id
 _symmetry_equiv_pos_as_xyz
  1  'x, y, z'
loop_
 _atom_site_type_symbol
 _atom_site_label
 _atom_site_symmetry_multiplicity
 _atom_site_fract_x
 _atom_site_fract_y
 _atom_site_fract_z
 _atom_site_occupancy
  Np  Np0  1  0.000493  0.999507  0.000000  1
  Pd  Pd1  1  0.331100  0.999218  0.330318  1
  Pd  Pd2  1  0.667441  0.000807  0.668248  1
  Pd  Pd3  1  0.999193  0.332559  0.331752  1
  Pd  Pd4  1  0.000782  0.668900  0.669682  1
  Pd  Pd5  1  0.331444  0.331421  0.662865  1
  Pd  Pd6  1  0.668579  0.668556  0.337135  1
  Pd  Pd7  1  0.667361  0.332639  0.000000  1
  Pt  Pt8  1  0.333608  0.666392  0.000000  1
