# generated using pymatgen
data_YTh3(Ga5Ir3)2
_symmetry_space_group_name_H-M   'P 1'
_cell_length_a   8.64584612
_cell_length_b   8.68107557
_cell_length_c   8.68107674
_cell_angle_alpha   141.04296511
_cell_angle_beta   108.52724314
_cell_angle_gamma   84.57935663
_symmetry_Int_Tables_number   1
_chemical_formula_structural   YTh3(Ga5Ir3)2
_chemical_formula_sum   'Y1 Th3 Ga10 Ir6'
_cell_volume   375.48326955
_cell_formula_units_Z   1
loop_
 _symmetry_equiv_pos_site_id
 _symmetry_equiv_pos_as_xyz
  1  'x, y, z'
loop_
 _atom_site_type_symbol
 _atom_site_label
 _atom_site_symmetry_multiplicity
 _atom_site_fract_x
 _atom_site_fract_y
 _atom_site_fract_z
 _atom_site_occupancy
  Y  Y0  1  0.084321  0.858760  0.225559  1
  Th  Th1  1  0.634236  0.359709  0.274525  1
  Th  Th2  1  0.366231  0.641808  0.724425  1
  Th  Th3  1  0.919086  0.142799  0.776288  1
  Ga  Ga4  1  0.414984  0.085164  0.329819  1
  Ga  Ga5  1  0.580249  0.911632  0.668618  1
  Ga  Ga6  1  0.237270  0.410322  0.826948  1
  Ga  Ga7  1  0.760093  0.589542  0.170552  1
  Ga  Ga8  1  0.292896  0.548634  0.248995  1
  Ga  Ga9  1  0.706925  0.953785  0.250462  1
  Ga  Ga10  1  0.706925  0.456464  0.753141  1
  Ga  Ga11  1  0.292896  0.043901  0.744263  1
  Ga  Ga12  1  0.002311  0.246061  0.250425  1
  Ga  Ga13  1  0.002311  0.751886  0.756250  1
  Ir  Ir14  1  0.253524  0.152874  0.100651  1
  Ir  Ir15  1  0.749199  0.848741  0.900457  1
  Ir  Ir16  1  0.943467  0.349091  0.594377  1
  Ir  Ir17  1  0.051878  0.647834  0.404043  1
  Ir  Ir18  1  0.500598  0.251228  0.750833  1
  Ir  Ir19  1  0.500598  0.749765  0.249370  1
