# generated using pymatgen
data_Hf2Ga2PtRh
_symmetry_space_group_name_H-M   'P 1'
_cell_length_a   7.25522800
_cell_length_b   7.25522648
_cell_length_c   6.80160500
_cell_angle_alpha   90.00000000
_cell_angle_beta   90.00000000
_cell_angle_gamma   120.00000694
_symmetry_Int_Tables_number   1
_chemical_formula_structural   Hf2Ga2PtRh
_chemical_formula_sum   'Hf6 Ga6 Pt3 Rh3'
_cell_volume   310.05878935
_cell_formula_units_Z   3
loop_
 _symmetry_equiv_pos_site_id
 _symmetry_equiv_pos_as_xyz
  1  'x, y, z'
loop_
 _atom_site_type_symbol
 _atom_site_label
 _atom_site_symmetry_multiplicity
 _atom_site_fract_x
 _atom_site_fract_y
 _atom_site_fract_z
 _atom_site_occupancy
  Hf  Hf0  1  0.398534  0.383684  0.252736  1
  Hf  Hf1  1  0.605056  0.993316  0.747230  1
  Hf  Hf2  1  0.388260  0.394944  0.747230  1
  Hf  Hf3  1  0.006684  0.611740  0.747230  1
  Hf  Hf4  1  0.985150  0.601466  0.252736  1
  Hf  Hf5  1  0.616316  0.014850  0.252736  1
  Ga  Ga6  1  0.265556  0.997454  0.000168  1
  Ga  Ga7  1  0.272711  0.002029  0.500383  1
  Ga  Ga8  1  0.997971  0.270682  0.500383  1
  Ga  Ga9  1  0.002546  0.268102  0.000168  1
  Ga  Ga10  1  0.731898  0.734444  0.000168  1
  Ga  Ga11  1  0.729318  0.727289  0.500383  1
  Pt  Pt12  1  0.666667  0.333333  0.984710  1
  Pt  Pt13  1  0.333333  0.666667  0.015334  1
  Pt  Pt14  1  0.333333  0.666667  0.483816  1
  Rh  Rh15  1  0.666667  0.333333  0.514266  1
  Rh  Rh16  1  0.000000  0.000000  0.744658  1
  Rh  Rh17  1  0.000000  0.000000  0.255667  1
