# generated using pymatgen
data_TbHo2In3Ag2Rh
_symmetry_space_group_name_H-M   'P 1'
_cell_length_a   7.77091134
_cell_length_b   7.76306754
_cell_length_c   3.93499600
_cell_angle_alpha   90.00000000
_cell_angle_beta   90.00000000
_cell_angle_gamma   119.96618965
_symmetry_Int_Tables_number   1
_chemical_formula_structural   TbHo2In3Ag2Rh
_chemical_formula_sum   'Tb1 Ho2 In3 Ag2 Rh1'
_cell_volume   205.64971248
_cell_formula_units_Z   1
loop_
 _symmetry_equiv_pos_site_id
 _symmetry_equiv_pos_as_xyz
  1  'x, y, z'
loop_
 _atom_site_type_symbol
 _atom_site_label
 _atom_site_symmetry_multiplicity
 _atom_site_fract_x
 _atom_site_fract_y
 _atom_site_fract_z
 _atom_site_occupancy
  Tb  Tb0  1  0.974291  0.396978  0.500000  1
  Ho  Ho1  1  0.603381  0.576624  0.500000  1
  Ho  Ho2  1  0.422954  0.027001  0.500000  1
  In  In3  1  0.263850  0.263705  0.000000  1
  In  In4  1  0.000221  0.737027  0.000000  1
  In  In5  1  0.735609  0.998867  0.000000  1
  Ag  Ag6  1  0.334455  0.667439  0.000000  1
  Ag  Ag7  1  0.000029  0.999416  0.500000  1
  Rh  Rh8  1  0.665208  0.332944  0.000000  1
