# generated using pymatgen
data_Ho6C2I7
_symmetry_space_group_name_H-M   'P 1'
_cell_length_a   10.98581664
_cell_length_b   10.98581643
_cell_length_c   12.77589935
_cell_angle_alpha   58.13249348
_cell_angle_beta   58.13249471
_cell_angle_gamma   20.69760540
_symmetry_Int_Tables_number   1
_chemical_formula_structural   Ho6C2I7
_chemical_formula_sum   'Ho6 C2 I7'
_cell_volume   459.82910900
_cell_formula_units_Z   1
loop_
 _symmetry_equiv_pos_site_id
 _symmetry_equiv_pos_as_xyz
  1  'x, y, z'
loop_
 _atom_site_type_symbol
 _atom_site_label
 _atom_site_symmetry_multiplicity
 _atom_site_fract_x
 _atom_site_fract_y
 _atom_site_fract_z
 _atom_site_occupancy
  Ho  Ho0  1  0.237436  0.237436  0.806948  1
  Ho  Ho1  1  0.307483  0.307483  0.376327  1
  Ho  Ho2  1  0.136689  0.136689  0.446045  1
  Ho  Ho3  1  0.863311  0.863311  0.553955  1
  Ho  Ho4  1  0.692517  0.692517  0.623673  1
  Ho  Ho5  1  0.762564  0.762564  0.193052  1
  C  C6  1  0.280779  0.280779  0.595358  1
  C  C7  1  0.719221  0.719221  0.404642  1
  I  I8  1  0.158970  0.158970  0.178628  1
  I  I9  1  0.841030  0.841030  0.821372  1
  I  I10  1  0.058145  0.058145  0.721168  1
  I  I11  1  0.941855  0.941855  0.278832  1
  I  I12  1  0.500000  0.500000  0.500000  1
  I  I13  1  0.387187  0.387187  0.073443  1
  I  I14  1  0.612813  0.612813  0.926557  1
