# generated using pymatgen
data_Tb6Y2Ti11Si16Hg
_symmetry_space_group_name_H-M   'P 1'
_cell_length_a   7.10262851
_cell_length_b   7.10263930
_cell_length_c   12.96811018
_cell_angle_alpha   90.13031604
_cell_angle_beta   89.89352870
_cell_angle_gamma   89.55678069
_symmetry_Int_Tables_number   1
_chemical_formula_structural   Tb6Y2Ti11Si16Hg
_chemical_formula_sum   'Tb6 Y2 Ti11 Si16 Hg1'
_cell_volume   654.18513359
_cell_formula_units_Z   1
loop_
 _symmetry_equiv_pos_site_id
 _symmetry_equiv_pos_as_xyz
  1  'x, y, z'
loop_
 _atom_site_type_symbol
 _atom_site_label
 _atom_site_symmetry_multiplicity
 _atom_site_fract_x
 _atom_site_fract_y
 _atom_site_fract_z
 _atom_site_occupancy
  Tb  Tb0  1  0.501234  0.157928  0.214942  1
  Tb  Tb1  1  0.839008  0.497643  0.284029  1
  Tb  Tb2  1  0.157907  0.501258  0.785050  1
  Tb  Tb3  1  0.657180  0.000212  0.968340  1
  Tb  Tb4  1  0.002481  0.340833  0.533106  1
  Tb  Tb5  1  0.000281  0.657184  0.031596  1
  Y  Y6  1  0.340922  0.002298  0.466906  1
  Y  Y7  1  0.497807  0.839182  0.715977  1
  Ti  Ti8  1  0.173657  0.826600  0.250648  1
  Ti  Ti9  1  0.826622  0.173666  0.749309  1
  Ti  Ti10  1  0.672868  0.672842  0.500014  1
  Ti  Ti11  1  0.147959  0.008895  0.877241  1
  Ti  Ti12  1  0.495018  0.650603  0.124089  1
  Ti  Ti13  1  0.507861  0.350869  0.624824  1
  Ti  Ti14  1  0.650529  0.494985  0.875893  1
  Ti  Ti15  1  0.350647  0.508059  0.375308  1
  Ti  Ti16  1  0.848743  0.991042  0.375082  1
  Ti  Ti17  1  0.009077  0.147934  0.122715  1
  Ti  Ti18  1  0.991060  0.848701  0.625030  1
  Si  Si19  1  0.201336  0.130657  0.684641  1
  Si  Si20  1  0.374567  0.724120  0.928124  1
  Si  Si21  1  0.630059  0.294923  0.433693  1
  Si  Si22  1  0.724037  0.374603  0.071767  1
  Si  Si23  1  0.295057  0.630417  0.566414  1
  Si  Si24  1  0.798673  0.868510  0.183852  1
  Si  Si25  1  0.130759  0.201148  0.315327  1
  Si  Si26  1  0.868283  0.798691  0.816096  1
  Si  Si27  1  0.285576  0.932978  0.067677  1
  Si  Si28  1  0.546290  0.790755  0.314842  1
  Si  Si29  1  0.459064  0.205493  0.805199  1
  Si  Si30  1  0.790690  0.546458  0.685181  1
  Si  Si31  1  0.205841  0.459039  0.194766  1
  Si  Si32  1  0.709825  0.047732  0.564207  1
  Si  Si33  1  0.932956  0.285524  0.932308  1
  Si  Si34  1  0.047981  0.710080  0.435783  1
  Hg  Hg35  1  0.328144  0.328136  0.000024  1
