# generated using pymatgen
data_Hf6Re5Si6Tc
_symmetry_space_group_name_H-M   'P 1'
_cell_length_a   7.75672577
_cell_length_b   7.75598277
_cell_length_c   7.75564546
_cell_angle_alpha   126.60540738
_cell_angle_beta   127.85994500
_cell_angle_gamma   77.87518363
_symmetry_Int_Tables_number   1
_chemical_formula_structural   Hf6Re5Si6Tc
_chemical_formula_sum   'Hf6 Re5 Si6 Tc1'
_cell_volume   286.62961114
_cell_formula_units_Z   1
loop_
 _symmetry_equiv_pos_site_id
 _symmetry_equiv_pos_as_xyz
  1  'x, y, z'
loop_
 _atom_site_type_symbol
 _atom_site_label
 _atom_site_symmetry_multiplicity
 _atom_site_fract_x
 _atom_site_fract_y
 _atom_site_fract_z
 _atom_site_occupancy
  Hf  Hf0  1  0.451849  0.657777  0.705905  1
  Hf  Hf1  1  0.548420  0.253647  0.205280  1
  Hf  Hf2  1  0.749911  0.849311  0.599506  1
  Hf  Hf3  1  0.249816  0.849158  0.099254  1
  Hf  Hf4  1  0.048252  0.253785  0.705525  1
  Hf  Hf5  1  0.951772  0.657435  0.205733  1
  Re  Re6  1  0.500087  0.508598  0.009101  1
  Re  Re7  1  0.999685  0.509334  0.508922  1
  Re  Re8  1  0.127329  0.253104  0.124747  1
  Re  Re9  1  0.871231  0.997475  0.124758  1
  Re  Re10  1  0.372623  0.997285  0.626152  1
  Si  Si11  1  0.251165  0.252974  0.503112  1
  Si  Si12  1  0.749938  0.253245  0.001925  1
  Si  Si13  1  0.333155  0.586566  0.253554  1
  Si  Si14  1  0.666725  0.920017  0.253416  1
  Si  Si15  1  0.166524  0.920271  0.753695  1
  Si  Si16  1  0.833247  0.586722  0.753409  1
  Tc  Tc17  1  0.628273  0.252899  0.625611  1
