# generated using pymatgen
data_I7Cl
_symmetry_space_group_name_H-M   'P 1'
_cell_length_a   6.53403367
_cell_length_b   7.25032083
_cell_length_c   15.18004506
_cell_angle_alpha   102.72012441
_cell_angle_beta   104.17248806
_cell_angle_gamma   122.67373810
_symmetry_Int_Tables_number   1
_chemical_formula_structural   I7Cl
_chemical_formula_sum   'I7 Cl1'
_cell_volume   529.39316930
_cell_formula_units_Z   1
loop_
 _symmetry_equiv_pos_site_id
 _symmetry_equiv_pos_as_xyz
  1  'x, y, z'
loop_
 _atom_site_type_symbol
 _atom_site_label
 _atom_site_symmetry_multiplicity
 _atom_site_fract_x
 _atom_site_fract_y
 _atom_site_fract_z
 _atom_site_occupancy
  I  I0  1  0.711470  0.220903  0.549233  1
  I  I1  1  0.868088  0.551840  0.449893  1
  I  I2  1  0.388821  0.347554  0.281688  1
  I  I3  1  0.232264  0.172415  0.941510  1
  I  I4  1  0.603697  0.694147  0.030569  1
  I  I5  1  0.576592  0.899803  0.648221  1
  I  I6  1  0.403140  0.050975  0.796475  1
  Cl  Cl7  1  0.940050  0.170880  0.112083  1
