# generated using pymatgen
data_HoTm5Pa2(ReB6)4
_symmetry_space_group_name_H-M   'P 1'
_cell_length_a   3.67712300
_cell_length_b   9.11692005
_cell_length_c   11.48492301
_cell_angle_alpha   90.30870440
_cell_angle_beta   90.00000000
_cell_angle_gamma   90.00000000
_symmetry_Int_Tables_number   1
_chemical_formula_structural   HoTm5Pa2(ReB6)4
_chemical_formula_sum   'Ho1 Tm5 Pa2 Re4 B24'
_cell_volume   385.01538871
_cell_formula_units_Z   1
loop_
 _symmetry_equiv_pos_site_id
 _symmetry_equiv_pos_as_xyz
  1  'x, y, z'
loop_
 _atom_site_type_symbol
 _atom_site_label
 _atom_site_symmetry_multiplicity
 _atom_site_fract_x
 _atom_site_fract_y
 _atom_site_fract_z
 _atom_site_occupancy
  Ho  Ho0  1  0.000000  0.823476  0.085550  1
  Tm  Tm1  1  0.000000  0.176536  0.914505  1
  Tm  Tm2  1  0.000000  0.944788  0.372317  1
  Tm  Tm3  1  0.000000  0.055286  0.627737  1
  Tm  Tm4  1  0.000000  0.443647  0.126178  1
  Tm  Tm5  1  0.000000  0.556157  0.873722  1
  Pa  Pa6  1  0.000000  0.321005  0.413124  1
  Pa  Pa7  1  0.000000  0.679015  0.586911  1
  Re  Re8  1  0.000000  0.635797  0.323823  1
  Re  Re9  1  0.000000  0.364051  0.676327  1
  Re  Re10  1  0.000000  0.140389  0.181314  1
  Re  Re11  1  0.000000  0.859928  0.818571  1
  B  B12  1  0.500000  0.553689  0.432751  1
  B  B13  1  0.500000  0.446283  0.567272  1
  B  B14  1  0.500000  0.053468  0.066767  1
  B  B15  1  0.500000  0.946941  0.933009  1
  B  B16  1  0.500000  0.749412  0.419238  1
  B  B17  1  0.500000  0.250594  0.580821  1
  B  B18  1  0.500000  0.248508  0.079503  1
  B  B19  1  0.500000  0.751472  0.920096  1
  B  B20  1  0.500000  0.792017  0.265080  1
  B  B21  1  0.500000  0.207864  0.735187  1
  B  B22  1  0.500000  0.292202  0.233467  1
  B  B23  1  0.500000  0.707794  0.766473  1
  B  B24  1  0.500000  0.631032  0.184739  1
  B  B25  1  0.500000  0.368681  0.815428  1
  B  B26  1  0.500000  0.131284  0.314191  1
  B  B27  1  0.500000  0.868783  0.685834  1
  B  B28  1  0.500000  0.981637  0.212042  1
  B  B29  1  0.500000  0.018773  0.788099  1
  B  B30  1  0.500000  0.482572  0.286051  1
  B  B31  1  0.500000  0.517351  0.713976  1
  B  B32  1  0.500000  0.603665  0.028928  1
  B  B33  1  0.500000  0.395883  0.970953  1
  B  B34  1  0.500000  0.107386  0.470258  1
  B  B35  1  0.500000  0.892634  0.529758  1
