# generated using pymatgen
data_La7Y3(Sn5Pd2)4
_symmetry_space_group_name_H-M   'P 1'
_cell_length_a   14.33380210
_cell_length_b   14.33380210
_cell_length_c   4.67926300
_cell_angle_alpha   90.00000000
_cell_angle_beta   90.00000000
_cell_angle_gamma   89.98631342
_symmetry_Int_Tables_number   1
_chemical_formula_structural   La7Y3(Sn5Pd2)4
_chemical_formula_sum   'La7 Y3 Sn20 Pd8'
_cell_volume   961.39144118
_cell_formula_units_Z   1
loop_
 _symmetry_equiv_pos_site_id
 _symmetry_equiv_pos_as_xyz
  1  'x, y, z'
loop_
 _atom_site_type_symbol
 _atom_site_label
 _atom_site_symmetry_multiplicity
 _atom_site_fract_x
 _atom_site_fract_y
 _atom_site_fract_z
 _atom_site_occupancy
  La  La0  1  0.499862  0.499904  0.000000  1
  La  La1  1  0.000096  0.000138  0.000000  1
  La  La2  1  0.821214  0.678786  0.500000  1
  La  La3  1  0.890274  0.389398  0.500000  1
  La  La4  1  0.110602  0.609726  0.500000  1
  La  La5  1  0.389748  0.110252  0.500000  1
  La  La6  1  0.609641  0.890359  0.500000  1
  Y  Y7  1  0.677748  0.177810  0.500000  1
  Y  Y8  1  0.322190  0.822252  0.500000  1
  Y  Y9  1  0.177776  0.322224  0.500000  1
  Sn  Sn10  1  0.569770  0.069792  0.000000  1
  Sn  Sn11  1  0.430208  0.930230  0.000000  1
  Sn  Sn12  1  0.070312  0.429688  0.000000  1
  Sn  Sn13  1  0.931854  0.568146  0.000000  1
  Sn  Sn14  1  0.653769  0.699439  0.000000  1
  Sn  Sn15  1  0.344205  0.300894  0.000000  1
  Sn  Sn16  1  0.155955  0.801149  0.000000  1
  Sn  Sn17  1  0.844228  0.199125  0.000000  1
  Sn  Sn18  1  0.300875  0.655772  0.000000  1
  Sn  Sn19  1  0.698851  0.344045  0.000000  1
  Sn  Sn20  1  0.199106  0.155795  0.000000  1
  Sn  Sn21  1  0.800561  0.846231  0.000000  1
  Sn  Sn22  1  0.661945  0.501437  0.500000  1
  Sn  Sn23  1  0.337213  0.497101  0.500000  1
  Sn  Sn24  1  0.162563  0.997077  0.500000  1
  Sn  Sn25  1  0.837061  0.002198  0.500000  1
  Sn  Sn26  1  0.497802  0.662939  0.500000  1
  Sn  Sn27  1  0.502923  0.337437  0.500000  1
  Sn  Sn28  1  0.002899  0.162787  0.500000  1
  Sn  Sn29  1  0.998563  0.838055  0.500000  1
  Pd  Pd30  1  0.745516  0.528334  0.000000  1
  Pd  Pd31  1  0.253924  0.470279  0.000000  1
  Pd  Pd32  1  0.246190  0.970336  0.000000  1
  Pd  Pd33  1  0.753742  0.030239  0.000000  1
  Pd  Pd34  1  0.469761  0.746258  0.000000  1
  Pd  Pd35  1  0.529664  0.253810  0.000000  1
  Pd  Pd36  1  0.029721  0.246076  0.000000  1
  Pd  Pd37  1  0.971666  0.754484  0.000000  1
