# generated using pymatgen
data_Y3In3CuHgAu
_symmetry_space_group_name_H-M   'P 1'
_cell_length_a   7.78940000
_cell_length_b   7.78940026
_cell_length_c   3.98829800
_cell_angle_alpha   90.00000000
_cell_angle_beta   90.00000000
_cell_angle_gamma   120.00000740
_symmetry_Int_Tables_number   1
_chemical_formula_structural   Y3In3CuHgAu
_chemical_formula_sum   'Y3 In3 Cu1 Hg1 Au1'
_cell_volume   209.56860709
_cell_formula_units_Z   1
loop_
 _symmetry_equiv_pos_site_id
 _symmetry_equiv_pos_as_xyz
  1  'x, y, z'
loop_
 _atom_site_type_symbol
 _atom_site_label
 _atom_site_symmetry_multiplicity
 _atom_site_fract_x
 _atom_site_fract_y
 _atom_site_fract_z
 _atom_site_occupancy
  Y  Y0  1  0.010236  0.605244  0.500000  1
  Y  Y1  1  0.595008  0.989764  0.500000  1
  Y  Y2  1  0.394756  0.404992  0.500000  1
  In  In3  1  0.001856  0.246935  0.000000  1
  In  In4  1  0.245079  0.998144  0.000000  1
  In  In5  1  0.753065  0.754921  0.000000  1
  Cu  Cu6  1  0.000000  0.000000  0.500000  1
  Hg  Hg7  1  0.666667  0.333333  0.000000  1
  Au  Au8  1  0.333333  0.666667  0.000000  1
