# generated using pymatgen
data_HoLu7Ta9Ti3Si16
_symmetry_space_group_name_H-M   'P 1'
_cell_length_a   6.99030833
_cell_length_b   6.98780555
_cell_length_c   12.83765956
_cell_angle_alpha   89.99096566
_cell_angle_beta   90.05696807
_cell_angle_gamma   89.95528213
_symmetry_Int_Tables_number   1
_chemical_formula_structural   HoLu7Ta9Ti3Si16
_chemical_formula_sum   'Ho1 Lu7 Ta9 Ti3 Si16'
_cell_volume   627.07956057
_cell_formula_units_Z   1
loop_
 _symmetry_equiv_pos_site_id
 _symmetry_equiv_pos_as_xyz
  1  'x, y, z'
loop_
 _atom_site_type_symbol
 _atom_site_label
 _atom_site_symmetry_multiplicity
 _atom_site_fract_x
 _atom_site_fract_y
 _atom_site_fract_z
 _atom_site_occupancy
  Ho  Ho0  1  0.996966  0.660330  0.032180  1
  Lu  Lu1  1  0.341350  0.001694  0.467637  1
  Lu  Lu2  1  0.499263  0.841270  0.717673  1
  Lu  Lu3  1  0.500239  0.158429  0.218268  1
  Lu  Lu4  1  0.842240  0.499895  0.282684  1
  Lu  Lu5  1  0.158519  0.500074  0.781717  1
  Lu  Lu6  1  0.658308  0.998265  0.967856  1
  Lu  Lu7  1  0.001461  0.341311  0.531879  1
  Ta  Ta8  1  0.329898  0.328874  0.999825  1
  Ta  Ta9  1  0.173891  0.826758  0.250515  1
  Ta  Ta10  1  0.826759  0.173297  0.749653  1
  Ta  Ta11  1  0.670323  0.669964  0.499835  1
  Ta  Ta12  1  0.152174  0.006860  0.872817  1
  Ta  Ta13  1  0.493185  0.651666  0.123740  1
  Ta  Ta14  1  0.506411  0.348900  0.623723  1
  Ta  Ta15  1  0.651028  0.491727  0.875701  1
  Ta  Ta16  1  0.349306  0.507284  0.376875  1
  Ti  Ti17  1  0.848416  0.993357  0.373416  1
  Ti  Ti18  1  0.007032  0.152174  0.126918  1
  Ti  Ti19  1  0.991723  0.846740  0.626659  1
  Si  Si20  1  0.202674  0.133339  0.679818  1
  Si  Si21  1  0.365450  0.705632  0.929983  1
  Si  Si22  1  0.637248  0.293020  0.430301  1
  Si  Si23  1  0.705973  0.362156  0.070219  1
  Si  Si24  1  0.292958  0.637516  0.569574  1
  Si  Si25  1  0.797253  0.868064  0.182945  1
  Si  Si26  1  0.133406  0.202259  0.318737  1
  Si  Si27  1  0.863602  0.796831  0.818123  1
  Si  Si28  1  0.294744  0.955982  0.064669  1
  Si  Si29  1  0.547535  0.798149  0.314569  1
  Si  Si30  1  0.453817  0.203138  0.813205  1
  Si  Si31  1  0.798174  0.546985  0.685075  1
  Si  Si32  1  0.203159  0.451900  0.186480  1
  Si  Si33  1  0.706715  0.044599  0.563043  1
  Si  Si34  1  0.954534  0.294495  0.937047  1
  Si  Si35  1  0.044265  0.707070  0.436638  1
