# generated using pymatgen
data_Sc3Bi(BO3)4
_symmetry_space_group_name_H-M   'P 1'
_cell_length_a   6.29843003
_cell_length_b   6.29843014
_cell_length_c   6.29842978
_cell_angle_alpha   103.34718074
_cell_angle_beta   103.34718723
_cell_angle_gamma   103.34719233
_symmetry_Int_Tables_number   1
_chemical_formula_structural   Sc3Bi(BO3)4
_chemical_formula_sum   'Sc3 Bi1 B4 O12'
_cell_volume   225.63876931
_cell_formula_units_Z   1
loop_
 _symmetry_equiv_pos_site_id
 _symmetry_equiv_pos_as_xyz
  1  'x, y, z'
loop_
 _atom_site_type_symbol
 _atom_site_label
 _atom_site_symmetry_multiplicity
 _atom_site_fract_x
 _atom_site_fract_y
 _atom_site_fract_z
 _atom_site_occupancy
  Sc  Sc0  1  0.048900  0.500000  0.951100  1
  Sc  Sc1  1  0.500000  0.951100  0.048901  1
  Sc  Sc2  1  0.951101  0.048899  0.500000  1
  Bi  Bi3  1  0.500000  0.500000  0.500000  1
  B  B4  1  0.451367  0.000001  0.548633  1
  B  B5  1  0.000000  0.548634  0.451368  1
  B  B6  1  0.548634  0.451367  0.000001  1
  B  B7  1  0.000000  0.000000  0.000000  1
  O  O8  1  0.870111  0.698785  0.466681  1
  O  O9  1  0.466680  0.870112  0.698785  1
  O  O10  1  0.698786  0.466680  0.870111  1
  O  O11  1  0.301214  0.129888  0.533318  1
  O  O12  1  0.129887  0.533319  0.301214  1
  O  O13  1  0.533319  0.301213  0.129887  1
  O  O14  1  0.859613  0.000000  0.140391  1
  O  O15  1  0.000001  0.140390  0.859611  1
  O  O16  1  0.140389  0.859612  0.000001  1
  O  O17  1  0.591044  0.000000  0.408959  1
  O  O18  1  0.000001  0.408958  0.591043  1
  O  O19  1  0.408959  0.591042  0.000001  1
