# generated using pymatgen
data_TbSm3ScPt3O14
_symmetry_space_group_name_H-M   'P 1'
_cell_length_a   7.34628691
_cell_length_b   7.34628671
_cell_length_c   7.41352683
_cell_angle_alpha   60.29957389
_cell_angle_beta   60.29958104
_cell_angle_gamma   60.00000225
_symmetry_Int_Tables_number   1
_chemical_formula_structural   TbSm3ScPt3O14
_chemical_formula_sum   'Tb1 Sm3 Sc1 Pt3 O14'
_cell_volume   284.18254333
_cell_formula_units_Z   1
loop_
 _symmetry_equiv_pos_site_id
 _symmetry_equiv_pos_as_xyz
  1  'x, y, z'
loop_
 _atom_site_type_symbol
 _atom_site_label
 _atom_site_symmetry_multiplicity
 _atom_site_fract_x
 _atom_site_fract_y
 _atom_site_fract_z
 _atom_site_occupancy
  Tb  Tb0  1  0.625000  0.625000  0.125000  1
  Sm  Sm1  1  0.625000  0.625000  0.625000  1
  Sm  Sm2  1  0.625000  0.125000  0.625000  1
  Sm  Sm3  1  0.125000  0.625000  0.625000  1
  Sc  Sc4  1  0.125000  0.125000  0.625000  1
  Pt  Pt5  1  0.125000  0.125000  0.125000  1
  Pt  Pt6  1  0.625000  0.125000  0.125000  1
  Pt  Pt7  1  0.125000  0.625000  0.125000  1
  O  O8  1  0.034477  0.474034  0.457013  1
  O  O9  1  0.791099  0.791099  0.198798  1
  O  O10  1  0.791099  0.219003  0.198798  1
  O  O11  1  0.474034  0.034477  0.457013  1
  O  O12  1  0.030997  0.458901  0.051202  1
  O  O13  1  0.745963  0.745963  0.762111  1
  O  O14  1  0.034477  0.034477  0.457013  1
  O  O15  1  0.219003  0.791099  0.198798  1
  O  O16  1  0.215523  0.215523  0.792987  1
  O  O17  1  0.504037  0.504037  0.487889  1
  O  O18  1  0.775966  0.215523  0.792987  1
  O  O19  1  0.458901  0.030997  0.051202  1
  O  O20  1  0.458901  0.458901  0.051202  1
  O  O21  1  0.215523  0.775966  0.792987  1
