# generated using pymatgen
data_Hf8Co3Cu5Hg4
_symmetry_space_group_name_H-M   'P 1'
_cell_length_a   7.20001520
_cell_length_b   7.20001421
_cell_length_c   6.67197404
_cell_angle_alpha   90.02062416
_cell_angle_beta   90.02062836
_cell_angle_gamma   91.29491851
_symmetry_Int_Tables_number   1
_chemical_formula_structural   Hf8Co3Cu5Hg4
_chemical_formula_sum   'Hf8 Co3 Cu5 Hg4'
_cell_volume   345.78817058
_cell_formula_units_Z   1
loop_
 _symmetry_equiv_pos_site_id
 _symmetry_equiv_pos_as_xyz
  1  'x, y, z'
loop_
 _atom_site_type_symbol
 _atom_site_label
 _atom_site_symmetry_multiplicity
 _atom_site_fract_x
 _atom_site_fract_y
 _atom_site_fract_z
 _atom_site_occupancy
  Hf  Hf0  1  0.157502  0.157502  0.008333  1
  Hf  Hf1  1  0.829158  0.829158  0.996084  1
  Hf  Hf2  1  0.651164  0.353570  0.493799  1
  Hf  Hf3  1  0.353570  0.651164  0.493799  1
  Hf  Hf4  1  0.675645  0.339746  0.004965  1
  Hf  Hf5  1  0.339746  0.675645  0.004965  1
  Hf  Hf6  1  0.805342  0.805342  0.502651  1
  Hf  Hf7  1  0.192008  0.192008  0.490619  1
  Co  Co8  1  0.371801  0.371801  0.225528  1
  Co  Co9  1  0.621248  0.621248  0.768101  1
  Co  Co10  1  0.629231  0.629231  0.228602  1
  Cu  Cu11  1  0.875983  0.124580  0.716206  1
  Cu  Cu12  1  0.874207  0.121245  0.284004  1
  Cu  Cu13  1  0.371799  0.371799  0.787352  1
  Cu  Cu14  1  0.121245  0.874207  0.284004  1
  Cu  Cu15  1  0.124580  0.875983  0.716206  1
  Hg  Hg16  1  0.500917  0.003584  0.250440  1
  Hg  Hg17  1  0.499960  0.001311  0.746949  1
  Hg  Hg18  1  0.003584  0.500917  0.250440  1
  Hg  Hg19  1  0.001311  0.499960  0.746949  1
