# generated using pymatgen
data_Tb2Y2Ga18Ru5Pt
_symmetry_space_group_name_H-M   'P 1'
_cell_length_a   7.53895933
_cell_length_b   7.53892179
_cell_length_c   9.68289104
_cell_angle_alpha   90.12322460
_cell_angle_beta   90.11360378
_cell_angle_gamma   119.64926876
_symmetry_Int_Tables_number   1
_chemical_formula_structural   Tb2Y2Ga18Ru5Pt
_chemical_formula_sum   'Tb2 Y2 Ga18 Ru5 Pt1'
_cell_volume   478.27392284
_cell_formula_units_Z   1
loop_
 _symmetry_equiv_pos_site_id
 _symmetry_equiv_pos_as_xyz
  1  'x, y, z'
loop_
 _atom_site_type_symbol
 _atom_site_label
 _atom_site_symmetry_multiplicity
 _atom_site_fract_x
 _atom_site_fract_y
 _atom_site_fract_z
 _atom_site_occupancy
  Tb  Tb0  1  0.671992  0.997792  0.251001  1
  Tb  Tb1  1  0.328008  0.002208  0.748999  1
  Y  Y2  1  0.997926  0.672063  0.250971  1
  Y  Y3  1  0.002074  0.327937  0.749029  1
  Ga  Ga4  1  0.133893  0.134074  0.253750  1
  Ga  Ga5  1  0.866107  0.865926  0.746250  1
  Ga  Ga6  1  0.004871  0.341030  0.078294  1
  Ga  Ga7  1  0.995129  0.658970  0.921706  1
  Ga  Ga8  1  0.995558  0.663979  0.574881  1
  Ga  Ga9  1  0.335856  0.004469  0.425115  1
  Ga  Ga10  1  0.004442  0.336021  0.425119  1
  Ga  Ga11  1  0.664144  0.995531  0.574885  1
  Ga  Ga12  1  0.659020  0.995010  0.921790  1
  Ga  Ga13  1  0.340980  0.004990  0.078210  1
  Ga  Ga14  1  0.336868  0.336965  0.560251  1
  Ga  Ga15  1  0.663132  0.663035  0.439749  1
  Ga  Ga16  1  0.657590  0.657556  0.063697  1
  Ga  Ga17  1  0.342410  0.342444  0.936303  1
  Ga  Ga18  1  0.336875  0.551552  0.250210  1
  Ga  Ga19  1  0.663125  0.448448  0.749790  1
  Ga  Ga20  1  0.551499  0.336582  0.250193  1
  Ga  Ga21  1  0.448501  0.663418  0.749807  1
  Ru  Ru22  1  0.674225  0.325999  0.999971  1
  Ru  Ru23  1  0.325775  0.674001  0.000029  1
  Ru  Ru24  1  0.326152  0.673739  0.500000  1
  Ru  Ru25  1  0.673848  0.326261  0.500000  1
  Ru  Ru26  1  0.000000  0.000000  0.500000  1
  Pt  Pt27  1  0.000000  0.000000  0.000000  1
