# generated using pymatgen
data_Y4FeRuC8
_symmetry_space_group_name_H-M   'P 1'
_cell_length_a   5.17443852
_cell_length_b   6.63992109
_cell_length_c   6.63992188
_cell_angle_alpha   69.98056320
_cell_angle_beta   67.06752064
_cell_angle_gamma   67.06752138
_symmetry_Int_Tables_number   1
_chemical_formula_structural   Y4FeRuC8
_chemical_formula_sum   'Y4 Fe1 Ru1 C8'
_cell_volume   188.55295087
_cell_formula_units_Z   1
loop_
 _symmetry_equiv_pos_site_id
 _symmetry_equiv_pos_as_xyz
  1  'x, y, z'
loop_
 _atom_site_type_symbol
 _atom_site_label
 _atom_site_symmetry_multiplicity
 _atom_site_fract_x
 _atom_site_fract_y
 _atom_site_fract_z
 _atom_site_occupancy
  Y  Y0  1  0.148770  0.201176  0.504361  1
  Y  Y1  1  0.854306  0.798824  0.495639  1
  Y  Y2  1  0.645694  0.504361  0.201176  1
  Y  Y3  1  0.351230  0.495639  0.798824  1
  Fe  Fe4  1  0.250000  0.000000  0.000000  1
  Ru  Ru5  1  0.750000  0.000000  0.000000  1
  C  C6  1  0.368711  0.790228  0.465956  1
  C  C7  1  0.624895  0.209772  0.534044  1
  C  C8  1  0.875105  0.465956  0.790228  1
  C  C9  1  0.131289  0.534044  0.209772  1
  C  C10  1  0.401835  0.906882  0.247603  1
  C  C11  1  0.556320  0.093118  0.752397  1
  C  C12  1  0.943680  0.247603  0.906882  1
  C  C13  1  0.098165  0.752397  0.093118  1
