# generated using pymatgen
data_Cs2BeSiSe4
_symmetry_space_group_name_H-M   'P 1'
_cell_length_a   14.86544344
_cell_length_b   13.32810524
_cell_length_c   7.77837367
_cell_angle_alpha   85.25263764
_cell_angle_beta   63.31734601
_cell_angle_gamma   31.43002400
_symmetry_Int_Tables_number   1
_chemical_formula_structural   Cs2BeSiSe4
_chemical_formula_sum   'Cs4 Be2 Si2 Se8'
_cell_volume   548.87502165
_cell_formula_units_Z   2
loop_
 _symmetry_equiv_pos_site_id
 _symmetry_equiv_pos_as_xyz
  1  'x, y, z'
loop_
 _atom_site_type_symbol
 _atom_site_label
 _atom_site_symmetry_multiplicity
 _atom_site_fract_x
 _atom_site_fract_y
 _atom_site_fract_z
 _atom_site_occupancy
  Cs  Cs0  1  0.678470  0.678470  0.321530  1
  Cs  Cs1  1  0.321530  0.321530  0.678470  1
  Cs  Cs2  1  0.571530  0.571530  0.928470  1
  Cs  Cs3  1  0.928470  0.928470  0.571530  1
  Be  Be4  1  0.500000  0.500000  0.500000  1
  Be  Be5  1  0.750000  0.750000  0.750000  1
  Si  Si6  1  0.000000  0.000000  0.000000  1
  Si  Si7  1  0.250000  0.250000  0.250000  1
  Se  Se8  1  0.367502  0.036699  0.960690  1
  Se  Se9  1  0.635108  0.960690  0.036699  1
  Se  Se10  1  0.960690  0.635108  0.367502  1
  Se  Se11  1  0.036699  0.367502  0.635108  1
  Se  Se12  1  0.882498  0.213301  0.289310  1
  Se  Se13  1  0.614892  0.289310  0.213301  1
  Se  Se14  1  0.289310  0.614892  0.882498  1
  Se  Se15  1  0.213301  0.882498  0.614892  1
