# generated using pymatgen
data_YTm7(SiPd)8
_symmetry_space_group_name_H-M   'P 1'
_cell_length_a   4.32733700
_cell_length_b   7.47804700
_cell_length_c   13.89618700
_cell_angle_alpha   90.00000000
_cell_angle_beta   90.00000000
_cell_angle_gamma   90.00000000
_symmetry_Int_Tables_number   1
_chemical_formula_structural   YTm7(SiPd)8
_chemical_formula_sum   'Y1 Tm7 Si8 Pd8'
_cell_volume   449.68102085
_cell_formula_units_Z   1
loop_
 _symmetry_equiv_pos_site_id
 _symmetry_equiv_pos_as_xyz
  1  'x, y, z'
loop_
 _atom_site_type_symbol
 _atom_site_label
 _atom_site_symmetry_multiplicity
 _atom_site_fract_x
 _atom_site_fract_y
 _atom_site_fract_z
 _atom_site_occupancy
  Y  Y0  1  0.000000  0.298764  0.000000  1
  Tm  Tm1  1  0.500000  0.789136  0.748784  1
  Tm  Tm2  1  0.000000  0.210554  0.750354  1
  Tm  Tm3  1  0.500000  0.789136  0.251216  1
  Tm  Tm4  1  0.000000  0.210554  0.249646  1
  Tm  Tm5  1  0.500000  0.710499  0.000000  1
  Tm  Tm6  1  0.000000  0.290540  0.500000  1
  Tm  Tm7  1  0.500000  0.701558  0.500000  1
  Si  Si8  1  0.500000  0.408533  0.643513  1
  Si  Si9  1  0.000000  0.592332  0.855455  1
  Si  Si10  1  0.500000  0.408533  0.356487  1
  Si  Si11  1  0.000000  0.592332  0.144545  1
  Si  Si12  1  0.500000  0.089771  0.094528  1
  Si  Si13  1  0.000000  0.908908  0.406351  1
  Si  Si14  1  0.500000  0.089771  0.905472  1
  Si  Si15  1  0.000000  0.908908  0.593649  1
  Pd  Pd16  1  0.500000  0.076241  0.608963  1
  Pd  Pd17  1  0.000000  0.922883  0.890708  1
  Pd  Pd18  1  0.500000  0.076241  0.391037  1
  Pd  Pd19  1  0.000000  0.922883  0.109292  1
  Pd  Pd20  1  0.500000  0.421204  0.157317  1
  Pd  Pd21  1  0.000000  0.579759  0.344319  1
  Pd  Pd22  1  0.500000  0.421204  0.842683  1
  Pd  Pd23  1  0.000000  0.579759  0.655681  1
