# generated using pymatgen
data_RbLu(WO4)2
_symmetry_space_group_name_H-M   'P 1'
_cell_length_a   7.62033924
_cell_length_b   7.62033982
_cell_length_c   7.46471855
_cell_angle_alpha   61.97147507
_cell_angle_beta   61.97147367
_cell_angle_gamma   87.54199000
_symmetry_Int_Tables_number   1
_chemical_formula_structural   RbLu(WO4)2
_chemical_formula_sum   'Rb2 Lu2 W4 O16'
_cell_volume   328.83099940
_cell_formula_units_Z   2
loop_
 _symmetry_equiv_pos_site_id
 _symmetry_equiv_pos_as_xyz
  1  'x, y, z'
loop_
 _atom_site_type_symbol
 _atom_site_label
 _atom_site_symmetry_multiplicity
 _atom_site_fract_x
 _atom_site_fract_y
 _atom_site_fract_z
 _atom_site_occupancy
  Rb  Rb0  1  0.204289  0.795711  0.750000  1
  Rb  Rb1  1  0.795711  0.204289  0.250000  1
  Lu  Lu2  1  0.777042  0.222958  0.750000  1
  Lu  Lu3  1  0.222958  0.777042  0.250000  1
  W  W4  1  0.699842  0.691881  0.786832  1
  W  W5  1  0.300158  0.308119  0.213168  1
  W  W6  1  0.308119  0.300158  0.713168  1
  W  W7  1  0.691881  0.699842  0.286832  1
  O  O8  1  0.622942  0.753440  0.559433  1
  O  O9  1  0.377058  0.246560  0.440567  1
  O  O10  1  0.246560  0.377058  0.940567  1
  O  O11  1  0.753440  0.622942  0.059433  1
  O  O12  1  0.350139  0.050100  0.885838  1
  O  O13  1  0.649861  0.949900  0.114162  1
  O  O14  1  0.949900  0.649861  0.614162  1
  O  O15  1  0.050100  0.350139  0.385838  1
  O  O16  1  0.598492  0.374823  0.956891  1
  O  O17  1  0.401508  0.625177  0.043109  1
  O  O18  1  0.625177  0.401508  0.543109  1
  O  O19  1  0.374823  0.598492  0.456891  1
  O  O20  1  0.762156  0.959785  0.702224  1
  O  O21  1  0.237844  0.040215  0.297776  1
  O  O22  1  0.040215  0.237844  0.797776  1
  O  O23  1  0.959785  0.762156  0.202224  1
