# generated using pymatgen
data_Sc8V8Re4Si15P
_symmetry_space_group_name_H-M   'P 1'
_cell_length_a   6.61753806
_cell_length_b   6.61352019
_cell_length_c   12.24515256
_cell_angle_alpha   90.00367657
_cell_angle_beta   89.97024559
_cell_angle_gamma   90.00937007
_symmetry_Int_Tables_number   1
_chemical_formula_structural   Sc8V8Re4Si15P
_chemical_formula_sum   'Sc8 V8 Re4 Si15 P1'
_cell_volume   535.91173351
_cell_formula_units_Z   1
loop_
 _symmetry_equiv_pos_site_id
 _symmetry_equiv_pos_as_xyz
  1  'x, y, z'
loop_
 _atom_site_type_symbol
 _atom_site_label
 _atom_site_symmetry_multiplicity
 _atom_site_fract_x
 _atom_site_fract_y
 _atom_site_fract_z
 _atom_site_occupancy
  Sc  Sc0  1  0.002958  0.665579  0.029380  1
  Sc  Sc1  1  0.836040  0.500737  0.279319  1
  Sc  Sc2  1  0.162922  0.498377  0.779043  1
  Sc  Sc3  1  0.501274  0.836237  0.721065  1
  Sc  Sc4  1  0.496329  0.161180  0.218988  1
  Sc  Sc5  1  0.999026  0.336332  0.529302  1
  Sc  Sc6  1  0.660163  0.001194  0.971487  1
  Sc  Sc7  1  0.336217  0.999209  0.470773  1
  V  V8  1  0.003154  0.157639  0.124607  1
  V  V9  1  0.340184  0.499515  0.376026  1
  V  V10  1  0.660878  0.500717  0.876165  1
  V  V11  1  0.499235  0.340127  0.624115  1
  V  V12  1  0.498084  0.666287  0.122973  1
  V  V13  1  0.000553  0.840131  0.626417  1
  V  V14  1  0.162701  0.997128  0.877898  1
  V  V15  1  0.840568  0.000030  0.373976  1
  Re  Re16  1  0.332288  0.331195  0.000934  1
  Re  Re17  1  0.167859  0.834211  0.248456  1
  Re  Re18  1  0.832797  0.167122  0.749957  1
  Re  Re19  1  0.667502  0.667234  0.499795  1
  Si  Si20  1  0.539344  0.793035  0.315142  1
  Si  Si21  1  0.461169  0.207762  0.814946  1
  Si  Si22  1  0.792457  0.539222  0.685057  1
  Si  Si23  1  0.207894  0.460834  0.185304  1
  Si  Si24  1  0.707003  0.039426  0.565264  1
  Si  Si25  1  0.959576  0.292494  0.934593  1
  Si  Si26  1  0.039829  0.707309  0.434464  1
  Si  Si27  1  0.704523  0.374895  0.070414  1
  Si  Si28  1  0.126670  0.205448  0.320079  1
  Si  Si29  1  0.873293  0.796832  0.820581  1
  Si  Si30  1  0.204213  0.126930  0.681092  1
  Si  Si31  1  0.795254  0.873036  0.180484  1
  Si  Si32  1  0.295265  0.627435  0.569994  1
  Si  Si33  1  0.374090  0.700552  0.928586  1
  Si  Si34  1  0.626935  0.294624  0.429638  1
  P  P35  1  0.291753  0.959987  0.063686  1
