# generated using pymatgen
data_Hf6Co17P12W
_symmetry_space_group_name_H-M   'P 1'
_cell_length_a   3.62099000
_cell_length_b   10.31057700
_cell_length_c   11.94385400
_cell_angle_alpha   90.00000000
_cell_angle_beta   90.00000000
_cell_angle_gamma   90.00000000
_symmetry_Int_Tables_number   1
_chemical_formula_structural   Hf6Co17P12W
_chemical_formula_sum   'Hf6 Co17 P12 W1'
_cell_volume   445.91777191
_cell_formula_units_Z   1
loop_
 _symmetry_equiv_pos_site_id
 _symmetry_equiv_pos_as_xyz
  1  'x, y, z'
loop_
 _atom_site_type_symbol
 _atom_site_label
 _atom_site_symmetry_multiplicity
 _atom_site_fract_x
 _atom_site_fract_y
 _atom_site_fract_z
 _atom_site_occupancy
  Hf  Hf0  1  0.750000  0.250000  0.468495  1
  Hf  Hf1  1  0.250000  0.750000  0.527482  1
  Hf  Hf2  1  0.250000  0.927546  0.790969  1
  Hf  Hf3  1  0.250000  0.572454  0.790969  1
  Hf  Hf4  1  0.750000  0.071960  0.206925  1
  Hf  Hf5  1  0.750000  0.428040  0.206925  1
  Co  Co6  1  0.750000  0.750000  0.166539  1
  Co  Co7  1  0.250000  0.250000  0.297474  1
  Co  Co8  1  0.750000  0.750000  0.704024  1
  Co  Co9  1  0.750000  0.250000  0.011575  1
  Co  Co10  1  0.250000  0.750000  0.986619  1
  Co  Co11  1  0.250000  0.418570  0.010314  1
  Co  Co12  1  0.250000  0.081430  0.010314  1
  Co  Co13  1  0.750000  0.583852  0.994259  1
  Co  Co14  1  0.750000  0.916148  0.994259  1
  Co  Co15  1  0.250000  0.451117  0.565799  1
  Co  Co16  1  0.250000  0.048883  0.565799  1
  Co  Co17  1  0.750000  0.550399  0.433105  1
  Co  Co18  1  0.750000  0.949601  0.433105  1
  Co  Co19  1  0.250000  0.874986  0.293497  1
  Co  Co20  1  0.250000  0.625014  0.293497  1
  Co  Co21  1  0.750000  0.124036  0.705739  1
  Co  Co22  1  0.750000  0.375964  0.705739  1
  P  P23  1  0.250000  0.250000  0.122085  1
  P  P24  1  0.750000  0.750000  0.879684  1
  P  P25  1  0.250000  0.250000  0.640020  1
  P  P26  1  0.750000  0.750000  0.353597  1
  P  P27  1  0.250000  0.433123  0.381630  1
  P  P28  1  0.250000  0.066877  0.381630  1
  P  P29  1  0.750000  0.568587  0.616929  1
  P  P30  1  0.750000  0.931413  0.616929  1
  P  P31  1  0.250000  0.903102  0.113159  1
  P  P32  1  0.250000  0.596898  0.113159  1
  P  P33  1  0.750000  0.087940  0.889852  1
  P  P34  1  0.750000  0.412060  0.889852  1
  W  W35  1  0.250000  0.250000  0.838053  1
