# generated using pymatgen
data_La2Y18Si13Pt3
_symmetry_space_group_name_H-M   'P 1'
_cell_length_a   7.38718643
_cell_length_b   7.90506570
_cell_length_c   14.70086808
_cell_angle_alpha   89.74364097
_cell_angle_beta   89.98752235
_cell_angle_gamma   89.92891338
_symmetry_Int_Tables_number   1
_chemical_formula_structural   La2Y18Si13Pt3
_chemical_formula_sum   'La2 Y18 Si13 Pt3'
_cell_volume   858.46547169
_cell_formula_units_Z   1
loop_
 _symmetry_equiv_pos_site_id
 _symmetry_equiv_pos_as_xyz
  1  'x, y, z'
loop_
 _atom_site_type_symbol
 _atom_site_label
 _atom_site_symmetry_multiplicity
 _atom_site_fract_x
 _atom_site_fract_y
 _atom_site_fract_z
 _atom_site_occupancy
  La  La0  1  0.517081  0.570585  0.338621  1
  La  La1  1  0.020152  0.429384  0.660891  1
  Y  Y2  1  0.810762  0.579727  0.877044  1
  Y  Y3  1  0.309200  0.421229  0.122874  1
  Y  Y4  1  0.185763  0.928136  0.374110  1
  Y  Y5  1  0.682634  0.070698  0.626039  1
  Y  Y6  1  0.186926  0.925940  0.626886  1
  Y  Y7  1  0.680674  0.069731  0.372194  1
  Y  Y8  1  0.814921  0.575911  0.123961  1
  Y  Y9  1  0.314231  0.425099  0.876071  1
  Y  Y10  1  0.657536  0.236434  0.999576  1
  Y  Y11  1  0.160645  0.766537  0.000290  1
  Y  Y12  1  0.354667  0.269130  0.499517  1
  Y  Y13  1  0.839767  0.736528  0.500526  1
  Y  Y14  1  0.480027  0.934153  0.844726  1
  Y  Y15  1  0.977774  0.064554  0.152978  1
  Y  Y16  1  0.478122  0.935481  0.153601  1
  Y  Y17  1  0.975631  0.063615  0.847643  1
  Y  Y18  1  0.522336  0.566170  0.657739  1
  Y  Y19  1  0.023978  0.434972  0.344506  1
  Si  Si20  1  0.979377  0.147031  0.498970  1
  Si  Si21  1  0.651722  0.277388  0.789686  1
  Si  Si22  1  0.151332  0.724204  0.210108  1
  Si  Si23  1  0.350297  0.218843  0.287973  1
  Si  Si24  1  0.849359  0.781993  0.711912  1
  Si  Si25  1  0.358955  0.221744  0.710678  1
  Si  Si26  1  0.859103  0.779703  0.289262  1
  Si  Si27  1  0.649362  0.272945  0.208268  1
  Si  Si28  1  0.148486  0.729113  0.792158  1
  Si  Si29  1  0.764604  0.881367  0.000711  1
  Si  Si30  1  0.266642  0.120915  0.999276  1
  Si  Si31  1  0.227539  0.620825  0.501421  1
  Si  Si32  1  0.739665  0.370881  0.497595  1
  Pt  Pt33  1  0.517736  0.654024  0.001223  1
  Pt  Pt34  1  0.015205  0.345118  0.999047  1
  Pt  Pt35  1  0.477791  0.849893  0.501922  1
