# generated using pymatgen
data_LaDyY2(Zn5Sn)2
_symmetry_space_group_name_H-M   'P 1'
_cell_length_a   8.44677737
_cell_length_b   8.44677769
_cell_length_c   9.03587427
_cell_angle_alpha   90.92650214
_cell_angle_beta   89.07349618
_cell_angle_gamma   149.66564958
_symmetry_Int_Tables_number   1
_chemical_formula_structural   LaDyY2(Zn5Sn)2
_chemical_formula_sum   'La1 Dy1 Y2 Zn10 Sn2'
_cell_volume   325.55288653
_cell_formula_units_Z   1
loop_
 _symmetry_equiv_pos_site_id
 _symmetry_equiv_pos_as_xyz
  1  'x, y, z'
loop_
 _atom_site_type_symbol
 _atom_site_label
 _atom_site_symmetry_multiplicity
 _atom_site_fract_x
 _atom_site_fract_y
 _atom_site_fract_z
 _atom_site_occupancy
  La  La0  1  0.000010  0.999990  0.000014  1
  Dy  Dy1  1  0.204003  0.795997  0.252773  1
  Y  Y2  1  0.796044  0.203956  0.747217  1
  Y  Y3  1  0.000007  0.999993  0.499989  1
  Zn  Zn4  1  0.814798  0.185202  0.387233  1
  Zn  Zn5  1  0.185170  0.814830  0.612699  1
  Zn  Zn6  1  0.810634  0.189366  0.106497  1
  Zn  Zn7  1  0.189331  0.810669  0.893572  1
  Zn  Zn8  1  0.658298  0.341702  0.485344  1
  Zn  Zn9  1  0.341705  0.658295  0.514579  1
  Zn  Zn10  1  0.657183  0.342817  0.019368  1
  Zn  Zn11  1  0.342818  0.657182  0.980703  1
  Zn  Zn12  1  0.393690  0.606310  0.247630  1
  Zn  Zn13  1  0.606286  0.393714  0.752379  1
  Sn  Sn14  1  0.556203  0.443797  0.257542  1
  Sn  Sn15  1  0.443818  0.556182  0.742460  1
