# generated using pymatgen
data_Lu3ScGa5Tc3
_symmetry_space_group_name_H-M   'P 1'
_cell_length_a   5.40518109
_cell_length_b   5.41212798
_cell_length_c   8.60512859
_cell_angle_alpha   89.99999872
_cell_angle_beta   90.03652612
_cell_angle_gamma   120.04251729
_symmetry_Int_Tables_number   1
_chemical_formula_structural   Lu3ScGa5Tc3
_chemical_formula_sum   'Lu3 Sc1 Ga5 Tc3'
_cell_volume   217.91140438
_cell_formula_units_Z   1
loop_
 _symmetry_equiv_pos_site_id
 _symmetry_equiv_pos_as_xyz
  1  'x, y, z'
loop_
 _atom_site_type_symbol
 _atom_site_label
 _atom_site_symmetry_multiplicity
 _atom_site_fract_x
 _atom_site_fract_y
 _atom_site_fract_z
 _atom_site_occupancy
  Lu  Lu0  1  0.331898  0.665950  0.439127  1
  Lu  Lu1  1  0.663855  0.331927  0.552545  1
  Lu  Lu2  1  0.662622  0.331311  0.950502  1
  Sc  Sc3  1  0.330637  0.665320  0.054851  1
  Ga  Ga4  1  0.831851  0.163911  0.248893  1
  Ga  Ga5  1  0.831851  0.667942  0.248893  1
  Ga  Ga6  1  0.326301  0.163151  0.249135  1
  Ga  Ga7  1  0.194922  0.843221  0.752244  1
  Ga  Ga8  1  0.194922  0.351700  0.752244  1
  Tc  Tc9  1  0.976854  0.988427  0.509765  1
  Tc  Tc10  1  0.976321  0.988161  0.990807  1
  Tc  Tc11  1  0.677966  0.838982  0.750994  1
