# generated using pymatgen
data_Ba4Pu3BiO12
_symmetry_space_group_name_H-M   'P 1'
_cell_length_a   6.23567100
_cell_length_b   6.28035494
_cell_length_c   8.75873243
_cell_angle_alpha   89.91177450
_cell_angle_beta   90.00000000
_cell_angle_gamma   90.00000000
_symmetry_Int_Tables_number   1
_chemical_formula_structural   Ba4Pu3BiO12
_chemical_formula_sum   'Ba4 Pu3 Bi1 O12'
_cell_volume   343.01106269
_cell_formula_units_Z   1
loop_
 _symmetry_equiv_pos_site_id
 _symmetry_equiv_pos_as_xyz
  1  'x, y, z'
loop_
 _atom_site_type_symbol
 _atom_site_label
 _atom_site_symmetry_multiplicity
 _atom_site_fract_x
 _atom_site_fract_y
 _atom_site_fract_z
 _atom_site_occupancy
  Ba  Ba0  1  0.000000  0.508272  0.748935  1
  Ba  Ba1  1  0.500000  0.007296  0.251308  1
  Ba  Ba2  1  0.500000  0.992704  0.748692  1
  Ba  Ba3  1  0.000000  0.491728  0.251065  1
  Pu  Pu4  1  0.000000  0.000000  0.500000  1
  Pu  Pu5  1  0.500000  0.500000  0.000000  1
  Pu  Pu6  1  0.000000  0.000000  0.000000  1
  Bi  Bi7  1  0.500000  0.500000  0.500000  1
  O  O8  1  0.000000  0.072877  0.753963  1
  O  O9  1  0.500000  0.572581  0.236610  1
  O  O10  1  0.500000  0.427419  0.763390  1
  O  O11  1  0.000000  0.927123  0.246037  1
  O  O12  1  0.240195  0.238381  0.459303  1
  O  O13  1  0.751068  0.751107  0.959661  1
  O  O14  1  0.240195  0.761619  0.540697  1
  O  O15  1  0.751068  0.248893  0.040339  1
  O  O16  1  0.248932  0.751107  0.959661  1
  O  O17  1  0.759805  0.238381  0.459303  1
  O  O18  1  0.248932  0.248893  0.040339  1
  O  O19  1  0.759805  0.761619  0.540697  1
