# generated using pymatgen
data_Nd12Rh3AuBr12
_symmetry_space_group_name_H-M   'P 1'
_cell_length_a   10.53733712
_cell_length_b   10.53729179
_cell_length_c   10.53768979
_cell_angle_alpha   109.78315591
_cell_angle_beta   109.86804986
_cell_angle_gamma   109.81134374
_symmetry_Int_Tables_number   1
_chemical_formula_structural   Nd12Rh3AuBr12
_chemical_formula_sum   'Nd12 Rh3 Au1 Br12'
_cell_volume   888.85587978
_cell_formula_units_Z   1
loop_
 _symmetry_equiv_pos_site_id
 _symmetry_equiv_pos_as_xyz
  1  'x, y, z'
loop_
 _atom_site_type_symbol
 _atom_site_label
 _atom_site_symmetry_multiplicity
 _atom_site_fract_x
 _atom_site_fract_y
 _atom_site_fract_z
 _atom_site_occupancy
  Nd  Nd0  1  0.473391  0.492915  0.231971  1
  Nd  Nd1  1  0.750013  0.234063  0.265998  1
  Nd  Nd2  1  0.749923  0.013925  0.485925  1
  Nd  Nd3  1  0.231743  0.473339  0.492856  1
  Nd  Nd4  1  0.266043  0.749989  0.234003  1
  Nd  Nd5  1  0.026545  0.267995  0.007020  1
  Nd  Nd6  1  0.007096  0.026607  0.268218  1
  Nd  Nd7  1  0.486024  0.749955  0.013855  1
  Nd  Nd8  1  0.492996  0.231944  0.473475  1
  Nd  Nd9  1  0.014107  0.486138  0.750107  1
  Nd  Nd10  1  0.268127  0.007147  0.026637  1
  Nd  Nd11  1  0.233949  0.265944  0.750003  1
  Rh  Rh12  1  0.501452  0.998575  0.249992  1
  Rh  Rh13  1  0.998526  0.249994  0.501459  1
  Rh  Rh14  1  0.250004  0.501478  0.998541  1
  Au  Au15  1  0.249967  0.249979  0.250054  1
  Br  Br16  1  0.250022  0.756539  0.743437  1
  Br  Br17  1  0.509407  0.503537  0.753553  1
  Br  Br18  1  0.990594  0.746499  0.996401  1
  Br  Br19  1  0.743478  0.250026  0.756564  1
  Br  Br20  1  0.996298  0.990539  0.746422  1
  Br  Br21  1  0.250043  0.996435  0.503610  1
  Br  Br22  1  0.753611  0.509442  0.503660  1
  Br  Br23  1  0.503676  0.250017  0.996315  1
  Br  Br24  1  0.756530  0.743456  0.249955  1
  Br  Br25  1  0.746404  0.996442  0.990563  1
  Br  Br26  1  0.996363  0.503581  0.249944  1
  Br  Br27  1  0.503665  0.753499  0.509462  1
