# generated using pymatgen
data_LiDy6Mg(Co4P3)4
_symmetry_space_group_name_H-M   'P 1'
_cell_length_a   3.72443900
_cell_length_b   10.59676200
_cell_length_c   12.24086500
_cell_angle_alpha   90.00000000
_cell_angle_beta   90.00000000
_cell_angle_gamma   90.00000000
_symmetry_Int_Tables_number   1
_chemical_formula_structural   LiDy6Mg(Co4P3)4
_chemical_formula_sum   'Li1 Dy6 Mg1 Co16 P12'
_cell_volume   483.11014143
_cell_formula_units_Z   1
loop_
 _symmetry_equiv_pos_site_id
 _symmetry_equiv_pos_as_xyz
  1  'x, y, z'
loop_
 _atom_site_type_symbol
 _atom_site_label
 _atom_site_symmetry_multiplicity
 _atom_site_fract_x
 _atom_site_fract_y
 _atom_site_fract_z
 _atom_site_occupancy
  Li  Li0  1  0.000000  0.000000  0.845402  1
  Dy  Dy1  1  0.000000  0.500000  0.525665  1
  Dy  Dy2  1  0.500000  0.000000  0.477240  1
  Dy  Dy3  1  0.500000  0.822123  0.206765  1
  Dy  Dy4  1  0.500000  0.177877  0.206765  1
  Dy  Dy5  1  0.000000  0.680556  0.794190  1
  Dy  Dy6  1  0.000000  0.319444  0.794190  1
  Mg  Mg7  1  0.500000  0.500000  0.154448  1
  Co  Co8  1  0.500000  0.500000  0.704515  1
  Co  Co9  1  0.000000  0.000000  0.295105  1
  Co  Co10  1  0.000000  0.500000  0.987238  1
  Co  Co11  1  0.500000  0.000000  0.012026  1
  Co  Co12  1  0.500000  0.330973  0.994849  1
  Co  Co13  1  0.500000  0.669027  0.994849  1
  Co  Co14  1  0.000000  0.165475  0.001324  1
  Co  Co15  1  0.000000  0.834525  0.001324  1
  Co  Co16  1  0.500000  0.296146  0.432176  1
  Co  Co17  1  0.500000  0.703854  0.432176  1
  Co  Co18  1  0.000000  0.203017  0.569054  1
  Co  Co19  1  0.000000  0.796983  0.569054  1
  Co  Co20  1  0.500000  0.878904  0.706169  1
  Co  Co21  1  0.500000  0.121096  0.706169  1
  Co  Co22  1  0.000000  0.622161  0.294188  1
  Co  Co23  1  0.000000  0.377839  0.294188  1
  P  P24  1  0.500000  0.500000  0.884077  1
  P  P25  1  0.000000  0.000000  0.114336  1
  P  P26  1  0.500000  0.500000  0.354444  1
  P  P27  1  0.000000  0.000000  0.653361  1
  P  P28  1  0.500000  0.308949  0.616176  1
  P  P29  1  0.500000  0.691051  0.616176  1
  P  P30  1  0.000000  0.190065  0.385200  1
  P  P31  1  0.000000  0.809935  0.385200  1
  P  P32  1  0.500000  0.844936  0.891528  1
  P  P33  1  0.500000  0.155064  0.891528  1
  P  P34  1  0.000000  0.662419  0.104454  1
  P  P35  1  0.000000  0.337581  0.104454  1
