# generated using pymatgen
data_YbY16Ho3(Cd3Ru)2
_symmetry_space_group_name_H-M   'P 1'
_cell_length_a   9.65560400
_cell_length_b   9.65560369
_cell_length_c   9.84470400
_cell_angle_alpha   90.00000000
_cell_angle_beta   90.00000000
_cell_angle_gamma   120.00000105
_symmetry_Int_Tables_number   1
_chemical_formula_structural   YbY16Ho3(Cd3Ru)2
_chemical_formula_sum   'Yb1 Y16 Ho3 Cd6 Ru2'
_cell_volume   794.86279238
_cell_formula_units_Z   1
loop_
 _symmetry_equiv_pos_site_id
 _symmetry_equiv_pos_as_xyz
  1  'x, y, z'
loop_
 _atom_site_type_symbol
 _atom_site_label
 _atom_site_symmetry_multiplicity
 _atom_site_fract_x
 _atom_site_fract_y
 _atom_site_fract_z
 _atom_site_occupancy
  Yb  Yb0  1  0.000000  0.000000  0.499729  1
  Y  Y1  1  0.000000  0.000000  0.999998  1
  Y  Y2  1  0.789702  0.210298  0.560142  1
  Y  Y3  1  0.789702  0.579404  0.560142  1
  Y  Y4  1  0.420596  0.210298  0.560142  1
  Y  Y5  1  0.789919  0.210081  0.940420  1
  Y  Y6  1  0.789919  0.579836  0.940420  1
  Y  Y7  1  0.420164  0.210081  0.940420  1
  Y  Y8  1  0.210091  0.789909  0.059806  1
  Y  Y9  1  0.210091  0.420183  0.059806  1
  Y  Y10  1  0.579817  0.789909  0.059806  1
  Y  Y11  1  0.541366  0.458634  0.251440  1
  Y  Y12  1  0.541366  0.082732  0.251440  1
  Y  Y13  1  0.917268  0.458634  0.251440  1
  Y  Y14  1  0.458274  0.541726  0.748423  1
  Y  Y15  1  0.458274  0.916547  0.748423  1
  Y  Y16  1  0.083453  0.541726  0.748423  1
  Ho  Ho17  1  0.211165  0.788835  0.439297  1
  Ho  Ho18  1  0.211165  0.422331  0.439297  1
  Ho  Ho19  1  0.577669  0.788835  0.439297  1
  Cd  Cd20  1  0.884955  0.115045  0.250272  1
  Cd  Cd21  1  0.884955  0.769911  0.250272  1
  Cd  Cd22  1  0.230089  0.115045  0.250272  1
  Cd  Cd23  1  0.115074  0.884926  0.749743  1
  Cd  Cd24  1  0.115074  0.230147  0.749743  1
  Cd  Cd25  1  0.769853  0.884926  0.749743  1
  Ru  Ru26  1  0.333333  0.666667  0.252045  1
  Ru  Ru27  1  0.666667  0.333333  0.749598  1
