# generated using pymatgen
data_Er2Lu4RePb2
_symmetry_space_group_name_H-M   'P 1'
_cell_length_a   8.09351300
_cell_length_b   8.08061562
_cell_length_c   4.29688600
_cell_angle_alpha   90.00000000
_cell_angle_beta   90.00000000
_cell_angle_gamma   120.05281635
_symmetry_Int_Tables_number   1
_chemical_formula_structural   Er2Lu4RePb2
_chemical_formula_sum   'Er2 Lu4 Re1 Pb2'
_cell_volume   243.23977757
_cell_formula_units_Z   1
loop_
 _symmetry_equiv_pos_site_id
 _symmetry_equiv_pos_as_xyz
  1  'x, y, z'
loop_
 _atom_site_type_symbol
 _atom_site_label
 _atom_site_symmetry_multiplicity
 _atom_site_fract_x
 _atom_site_fract_y
 _atom_site_fract_z
 _atom_site_occupancy
  Er  Er0  1  0.999986  0.611757  0.000000  1
  Er  Er1  1  0.388230  0.388243  0.000000  1
  Lu  Lu2  1  0.237388  0.000000  0.500000  1
  Lu  Lu3  1  0.999080  0.237661  0.500000  1
  Lu  Lu4  1  0.761419  0.762339  0.500000  1
  Lu  Lu5  1  0.615032  0.000000  0.000000  1
  Re  Re6  1  0.998295  0.000000  0.000000  1
  Pb  Pb7  1  0.334069  0.667568  0.500000  1
  Pb  Pb8  1  0.666503  0.332432  0.500000  1
