# generated using pymatgen
data_Er5In2HgS
_symmetry_space_group_name_H-M   'P 1'
_cell_length_a   8.84174100
_cell_length_b   8.84174034
_cell_length_c   6.56885500
_cell_angle_alpha   90.00000000
_cell_angle_beta   90.00000000
_cell_angle_gamma   120.19641048
_symmetry_Int_Tables_number   1
_chemical_formula_structural   Er5In2HgS
_chemical_formula_sum   'Er10 In4 Hg2 S2'
_cell_volume   443.84660935
_cell_formula_units_Z   2
loop_
 _symmetry_equiv_pos_site_id
 _symmetry_equiv_pos_as_xyz
  1  'x, y, z'
loop_
 _atom_site_type_symbol
 _atom_site_label
 _atom_site_symmetry_multiplicity
 _atom_site_fract_x
 _atom_site_fract_y
 _atom_site_fract_z
 _atom_site_occupancy
  Er  Er0  1  0.667336  0.331716  0.001849  1
  Er  Er1  1  0.331716  0.667336  0.001849  1
  Er  Er2  1  0.331716  0.667336  0.498151  1
  Er  Er3  1  0.667336  0.331716  0.498151  1
  Er  Er4  1  0.755294  0.755294  0.750000  1
  Er  Er5  1  0.246501  0.001221  0.750000  1
  Er  Er6  1  0.001221  0.246501  0.750000  1
  Er  Er7  1  0.243095  0.243095  0.250000  1
  Er  Er8  1  0.753815  0.000687  0.250000  1
  Er  Er9  1  0.000687  0.753815  0.250000  1
  In  In10  1  0.400588  0.400588  0.750000  1
  In  In11  1  0.599898  0.998902  0.750000  1
  In  In12  1  0.998902  0.599898  0.750000  1
  In  In13  1  0.598616  0.598616  0.250000  1
  Hg  Hg14  1  0.402328  0.000923  0.250000  1
  Hg  Hg15  1  0.000923  0.402328  0.250000  1
  S  S16  1  0.000014  0.000014  0.000307  1
  S  S17  1  0.000014  0.000014  0.499693  1
