# generated using pymatgen
data_GdS23
_symmetry_space_group_name_H-M   'P 1'
_cell_length_a   5.59544714
_cell_length_b   9.59366147
_cell_length_c   16.29899500
_cell_angle_alpha   82.42591977
_cell_angle_beta   85.98404499
_cell_angle_gamma   91.36398319
_symmetry_Int_Tables_number   1
_chemical_formula_structural   GdS23
_chemical_formula_sum   'Gd1 S23'
_cell_volume   864.69732289
_cell_formula_units_Z   1
loop_
 _symmetry_equiv_pos_site_id
 _symmetry_equiv_pos_as_xyz
  1  'x, y, z'
loop_
 _atom_site_type_symbol
 _atom_site_label
 _atom_site_symmetry_multiplicity
 _atom_site_fract_x
 _atom_site_fract_y
 _atom_site_fract_z
 _atom_site_occupancy
  Gd  Gd0  1  0.624793  0.173696  0.429262  1
  S  S1  1  0.747274  0.916589  0.400159  1
  S  S2  1  0.019465  0.302442  0.099131  1
  S  S3  1  0.778453  0.221450  0.573227  1
  S  S4  1  0.474419  0.887772  0.491342  1
  S  S5  1  0.172537  0.280044  0.982740  1
  S  S6  1  0.816606  0.741490  0.026059  1
  S  S7  1  0.137551  0.195168  0.377100  1
  S  S8  1  0.592818  0.411140  0.306368  1
  S  S9  1  0.855341  0.112865  0.151271  1
  S  S10  1  0.268092  0.875318  0.118202  1
  S  S11  1  0.699912  0.646276  0.631478  1
  S  S12  1  0.305902  0.438026  0.563781  1
  S  S13  1  0.148858  0.902586  0.860676  1
  S  S14  1  0.732937  0.141477  0.885873  1
  S  S15  1  0.064365  0.694732  0.112955  1
  S  S16  1  0.610921  0.852396  0.609866  1
  S  S17  1  0.413978  0.227929  0.588613  1
  S  S18  1  0.969763  0.716311  0.910133  1
  S  S19  1  0.925419  0.324522  0.895430  1
  S  S20  1  0.236778  0.388622  0.314129  1
  S  S21  1  0.108937  0.986248  0.206529  1
  S  S22  1  0.383039  0.528967  0.665929  1
  S  S23  1  0.911839  0.033932  0.799749  1
