# generated using pymatgen
data_Ti11NbAl8(PtC)4
_symmetry_space_group_name_H-M   'P 1'
_cell_length_a   8.24693918
_cell_length_b   8.24696207
_cell_length_c   8.25271600
_cell_angle_alpha   59.97690292
_cell_angle_beta   59.97682561
_cell_angle_gamma   60.07635402
_symmetry_Int_Tables_number   1
_chemical_formula_structural   Ti11NbAl8(PtC)4
_chemical_formula_sum   'Ti11 Nb1 Al8 Pt4 C4'
_cell_volume   396.97808907
_cell_formula_units_Z   1
loop_
 _symmetry_equiv_pos_site_id
 _symmetry_equiv_pos_as_xyz
  1  'x, y, z'
loop_
 _atom_site_type_symbol
 _atom_site_label
 _atom_site_symmetry_multiplicity
 _atom_site_fract_x
 _atom_site_fract_y
 _atom_site_fract_z
 _atom_site_occupancy
  Ti  Ti0  1  0.684490  0.316075  0.314278  1
  Ti  Ti1  1  0.316073  0.684493  0.685156  1
  Ti  Ti2  1  0.685068  0.685072  0.314930  1
  Ti  Ti3  1  0.684488  0.316076  0.685155  1
  Ti  Ti4  1  0.316074  0.684492  0.314280  1
  Ti  Ti5  1  0.565389  0.933981  0.564692  1
  Ti  Ti6  1  0.565390  0.933980  0.935937  1
  Ti  Ti7  1  0.933982  0.565393  0.564691  1
  Ti  Ti8  1  0.933983  0.565391  0.935936  1
  Ti  Ti9  1  0.314067  0.314066  0.685934  1
  Ti  Ti10  1  0.565191  0.565196  0.934807  1
  Nb  Nb11  1  0.934637  0.934638  0.565363  1
  Al  Al12  1  0.914150  0.257674  0.914087  1
  Al  Al13  1  0.335975  0.335975  0.992690  1
  Al  Al14  1  0.992719  0.335894  0.335694  1
  Al  Al15  1  0.335974  0.335976  0.335360  1
  Al  Al16  1  0.257679  0.914149  0.914087  1
  Al  Al17  1  0.913948  0.913950  0.916424  1
  Al  Al18  1  0.913950  0.913949  0.255677  1
  Al  Al19  1  0.335895  0.992715  0.335694  1
  Pt  Pt20  1  0.125523  0.624750  0.124862  1
  Pt  Pt21  1  0.125784  0.125773  0.625145  1
  Pt  Pt22  1  0.624749  0.125519  0.124867  1
  Pt  Pt23  1  0.125783  0.125775  0.123297  1
  C  C24  1  0.619604  0.128450  0.625972  1
  C  C25  1  0.625492  0.625497  0.123933  1
  C  C26  1  0.128453  0.619603  0.625974  1
  C  C27  1  0.625490  0.625499  0.625078  1
