# generated using pymatgen
data_Hf18Cr2Re6GeAs
_symmetry_space_group_name_H-M   'P 1'
_cell_length_a   8.59526900
_cell_length_b   8.59526785
_cell_length_c   8.55346200
_cell_angle_alpha   90.00000000
_cell_angle_beta   90.00000000
_cell_angle_gamma   120.00315697
_symmetry_Int_Tables_number   1
_chemical_formula_structural   Hf18Cr2Re6GeAs
_chemical_formula_sum   'Hf18 Cr2 Re6 Ge1 As1'
_cell_volume   547.23974686
_cell_formula_units_Z   1
loop_
 _symmetry_equiv_pos_site_id
 _symmetry_equiv_pos_as_xyz
  1  'x, y, z'
loop_
 _atom_site_type_symbol
 _atom_site_label
 _atom_site_symmetry_multiplicity
 _atom_site_fract_x
 _atom_site_fract_y
 _atom_site_fract_z
 _atom_site_occupancy
  Hf  Hf0  1  0.808188  0.616343  0.547987  1
  Hf  Hf1  1  0.808187  0.191813  0.548000  1
  Hf  Hf2  1  0.383657  0.191812  0.547987  1
  Hf  Hf3  1  0.191765  0.383578  0.452408  1
  Hf  Hf4  1  0.191787  0.808213  0.452385  1
  Hf  Hf5  1  0.616422  0.808235  0.452408  1
  Hf  Hf6  1  0.191765  0.383578  0.047592  1
  Hf  Hf7  1  0.191787  0.808213  0.047615  1
  Hf  Hf8  1  0.616422  0.808235  0.047592  1
  Hf  Hf9  1  0.808188  0.616343  0.952013  1
  Hf  Hf10  1  0.808187  0.191813  0.952000  1
  Hf  Hf11  1  0.383657  0.191812  0.952013  1
  Hf  Hf12  1  0.458851  0.917582  0.750000  1
  Hf  Hf13  1  0.458841  0.541159  0.750000  1
  Hf  Hf14  1  0.082418  0.541149  0.750000  1
  Hf  Hf15  1  0.541993  0.084117  0.250000  1
  Hf  Hf16  1  0.542005  0.457995  0.250000  1
  Hf  Hf17  1  0.915883  0.458007  0.250000  1
  Cr  Cr18  1  0.000003  0.999997  0.499864  1
  Cr  Cr19  1  0.000003  0.999997  0.000136  1
  Re  Re20  1  0.107157  0.214220  0.750000  1
  Re  Re21  1  0.107232  0.892768  0.750000  1
  Re  Re22  1  0.785780  0.892843  0.750000  1
  Re  Re23  1  0.892852  0.785838  0.250000  1
  Re  Re24  1  0.892807  0.107193  0.250000  1
  Re  Re25  1  0.214162  0.107148  0.250000  1
  Ge  Ge26  1  0.666664  0.333336  0.750000  1
  As  As27  1  0.333337  0.666663  0.250000  1
