# generated using pymatgen
data_La2Pr6TiPd24
_symmetry_space_group_name_H-M   'P 1'
_cell_length_a   8.56045839
_cell_length_b   8.56045839
_cell_length_c   8.56045839
_cell_angle_alpha   89.97566140
_cell_angle_beta   90.02433860
_cell_angle_gamma   90.02433860
_symmetry_Int_Tables_number   1
_chemical_formula_structural   La2Pr6TiPd24
_chemical_formula_sum   'La2 Pr6 Ti1 Pd24'
_cell_volume   627.32261445
_cell_formula_units_Z   1
loop_
 _symmetry_equiv_pos_site_id
 _symmetry_equiv_pos_as_xyz
  1  'x, y, z'
loop_
 _atom_site_type_symbol
 _atom_site_label
 _atom_site_symmetry_multiplicity
 _atom_site_fract_x
 _atom_site_fract_y
 _atom_site_fract_z
 _atom_site_occupancy
  La  La0  1  0.253121  0.746879  0.746879  1
  La  La1  1  0.746879  0.253121  0.253121  1
  Pr  Pr2  1  0.252496  0.252578  0.252578  1
  Pr  Pr3  1  0.747504  0.747422  0.747422  1
  Pr  Pr4  1  0.747422  0.747504  0.252578  1
  Pr  Pr5  1  0.747422  0.252578  0.747504  1
  Pr  Pr6  1  0.252578  0.252496  0.747422  1
  Pr  Pr7  1  0.252578  0.747422  0.252496  1
  Ti  Ti8  1  0.000000  0.000000  0.000000  1
  Pd  Pd9  1  0.263374  0.500057  0.999937  1
  Pd  Pd10  1  0.736626  0.499943  0.000063  1
  Pd  Pd11  1  0.999937  0.263374  0.499943  1
  Pd  Pd12  1  0.500057  0.263374  0.000063  1
  Pd  Pd13  1  0.000063  0.736626  0.500057  1
  Pd  Pd14  1  0.499943  0.736626  0.999937  1
  Pd  Pd15  1  0.500057  0.000063  0.263374  1
  Pd  Pd16  1  0.263374  0.999937  0.500057  1
  Pd  Pd17  1  0.499943  0.999937  0.736626  1
  Pd  Pd18  1  0.736626  0.000063  0.499943  1
  Pd  Pd19  1  0.999937  0.499943  0.263374  1
  Pd  Pd20  1  0.000063  0.500057  0.736626  1
  Pd  Pd21  1  0.254698  0.500092  0.500092  1
  Pd  Pd22  1  0.745302  0.499908  0.499908  1
  Pd  Pd23  1  0.500092  0.254698  0.499908  1
  Pd  Pd24  1  0.499908  0.745302  0.500092  1
  Pd  Pd25  1  0.500092  0.499908  0.254698  1
  Pd  Pd26  1  0.499908  0.500092  0.745302  1
  Pd  Pd27  1  0.297807  0.000137  0.000137  1
  Pd  Pd28  1  0.702193  0.999863  0.999863  1
  Pd  Pd29  1  0.000137  0.297807  0.999863  1
  Pd  Pd30  1  0.999863  0.702193  0.000137  1
  Pd  Pd31  1  0.000137  0.999863  0.297807  1
  Pd  Pd32  1  0.999863  0.000137  0.702193  1
