# generated using pymatgen
data_MgTa3Ru4
_symmetry_space_group_name_H-M   'P 1'
_cell_length_a   7.74608388
_cell_length_b   7.74608392
_cell_length_c   7.74608300
_cell_angle_alpha   33.48942196
_cell_angle_beta   33.48942248
_cell_angle_gamma   33.48943243
_symmetry_Int_Tables_number   1
_chemical_formula_structural   MgTa3Ru4
_chemical_formula_sum   'Mg1 Ta3 Ru4'
_cell_volume   126.03111686
_cell_formula_units_Z   1
loop_
 _symmetry_equiv_pos_site_id
 _symmetry_equiv_pos_as_xyz
  1  'x, y, z'
loop_
 _atom_site_type_symbol
 _atom_site_label
 _atom_site_symmetry_multiplicity
 _atom_site_fract_x
 _atom_site_fract_y
 _atom_site_fract_z
 _atom_site_occupancy
  Mg  Mg0  1  0.000000  0.000000  0.000000  1
  Ta  Ta1  1  0.500000  0.500000  0.500000  1
  Ta  Ta2  1  0.253041  0.253041  0.253041  1
  Ta  Ta3  1  0.746959  0.746959  0.746959  1
  Ru  Ru4  1  0.623148  0.623148  0.623148  1
  Ru  Ru5  1  0.127063  0.127063  0.127063  1
  Ru  Ru6  1  0.872937  0.872937  0.872937  1
  Ru  Ru7  1  0.376852  0.376852  0.376852  1
