# generated using pymatgen
data_Er6MnAl15Os7
_symmetry_space_group_name_H-M   'P 1'
_cell_length_a   8.92259034
_cell_length_b   8.92259067
_cell_length_c   8.89751469
_cell_angle_alpha   59.90673195
_cell_angle_beta   59.90672731
_cell_angle_gamma   60.00000206
_symmetry_Int_Tables_number   1
_chemical_formula_structural   Er6MnAl15Os7
_chemical_formula_sum   'Er6 Mn1 Al15 Os7'
_cell_volume   500.17495922
_cell_formula_units_Z   1
loop_
 _symmetry_equiv_pos_site_id
 _symmetry_equiv_pos_as_xyz
  1  'x, y, z'
loop_
 _atom_site_type_symbol
 _atom_site_label
 _atom_site_symmetry_multiplicity
 _atom_site_fract_x
 _atom_site_fract_y
 _atom_site_fract_z
 _atom_site_occupancy
  Er  Er0  1  0.710623  0.710623  0.289570  1
  Er  Er1  1  0.289185  0.710623  0.289570  1
  Er  Er2  1  0.710623  0.289185  0.289570  1
  Er  Er3  1  0.289505  0.289505  0.710323  1
  Er  Er4  1  0.710667  0.289505  0.710323  1
  Er  Er5  1  0.289505  0.710667  0.710323  1
  Mn  Mn6  1  0.879220  0.879220  0.362341  1
  Al  Al7  1  0.880108  0.361087  0.878697  1
  Al  Al8  1  0.361087  0.880108  0.878697  1
  Al  Al9  1  0.880108  0.880108  0.878697  1
  Al  Al10  1  0.120413  0.120413  0.638760  1
  Al  Al11  1  0.119368  0.639263  0.122000  1
  Al  Al12  1  0.639263  0.119368  0.122000  1
  Al  Al13  1  0.119368  0.119368  0.122000  1
  Al  Al14  1  0.667556  0.667556  0.997333  1
  Al  Al15  1  0.669752  0.994944  0.665554  1
  Al  Al16  1  0.994944  0.669752  0.665554  1
  Al  Al17  1  0.669752  0.669752  0.665554  1
  Al  Al18  1  0.332148  0.332148  0.003554  1
  Al  Al19  1  0.332405  0.002777  0.332410  1
  Al  Al20  1  0.002777  0.332405  0.332410  1
  Al  Al21  1  0.332405  0.332405  0.332410  1
  Os  Os22  1  0.997795  0.997795  0.006616  1
  Os  Os23  1  0.000775  0.000775  0.499871  1
  Os  Os24  1  0.498579  0.000775  0.499871  1
  Os  Os25  1  0.000775  0.498579  0.499871  1
  Os  Os26  1  0.500424  0.500424  0.998706  1
  Os  Os27  1  0.000445  0.500424  0.998706  1
  Os  Os28  1  0.500424  0.000445  0.998706  1
