# generated using pymatgen
data_Dy2HfZrPt2
_symmetry_space_group_name_H-M   'P 1'
_cell_length_a   4.67495200
_cell_length_b   7.15199200
_cell_length_c   8.22776000
_cell_angle_alpha   90.00000000
_cell_angle_beta   90.00000000
_cell_angle_gamma   90.00000000
_symmetry_Int_Tables_number   1
_chemical_formula_structural   Dy2HfZrPt2
_chemical_formula_sum   'Dy4 Hf2 Zr2 Pt4'
_cell_volume   275.09695998
_cell_formula_units_Z   2
loop_
 _symmetry_equiv_pos_site_id
 _symmetry_equiv_pos_as_xyz
  1  'x, y, z'
loop_
 _atom_site_type_symbol
 _atom_site_label
 _atom_site_symmetry_multiplicity
 _atom_site_fract_x
 _atom_site_fract_y
 _atom_site_fract_z
 _atom_site_occupancy
  Dy  Dy0  1  0.250000  0.015965  0.323515  1
  Dy  Dy1  1  0.250000  0.515965  0.176485  1
  Dy  Dy2  1  0.750000  0.982425  0.679735  1
  Dy  Dy3  1  0.750000  0.482425  0.820265  1
  Hf  Hf4  1  0.250000  0.146627  0.921935  1
  Hf  Hf5  1  0.250000  0.646627  0.578065  1
  Zr  Zr6  1  0.750000  0.852525  0.079257  1
  Zr  Zr7  1  0.750000  0.352525  0.420743  1
  Pt  Pt8  1  0.250000  0.274201  0.598776  1
  Pt  Pt9  1  0.250000  0.774201  0.901224  1
  Pt  Pt10  1  0.750000  0.728257  0.410086  1
  Pt  Pt11  1  0.750000  0.228257  0.089914  1
