# generated using pymatgen
data_Cs6PrNpI12
_symmetry_space_group_name_H-M   'P 1'
_cell_length_a   10.81405086
_cell_length_b   10.81819894
_cell_length_c   8.98283500
_cell_angle_alpha   90.00000000
_cell_angle_beta   90.00000000
_cell_angle_gamma   89.95613608
_symmetry_Int_Tables_number   1
_chemical_formula_structural   Cs6PrNpI12
_chemical_formula_sum   'Cs6 Pr1 Np1 I12'
_cell_volume   1050.88856606
_cell_formula_units_Z   1
loop_
 _symmetry_equiv_pos_site_id
 _symmetry_equiv_pos_as_xyz
  1  'x, y, z'
loop_
 _atom_site_type_symbol
 _atom_site_label
 _atom_site_symmetry_multiplicity
 _atom_site_fract_x
 _atom_site_fract_y
 _atom_site_fract_z
 _atom_site_occupancy
  Cs  Cs0  1  0.000000  0.000000  0.500000  1
  Cs  Cs1  1  0.000000  0.000000  0.000000  1
  Cs  Cs2  1  0.233774  0.587794  0.500000  1
  Cs  Cs3  1  0.766226  0.412206  0.500000  1
  Cs  Cs4  1  0.412641  0.232397  0.000000  1
  Cs  Cs5  1  0.587359  0.767603  0.000000  1
  Pr  Pr6  1  0.000000  0.500000  0.000000  1
  Np  Np7  1  0.500000  0.000000  0.500000  1
  I  I8  1  0.697387  0.059973  0.746544  1
  I  I9  1  0.302613  0.940027  0.746544  1
  I  I10  1  0.939632  0.699287  0.249175  1
  I  I11  1  0.060368  0.300713  0.249175  1
  I  I12  1  0.302613  0.940027  0.253456  1
  I  I13  1  0.697387  0.059973  0.253456  1
  I  I14  1  0.060368  0.300713  0.750825  1
  I  I15  1  0.939632  0.699287  0.750825  1
  I  I16  1  0.569717  0.720072  0.500000  1
  I  I17  1  0.430283  0.279928  0.500000  1
  I  I18  1  0.282121  0.570352  0.000000  1
  I  I19  1  0.717879  0.429648  0.000000  1
