# generated using pymatgen
data_Cs3Sr(USe3)2
_symmetry_space_group_name_H-M   'P 1'
_cell_length_a   7.63470550
_cell_length_b   7.63470660
_cell_length_c   8.77771152
_cell_angle_alpha   81.67066785
_cell_angle_beta   81.67066390
_cell_angle_gamma   119.98406156
_symmetry_Int_Tables_number   1
_chemical_formula_structural   Cs3Sr(USe3)2
_chemical_formula_sum   'Cs3 Sr1 U2 Se6'
_cell_volume   424.16773453
_cell_formula_units_Z   1
loop_
 _symmetry_equiv_pos_site_id
 _symmetry_equiv_pos_as_xyz
  1  'x, y, z'
loop_
 _atom_site_type_symbol
 _atom_site_label
 _atom_site_symmetry_multiplicity
 _atom_site_fract_x
 _atom_site_fract_y
 _atom_site_fract_z
 _atom_site_occupancy
  Cs  Cs0  1  0.658509  0.341491  0.500000  1
  Cs  Cs1  1  0.341491  0.658509  0.500000  1
  Cs  Cs2  1  0.000000  0.000000  0.500000  1
  Sr  Sr3  1  0.500000  0.500000  0.000000  1
  U  U4  1  0.832500  0.167500  0.000000  1
  U  U5  1  0.167500  0.832500  0.000000  1
  Se  Se6  1  0.794014  0.794014  0.185571  1
  Se  Se7  1  0.205986  0.205986  0.814429  1
  Se  Se8  1  0.436401  0.079794  0.189895  1
  Se  Se9  1  0.563599  0.920206  0.810105  1
  Se  Se10  1  0.920206  0.563599  0.810105  1
  Se  Se11  1  0.079794  0.436401  0.189895  1
