# generated using pymatgen
data_Y2CrFe11P7
_symmetry_space_group_name_H-M   'P 1'
_cell_length_a   3.63302700
_cell_length_b   8.98244401
_cell_length_c   9.01835192
_cell_angle_alpha   119.74495401
_cell_angle_beta   90.00000000
_cell_angle_gamma   90.00000000
_symmetry_Int_Tables_number   1
_chemical_formula_structural   Y2CrFe11P7
_chemical_formula_sum   'Y2 Cr1 Fe11 P7'
_cell_volume   255.52380713
_cell_formula_units_Z   1
loop_
 _symmetry_equiv_pos_site_id
 _symmetry_equiv_pos_as_xyz
  1  'x, y, z'
loop_
 _atom_site_type_symbol
 _atom_site_label
 _atom_site_symmetry_multiplicity
 _atom_site_fract_x
 _atom_site_fract_y
 _atom_site_fract_z
 _atom_site_occupancy
  Y  Y0  1  0.000000  0.667221  0.336207  1
  Y  Y1  1  0.500000  0.333568  0.665718  1
  Cr  Cr2  1  0.500000  0.784772  0.899865  1
  Fe  Fe3  1  0.000000  0.570991  0.946989  1
  Fe  Fe4  1  0.000000  0.369832  0.425497  1
  Fe  Fe5  1  0.000000  0.055445  0.627928  1
  Fe  Fe6  1  0.500000  0.118744  0.214935  1
  Fe  Fe7  1  0.500000  0.096059  0.878556  1
  Fe  Fe8  1  0.000000  0.881323  0.154592  1
  Fe  Fe9  1  0.000000  0.276014  0.118797  1
  Fe  Fe10  1  0.000000  0.848528  0.728230  1
  Fe  Fe11  1  0.500000  0.951816  0.384888  1
  Fe  Fe12  1  0.500000  0.432068  0.047476  1
  Fe  Fe13  1  0.500000  0.615884  0.567564  1
  P  P14  1  0.000000  0.003836  0.001278  1
  P  P15  1  0.500000  0.713044  0.118372  1
  P  P16  1  0.500000  0.400425  0.292064  1
  P  P17  1  0.500000  0.887957  0.599386  1
  P  P18  1  0.000000  0.589200  0.699467  1
  P  P19  1  0.000000  0.111759  0.409179  1
  P  P20  1  0.000000  0.291512  0.883013  1
