# generated using pymatgen
data_Tb2NdErCuPt3
_symmetry_space_group_name_H-M   'P 1'
_cell_length_a   4.51687200
_cell_length_b   5.60580950
_cell_length_c   7.13869178
_cell_angle_alpha   89.04059478
_cell_angle_beta   90.00000000
_cell_angle_gamma   90.00000000
_symmetry_Int_Tables_number   1
_chemical_formula_structural   Tb2NdErCuPt3
_chemical_formula_sum   'Tb2 Nd1 Er1 Cu1 Pt3'
_cell_volume   180.73150360
_cell_formula_units_Z   1
loop_
 _symmetry_equiv_pos_site_id
 _symmetry_equiv_pos_as_xyz
  1  'x, y, z'
loop_
 _atom_site_type_symbol
 _atom_site_label
 _atom_site_symmetry_multiplicity
 _atom_site_fract_x
 _atom_site_fract_y
 _atom_site_fract_z
 _atom_site_occupancy
  Tb  Tb0  1  0.500000  0.365241  0.689487  1
  Tb  Tb1  1  0.500000  0.137138  0.173987  1
  Nd  Nd2  1  0.000000  0.638106  0.317603  1
  Er  Er3  1  0.000000  0.857165  0.819948  1
  Cu  Cu4  1  0.000000  0.134317  0.468784  1
  Pt  Pt5  1  0.000000  0.335851  0.950277  1
  Pt  Pt6  1  0.500000  0.875406  0.544441  1
  Pt  Pt7  1  0.500000  0.656776  0.035474  1
