# generated using pymatgen
data_Hf18MnZnRe3Mo5
_symmetry_space_group_name_H-M   'P 1'
_cell_length_a   8.66618600
_cell_length_b   8.66618717
_cell_length_c   8.49740300
_cell_angle_alpha   90.00000000
_cell_angle_beta   90.00000000
_cell_angle_gamma   120.00000318
_symmetry_Int_Tables_number   1
_chemical_formula_structural   Hf18MnZnRe3Mo5
_chemical_formula_sum   'Hf18 Mn1 Zn1 Re3 Mo5'
_cell_volume   552.67892457
_cell_formula_units_Z   1
loop_
 _symmetry_equiv_pos_site_id
 _symmetry_equiv_pos_as_xyz
  1  'x, y, z'
loop_
 _atom_site_type_symbol
 _atom_site_label
 _atom_site_symmetry_multiplicity
 _atom_site_fract_x
 _atom_site_fract_y
 _atom_site_fract_z
 _atom_site_occupancy
  Hf  Hf0  1  0.201707  0.798293  0.440030  1
  Hf  Hf1  1  0.201707  0.403412  0.440030  1
  Hf  Hf2  1  0.596588  0.798293  0.440030  1
  Hf  Hf3  1  0.805552  0.194448  0.549098  1
  Hf  Hf4  1  0.805552  0.611105  0.549098  1
  Hf  Hf5  1  0.388895  0.194448  0.549098  1
  Hf  Hf6  1  0.805552  0.194448  0.950902  1
  Hf  Hf7  1  0.805552  0.611105  0.950902  1
  Hf  Hf8  1  0.388895  0.194448  0.950902  1
  Hf  Hf9  1  0.201707  0.798293  0.059970  1
  Hf  Hf10  1  0.201707  0.403412  0.059970  1
  Hf  Hf11  1  0.596588  0.798293  0.059970  1
  Hf  Hf12  1  0.540215  0.459785  0.250000  1
  Hf  Hf13  1  0.540215  0.080431  0.250000  1
  Hf  Hf14  1  0.919569  0.459785  0.250000  1
  Hf  Hf15  1  0.460588  0.539412  0.750000  1
  Hf  Hf16  1  0.460588  0.921176  0.750000  1
  Hf  Hf17  1  0.078824  0.539412  0.750000  1
  Mn  Mn18  1  0.333333  0.666667  0.250000  1
  Zn  Zn19  1  0.666667  0.333333  0.750000  1
  Re  Re20  1  0.888953  0.111047  0.250000  1
  Re  Re21  1  0.888953  0.777904  0.250000  1
  Re  Re22  1  0.222096  0.111047  0.250000  1
  Mo  Mo23  1  0.112236  0.887764  0.750000  1
  Mo  Mo24  1  0.112236  0.224472  0.750000  1
  Mo  Mo25  1  0.775528  0.887764  0.750000  1
  Mo  Mo26  1  0.000000  0.000000  0.499830  1
  Mo  Mo27  1  0.000000  0.000000  0.000170  1
