# generated using pymatgen
data_Ba6ScPd4O15
_symmetry_space_group_name_H-M   'P 1'
_cell_length_a   7.47183061
_cell_length_b   7.47186606
_cell_length_c   7.47181700
_cell_angle_alpha   86.05513670
_cell_angle_beta   86.05505646
_cell_angle_gamma   86.05503805
_symmetry_Int_Tables_number   1
_chemical_formula_structural   Ba6ScPd4O15
_chemical_formula_sum   'Ba6 Sc1 Pd4 O15'
_cell_volume   414.30511207
_cell_formula_units_Z   1
loop_
 _symmetry_equiv_pos_site_id
 _symmetry_equiv_pos_as_xyz
  1  'x, y, z'
loop_
 _atom_site_type_symbol
 _atom_site_label
 _atom_site_symmetry_multiplicity
 _atom_site_fract_x
 _atom_site_fract_y
 _atom_site_fract_z
 _atom_site_occupancy
  Ba  Ba0  1  0.329394  0.669311  0.999324  1
  Ba  Ba1  1  0.998949  0.327804  0.670578  1
  Ba  Ba2  1  0.672428  0.001951  0.330632  1
  Ba  Ba3  1  0.143001  0.857874  0.500536  1
  Ba  Ba4  1  0.500768  0.141243  0.860133  1
  Ba  Ba5  1  0.857625  0.498789  0.140314  1
  Sc  Sc6  1  0.499317  0.500958  0.499498  1
  Pd  Pd7  1  0.299117  0.297062  0.299036  1
  Pd  Pd8  1  0.702507  0.700386  0.701894  1
  Pd  Pd9  1  0.097523  0.099275  0.096595  1
  Pd  Pd10  1  0.900677  0.903700  0.902294  1
  O  O11  1  0.154250  0.000679  0.844640  1
  O  O12  1  0.835447  0.163181  0.999067  1
  O  O13  1  0.999469  0.849749  0.150539  1
  O  O14  1  0.039099  0.203766  0.346417  1
  O  O15  1  0.354011  0.037066  0.210431  1
  O  O16  1  0.205472  0.343986  0.038716  1
  O  O17  1  0.796701  0.960641  0.656373  1
  O  O18  1  0.653294  0.792363  0.962000  1
  O  O19  1  0.962490  0.647174  0.791884  1
  O  O20  1  0.382484  0.246134  0.549937  1
  O  O21  1  0.548944  0.382587  0.245678  1
  O  O22  1  0.244906  0.549747  0.380170  1
  O  O23  1  0.754383  0.618795  0.450012  1
  O  O24  1  0.450836  0.754912  0.619487  1
  O  O25  1  0.616908  0.450868  0.753818  1
