# generated using pymatgen
data_Y2Lu6B24IrRh2W
_symmetry_space_group_name_H-M   'P 1'
_cell_length_a   3.60914400
_cell_length_b   9.09967871
_cell_length_c   11.47938699
_cell_angle_alpha   90.26281113
_cell_angle_beta   90.00000000
_cell_angle_gamma   90.00000000
_symmetry_Int_Tables_number   1
_chemical_formula_structural   Y2Lu6B24IrRh2W
_chemical_formula_sum   'Y2 Lu6 B24 Ir1 Rh2 W1'
_cell_volume   377.00264455
_cell_formula_units_Z   1
loop_
 _symmetry_equiv_pos_site_id
 _symmetry_equiv_pos_as_xyz
  1  'x, y, z'
loop_
 _atom_site_type_symbol
 _atom_site_label
 _atom_site_symmetry_multiplicity
 _atom_site_fract_x
 _atom_site_fract_y
 _atom_site_fract_z
 _atom_site_occupancy
  Y  Y0  1  0.500000  0.322343  0.415187  1
  Y  Y1  1  0.500000  0.680577  0.588902  1
  Lu  Lu2  1  0.500000  0.177658  0.913184  1
  Lu  Lu3  1  0.500000  0.819784  0.082431  1
  Lu  Lu4  1  0.500000  0.444041  0.127169  1
  Lu  Lu5  1  0.500000  0.554640  0.874612  1
  Lu  Lu6  1  0.500000  0.055419  0.626399  1
  Lu  Lu7  1  0.500000  0.943298  0.371616  1
  B  B8  1  0.000000  0.103734  0.470690  1
  B  B9  1  0.000000  0.897002  0.526343  1
  B  B10  1  0.000000  0.393152  0.971928  1
  B  B11  1  0.000000  0.603844  0.030185  1
  B  B12  1  0.000000  0.131622  0.316191  1
  B  B13  1  0.000000  0.869554  0.682870  1
  B  B14  1  0.000000  0.367142  0.817774  1
  B  B15  1  0.000000  0.631894  0.182118  1
  B  B16  1  0.000000  0.054057  0.066262  1
  B  B17  1  0.000000  0.948816  0.936755  1
  B  B18  1  0.000000  0.445995  0.566651  1
  B  B19  1  0.000000  0.555144  0.433800  1
  B  B20  1  0.000000  0.482937  0.286444  1
  B  B21  1  0.000000  0.516385  0.713757  1
  B  B22  1  0.000000  0.022123  0.786821  1
  B  B23  1  0.000000  0.981435  0.212716  1
  B  B24  1  0.000000  0.249802  0.079279  1
  B  B25  1  0.000000  0.747853  0.922561  1
  B  B26  1  0.000000  0.249779  0.580089  1
  B  B27  1  0.000000  0.750795  0.419807  1
  B  B28  1  0.000000  0.293701  0.235206  1
  B  B29  1  0.000000  0.704041  0.764825  1
  B  B30  1  0.000000  0.207378  0.735500  1
  B  B31  1  0.000000  0.793185  0.262538  1
  Ir  Ir32  1  0.500000  0.138076  0.178230  1
  Rh  Rh33  1  0.500000  0.359190  0.681246  1
  Rh  Rh34  1  0.500000  0.640961  0.318231  1
  W  W35  1  0.500000  0.862645  0.821681  1
