# generated using pymatgen
data_Tb16Dy3Ho(CoBi2)4
_symmetry_space_group_name_H-M   'P 1'
_cell_length_a   8.04862526
_cell_length_b   8.88509564
_cell_length_c   12.45017752
_cell_angle_alpha   89.99485336
_cell_angle_beta   90.02805611
_cell_angle_gamma   90.01577790
_symmetry_Int_Tables_number   1
_chemical_formula_structural   Tb16Dy3Ho(CoBi2)4
_chemical_formula_sum   'Tb16 Dy3 Ho1 Co4 Bi8'
_cell_volume   890.34697521
_cell_formula_units_Z   1
loop_
 _symmetry_equiv_pos_site_id
 _symmetry_equiv_pos_as_xyz
  1  'x, y, z'
loop_
 _atom_site_type_symbol
 _atom_site_label
 _atom_site_symmetry_multiplicity
 _atom_site_fract_x
 _atom_site_fract_y
 _atom_site_fract_z
 _atom_site_occupancy
  Tb  Tb0  1  0.848295  0.750057  0.801704  1
  Tb  Tb1  1  0.151550  0.249969  0.198509  1
  Tb  Tb2  1  0.348574  0.250072  0.698282  1
  Tb  Tb3  1  0.651451  0.749970  0.301841  1
  Tb  Tb4  1  0.381219  0.749865  0.689381  1
  Tb  Tb5  1  0.617713  0.249932  0.310816  1
  Tb  Tb6  1  0.882269  0.249916  0.810154  1
  Tb  Tb7  1  0.118677  0.750291  0.190109  1
  Tb  Tb8  1  0.952966  0.750293  0.502381  1
  Tb  Tb9  1  0.049173  0.250026  0.497570  1
  Tb  Tb10  1  0.451082  0.249608  0.997625  1
  Tb  Tb11  1  0.546311  0.750224  0.002290  1
  Tb  Tb12  1  0.822986  0.035096  0.062889  1
  Tb  Tb13  1  0.676917  0.465123  0.562791  1
  Tb  Tb14  1  0.823099  0.465036  0.062704  1
  Tb  Tb15  1  0.177010  0.535285  0.936904  1
  Dy  Dy16  1  0.676058  0.035058  0.562967  1
  Dy  Dy17  1  0.323898  0.964192  0.436771  1
  Dy  Dy18  1  0.176016  0.964185  0.936730  1
  Ho  Ho19  1  0.325195  0.535534  0.437072  1
  Co  Co20  1  0.559752  0.749797  0.507858  1
  Co  Co21  1  0.437987  0.249998  0.491868  1
  Co  Co22  1  0.062254  0.249780  0.991546  1
  Co  Co23  1  0.939420  0.750212  0.008397  1
  Bi  Bi24  1  0.572020  0.491742  0.825913  1
  Bi  Bi25  1  0.428120  0.508147  0.174462  1
  Bi  Bi26  1  0.071726  0.508389  0.674021  1
  Bi  Bi27  1  0.428188  0.991821  0.174406  1
  Bi  Bi28  1  0.929009  0.491941  0.326188  1
  Bi  Bi29  1  0.571393  0.008175  0.825711  1
  Bi  Bi30  1  0.928488  0.008355  0.326042  1
  Bi  Bi31  1  0.071183  0.991916  0.674096  1
