# generated using pymatgen
data_TbSm3Ta4(Bi2O11)2
_symmetry_space_group_name_H-M   'P 1'
_cell_length_a   6.63726150
_cell_length_b   7.72533004
_cell_length_c   9.80392891
_cell_angle_alpha   101.34816641
_cell_angle_beta   90.35698942
_cell_angle_gamma   90.09538618
_symmetry_Int_Tables_number   1
_chemical_formula_structural   TbSm3Ta4(Bi2O11)2
_chemical_formula_sum   'Tb1 Sm3 Ta4 Bi4 O22'
_cell_volume   492.85716573
_cell_formula_units_Z   1
loop_
 _symmetry_equiv_pos_site_id
 _symmetry_equiv_pos_as_xyz
  1  'x, y, z'
loop_
 _atom_site_type_symbol
 _atom_site_label
 _atom_site_symmetry_multiplicity
 _atom_site_fract_x
 _atom_site_fract_y
 _atom_site_fract_z
 _atom_site_occupancy
  Tb  Tb0  1  0.240832  0.128068  0.510853  1
  Sm  Sm1  1  0.747992  0.368560  0.482522  1
  Sm  Sm2  1  0.250984  0.630307  0.517014  1
  Sm  Sm3  1  0.759526  0.873180  0.491114  1
  Ta  Ta4  1  0.913102  0.701517  0.806743  1
  Ta  Ta5  1  0.087259  0.298335  0.194145  1
  Ta  Ta6  1  0.915159  0.199848  0.806947  1
  Ta  Ta7  1  0.085666  0.800877  0.193510  1
  Bi  Bi8  1  0.431441  0.956285  0.815820  1
  Bi  Bi9  1  0.565591  0.044318  0.184586  1
  Bi  Bi10  1  0.390300  0.454739  0.826928  1
  Bi  Bi11  1  0.609189  0.544873  0.172717  1
  O  O12  1  0.216857  0.725155  0.760060  1
  O  O13  1  0.783515  0.273879  0.239872  1
  O  O14  1  0.631490  0.664142  0.842706  1
  O  O15  1  0.368644  0.335657  0.156345  1
  O  O16  1  0.631916  0.253781  0.841679  1
  O  O17  1  0.368585  0.745745  0.157255  1
  O  O18  1  0.896479  0.155916  0.590693  1
  O  O19  1  0.109651  0.848542  0.409499  1
  O  O20  1  0.215986  0.151653  0.754009  1
  O  O21  1  0.784752  0.849270  0.244310  1
  O  O22  1  0.896154  0.639538  0.593915  1
  O  O23  1  0.106262  0.356243  0.406387  1
  O  O24  1  0.026940  0.550656  0.198904  1
  O  O25  1  0.973741  0.450272  0.804216  1
  O  O26  1  0.998698  0.785381  0.000916  1
  O  O27  1  0.002575  0.214530  0.998869  1
  O  O28  1  0.571208  0.597833  0.391915  1
  O  O29  1  0.425997  0.399190  0.607554  1
  O  O30  1  0.165155  0.055571  0.220078  1
  O  O31  1  0.835648  0.943851  0.777416  1
  O  O32  1  0.541393  0.102725  0.401857  1
  O  O33  1  0.451315  0.899563  0.598644  1
