# generated using pymatgen
data_TbYb8PaIr4
_symmetry_space_group_name_H-M   'P 1'
_cell_length_a   6.62074550
_cell_length_b   7.31040652
_cell_length_c   8.60056119
_cell_angle_alpha   97.13908424
_cell_angle_beta   112.63764677
_cell_angle_gamma   89.99999928
_symmetry_Int_Tables_number   1
_chemical_formula_structural   TbYb8PaIr4
_chemical_formula_sum   'Tb1 Yb8 Pa1 Ir4'
_cell_volume   380.70067031
_cell_formula_units_Z   1
loop_
 _symmetry_equiv_pos_site_id
 _symmetry_equiv_pos_as_xyz
  1  'x, y, z'
loop_
 _atom_site_type_symbol
 _atom_site_label
 _atom_site_symmetry_multiplicity
 _atom_site_fract_x
 _atom_site_fract_y
 _atom_site_fract_z
 _atom_site_occupancy
  Tb  Tb0  1  0.565918  0.250000  0.000000  1
  Yb  Yb1  1  0.977553  0.923134  0.172852  1
  Yb  Yb2  1  0.804701  0.576866  0.827148  1
  Yb  Yb3  1  0.025675  0.080299  0.826098  1
  Yb  Yb4  1  0.199577  0.419701  0.173902  1
  Yb  Yb5  1  0.642640  0.817646  0.441026  1
  Yb  Yb6  1  0.201613  0.682354  0.558974  1
  Yb  Yb7  1  0.360768  0.180107  0.566091  1
  Yb  Yb8  1  0.794677  0.319893  0.433909  1
  Pa  Pa9  1  0.438082  0.750000  0.000000  1
  Ir  Ir10  1  0.793235  0.583946  0.201572  1
  Ir  Ir11  1  0.591663  0.916054  0.798428  1
  Ir  Ir12  1  0.203359  0.445554  0.802819  1
  Ir  Ir13  1  0.400540  0.054446  0.197181  1
