# generated using pymatgen
data_Gd4LuSn3Pb
_symmetry_space_group_name_H-M   'P 1'
_cell_length_a   8.04764900
_cell_length_b   8.13782500
_cell_length_c   15.48336300
_cell_angle_alpha   90.00000000
_cell_angle_beta   90.00000000
_cell_angle_gamma   90.00000000
_symmetry_Int_Tables_number   1
_chemical_formula_structural   Gd4LuSn3Pb
_chemical_formula_sum   'Gd16 Lu4 Sn12 Pb4'
_cell_volume   1014.01100486
_cell_formula_units_Z   4
loop_
 _symmetry_equiv_pos_site_id
 _symmetry_equiv_pos_as_xyz
  1  'x, y, z'
loop_
 _atom_site_type_symbol
 _atom_site_label
 _atom_site_symmetry_multiplicity
 _atom_site_fract_x
 _atom_site_fract_y
 _atom_site_fract_z
 _atom_site_occupancy
  Gd  Gd0  1  0.373414  0.838596  0.878914  1
  Gd  Gd1  1  0.873414  0.661404  0.621086  1
  Gd  Gd2  1  0.626586  0.161404  0.378914  1
  Gd  Gd3  1  0.126586  0.338596  0.121086  1
  Gd  Gd4  1  0.623272  0.160480  0.122238  1
  Gd  Gd5  1  0.123272  0.339520  0.377762  1
  Gd  Gd6  1  0.376728  0.839520  0.622238  1
  Gd  Gd7  1  0.876728  0.660480  0.877762  1
  Gd  Gd8  1  0.525771  0.321483  0.900868  1
  Gd  Gd9  1  0.025771  0.178517  0.599132  1
  Gd  Gd10  1  0.474229  0.678517  0.400868  1
  Gd  Gd11  1  0.974229  0.821483  0.099132  1
  Gd  Gd12  1  0.468377  0.679787  0.098934  1
  Gd  Gd13  1  0.968377  0.820213  0.401066  1
  Gd  Gd14  1  0.531623  0.320213  0.598934  1
  Gd  Gd15  1  0.031623  0.179787  0.901066  1
  Lu  Lu16  1  0.205877  0.503892  0.751417  1
  Lu  Lu17  1  0.705877  0.996108  0.748583  1
  Lu  Lu18  1  0.794123  0.496108  0.251417  1
  Lu  Lu19  1  0.294123  0.003892  0.248583  1
  Sn  Sn20  1  0.286753  0.032948  0.043934  1
  Sn  Sn21  1  0.786753  0.467052  0.456066  1
  Sn  Sn22  1  0.713247  0.967052  0.543934  1
  Sn  Sn23  1  0.213247  0.532948  0.956066  1
  Sn  Sn24  1  0.571015  0.617905  0.750271  1
  Sn  Sn25  1  0.071015  0.882095  0.749729  1
  Sn  Sn26  1  0.428985  0.382095  0.250271  1
  Sn  Sn27  1  0.928985  0.117905  0.249729  1
  Sn  Sn28  1  0.336144  0.149426  0.749622  1
  Sn  Sn29  1  0.836144  0.350574  0.750378  1
  Sn  Sn30  1  0.663856  0.850574  0.249622  1
  Sn  Sn31  1  0.163856  0.649426  0.250378  1
  Pb  Pb32  1  0.714411  0.966846  0.956547  1
  Pb  Pb33  1  0.214411  0.533154  0.543453  1
  Pb  Pb34  1  0.285589  0.033154  0.456547  1
  Pb  Pb35  1  0.785589  0.466846  0.043453  1
