# generated using pymatgen
data_Pa2NbMoC4
_symmetry_space_group_name_H-M   'P 1'
_cell_length_a   3.34992300
_cell_length_b   5.79479129
_cell_length_c   11.16703854
_cell_angle_alpha   90.03599492
_cell_angle_beta   90.00000000
_cell_angle_gamma   90.00000000
_symmetry_Int_Tables_number   1
_chemical_formula_structural   Pa2NbMoC4
_chemical_formula_sum   'Pa4 Nb2 Mo2 C8'
_cell_volume   216.77567775
_cell_formula_units_Z   2
loop_
 _symmetry_equiv_pos_site_id
 _symmetry_equiv_pos_as_xyz
  1  'x, y, z'
loop_
 _atom_site_type_symbol
 _atom_site_label
 _atom_site_symmetry_multiplicity
 _atom_site_fract_x
 _atom_site_fract_y
 _atom_site_fract_z
 _atom_site_occupancy
  Pa  Pa0  1  0.250000  0.583968  0.855891  1
  Pa  Pa1  1  0.750000  0.416032  0.144109  1
  Pa  Pa2  1  0.750000  0.920458  0.361053  1
  Pa  Pa3  1  0.250000  0.079542  0.638947  1
  Nb  Nb4  1  0.250000  0.914360  0.105378  1
  Nb  Nb5  1  0.750000  0.085640  0.894622  1
  Mo  Mo6  1  0.750000  0.580936  0.598665  1
  Mo  Mo7  1  0.250000  0.419064  0.401335  1
  C  C8  1  0.250000  0.659938  0.250277  1
  C  C9  1  0.750000  0.340062  0.749723  1
  C  C10  1  0.750000  0.834496  0.741991  1
  C  C11  1  0.250000  0.165504  0.258009  1
  C  C12  1  0.250000  0.742031  0.508900  1
  C  C13  1  0.750000  0.257969  0.491100  1
  C  C14  1  0.750000  0.752576  0.007078  1
  C  C15  1  0.250000  0.247424  0.992922  1
