# generated using pymatgen
data_Na5Rh3O8
_symmetry_space_group_name_H-M   'P 1'
_cell_length_a   6.36195300
_cell_length_b   5.46301998
_cell_length_c   5.61859399
_cell_angle_alpha   70.55766952
_cell_angle_beta   90.00001925
_cell_angle_gamma   90.00002195
_symmetry_Int_Tables_number   1
_chemical_formula_structural   Na5Rh3O8
_chemical_formula_sum   'Na5 Rh3 O8'
_cell_volume   184.14163513
_cell_formula_units_Z   1
loop_
 _symmetry_equiv_pos_site_id
 _symmetry_equiv_pos_as_xyz
  1  'x, y, z'
loop_
 _atom_site_type_symbol
 _atom_site_label
 _atom_site_symmetry_multiplicity
 _atom_site_fract_x
 _atom_site_fract_y
 _atom_site_fract_z
 _atom_site_occupancy
  Na  Na0  1  0.500000  0.000000  0.500000  1
  Na  Na1  1  0.749096  0.500000  0.500000  1
  Na  Na2  1  0.000000  0.000000  0.500000  1
  Na  Na3  1  0.250904  0.500000  0.500000  1
  Na  Na4  1  0.500000  0.500000  0.000000  1
  Rh  Rh5  1  0.252278  0.999999  0.000000  1
  Rh  Rh6  1  0.747722  0.000001  0.000000  1
  Rh  Rh7  1  0.000000  0.500000  0.000000  1
  O  O8  1  0.226588  0.750353  0.797404  1
  O  O9  1  0.499999  0.202286  0.791839  1
  O  O10  1  0.773411  0.750355  0.797402  1
  O  O11  1  0.000001  0.233456  0.802066  1
  O  O12  1  0.773412  0.249647  0.202596  1
  O  O13  1  0.999999  0.766544  0.197934  1
  O  O14  1  0.226589  0.249645  0.202598  1
  O  O15  1  0.500001  0.797714  0.208161  1
