# generated using pymatgen
data_Hf2Fe(CoP)3
_symmetry_space_group_name_H-M   'P 1'
_cell_length_a   12.08477314
_cell_length_b   12.08550048
_cell_length_c   3.65046700
_cell_angle_alpha   90.00000000
_cell_angle_beta   90.00000000
_cell_angle_gamma   120.19645235
_symmetry_Int_Tables_number   1
_chemical_formula_structural   Hf2Fe(CoP)3
_chemical_formula_sum   'Hf8 Fe4 Co12 P12'
_cell_volume   460.80700226
_cell_formula_units_Z   4
loop_
 _symmetry_equiv_pos_site_id
 _symmetry_equiv_pos_as_xyz
  1  'x, y, z'
loop_
 _atom_site_type_symbol
 _atom_site_label
 _atom_site_symmetry_multiplicity
 _atom_site_fract_x
 _atom_site_fract_y
 _atom_site_fract_z
 _atom_site_occupancy
  Hf  Hf0  1  0.821163  0.820311  0.500000  1
  Hf  Hf1  1  0.442882  0.442728  0.000000  1
  Hf  Hf2  1  0.001786  0.179914  0.500000  1
  Hf  Hf3  1  0.556007  0.998900  0.000000  1
  Hf  Hf4  1  0.333716  0.666441  0.000000  1
  Hf  Hf5  1  0.664549  0.333121  0.000000  1
  Hf  Hf6  1  0.999091  0.556317  0.000000  1
  Hf  Hf7  1  0.179207  0.000082  0.500000  1
  Fe  Fe8  1  0.628704  0.822925  0.000000  1
  Fe  Fe9  1  0.373646  0.193996  0.000000  1
  Fe  Fe10  1  0.000420  0.722755  0.500000  1
  Fe  Fe11  1  0.276064  0.278937  0.500000  1
  Co  Co12  1  0.872331  0.354894  0.500000  1
  Co  Co13  1  0.724472  0.002887  0.500000  1
  Co  Co14  1  0.819976  0.628189  0.000000  1
  Co  Co15  1  0.180279  0.807576  0.000000  1
  Co  Co16  1  0.356786  0.871150  0.500000  1
  Co  Co17  1  0.126273  0.481801  0.500000  1
  Co  Co18  1  0.643851  0.516085  0.500000  1
  Co  Co19  1  0.000760  0.000678  0.000000  1
  Co  Co20  1  0.517664  0.643899  0.500000  1
  Co  Co21  1  0.482554  0.125144  0.500000  1
  Co  Co22  1  0.192204  0.373207  0.000000  1
  Co  Co23  1  0.806832  0.178344  0.000000  1
  P  P24  1  0.999893  0.346026  0.000000  1
  P  P25  1  0.826699  0.518957  0.500000  1
  P  P26  1  0.689973  0.173807  0.500000  1
  P  P27  1  0.178691  0.176492  0.000000  1
  P  P28  1  0.653056  0.655159  0.000000  1
  P  P29  1  0.824058  0.998434  0.000000  1
  P  P30  1  0.519377  0.825879  0.500000  1
  P  P31  1  0.172676  0.691203  0.500000  1
  P  P32  1  0.346801  0.002006  0.000000  1
  P  P33  1  0.478407  0.305983  0.500000  1
  P  P34  1  0.000457  0.824294  0.000000  1
  P  P35  1  0.308695  0.481478  0.500000  1
