# generated using pymatgen
data_Sm(Al5Rh)2
_symmetry_space_group_name_H-M   'P 1'
_cell_length_a   6.86665069
_cell_length_b   6.86665084
_cell_length_c   9.18625000
_cell_angle_alpha   90.00000000
_cell_angle_beta   90.00000000
_cell_angle_gamma   97.04291553
_symmetry_Int_Tables_number   1
_chemical_formula_structural   Sm(Al5Rh)2
_chemical_formula_sum   'Sm2 Al20 Rh4'
_cell_volume   429.87167070
_cell_formula_units_Z   2
loop_
 _symmetry_equiv_pos_site_id
 _symmetry_equiv_pos_as_xyz
  1  'x, y, z'
loop_
 _atom_site_type_symbol
 _atom_site_label
 _atom_site_symmetry_multiplicity
 _atom_site_fract_x
 _atom_site_fract_y
 _atom_site_fract_z
 _atom_site_occupancy
  Sm  Sm0  1  0.872570  0.127430  0.750000  1
  Sm  Sm1  1  0.127430  0.872570  0.250000  1
  Al  Al2  1  0.621496  0.378504  0.549531  1
  Al  Al3  1  0.378504  0.621496  0.450469  1
  Al  Al4  1  0.378504  0.621496  0.049531  1
  Al  Al5  1  0.621496  0.378504  0.950469  1
  Al  Al6  1  0.222310  0.222310  0.500000  1
  Al  Al7  1  0.777690  0.777690  0.500000  1
  Al  Al8  1  0.777690  0.777690  0.000000  1
  Al  Al9  1  0.222310  0.222310  0.000000  1
  Al  Al10  1  0.844461  0.155539  0.103558  1
  Al  Al11  1  0.155539  0.844461  0.896442  1
  Al  Al12  1  0.155539  0.844461  0.603558  1
  Al  Al13  1  0.844461  0.155539  0.396442  1
  Al  Al14  1  0.858306  0.594872  0.750000  1
  Al  Al15  1  0.141694  0.405128  0.250000  1
  Al  Al16  1  0.405128  0.141694  0.750000  1
  Al  Al17  1  0.594872  0.858306  0.250000  1
  Al  Al18  1  0.226343  0.480730  0.750000  1
  Al  Al19  1  0.773657  0.519270  0.250000  1
  Al  Al20  1  0.519270  0.773657  0.750000  1
  Al  Al21  1  0.480730  0.226343  0.250000  1
  Rh  Rh22  1  0.000000  0.500000  0.500000  1
  Rh  Rh23  1  0.000000  0.500000  0.000000  1
  Rh  Rh24  1  0.500000  0.000000  0.000000  1
  Rh  Rh25  1  0.500000  0.000000  0.500000  1
