# generated using pymatgen
data_KThPPt8
_symmetry_space_group_name_H-M   'P 1'
_cell_length_a   9.26435531
_cell_length_b   9.33191704
_cell_length_c   4.28702600
_cell_angle_alpha   90.00000000
_cell_angle_beta   90.00000000
_cell_angle_gamma   145.47176100
_symmetry_Int_Tables_number   1
_chemical_formula_structural   KThPPt8
_chemical_formula_sum   'K1 Th1 P1 Pt8'
_cell_volume   210.07844497
_cell_formula_units_Z   1
loop_
 _symmetry_equiv_pos_site_id
 _symmetry_equiv_pos_as_xyz
  1  'x, y, z'
loop_
 _atom_site_type_symbol
 _atom_site_label
 _atom_site_symmetry_multiplicity
 _atom_site_fract_x
 _atom_site_fract_y
 _atom_site_fract_z
 _atom_site_occupancy
  K  K0  1  0.613005  0.377285  0.500000  1
  Th  Th1  1  0.369812  0.627781  0.500000  1
  P  P2  1  0.220121  0.211855  0.000000  1
  Pt  Pt3  1  0.109007  0.885894  0.000000  1
  Pt  Pt4  1  0.897916  0.112881  0.000000  1
  Pt  Pt5  1  0.493486  0.976396  0.000000  1
  Pt  Pt6  1  0.003749  0.491461  0.000000  1
  Pt  Pt7  1  0.194849  0.788203  0.500000  1
  Pt  Pt8  1  0.795414  0.195295  0.500000  1
  Pt  Pt9  1  0.009242  0.012632  0.500000  1
  Pt  Pt10  1  0.607000  0.633915  0.000000  1
