# generated using pymatgen
data_CaSc2Al3Si2Pt
_symmetry_space_group_name_H-M   'P 1'
_cell_length_a   6.72356400
_cell_length_b   6.79007701
_cell_length_c   4.12858800
_cell_angle_alpha   90.00000000
_cell_angle_beta   90.00000000
_cell_angle_gamma   119.67646966
_symmetry_Int_Tables_number   1
_chemical_formula_structural   CaSc2Al3Si2Pt
_chemical_formula_sum   'Ca1 Sc2 Al3 Si2 Pt1'
_cell_volume   163.76197052
_cell_formula_units_Z   1
loop_
 _symmetry_equiv_pos_site_id
 _symmetry_equiv_pos_as_xyz
  1  'x, y, z'
loop_
 _atom_site_type_symbol
 _atom_site_label
 _atom_site_symmetry_multiplicity
 _atom_site_fract_x
 _atom_site_fract_y
 _atom_site_fract_z
 _atom_site_occupancy
  Ca  Ca0  1  0.422628  0.000000  0.000000  1
  Sc  Sc1  1  0.005189  0.419825  0.000000  1
  Sc  Sc2  1  0.585365  0.580176  0.000000  1
  Al  Al3  1  0.759293  0.000000  0.500000  1
  Al  Al4  1  0.238358  0.244481  0.500000  1
  Al  Al5  1  0.993874  0.755518  0.500000  1
  Si  Si6  1  0.676702  0.345635  0.500000  1
  Si  Si7  1  0.331066  0.654364  0.500000  1
  Pt  Pt8  1  0.987525  0.000000  0.000000  1
