# generated using pymatgen
data_Nd(BeP)3
_symmetry_space_group_name_H-M   'P 1'
_cell_length_a   3.70240800
_cell_length_b   10.54432700
_cell_length_c   11.39432400
_cell_angle_alpha   90.00000000
_cell_angle_beta   90.00000000
_cell_angle_gamma   90.00000000
_symmetry_Int_Tables_number   1
_chemical_formula_structural   Nd(BeP)3
_chemical_formula_sum   'Nd4 Be12 P12'
_cell_volume   444.82757965
_cell_formula_units_Z   4
loop_
 _symmetry_equiv_pos_site_id
 _symmetry_equiv_pos_as_xyz
  1  'x, y, z'
loop_
 _atom_site_type_symbol
 _atom_site_label
 _atom_site_symmetry_multiplicity
 _atom_site_fract_x
 _atom_site_fract_y
 _atom_site_fract_z
 _atom_site_occupancy
  Nd  Nd0  1  0.750000  0.941853  0.338395  1
  Nd  Nd1  1  0.250000  0.441853  0.161605  1
  Nd  Nd2  1  0.750000  0.558147  0.838395  1
  Nd  Nd3  1  0.250000  0.058147  0.661605  1
  Be  Be4  1  0.750000  0.242964  0.451518  1
  Be  Be5  1  0.250000  0.742964  0.048482  1
  Be  Be6  1  0.750000  0.257036  0.951518  1
  Be  Be7  1  0.250000  0.757036  0.548482  1
  Be  Be8  1  0.750000  0.645770  0.289632  1
  Be  Be9  1  0.250000  0.145770  0.210368  1
  Be  Be10  1  0.750000  0.854230  0.789632  1
  Be  Be11  1  0.250000  0.354230  0.710368  1
  Be  Be12  1  0.750000  0.039356  0.065002  1
  Be  Be13  1  0.250000  0.539356  0.434998  1
  Be  Be14  1  0.750000  0.460644  0.565002  1
  Be  Be15  1  0.250000  0.960644  0.934998  1
  P  P16  1  0.750000  0.441533  0.372108  1
  P  P17  1  0.250000  0.941533  0.127892  1
  P  P18  1  0.750000  0.058467  0.872108  1
  P  P19  1  0.250000  0.558467  0.627892  1
  P  P20  1  0.750000  0.227290  0.142530  1
  P  P21  1  0.250000  0.727290  0.357470  1
  P  P22  1  0.750000  0.272710  0.642530  1
  P  P23  1  0.250000  0.772710  0.857470  1
  P  P24  1  0.750000  0.641881  0.095353  1
  P  P25  1  0.250000  0.141881  0.404647  1
  P  P26  1  0.750000  0.858119  0.595353  1
  P  P27  1  0.250000  0.358119  0.904647  1
