# generated using pymatgen
data_Dy7Hf3(Si5Ir2)4
_symmetry_space_group_name_H-M   'P 1'
_cell_length_a   12.56669151
_cell_length_b   12.56669151
_cell_length_c   4.19734100
_cell_angle_alpha   90.00000000
_cell_angle_beta   90.00000000
_cell_angle_gamma   90.03253543
_symmetry_Int_Tables_number   1
_chemical_formula_structural   Dy7Hf3(Si5Ir2)4
_chemical_formula_sum   'Dy7 Hf3 Si20 Ir8'
_cell_volume   662.85126800
_cell_formula_units_Z   1
loop_
 _symmetry_equiv_pos_site_id
 _symmetry_equiv_pos_as_xyz
  1  'x, y, z'
loop_
 _atom_site_type_symbol
 _atom_site_label
 _atom_site_symmetry_multiplicity
 _atom_site_fract_x
 _atom_site_fract_y
 _atom_site_fract_z
 _atom_site_occupancy
  Dy  Dy0  1  0.499495  0.501160  0.000000  1
  Dy  Dy1  1  0.998840  0.000505  0.000000  1
  Dy  Dy2  1  0.824673  0.675327  0.500000  1
  Dy  Dy3  1  0.884576  0.382092  0.500000  1
  Dy  Dy4  1  0.117908  0.615424  0.500000  1
  Dy  Dy5  1  0.384674  0.115326  0.500000  1
  Dy  Dy6  1  0.611118  0.888882  0.500000  1
  Hf  Hf7  1  0.674092  0.174117  0.500000  1
  Hf  Hf8  1  0.325883  0.825908  0.500000  1
  Hf  Hf9  1  0.174457  0.325543  0.500000  1
  Si  Si10  1  0.565801  0.067656  0.000000  1
  Si  Si11  1  0.432344  0.934199  0.000000  1
  Si  Si12  1  0.067540  0.432460  0.000000  1
  Si  Si13  1  0.934809  0.565191  0.000000  1
  Si  Si14  1  0.661759  0.701827  0.000000  1
  Si  Si15  1  0.334663  0.299910  0.000000  1
  Si  Si16  1  0.166673  0.800862  0.000000  1
  Si  Si17  1  0.834784  0.200115  0.000000  1
  Si  Si18  1  0.299885  0.665216  0.000000  1
  Si  Si19  1  0.699138  0.333327  0.000000  1
  Si  Si20  1  0.200090  0.165337  0.000000  1
  Si  Si21  1  0.798173  0.838241  0.000000  1
  Si  Si22  1  0.656616  0.498293  0.500000  1
  Si  Si23  1  0.343026  0.490673  0.500000  1
  Si  Si24  1  0.156883  0.991238  0.500000  1
  Si  Si25  1  0.840517  0.004590  0.500000  1
  Si  Si26  1  0.495410  0.659483  0.500000  1
  Si  Si27  1  0.508762  0.343117  0.500000  1
  Si  Si28  1  0.009327  0.156974  0.500000  1
  Si  Si29  1  0.001707  0.843384  0.500000  1
  Ir  Ir30  1  0.744210  0.518552  0.000000  1
  Ir  Ir31  1  0.254067  0.478375  0.000000  1
  Ir  Ir32  1  0.245910  0.979886  0.000000  1
  Ir  Ir33  1  0.752803  0.023802  0.000000  1
  Ir  Ir34  1  0.476198  0.747197  0.000000  1
  Ir  Ir35  1  0.520114  0.254090  0.000000  1
  Ir  Ir36  1  0.021625  0.245933  0.000000  1
  Ir  Ir37  1  0.981448  0.755790  0.000000  1
