# generated using pymatgen
data_BaGa2AgF9
_symmetry_space_group_name_H-M   'P 1'
_cell_length_a   7.41364045
_cell_length_b   7.41364179
_cell_length_c   7.91801535
_cell_angle_alpha   89.12826724
_cell_angle_beta   89.12826633
_cell_angle_gamma   119.48731866
_symmetry_Int_Tables_number   1
_chemical_formula_structural   BaGa2AgF9
_chemical_formula_sum   'Ba2 Ga4 Ag2 F18'
_cell_volume   378.64527265
_cell_formula_units_Z   2
loop_
 _symmetry_equiv_pos_site_id
 _symmetry_equiv_pos_as_xyz
  1  'x, y, z'
loop_
 _atom_site_type_symbol
 _atom_site_label
 _atom_site_symmetry_multiplicity
 _atom_site_fract_x
 _atom_site_fract_y
 _atom_site_fract_z
 _atom_site_occupancy
  Ba  Ba0  1  0.471844  0.528156  0.750000  1
  Ba  Ba1  1  0.528156  0.471844  0.250000  1
  Ga  Ga2  1  0.000000  0.000000  0.500000  1
  Ga  Ga3  1  0.000000  0.000000  0.000000  1
  Ga  Ga4  1  0.500000  0.000000  0.500000  1
  Ga  Ga5  1  0.000000  0.500000  0.000000  1
  Ag  Ag6  1  0.500000  0.000000  0.000000  1
  Ag  Ag7  1  0.000000  0.500000  0.500000  1
  F  F8  1  0.201761  0.911229  0.534983  1
  F  F9  1  0.798239  0.088771  0.465017  1
  F  F10  1  0.088771  0.798239  0.965017  1
  F  F11  1  0.911229  0.201761  0.034983  1
  F  F12  1  0.980217  0.019783  0.750000  1
  F  F13  1  0.019783  0.980217  0.250000  1
  F  F14  1  0.513176  0.913825  0.723020  1
  F  F15  1  0.486824  0.086175  0.276980  1
  F  F16  1  0.086175  0.486824  0.776980  1
  F  F17  1  0.913825  0.513176  0.223020  1
  F  F18  1  0.578307  0.278466  0.560029  1
  F  F19  1  0.421693  0.721534  0.439971  1
  F  F20  1  0.721534  0.421693  0.939971  1
  F  F21  1  0.278466  0.578307  0.060029  1
  F  F22  1  0.719320  0.790784  0.013141  1
  F  F23  1  0.280680  0.209216  0.986859  1
  F  F24  1  0.209216  0.280680  0.486859  1
  F  F25  1  0.790784  0.719320  0.513141  1
