# generated using pymatgen
data_Dy4Cd2Cu3Ir
_symmetry_space_group_name_H-M   'P 1'
_cell_length_a   7.55080106
_cell_length_b   7.55080106
_cell_length_c   3.74772600
_cell_angle_alpha   90.00000000
_cell_angle_beta   90.00000000
_cell_angle_gamma   89.89687852
_symmetry_Int_Tables_number   1
_chemical_formula_structural   Dy4Cd2Cu3Ir
_chemical_formula_sum   'Dy4 Cd2 Cu3 Ir1'
_cell_volume   213.67474001
_cell_formula_units_Z   1
loop_
 _symmetry_equiv_pos_site_id
 _symmetry_equiv_pos_as_xyz
  1  'x, y, z'
loop_
 _atom_site_type_symbol
 _atom_site_label
 _atom_site_symmetry_multiplicity
 _atom_site_fract_x
 _atom_site_fract_y
 _atom_site_fract_z
 _atom_site_occupancy
  Dy  Dy0  1  0.670371  0.170371  0.500000  1
  Dy  Dy1  1  0.316923  0.816923  0.500000  1
  Dy  Dy2  1  0.180795  0.338981  0.500000  1
  Dy  Dy3  1  0.838981  0.680795  0.500000  1
  Cd  Cd4  1  0.998872  0.007909  0.000000  1
  Cd  Cd5  1  0.507909  0.498872  0.000000  1
  Cu  Cu6  1  0.873148  0.373148  0.000000  1
  Cu  Cu7  1  0.617287  0.879039  0.000000  1
  Cu  Cu8  1  0.379039  0.117287  0.000000  1
  Ir  Ir9  1  0.116675  0.616675  0.000000  1
