# generated using pymatgen
data_Tm4B16OsRu3
_symmetry_space_group_name_H-M   'P 1'
_cell_length_a   3.53709900
_cell_length_b   5.93047503
_cell_length_c   11.47424806
_cell_angle_alpha   90.01205069
_cell_angle_beta   90.00000000
_cell_angle_gamma   90.00000000
_symmetry_Int_Tables_number   1
_chemical_formula_structural   Tm4B16OsRu3
_chemical_formula_sum   'Tm4 B16 Os1 Ru3'
_cell_volume   240.69159366
_cell_formula_units_Z   1
loop_
 _symmetry_equiv_pos_site_id
 _symmetry_equiv_pos_as_xyz
  1  'x, y, z'
loop_
 _atom_site_type_symbol
 _atom_site_label
 _atom_site_symmetry_multiplicity
 _atom_site_fract_x
 _atom_site_fract_y
 _atom_site_fract_z
 _atom_site_occupancy
  Tm  Tm0  1  0.500000  0.129171  0.149697  1
  Tm  Tm1  1  0.500000  0.870830  0.850301  1
  Tm  Tm2  1  0.500000  0.629177  0.350018  1
  Tm  Tm3  1  0.500000  0.370780  0.649922  1
  B  B4  1  0.000000  0.476802  0.192543  1
  B  B5  1  0.000000  0.523409  0.807428  1
  B  B6  1  0.000000  0.976283  0.307456  1
  B  B7  1  0.000000  0.023532  0.692540  1
  B  B8  1  0.000000  0.290726  0.313818  1
  B  B9  1  0.000000  0.709377  0.686097  1
  B  B10  1  0.000000  0.790541  0.186006  1
  B  B11  1  0.000000  0.209402  0.814055  1
  B  B12  1  0.000000  0.364761  0.470243  1
  B  B13  1  0.000000  0.635264  0.529879  1
  B  B14  1  0.000000  0.864849  0.029915  1
  B  B15  1  0.000000  0.135114  0.970023  1
  B  B16  1  0.000000  0.387273  0.047159  1
  B  B17  1  0.000000  0.612744  0.952793  1
  B  B18  1  0.000000  0.887069  0.452720  1
  B  B19  1  0.000000  0.112931  0.547292  1
  Os  Os20  1  0.500000  0.141765  0.406814  1
  Ru  Ru21  1  0.500000  0.858157  0.593233  1
  Ru  Ru22  1  0.500000  0.641246  0.093172  1
  Ru  Ru23  1  0.500000  0.358797  0.906874  1
