# generated using pymatgen
data_Sc6Nb3Al13FeRu6
_symmetry_space_group_name_H-M   'P 1'
_cell_length_a   8.82775240
_cell_length_b   8.82775153
_cell_length_c   8.82775177
_cell_angle_alpha   59.67784338
_cell_angle_beta   59.67784847
_cell_angle_gamma   59.67783894
_symmetry_Int_Tables_number   1
_chemical_formula_structural   Sc6Nb3Al13FeRu6
_chemical_formula_sum   'Sc6 Nb3 Al13 Fe1 Ru6'
_cell_volume   482.88662873
_cell_formula_units_Z   1
loop_
 _symmetry_equiv_pos_site_id
 _symmetry_equiv_pos_as_xyz
  1  'x, y, z'
loop_
 _atom_site_type_symbol
 _atom_site_label
 _atom_site_symmetry_multiplicity
 _atom_site_fract_x
 _atom_site_fract_y
 _atom_site_fract_z
 _atom_site_occupancy
  Sc  Sc0  1  0.710909  0.710909  0.281802  1
  Sc  Sc1  1  0.292207  0.708698  0.292207  1
  Sc  Sc2  1  0.708698  0.292207  0.292207  1
  Sc  Sc3  1  0.292207  0.292207  0.708698  1
  Sc  Sc4  1  0.710909  0.281802  0.710909  1
  Sc  Sc5  1  0.281802  0.710909  0.710909  1
  Nb  Nb6  1  0.880504  0.880504  0.354358  1
  Nb  Nb7  1  0.880504  0.354358  0.880504  1
  Nb  Nb8  1  0.354358  0.880504  0.880504  1
  Al  Al9  1  0.883481  0.883481  0.883481  1
  Al  Al10  1  0.117928  0.117928  0.645182  1
  Al  Al11  1  0.117928  0.645182  0.117928  1
  Al  Al12  1  0.645182  0.117928  0.117928  1
  Al  Al13  1  0.119497  0.119497  0.119497  1
  Al  Al14  1  0.667430  0.667430  0.001434  1
  Al  Al15  1  0.667430  0.001434  0.667430  1
  Al  Al16  1  0.001434  0.667430  0.667430  1
  Al  Al17  1  0.663484  0.663484  0.663484  1
  Al  Al18  1  0.335181  0.335181  0.997377  1
  Al  Al19  1  0.335181  0.997377  0.335181  1
  Al  Al20  1  0.997377  0.335181  0.335181  1
  Al  Al21  1  0.334714  0.334714  0.334714  1
  Fe  Fe22  1  0.003504  0.003504  0.003504  1
  Ru  Ru23  1  0.999370  0.999370  0.498757  1
  Ru  Ru24  1  0.501425  0.997805  0.501425  1
  Ru  Ru25  1  0.997805  0.501425  0.501425  1
  Ru  Ru26  1  0.501425  0.501425  0.997805  1
  Ru  Ru27  1  0.999370  0.498757  0.999370  1
  Ru  Ru28  1  0.498757  0.999370  0.999370  1
