# generated using pymatgen
data_Hf6Al6Ir5Pt
_symmetry_space_group_name_H-M   'P 1'
_cell_length_a   7.16023500
_cell_length_b   7.16023576
_cell_length_c   7.02783000
_cell_angle_alpha   90.00000000
_cell_angle_beta   90.00000000
_cell_angle_gamma   120.00000109
_symmetry_Int_Tables_number   1
_chemical_formula_structural   Hf6Al6Ir5Pt
_chemical_formula_sum   'Hf6 Al6 Ir5 Pt1'
_cell_volume   312.03727249
_cell_formula_units_Z   1
loop_
 _symmetry_equiv_pos_site_id
 _symmetry_equiv_pos_as_xyz
  1  'x, y, z'
loop_
 _atom_site_type_symbol
 _atom_site_label
 _atom_site_symmetry_multiplicity
 _atom_site_fract_x
 _atom_site_fract_y
 _atom_site_fract_z
 _atom_site_occupancy
  Hf  Hf0  1  0.591492  0.996755  0.750000  1
  Hf  Hf1  1  0.003245  0.594737  0.750000  1
  Hf  Hf2  1  0.405263  0.408508  0.750000  1
  Hf  Hf3  1  0.996848  0.598666  0.250000  1
  Hf  Hf4  1  0.601818  0.003152  0.250000  1
  Hf  Hf5  1  0.401334  0.398182  0.250000  1
  Al  Al6  1  0.738320  0.738334  0.002049  1
  Al  Al7  1  0.261666  0.999986  0.002049  1
  Al  Al8  1  0.000014  0.261680  0.002049  1
  Al  Al9  1  0.738320  0.738334  0.497951  1
  Al  Al10  1  0.261666  0.999986  0.497951  1
  Al  Al11  1  0.000014  0.261680  0.497951  1
  Ir  Ir12  1  0.000000  0.000000  0.250000  1
  Ir  Ir13  1  0.666667  0.333333  0.994631  1
  Ir  Ir14  1  0.666667  0.333333  0.505369  1
  Ir  Ir15  1  0.333333  0.666667  0.496595  1
  Ir  Ir16  1  0.333333  0.666667  0.003406  1
  Pt  Pt17  1  0.000000  0.000000  0.750000  1
