# generated using pymatgen
data_TbTmLu2(WO6)2
_symmetry_space_group_name_H-M   'P 1'
_cell_length_a   5.34757500
_cell_length_b   7.63046671
_cell_length_c   11.34636612
_cell_angle_alpha   75.31587596
_cell_angle_beta   90.00000000
_cell_angle_gamma   90.00000000
_symmetry_Int_Tables_number   1
_chemical_formula_structural   TbTmLu2(WO6)2
_chemical_formula_sum   'Tb2 Tm2 Lu4 W4 O24'
_cell_volume   447.86078885
_cell_formula_units_Z   2
loop_
 _symmetry_equiv_pos_site_id
 _symmetry_equiv_pos_as_xyz
  1  'x, y, z'
loop_
 _atom_site_type_symbol
 _atom_site_label
 _atom_site_symmetry_multiplicity
 _atom_site_fract_x
 _atom_site_fract_y
 _atom_site_fract_z
 _atom_site_occupancy
  Tb  Tb0  1  0.314876  0.500000  0.750000  1
  Tb  Tb1  1  0.685124  0.500000  0.250000  1
  Tm  Tm2  1  0.257922  0.000000  0.750000  1
  Tm  Tm3  1  0.742078  0.000000  0.250000  1
  Lu  Lu4  1  0.183184  0.795115  0.078690  1
  Lu  Lu5  1  0.183184  0.204885  0.421310  1
  Lu  Lu6  1  0.816816  0.204885  0.921310  1
  Lu  Lu7  1  0.816816  0.795115  0.578690  1
  W  W8  1  0.743905  0.724943  0.885499  1
  W  W9  1  0.256095  0.724943  0.385499  1
  W  W10  1  0.743905  0.275057  0.614501  1
  W  W11  1  0.256095  0.275057  0.114501  1
  O  O12  1  0.540994  0.154757  0.068341  1
  O  O13  1  0.043913  0.057304  0.103795  1
  O  O14  1  0.018557  0.714574  0.769554  1
  O  O15  1  0.459006  0.154757  0.568341  1
  O  O16  1  0.356410  0.487663  0.386654  1
  O  O17  1  0.956087  0.057304  0.603795  1
  O  O18  1  0.542437  0.794659  0.724877  1
  O  O19  1  0.457563  0.794659  0.224877  1
  O  O20  1  0.145534  0.635999  0.549479  1
  O  O21  1  0.043913  0.942696  0.396205  1
  O  O22  1  0.459006  0.845243  0.931659  1
  O  O23  1  0.457563  0.205341  0.275123  1
  O  O24  1  0.854466  0.364001  0.450521  1
  O  O25  1  0.643590  0.487663  0.886654  1
  O  O26  1  0.356410  0.512337  0.113346  1
  O  O27  1  0.956087  0.942696  0.896205  1
  O  O28  1  0.540994  0.845243  0.431659  1
  O  O29  1  0.981443  0.285426  0.230446  1
  O  O30  1  0.542437  0.205341  0.775123  1
  O  O31  1  0.854466  0.635999  0.049479  1
  O  O32  1  0.018557  0.285426  0.730446  1
  O  O33  1  0.145534  0.364001  0.950521  1
  O  O34  1  0.981443  0.714574  0.269554  1
  O  O35  1  0.643590  0.512337  0.613346  1
