# generated using pymatgen
data_Dy2Ho2Al17GaIr6
_symmetry_space_group_name_H-M   'P 1'
_cell_length_a   7.54409715
_cell_length_b   7.54409714
_cell_length_c   9.48859100
_cell_angle_alpha   90.00000000
_cell_angle_beta   90.00000000
_cell_angle_gamma   119.38693385
_symmetry_Int_Tables_number   1
_chemical_formula_structural   Dy2Ho2Al17GaIr6
_chemical_formula_sum   'Dy2 Ho2 Al17 Ga1 Ir6'
_cell_volume   470.54028819
_cell_formula_units_Z   1
loop_
 _symmetry_equiv_pos_site_id
 _symmetry_equiv_pos_as_xyz
  1  'x, y, z'
loop_
 _atom_site_type_symbol
 _atom_site_label
 _atom_site_symmetry_multiplicity
 _atom_site_fract_x
 _atom_site_fract_y
 _atom_site_fract_z
 _atom_site_occupancy
  Dy  Dy0  1  0.993685  0.675057  0.250000  1
  Dy  Dy1  1  0.675057  0.993685  0.250000  1
  Ho  Ho2  1  0.004764  0.327514  0.750000  1
  Ho  Ho3  1  0.327514  0.004764  0.750000  1
  Al  Al4  1  0.869704  0.869704  0.750000  1
  Al  Al5  1  0.001390  0.335896  0.073277  1
  Al  Al6  1  0.998663  0.664130  0.925476  1
  Al  Al7  1  0.998663  0.664130  0.574524  1
  Al  Al8  1  0.335896  0.001390  0.426723  1
  Al  Al9  1  0.001390  0.335896  0.426723  1
  Al  Al10  1  0.664130  0.998663  0.574524  1
  Al  Al11  1  0.664130  0.998663  0.925476  1
  Al  Al12  1  0.335896  0.001390  0.073277  1
  Al  Al13  1  0.332845  0.332845  0.553944  1
  Al  Al14  1  0.665587  0.665587  0.449984  1
  Al  Al15  1  0.665587  0.665587  0.050016  1
  Al  Al16  1  0.332845  0.332845  0.946056  1
  Al  Al17  1  0.339039  0.550140  0.250000  1
  Al  Al18  1  0.660346  0.450511  0.750000  1
  Al  Al19  1  0.550140  0.339039  0.250000  1
  Al  Al20  1  0.450511  0.660346  0.750000  1
  Ga  Ga21  1  0.135666  0.135666  0.250000  1
  Ir  Ir22  1  0.671382  0.327565  0.000181  1
  Ir  Ir23  1  0.327565  0.671382  0.000181  1
  Ir  Ir24  1  0.327565  0.671382  0.499819  1
  Ir  Ir25  1  0.671382  0.327565  0.499819  1
  Ir  Ir26  1  0.999332  0.999332  0.997729  1
  Ir  Ir27  1  0.999332  0.999332  0.502271  1
