# generated using pymatgen
data_Er4MnPd3F28
_symmetry_space_group_name_H-M   'P 1'
_cell_length_a   5.47095803
_cell_length_b   8.74933620
_cell_length_c   11.80070621
_cell_angle_alpha   62.56795739
_cell_angle_beta   90.11255998
_cell_angle_gamma   90.05674116
_symmetry_Int_Tables_number   1
_chemical_formula_structural   Er4MnPd3F28
_chemical_formula_sum   'Er4 Mn1 Pd3 F28'
_cell_volume   501.35151369
_cell_formula_units_Z   1
loop_
 _symmetry_equiv_pos_site_id
 _symmetry_equiv_pos_as_xyz
  1  'x, y, z'
loop_
 _atom_site_type_symbol
 _atom_site_label
 _atom_site_symmetry_multiplicity
 _atom_site_fract_x
 _atom_site_fract_y
 _atom_site_fract_z
 _atom_site_occupancy
  Er  Er0  1  0.762332  0.816251  0.762759  1
  Er  Er1  1  0.263665  0.187538  0.733331  1
  Er  Er2  1  0.238878  0.186461  0.237472  1
  Er  Er3  1  0.737301  0.811212  0.265295  1
  Mn  Mn4  1  0.740725  0.274936  0.455819  1
  Pd  Pd5  1  0.760890  0.272186  0.956526  1
  Pd  Pd6  1  0.257881  0.728088  0.542631  1
  Pd  Pd7  1  0.240375  0.727371  0.043248  1
  F  F8  1  0.433045  0.700573  0.915529  1
  F  F9  1  0.944178  0.293064  0.573152  1
  F  F10  1  0.572196  0.297997  0.086253  1
  F  F11  1  0.065970  0.699747  0.415027  1
  F  F12  1  0.463802  0.282234  0.544016  1
  F  F13  1  0.935644  0.724464  0.958178  1
  F  F14  1  0.562486  0.718430  0.460124  1
  F  F15  1  0.066944  0.274693  0.041102  1
  F  F16  1  0.782221  0.522501  0.857157  1
  F  F17  1  0.270341  0.478707  0.642106  1
  F  F18  1  0.220549  0.477327  0.142667  1
  F  F19  1  0.727690  0.511906  0.362503  1
  F  F20  1  0.751140  0.022725  0.048866  1
  F  F21  1  0.255441  0.977473  0.450818  1
  F  F22  1  0.246724  0.976687  0.950736  1
  F  F23  1  0.741394  0.038865  0.547928  1
  F  F24  1  0.959382  0.729435  0.631081  1
  F  F25  1  0.462840  0.277906  0.864073  1
  F  F26  1  0.006969  0.270686  0.361991  1
  F  F27  1  0.536815  0.721065  0.136788  1
  F  F28  1  0.054154  0.745657  0.177370  1
  F  F29  1  0.541158  0.257183  0.334778  1
  F  F30  1  0.943409  0.252995  0.821029  1
  F  F31  1  0.444775  0.747475  0.676256  1
  F  F32  1  0.415558  0.969595  0.233650  1
  F  F33  1  0.915678  0.027905  0.267861  1
  F  F34  1  0.587596  0.029371  0.770992  1
  F  F35  1  0.089854  0.969295  0.730884  1
