# generated using pymatgen
data_Rb2Zn2S2ClO8F
_symmetry_space_group_name_H-M   'P 1'
_cell_length_a   9.57325600
_cell_length_b   7.18364820
_cell_length_c   8.28883800
_cell_angle_alpha   84.31059752
_cell_angle_beta   90.00000000
_cell_angle_gamma   90.00000000
_symmetry_Int_Tables_number   1
_chemical_formula_structural   Rb2Zn2S2ClO8F
_chemical_formula_sum   'Rb4 Zn4 S4 Cl2 O16 F2'
_cell_volume   567.22286035
_cell_formula_units_Z   2
loop_
 _symmetry_equiv_pos_site_id
 _symmetry_equiv_pos_as_xyz
  1  'x, y, z'
loop_
 _atom_site_type_symbol
 _atom_site_label
 _atom_site_symmetry_multiplicity
 _atom_site_fract_x
 _atom_site_fract_y
 _atom_site_fract_z
 _atom_site_occupancy
  Rb  Rb0  1  0.393232  0.619554  0.702535  1
  Rb  Rb1  1  0.922914  0.383366  0.753431  1
  Rb  Rb2  1  0.077086  0.616634  0.246569  1
  Rb  Rb3  1  0.606768  0.380446  0.297465  1
  Zn  Zn4  1  0.700827  0.898992  0.033500  1
  Zn  Zn5  1  0.799314  0.889946  0.538119  1
  Zn  Zn6  1  0.200686  0.110054  0.461881  1
  Zn  Zn7  1  0.299173  0.101008  0.966500  1
  S  S8  1  0.930497  0.103860  0.229100  1
  S  S9  1  0.069503  0.896140  0.770900  1
  S  S10  1  0.432185  0.897174  0.272347  1
  S  S11  1  0.567815  0.102826  0.727653  1
  Cl  Cl12  1  0.681498  0.617823  0.953116  1
  Cl  Cl13  1  0.318502  0.382177  0.046884  1
  O  O14  1  0.616289  0.952041  0.627376  1
  O  O15  1  0.839432  0.109586  0.377875  1
  O  O16  1  0.664268  0.114274  0.870107  1
  O  O17  1  0.425939  0.038263  0.786431  1
  O  O18  1  0.436494  0.713407  0.364813  1
  O  O19  1  0.563506  0.286593  0.635187  1
  O  O20  1  0.160568  0.890414  0.622125  1
  O  O21  1  0.335732  0.885726  0.129893  1
  O  O22  1  0.383711  0.047959  0.372624  1
  O  O23  1  0.117846  0.052323  0.865396  1
  O  O24  1  0.882154  0.947677  0.134604  1
  O  O25  1  0.574061  0.961737  0.213569  1
  O  O26  1  0.924399  0.952286  0.719016  1
  O  O27  1  0.075004  0.713686  0.864819  1
  O  O28  1  0.924996  0.286314  0.135181  1
  O  O29  1  0.075601  0.047714  0.280984  1
  F  F30  1  0.167148  0.352291  0.521249  1
  F  F31  1  0.832852  0.647709  0.478751  1
