# generated using pymatgen
data_Y12Er4MgCd3Ir3Pd
_symmetry_space_group_name_H-M   'P 1'
_cell_length_a   9.64389364
_cell_length_b   9.64389248
_cell_length_c   9.64389200
_cell_angle_alpha   60.14668892
_cell_angle_beta   60.14669288
_cell_angle_gamma   60.14668628
_symmetry_Int_Tables_number   1
_chemical_formula_structural   Y12Er4MgCd3Ir3Pd
_chemical_formula_sum   'Y12 Er4 Mg1 Cd3 Ir3 Pd1'
_cell_volume   636.33053130
_cell_formula_units_Z   1
loop_
 _symmetry_equiv_pos_site_id
 _symmetry_equiv_pos_as_xyz
  1  'x, y, z'
loop_
 _atom_site_type_symbol
 _atom_site_label
 _atom_site_symmetry_multiplicity
 _atom_site_fract_x
 _atom_site_fract_y
 _atom_site_fract_z
 _atom_site_occupancy
  Y  Y0  1  0.803291  0.191805  0.191805  1
  Y  Y1  1  0.188164  0.810726  0.810726  1
  Y  Y2  1  0.191805  0.803291  0.191805  1
  Y  Y3  1  0.810726  0.188164  0.810726  1
  Y  Y4  1  0.191805  0.191805  0.803291  1
  Y  Y5  1  0.810726  0.810726  0.188164  1
  Y  Y6  1  0.940235  0.562960  0.562960  1
  Y  Y7  1  0.564075  0.937976  0.937976  1
  Y  Y8  1  0.562960  0.940235  0.562960  1
  Y  Y9  1  0.937976  0.564075  0.937976  1
  Y  Y10  1  0.562960  0.562960  0.940235  1
  Y  Y11  1  0.937976  0.937976  0.564075  1
  Er  Er12  1  0.347139  0.347139  0.347139  1
  Er  Er13  1  0.352309  0.352309  0.951089  1
  Er  Er14  1  0.352309  0.951089  0.352309  1
  Er  Er15  1  0.951089  0.352309  0.352309  1
  Mg  Mg16  1  0.576593  0.576593  0.576593  1
  Cd  Cd17  1  0.580757  0.580757  0.256422  1
  Cd  Cd18  1  0.580757  0.256422  0.580757  1
  Cd  Cd19  1  0.256422  0.580757  0.580757  1
  Ir  Ir20  1  0.142383  0.142383  0.570934  1
  Ir  Ir21  1  0.142383  0.570934  0.142383  1
  Ir  Ir22  1  0.570934  0.142383  0.142383  1
  Pd  Pd23  1  0.144230  0.144230  0.144230  1
