# generated using pymatgen
data_Dy6CuSi4Rh
_symmetry_space_group_name_H-M   'P 1'
_cell_length_a   4.17920600
_cell_length_b   11.28627800
_cell_length_c   11.41496900
_cell_angle_alpha   90.00000000
_cell_angle_beta   90.00000000
_cell_angle_gamma   90.00000000
_symmetry_Int_Tables_number   1
_chemical_formula_structural   Dy6CuSi4Rh
_chemical_formula_sum   'Dy12 Cu2 Si8 Rh2'
_cell_volume   538.41761339
_cell_formula_units_Z   2
loop_
 _symmetry_equiv_pos_site_id
 _symmetry_equiv_pos_as_xyz
  1  'x, y, z'
loop_
 _atom_site_type_symbol
 _atom_site_label
 _atom_site_symmetry_multiplicity
 _atom_site_fract_x
 _atom_site_fract_y
 _atom_site_fract_z
 _atom_site_occupancy
  Dy  Dy0  1  0.250000  0.058557  0.876880  1
  Dy  Dy1  1  0.250000  0.441443  0.376880  1
  Dy  Dy2  1  0.750000  0.938277  0.119012  1
  Dy  Dy3  1  0.750000  0.561723  0.619012  1
  Dy  Dy4  1  0.250000  0.120282  0.556846  1
  Dy  Dy5  1  0.250000  0.379718  0.056846  1
  Dy  Dy6  1  0.750000  0.875095  0.441481  1
  Dy  Dy7  1  0.750000  0.624905  0.941481  1
  Dy  Dy8  1  0.250000  0.803789  0.713367  1
  Dy  Dy9  1  0.250000  0.696211  0.213367  1
  Dy  Dy10  1  0.750000  0.195663  0.289884  1
  Dy  Dy11  1  0.750000  0.304337  0.789884  1
  Cu  Cu12  1  0.250000  0.363627  0.630680  1
  Cu  Cu13  1  0.250000  0.136373  0.130680  1
  Si  Si14  1  0.250000  0.813285  0.981688  1
  Si  Si15  1  0.250000  0.686715  0.481688  1
  Si  Si16  1  0.750000  0.187629  0.025047  1
  Si  Si17  1  0.750000  0.312371  0.525047  1
  Si  Si18  1  0.250000  0.496091  0.805007  1
  Si  Si19  1  0.250000  0.003909  0.305007  1
  Si  Si20  1  0.750000  0.501857  0.191689  1
  Si  Si21  1  0.750000  0.998143  0.691689  1
  Rh  Rh22  1  0.750000  0.633593  0.368418  1
  Rh  Rh23  1  0.750000  0.866407  0.868418  1
