# generated using pymatgen
data_Tb14Ho6CoRh11
_symmetry_space_group_name_H-M   'P 1'
_cell_length_a   10.92296273
_cell_length_b   10.93272967
_cell_length_c   6.38742000
_cell_angle_alpha   90.09587445
_cell_angle_beta   90.05329896
_cell_angle_gamma   90.10774989
_symmetry_Int_Tables_number   1
_chemical_formula_structural   Tb14Ho6CoRh11
_chemical_formula_sum   'Tb14 Ho6 Co1 Rh11'
_cell_volume   762.76888670
_cell_formula_units_Z   1
loop_
 _symmetry_equiv_pos_site_id
 _symmetry_equiv_pos_as_xyz
  1  'x, y, z'
loop_
 _atom_site_type_symbol
 _atom_site_label
 _atom_site_symmetry_multiplicity
 _atom_site_fract_x
 _atom_site_fract_y
 _atom_site_fract_z
 _atom_site_occupancy
  Tb  Tb0  1  0.289625  0.089410  0.380846  1
  Tb  Tb1  1  0.290649  0.906659  0.880746  1
  Tb  Tb2  1  0.709202  0.088418  0.881751  1
  Tb  Tb3  1  0.708298  0.910401  0.381370  1
  Tb  Tb4  1  0.586666  0.789217  0.881417  1
  Tb  Tb5  1  0.588984  0.209899  0.381548  1
  Tb  Tb6  1  0.409024  0.788556  0.387299  1
  Tb  Tb7  1  0.410143  0.208524  0.881583  1
  Tb  Tb8  1  0.210841  0.413470  0.618520  1
  Tb  Tb9  1  0.211553  0.590322  0.112879  1
  Tb  Tb10  1  0.790417  0.411298  0.117784  1
  Tb  Tb11  1  0.791647  0.589343  0.618369  1
  Tb  Tb12  1  0.911949  0.709989  0.118432  1
  Tb  Tb13  1  0.912337  0.290610  0.618094  1
  Ho  Ho14  1  0.092213  0.707674  0.617619  1
  Ho  Ho15  1  0.088952  0.292666  0.117712  1
  Ho  Ho16  1  0.999433  0.998690  0.501589  1
  Ho  Ho17  1  0.000904  0.001361  0.001069  1
  Ho  Ho18  1  0.497693  0.501089  0.998024  1
  Ho  Ho19  1  0.498768  0.502400  0.501831  1
  Co  Co20  1  0.347707  0.651210  0.749409  1
  Rh  Rh21  1  0.848251  0.153587  0.249329  1
  Rh  Rh22  1  0.846891  0.847223  0.750591  1
  Rh  Rh23  1  0.152157  0.154130  0.751005  1
  Rh  Rh24  1  0.152118  0.847533  0.252078  1
  Rh  Rh25  1  0.653034  0.346973  0.749661  1
  Rh  Rh26  1  0.653867  0.652639  0.249622  1
  Rh  Rh27  1  0.346236  0.346134  0.249486  1
  Rh  Rh28  1  0.499287  0.999864  0.129246  1
  Rh  Rh29  1  0.499645  0.000063  0.628215  1
  Rh  Rh30  1  0.000684  0.500195  0.871877  1
  Rh  Rh31  1  0.000827  0.500451  0.371002  1
