# generated using pymatgen
data_Nd2Ni3H3Pd14
_symmetry_space_group_name_H-M   'P 1'
_cell_length_a   6.90620435
_cell_length_b   6.90620441
_cell_length_c   6.90620449
_cell_angle_alpha   83.20899814
_cell_angle_beta   83.20900817
_cell_angle_gamma   83.20900649
_symmetry_Int_Tables_number   1
_chemical_formula_structural   Nd2Ni3H3Pd14
_chemical_formula_sum   'Nd2 Ni3 H3 Pd14'
_cell_volume   322.96920092
_cell_formula_units_Z   1
loop_
 _symmetry_equiv_pos_site_id
 _symmetry_equiv_pos_as_xyz
  1  'x, y, z'
loop_
 _atom_site_type_symbol
 _atom_site_label
 _atom_site_symmetry_multiplicity
 _atom_site_fract_x
 _atom_site_fract_y
 _atom_site_fract_z
 _atom_site_occupancy
  Nd  Nd0  1  0.666998  0.666998  0.666998  1
  Nd  Nd1  1  0.333002  0.333002  0.333002  1
  Ni  Ni2  1  0.000000  0.000000  0.500000  1
  Ni  Ni3  1  0.500000  0.000000  0.000000  1
  Ni  Ni4  1  0.000000  0.500000  0.000000  1
  H  H5  1  0.500000  0.500000  0.000000  1
  H  H6  1  0.000000  0.500000  0.500000  1
  H  H7  1  0.500000  0.000000  0.500000  1
  Pd  Pd8  1  0.705696  0.294304  0.000000  1
  Pd  Pd9  1  0.000000  0.705696  0.294304  1
  Pd  Pd10  1  0.294304  0.000000  0.705696  1
  Pd  Pd11  1  0.000000  0.294304  0.705696  1
  Pd  Pd12  1  0.705696  0.000000  0.294304  1
  Pd  Pd13  1  0.294304  0.705696  0.000000  1
  Pd  Pd14  1  0.346244  0.346244  0.856469  1
  Pd  Pd15  1  0.856469  0.346244  0.346244  1
  Pd  Pd16  1  0.346244  0.856469  0.346244  1
  Pd  Pd17  1  0.653756  0.653756  0.143531  1
  Pd  Pd18  1  0.143531  0.653756  0.653756  1
  Pd  Pd19  1  0.653756  0.143531  0.653756  1
  Pd  Pd20  1  0.896828  0.896828  0.896828  1
  Pd  Pd21  1  0.103172  0.103172  0.103172  1
