# generated using pymatgen
data_Pr4Ga24CoIr
_symmetry_space_group_name_H-M   'P 1'
_cell_length_a   6.08172000
_cell_length_b   6.08172000
_cell_length_c   15.73848300
_cell_angle_alpha   90.00000000
_cell_angle_beta   90.00000000
_cell_angle_gamma   90.00000000
_symmetry_Int_Tables_number   1
_chemical_formula_structural   Pr4Ga24CoIr
_chemical_formula_sum   'Pr4 Ga24 Co1 Ir1'
_cell_volume   582.12427805
_cell_formula_units_Z   1
loop_
 _symmetry_equiv_pos_site_id
 _symmetry_equiv_pos_as_xyz
  1  'x, y, z'
loop_
 _atom_site_type_symbol
 _atom_site_label
 _atom_site_symmetry_multiplicity
 _atom_site_fract_x
 _atom_site_fract_y
 _atom_site_fract_z
 _atom_site_occupancy
  Pr  Pr0  1  0.750000  0.250000  0.244025  1
  Pr  Pr1  1  0.250000  0.750000  0.240467  1
  Pr  Pr2  1  0.250000  0.750000  0.759533  1
  Pr  Pr3  1  0.750000  0.250000  0.755975  1
  Ga  Ga4  1  0.250000  0.250000  0.187203  1
  Ga  Ga5  1  0.750000  0.750000  0.187203  1
  Ga  Ga6  1  0.750000  0.750000  0.812797  1
  Ga  Ga7  1  0.250000  0.250000  0.812797  1
  Ga  Ga8  1  0.250000  0.250000  0.344801  1
  Ga  Ga9  1  0.750000  0.750000  0.344801  1
  Ga  Ga10  1  0.750000  0.750000  0.655199  1
  Ga  Ga11  1  0.250000  0.250000  0.655199  1
  Ga  Ga12  1  0.507521  0.007521  0.915842  1
  Ga  Ga13  1  0.992681  0.007319  0.915871  1
  Ga  Ga14  1  0.507319  0.492681  0.915871  1
  Ga  Ga15  1  0.992479  0.492479  0.915842  1
  Ga  Ga16  1  0.507319  0.007319  0.084129  1
  Ga  Ga17  1  0.992479  0.007521  0.084158  1
  Ga  Ga18  1  0.507521  0.492479  0.084158  1
  Ga  Ga19  1  0.992681  0.492681  0.084129  1
  Ga  Ga20  1  0.580542  0.080542  0.431933  1
  Ga  Ga21  1  0.082137  0.917863  0.430958  1
  Ga  Ga22  1  0.417863  0.582137  0.430958  1
  Ga  Ga23  1  0.919458  0.419458  0.431933  1
  Ga  Ga24  1  0.417863  0.917863  0.569042  1
  Ga  Ga25  1  0.919458  0.080542  0.568067  1
  Ga  Ga26  1  0.580542  0.419458  0.568067  1
  Ga  Ga27  1  0.082137  0.582137  0.569042  1
  Co  Co28  1  0.750000  0.250000  0.000000  1
  Ir  Ir29  1  0.250000  0.750000  0.000000  1
