# generated using pymatgen
data_U2NiIr3
_symmetry_space_group_name_H-M   'P 1'
_cell_length_a   5.40800277
_cell_length_b   5.05158985
_cell_length_c   5.40800200
_cell_angle_alpha   57.63728585
_cell_angle_beta   60.00000468
_cell_angle_gamma   57.63728414
_symmetry_Int_Tables_number   1
_chemical_formula_structural   U2NiIr3
_chemical_formula_sum   'U2 Ni1 Ir3'
_cell_volume   100.58113608
_cell_formula_units_Z   1
loop_
 _symmetry_equiv_pos_site_id
 _symmetry_equiv_pos_as_xyz
  1  'x, y, z'
loop_
 _atom_site_type_symbol
 _atom_site_label
 _atom_site_symmetry_multiplicity
 _atom_site_fract_x
 _atom_site_fract_y
 _atom_site_fract_z
 _atom_site_occupancy
  U  U0  1  0.740276  0.779172  0.740276  1
  U  U1  1  0.509724  0.470828  0.509724  1
  Ni  Ni2  1  0.125000  0.625000  0.125000  1
  Ir  Ir3  1  0.125000  0.125000  0.625000  1
  Ir  Ir4  1  0.625000  0.125000  0.125000  1
  Ir  Ir5  1  0.125000  0.125000  0.125000  1
