# generated using pymatgen
data_Cs2Np(OF2)2
_symmetry_space_group_name_H-M   'P 1'
_cell_length_a   6.48266997
_cell_length_b   6.48266979
_cell_length_c   5.19842269
_cell_angle_alpha   87.65573339
_cell_angle_beta   87.65573227
_cell_angle_gamma   62.65671187
_symmetry_Int_Tables_number   1
_chemical_formula_structural   Cs2Np(OF2)2
_chemical_formula_sum   'Cs2 Np1 O2 F4'
_cell_volume   193.83229125
_cell_formula_units_Z   1
loop_
 _symmetry_equiv_pos_site_id
 _symmetry_equiv_pos_as_xyz
  1  'x, y, z'
loop_
 _atom_site_type_symbol
 _atom_site_label
 _atom_site_symmetry_multiplicity
 _atom_site_fract_x
 _atom_site_fract_y
 _atom_site_fract_z
 _atom_site_occupancy
  Cs  Cs0  1  0.333361  0.333361  0.310729  1
  Cs  Cs1  1  0.666639  0.666639  0.689271  1
  Np  Np2  1  0.000000  0.000000  0.000000  1
  O  O3  1  0.139290  0.139290  0.797248  1
  O  O4  1  0.860710  0.860710  0.202752  1
  F  F5  1  0.683790  0.160486  0.774643  1
  F  F6  1  0.160486  0.683790  0.774643  1
  F  F7  1  0.316210  0.839514  0.225357  1
  F  F8  1  0.839514  0.316210  0.225357  1
