# generated using pymatgen
data_Sc4BeRe2B7Ru8
_symmetry_space_group_name_H-M   'P 1'
_cell_length_a   3.04011100
_cell_length_b   8.53072813
_cell_length_c   10.10004843
_cell_angle_alpha   90.50799678
_cell_angle_beta   90.00000000
_cell_angle_gamma   90.00000000
_symmetry_Int_Tables_number   1
_chemical_formula_structural   Sc4BeRe2B7Ru8
_chemical_formula_sum   'Sc4 Be1 Re2 B7 Ru8'
_cell_volume   261.92800083
_cell_formula_units_Z   1
loop_
 _symmetry_equiv_pos_site_id
 _symmetry_equiv_pos_as_xyz
  1  'x, y, z'
loop_
 _atom_site_type_symbol
 _atom_site_label
 _atom_site_symmetry_multiplicity
 _atom_site_fract_x
 _atom_site_fract_y
 _atom_site_fract_z
 _atom_site_occupancy
  Sc  Sc0  1  0.500000  0.841573  0.180270  1
  Sc  Sc1  1  0.500000  0.156327  0.821290  1
  Sc  Sc2  1  0.500000  0.657188  0.685203  1
  Sc  Sc3  1  0.500000  0.342642  0.318309  1
  Be  Be4  1  0.500000  0.964366  0.590825  1
  Re  Re5  1  0.000000  0.659158  0.955348  1
  Re  Re6  1  0.000000  0.338805  0.046173  1
  B  B7  1  0.500000  0.037468  0.406693  1
  B  B8  1  0.500000  0.847521  0.900609  1
  B  B9  1  0.500000  0.151597  0.097932  1
  B  B10  1  0.500000  0.652032  0.399809  1
  B  B11  1  0.500000  0.349676  0.598624  1
  B  B12  1  0.500000  0.463718  0.911901  1
  B  B13  1  0.500000  0.535401  0.088361  1
  Ru  Ru14  1  0.000000  0.840459  0.446511  1
  Ru  Ru15  1  0.000000  0.165180  0.543273  1
  Ru  Ru16  1  0.000000  0.999539  0.002438  1
  Ru  Ru17  1  0.000000  0.402281  0.759511  1
  Ru  Ru18  1  0.000000  0.595256  0.239678  1
  Ru  Ru19  1  0.000000  0.503206  0.500307  1
  Ru  Ru20  1  0.000000  0.899719  0.746231  1
  Ru  Ru21  1  0.000000  0.096887  0.260704  1
