# generated using pymatgen
data_Tb4DyTl3Se
_symmetry_space_group_name_H-M   'P 1'
_cell_length_a   9.18479500
_cell_length_b   9.18479629
_cell_length_c   6.72652200
_cell_angle_alpha   90.00000000
_cell_angle_beta   90.00000000
_cell_angle_gamma   119.99999895
_symmetry_Int_Tables_number   1
_chemical_formula_structural   Tb4DyTl3Se
_chemical_formula_sum   'Tb8 Dy2 Tl6 Se2'
_cell_volume   491.42834141
_cell_formula_units_Z   2
loop_
 _symmetry_equiv_pos_site_id
 _symmetry_equiv_pos_as_xyz
  1  'x, y, z'
loop_
 _atom_site_type_symbol
 _atom_site_label
 _atom_site_symmetry_multiplicity
 _atom_site_fract_x
 _atom_site_fract_y
 _atom_site_fract_z
 _atom_site_occupancy
  Tb  Tb0  1  0.749057  0.749057  0.750287  1
  Tb  Tb1  1  0.250943  0.000000  0.750287  1
  Tb  Tb2  1  0.000000  0.250943  0.750287  1
  Tb  Tb3  1  0.250943  0.250943  0.249713  1
  Tb  Tb4  1  0.749057  0.000000  0.249713  1
  Tb  Tb5  1  0.000000  0.749057  0.249713  1
  Tb  Tb6  1  0.333333  0.666667  0.500000  1
  Tb  Tb7  1  0.666667  0.333333  0.500000  1
  Dy  Dy8  1  0.666667  0.333333  0.000000  1
  Dy  Dy9  1  0.333333  0.666667  0.000000  1
  Tl  Tl10  1  0.399785  0.399785  0.752095  1
  Tl  Tl11  1  0.600215  0.000000  0.752095  1
  Tl  Tl12  1  0.000000  0.600215  0.752095  1
  Tl  Tl13  1  0.600215  0.600215  0.247905  1
  Tl  Tl14  1  0.399785  0.000000  0.247905  1
  Tl  Tl15  1  0.000000  0.399785  0.247905  1
  Se  Se16  1  0.000000  0.000000  0.000000  1
  Se  Se17  1  0.000000  0.000000  0.500000  1
