# generated using pymatgen
data_Hf18Re3Ni2W5
_symmetry_space_group_name_H-M   'P 1'
_cell_length_a   8.68179100
_cell_length_b   8.68179163
_cell_length_c   8.48304900
_cell_angle_alpha   90.00000000
_cell_angle_beta   90.00000000
_cell_angle_gamma   120.00000139
_symmetry_Int_Tables_number   1
_chemical_formula_structural   Hf18Re3Ni2W5
_chemical_formula_sum   'Hf18 Re3 Ni2 W5'
_cell_volume   553.73412204
_cell_formula_units_Z   1
loop_
 _symmetry_equiv_pos_site_id
 _symmetry_equiv_pos_as_xyz
  1  'x, y, z'
loop_
 _atom_site_type_symbol
 _atom_site_label
 _atom_site_symmetry_multiplicity
 _atom_site_fract_x
 _atom_site_fract_y
 _atom_site_fract_z
 _atom_site_occupancy
  Hf  Hf0  1  0.199300  0.800700  0.443625  1
  Hf  Hf1  1  0.199300  0.398600  0.443625  1
  Hf  Hf2  1  0.601400  0.800700  0.443625  1
  Hf  Hf3  1  0.800655  0.199345  0.558356  1
  Hf  Hf4  1  0.800655  0.601310  0.558356  1
  Hf  Hf5  1  0.398690  0.199345  0.558356  1
  Hf  Hf6  1  0.800655  0.199345  0.941644  1
  Hf  Hf7  1  0.800655  0.601310  0.941644  1
  Hf  Hf8  1  0.398690  0.199345  0.941644  1
  Hf  Hf9  1  0.199300  0.800700  0.056375  1
  Hf  Hf10  1  0.199300  0.398600  0.056375  1
  Hf  Hf11  1  0.601400  0.800700  0.056375  1
  Hf  Hf12  1  0.541350  0.458650  0.250000  1
  Hf  Hf13  1  0.541350  0.082700  0.250000  1
  Hf  Hf14  1  0.917300  0.458650  0.250000  1
  Hf  Hf15  1  0.457949  0.542051  0.750000  1
  Hf  Hf16  1  0.457949  0.915898  0.750000  1
  Hf  Hf17  1  0.084102  0.542051  0.750000  1
  Re  Re18  1  0.111936  0.888064  0.750000  1
  Re  Re19  1  0.111936  0.223874  0.750000  1
  Re  Re20  1  0.776126  0.888064  0.750000  1
  Ni  Ni21  1  0.333333  0.666667  0.250000  1
  Ni  Ni22  1  0.666667  0.333333  0.750000  1
  W  W23  1  0.888290  0.111710  0.250000  1
  W  W24  1  0.888290  0.776579  0.250000  1
  W  W25  1  0.223421  0.111710  0.250000  1
  W  W26  1  0.000000  0.000000  0.501480  1
  W  W27  1  0.000000  0.000000  0.998520  1
