# generated using pymatgen
data_Sc4Si8IrRh15
_symmetry_space_group_name_H-M   'P 1'
_cell_length_a   4.07142400
_cell_length_b   8.96100417
_cell_length_c   11.11603323
_cell_angle_alpha   90.02273752
_cell_angle_beta   90.00000000
_cell_angle_gamma   90.00000000
_symmetry_Int_Tables_number   1
_chemical_formula_structural   Sc4Si8IrRh15
_chemical_formula_sum   'Sc4 Si8 Ir1 Rh15'
_cell_volume   405.55785168
_cell_formula_units_Z   1
loop_
 _symmetry_equiv_pos_site_id
 _symmetry_equiv_pos_as_xyz
  1  'x, y, z'
loop_
 _atom_site_type_symbol
 _atom_site_label
 _atom_site_symmetry_multiplicity
 _atom_site_fract_x
 _atom_site_fract_y
 _atom_site_fract_z
 _atom_site_occupancy
  Sc  Sc0  1  0.250000  0.144403  0.825982  1
  Sc  Sc1  1  0.250000  0.355894  0.325186  1
  Sc  Sc2  1  0.750000  0.856461  0.173832  1
  Sc  Sc3  1  0.750000  0.643576  0.674835  1
  Si  Si4  1  0.250000  0.413493  0.638678  1
  Si  Si5  1  0.250000  0.087048  0.137967  1
  Si  Si6  1  0.750000  0.586585  0.362025  1
  Si  Si7  1  0.750000  0.912841  0.862109  1
  Si  Si8  1  0.250000  0.617484  0.058855  1
  Si  Si9  1  0.250000  0.881096  0.559871  1
  Si  Si10  1  0.750000  0.381604  0.940581  1
  Si  Si11  1  0.750000  0.118202  0.440311  1
  Ir  Ir12  1  0.250000  0.615321  0.499941  1
  Rh  Rh13  1  0.250000  0.883294  0.002877  1
  Rh  Rh14  1  0.750000  0.383218  0.497663  1
  Rh  Rh15  1  0.750000  0.115901  0.997893  1
  Rh  Rh16  1  0.250000  0.699688  0.265011  1
  Rh  Rh17  1  0.250000  0.803331  0.767365  1
  Rh  Rh18  1  0.750000  0.302724  0.733518  1
  Rh  Rh19  1  0.750000  0.197367  0.233211  1
  Rh  Rh20  1  0.250000  0.171778  0.561075  1
  Rh  Rh21  1  0.250000  0.328703  0.061415  1
  Rh  Rh22  1  0.750000  0.828524  0.438967  1
  Rh  Rh23  1  0.750000  0.671128  0.939330  1
  Rh  Rh24  1  0.250000  0.009021  0.342173  1
  Rh  Rh25  1  0.250000  0.491219  0.842559  1
  Rh  Rh26  1  0.750000  0.991279  0.658089  1
  Rh  Rh27  1  0.750000  0.508819  0.158680  1
