# generated using pymatgen
data_Er2Tm2Si6PtRh
_symmetry_space_group_name_H-M   'P 1'
_cell_length_a   8.14700200
_cell_length_b   8.14700226
_cell_length_c   7.82813700
_cell_angle_alpha   90.00000000
_cell_angle_beta   90.00000000
_cell_angle_gamma   119.99999893
_symmetry_Int_Tables_number   1
_chemical_formula_structural   Er2Tm2Si6PtRh
_chemical_formula_sum   'Er4 Tm4 Si12 Pt2 Rh2'
_cell_volume   449.97119565
_cell_formula_units_Z   2
loop_
 _symmetry_equiv_pos_site_id
 _symmetry_equiv_pos_as_xyz
  1  'x, y, z'
loop_
 _atom_site_type_symbol
 _atom_site_label
 _atom_site_symmetry_multiplicity
 _atom_site_fract_x
 _atom_site_fract_y
 _atom_site_fract_z
 _atom_site_occupancy
  Er  Er0  1  0.000000  0.000000  0.250000  1
  Er  Er1  1  0.490393  0.509607  0.250000  1
  Er  Er2  1  0.490393  0.980786  0.250000  1
  Er  Er3  1  0.019214  0.509607  0.250000  1
  Tm  Tm4  1  0.000000  0.000000  0.750000  1
  Tm  Tm5  1  0.507285  0.492715  0.750000  1
  Tm  Tm6  1  0.985430  0.492715  0.750000  1
  Tm  Tm7  1  0.507285  0.014570  0.750000  1
  Si  Si8  1  0.836027  0.163973  0.500406  1
  Si  Si9  1  0.836027  0.672055  0.500406  1
  Si  Si10  1  0.327945  0.163973  0.500406  1
  Si  Si11  1  0.836027  0.163973  0.999594  1
  Si  Si12  1  0.836027  0.672055  0.999594  1
  Si  Si13  1  0.327945  0.163973  0.999594  1
  Si  Si14  1  0.167760  0.832240  0.000662  1
  Si  Si15  1  0.664481  0.832240  0.000662  1
  Si  Si16  1  0.167760  0.335519  0.000662  1
  Si  Si17  1  0.167760  0.832240  0.499338  1
  Si  Si18  1  0.664481  0.832240  0.499338  1
  Si  Si19  1  0.167760  0.335519  0.499338  1
  Pt  Pt20  1  0.666667  0.333333  0.474866  1
  Pt  Pt21  1  0.666667  0.333333  0.025134  1
  Rh  Rh22  1  0.333333  0.666667  0.961716  1
  Rh  Rh23  1  0.333333  0.666667  0.538284  1
