# generated using pymatgen
data_ErSc3Ga17SiIr6
_symmetry_space_group_name_H-M   'P 1'
_cell_length_a   7.51966265
_cell_length_b   7.50797172
_cell_length_c   9.39786955
_cell_angle_alpha   90.04780297
_cell_angle_beta   89.86823150
_cell_angle_gamma   120.08810610
_symmetry_Int_Tables_number   1
_chemical_formula_structural   ErSc3Ga17SiIr6
_chemical_formula_sum   'Er1 Sc3 Ga17 Si1 Ir6'
_cell_volume   459.08551801
_cell_formula_units_Z   1
loop_
 _symmetry_equiv_pos_site_id
 _symmetry_equiv_pos_as_xyz
  1  'x, y, z'
loop_
 _atom_site_type_symbol
 _atom_site_label
 _atom_site_symmetry_multiplicity
 _atom_site_fract_x
 _atom_site_fract_y
 _atom_site_fract_z
 _atom_site_occupancy
  Er  Er0  1  0.996510  0.663803  0.248140  1
  Sc  Sc1  1  0.001991  0.330300  0.753087  1
  Sc  Sc2  1  0.677452  0.005359  0.247121  1
  Sc  Sc3  1  0.328705  0.000900  0.748795  1
  Ga  Ga4  1  0.129264  0.128966  0.250773  1
  Ga  Ga5  1  0.874382  0.877846  0.750723  1
  Ga  Ga6  1  0.002835  0.672122  0.911499  1
  Ga  Ga7  1  0.004196  0.665620  0.586116  1
  Ga  Ga8  1  0.337534  0.997713  0.419286  1
  Ga  Ga9  1  0.996677  0.331042  0.421057  1
  Ga  Ga10  1  0.665614  0.004516  0.583447  1
  Ga  Ga11  1  0.657248  0.998451  0.913764  1
  Ga  Ga12  1  0.336706  0.997483  0.080922  1
  Ga  Ga13  1  0.329400  0.328328  0.572207  1
  Ga  Ga14  1  0.668714  0.672238  0.432039  1
  Ga  Ga15  1  0.667567  0.672790  0.070758  1
  Ga  Ga16  1  0.335111  0.328173  0.926457  1
  Ga  Ga17  1  0.342520  0.549745  0.251459  1
  Ga  Ga18  1  0.660669  0.447068  0.751505  1
  Ga  Ga19  1  0.546983  0.337848  0.250544  1
  Ga  Ga20  1  0.447203  0.657752  0.750733  1
  Si  Si21  1  0.997595  0.331672  0.072125  1
  Ir  Ir22  1  0.685468  0.330972  0.003769  1
  Ir  Ir23  1  0.312545  0.655947  0.000964  1
  Ir  Ir24  1  0.327845  0.670934  0.500938  1
  Ir  Ir25  1  0.672411  0.329748  0.500308  1
  Ir  Ir26  1  0.996631  0.013457  0.001189  1
  Ir  Ir27  1  0.000222  0.999204  0.500278  1
