# generated using pymatgen
data_AcNd2(InHg2)3
_symmetry_space_group_name_H-M   'P 1'
_cell_length_a   5.25946100
_cell_length_b   7.66268100
_cell_length_c   16.17105800
_cell_angle_alpha   89.99995514
_cell_angle_beta   90.00079525
_cell_angle_gamma   89.99952893
_symmetry_Int_Tables_number   1
_chemical_formula_structural   AcNd2(InHg2)3
_chemical_formula_sum   'Ac2 Nd4 In6 Hg12'
_cell_volume   651.71905628
_cell_formula_units_Z   2
loop_
 _symmetry_equiv_pos_site_id
 _symmetry_equiv_pos_as_xyz
  1  'x, y, z'
loop_
 _atom_site_type_symbol
 _atom_site_label
 _atom_site_symmetry_multiplicity
 _atom_site_fract_x
 _atom_site_fract_y
 _atom_site_fract_z
 _atom_site_occupancy
  Ac  Ac0  1  0.000098  0.500069  0.998496  1
  Ac  Ac1  1  0.499929  0.999936  0.168194  1
  Nd  Nd2  1  0.999989  0.500011  0.336900  1
  Nd  Nd3  1  0.500028  0.999950  0.501489  1
  Nd  Nd4  1  0.000001  0.499919  0.665079  1
  Nd  Nd5  1  0.499903  0.000073  0.829805  1
  In  In6  1  0.000040  0.000133  0.996802  1
  In  In7  1  0.500060  0.499917  0.169919  1
  In  In8  1  0.999988  0.000027  0.337842  1
  In  In9  1  0.499954  0.499979  0.501884  1
  In  In10  1  0.000131  0.999985  0.664813  1
  In  In11  1  0.500004  0.500047  0.828828  1
  Hg  Hg12  1  0.500079  0.234169  0.995179  1
  Hg  Hg13  1  0.500073  0.765898  0.995148  1
  Hg  Hg14  1  0.999973  0.265825  0.171534  1
  Hg  Hg15  1  0.999983  0.734109  0.171545  1
  Hg  Hg16  1  0.499948  0.248017  0.338382  1
  Hg  Hg17  1  0.499937  0.751962  0.338404  1
  Hg  Hg18  1  0.999991  0.255309  0.500567  1
  Hg  Hg19  1  0.999990  0.744635  0.500604  1
  Hg  Hg20  1  0.500026  0.244543  0.666034  1
  Hg  Hg21  1  0.500019  0.755412  0.666052  1
  Hg  Hg22  1  0.999926  0.252099  0.828268  1
  Hg  Hg23  1  0.999933  0.747974  0.828231  1
