# generated using pymatgen
data_Nd2Cu3H3Pd14
_symmetry_space_group_name_H-M   'P 1'
_cell_length_a   6.91724603
_cell_length_b   6.91724573
_cell_length_c   6.91724491
_cell_angle_alpha   83.27003009
_cell_angle_beta   83.27003378
_cell_angle_gamma   83.27004095
_symmetry_Int_Tables_number   1
_chemical_formula_structural   Nd2Cu3H3Pd14
_chemical_formula_sum   'Nd2 Cu3 H3 Pd14'
_cell_volume   324.63193632
_cell_formula_units_Z   1
loop_
 _symmetry_equiv_pos_site_id
 _symmetry_equiv_pos_as_xyz
  1  'x, y, z'
loop_
 _atom_site_type_symbol
 _atom_site_label
 _atom_site_symmetry_multiplicity
 _atom_site_fract_x
 _atom_site_fract_y
 _atom_site_fract_z
 _atom_site_occupancy
  Nd  Nd0  1  0.665470  0.665470  0.665470  1
  Nd  Nd1  1  0.334530  0.334530  0.334530  1
  Cu  Cu2  1  0.000000  0.000000  0.500000  1
  Cu  Cu3  1  0.500000  0.000000  0.000000  1
  Cu  Cu4  1  0.000000  0.500000  0.000000  1
  H  H5  1  0.500000  0.500000  0.000000  1
  H  H6  1  0.000000  0.500000  0.500000  1
  H  H7  1  0.500000  0.000000  0.500000  1
  Pd  Pd8  1  0.706047  0.293953  0.000000  1
  Pd  Pd9  1  0.000000  0.706047  0.293953  1
  Pd  Pd10  1  0.293953  0.000000  0.706047  1
  Pd  Pd11  1  0.000000  0.293953  0.706047  1
  Pd  Pd12  1  0.706047  0.000000  0.293953  1
  Pd  Pd13  1  0.293953  0.706047  0.000000  1
  Pd  Pd14  1  0.347695  0.347695  0.855049  1
  Pd  Pd15  1  0.855049  0.347695  0.347695  1
  Pd  Pd16  1  0.347695  0.855049  0.347695  1
  Pd  Pd17  1  0.652305  0.652305  0.144951  1
  Pd  Pd18  1  0.144951  0.652305  0.652305  1
  Pd  Pd19  1  0.652305  0.144951  0.652305  1
  Pd  Pd20  1  0.897184  0.897184  0.897184  1
  Pd  Pd21  1  0.102816  0.102816  0.102816  1
