# generated using pymatgen
data_GdGaTeO6
_symmetry_space_group_name_H-M   'P 1'
_cell_length_a   5.18269918
_cell_length_b   5.18269926
_cell_length_c   10.00335701
_cell_angle_alpha   90.00410774
_cell_angle_beta   90.00411167
_cell_angle_gamma   120.00908272
_symmetry_Int_Tables_number   1
_chemical_formula_structural   GdGaTeO6
_chemical_formula_sum   'Gd2 Ga2 Te2 O12'
_cell_volume   232.67442589
_cell_formula_units_Z   2
loop_
 _symmetry_equiv_pos_site_id
 _symmetry_equiv_pos_as_xyz
  1  'x, y, z'
loop_
 _atom_site_type_symbol
 _atom_site_label
 _atom_site_symmetry_multiplicity
 _atom_site_fract_x
 _atom_site_fract_y
 _atom_site_fract_z
 _atom_site_occupancy
  Gd  Gd0  1  0.000004  0.000000  0.499999  1
  Gd  Gd1  1  0.999999  0.000002  0.999999  1
  Ga  Ga2  1  0.666620  0.333380  0.749999  1
  Ga  Ga3  1  0.333379  0.666621  0.250000  1
  Te  Te4  1  0.666741  0.333259  0.250000  1
  Te  Te5  1  0.333259  0.666740  0.749999  1
  O  O6  1  0.630635  0.991565  0.859523  1
  O  O7  1  0.360888  0.369403  0.859540  1
  O  O8  1  0.639113  0.630599  0.140459  1
  O  O9  1  0.008506  0.639152  0.859524  1
  O  O10  1  0.991488  0.360845  0.140477  1
  O  O11  1  0.369366  0.008438  0.140478  1
  O  O12  1  0.360844  0.991490  0.640476  1
  O  O13  1  0.630599  0.639112  0.640458  1
  O  O14  1  0.008438  0.369365  0.640478  1
  O  O15  1  0.639152  0.008506  0.359524  1
  O  O16  1  0.369405  0.360888  0.359541  1
  O  O17  1  0.991563  0.630633  0.359523  1
