# generated using pymatgen
data_Ti8CrRe3Ir4
_symmetry_space_group_name_H-M   'P 1'
_cell_length_a   6.19645000
_cell_length_b   4.38589500
_cell_length_c   8.76593200
_cell_angle_alpha   90.00000000
_cell_angle_beta   89.99626285
_cell_angle_gamma   90.00000000
_symmetry_Int_Tables_number   1
_chemical_formula_structural   Ti8CrRe3Ir4
_chemical_formula_sum   'Ti8 Cr1 Re3 Ir4'
_cell_volume   238.23155026
_cell_formula_units_Z   1
loop_
 _symmetry_equiv_pos_site_id
 _symmetry_equiv_pos_as_xyz
  1  'x, y, z'
loop_
 _atom_site_type_symbol
 _atom_site_label
 _atom_site_symmetry_multiplicity
 _atom_site_fract_x
 _atom_site_fract_y
 _atom_site_fract_z
 _atom_site_occupancy
  Ti  Ti0  1  0.996199  0.750001  0.125002  1
  Ti  Ti1  1  0.503834  0.750001  0.125004  1
  Ti  Ti2  1  0.998126  0.249999  0.372584  1
  Ti  Ti3  1  0.501931  0.249999  0.372585  1
  Ti  Ti4  1  0.499733  0.750001  0.624998  1
  Ti  Ti5  1  0.000207  0.750001  0.625009  1
  Ti  Ti6  1  0.501879  0.249999  0.877406  1
  Ti  Ti7  1  0.998074  0.249999  0.877410  1
  Cr  Cr8  1  0.750044  0.249999  0.124999  1
  Re  Re9  1  0.249994  0.750001  0.375143  1
  Re  Re10  1  0.750001  0.249999  0.625004  1
  Re  Re11  1  0.249971  0.750001  0.874856  1
  Ir  Ir12  1  0.250021  0.249999  0.124995  1
  Ir  Ir13  1  0.750018  0.750001  0.373779  1
  Ir  Ir14  1  0.249983  0.249999  0.625003  1
  Ir  Ir15  1  0.749988  0.750001  0.876220  1
