# generated using pymatgen
data_LaY9(AsPb3)2
_symmetry_space_group_name_H-M   'P 1'
_cell_length_a   9.29838544
_cell_length_b   9.31733145
_cell_length_c   6.89555000
_cell_angle_alpha   90.00000000
_cell_angle_beta   90.00000000
_cell_angle_gamma   120.06743879
_symmetry_Int_Tables_number   1
_chemical_formula_structural   LaY9(AsPb3)2
_chemical_formula_sum   'La1 Y9 As2 Pb6'
_cell_volume   517.01495326
_cell_formula_units_Z   1
loop_
 _symmetry_equiv_pos_site_id
 _symmetry_equiv_pos_as_xyz
  1  'x, y, z'
loop_
 _atom_site_type_symbol
 _atom_site_label
 _atom_site_symmetry_multiplicity
 _atom_site_fract_x
 _atom_site_fract_y
 _atom_site_fract_z
 _atom_site_occupancy
  La  La0  1  0.000000  0.750378  0.250000  1
  Y  Y1  1  0.754958  0.756491  0.750000  1
  Y  Y2  1  0.245042  0.001533  0.750000  1
  Y  Y3  1  0.000000  0.247350  0.750000  1
  Y  Y4  1  0.244138  0.243375  0.250000  1
  Y  Y5  1  0.755862  0.999238  0.250000  1
  Y  Y6  1  0.665757  0.331556  0.999254  1
  Y  Y7  1  0.334243  0.665799  0.999254  1
  Y  Y8  1  0.334243  0.665799  0.500746  1
  Y  Y9  1  0.665757  0.331556  0.500746  1
  As  As10  1  0.000000  0.003815  0.996160  1
  As  As11  1  0.000000  0.003815  0.503840  1
  Pb  Pb12  1  0.398563  0.399333  0.750000  1
  Pb  Pb13  1  0.601437  0.000770  0.750000  1
  Pb  Pb14  1  0.000000  0.602728  0.750000  1
  Pb  Pb15  1  0.594784  0.599117  0.250000  1
  Pb  Pb16  1  0.405216  0.004333  0.250000  1
  Pb  Pb17  1  0.000000  0.393015  0.250000  1
