# generated using pymatgen
data_Dy2Ho2Ir7Ru
_symmetry_space_group_name_H-M   'P 1'
_cell_length_a   5.34484703
_cell_length_b   5.36161051
_cell_length_c   8.72160501
_cell_angle_alpha   90.00012705
_cell_angle_beta   90.00409727
_cell_angle_gamma   120.10316881
_symmetry_Int_Tables_number   1
_chemical_formula_structural   Dy2Ho2Ir7Ru
_chemical_formula_sum   'Dy2 Ho2 Ir7 Ru1'
_cell_volume   216.22462628
_cell_formula_units_Z   1
loop_
 _symmetry_equiv_pos_site_id
 _symmetry_equiv_pos_as_xyz
  1  'x, y, z'
loop_
 _atom_site_type_symbol
 _atom_site_label
 _atom_site_symmetry_multiplicity
 _atom_site_fract_x
 _atom_site_fract_y
 _atom_site_fract_z
 _atom_site_occupancy
  Dy  Dy0  1  0.666943  0.333459  0.567664  1
  Dy  Dy1  1  0.333322  0.666674  0.433232  1
  Ho  Ho2  1  0.333357  0.666693  0.066551  1
  Ho  Ho3  1  0.666921  0.333447  0.932503  1
  Ir  Ir4  1  0.002784  0.001393  0.499057  1
  Ir  Ir5  1  0.002889  0.001441  0.000933  1
  Ir  Ir6  1  0.169738  0.338848  0.750358  1
  Ir  Ir7  1  0.169726  0.830854  0.750360  1
  Ir  Ir8  1  0.659762  0.829864  0.750358  1
  Ir  Ir9  1  0.827339  0.659076  0.249641  1
  Ir  Ir10  1  0.827348  0.168302  0.249643  1
  Ru  Ru11  1  0.339871  0.169949  0.249700  1
