# generated using pymatgen
data_Lu2NpB2Ru5
_symmetry_space_group_name_H-M   'P 1'
_cell_length_a   9.64625500
_cell_length_b   9.64625500
_cell_length_c   3.15889300
_cell_angle_alpha   90.00000000
_cell_angle_beta   90.00000000
_cell_angle_gamma   90.00000000
_symmetry_Int_Tables_number   1
_chemical_formula_structural   Lu2NpB2Ru5
_chemical_formula_sum   'Lu4 Np2 B4 Ru10'
_cell_volume   293.93573765
_cell_formula_units_Z   2
loop_
 _symmetry_equiv_pos_site_id
 _symmetry_equiv_pos_as_xyz
  1  'x, y, z'
loop_
 _atom_site_type_symbol
 _atom_site_label
 _atom_site_symmetry_multiplicity
 _atom_site_fract_x
 _atom_site_fract_y
 _atom_site_fract_z
 _atom_site_occupancy
  Lu  Lu0  1  0.828062  0.671938  0.000000  1
  Lu  Lu1  1  0.171938  0.328062  0.000000  1
  Lu  Lu2  1  0.328062  0.828062  0.000000  1
  Lu  Lu3  1  0.671938  0.171938  0.000000  1
  Np  Np4  1  0.500000  0.500000  0.000000  1
  Np  Np5  1  0.000000  0.000000  0.000000  1
  B  B6  1  0.620118  0.879882  0.000000  1
  B  B7  1  0.379882  0.120118  0.000000  1
  B  B8  1  0.120118  0.620118  0.000000  1
  B  B9  1  0.879882  0.379882  0.000000  1
  Ru  Ru10  1  0.572275  0.718069  0.500000  1
  Ru  Ru11  1  0.427725  0.281931  0.500000  1
  Ru  Ru12  1  0.072275  0.781931  0.500000  1
  Ru  Ru13  1  0.927725  0.218069  0.500000  1
  Ru  Ru14  1  0.281931  0.572275  0.500000  1
  Ru  Ru15  1  0.718069  0.427725  0.500000  1
  Ru  Ru16  1  0.218069  0.072275  0.500000  1
  Ru  Ru17  1  0.781931  0.927725  0.500000  1
  Ru  Ru18  1  0.500000  0.000000  0.500000  1
  Ru  Ru19  1  0.000000  0.500000  0.500000  1
