# generated using pymatgen
data_DyHoFe2O7
_symmetry_space_group_name_H-M   'P 1'
_cell_length_a   7.15071844
_cell_length_b   7.15071866
_cell_length_c   7.14514100
_cell_angle_alpha   60.02580394
_cell_angle_beta   60.02580289
_cell_angle_gamma   60.04817323
_symmetry_Int_Tables_number   1
_chemical_formula_structural   DyHoFe2O7
_chemical_formula_sum   'Dy2 Ho2 Fe4 O14'
_cell_volume   258.53683915
_cell_formula_units_Z   2
loop_
 _symmetry_equiv_pos_site_id
 _symmetry_equiv_pos_as_xyz
  1  'x, y, z'
loop_
 _atom_site_type_symbol
 _atom_site_label
 _atom_site_symmetry_multiplicity
 _atom_site_fract_x
 _atom_site_fract_y
 _atom_site_fract_z
 _atom_site_occupancy
  Dy  Dy0  1  0.125000  0.625000  0.125000  1
  Dy  Dy1  1  0.625000  0.125000  0.125000  1
  Ho  Ho2  1  0.125000  0.125000  0.625000  1
  Ho  Ho3  1  0.125000  0.125000  0.125000  1
  Fe  Fe4  1  0.625000  0.625000  0.625000  1
  Fe  Fe5  1  0.125000  0.625000  0.625000  1
  Fe  Fe6  1  0.625000  0.625000  0.125000  1
  Fe  Fe7  1  0.625000  0.125000  0.625000  1
  O  O8  1  0.291564  0.708818  0.707903  1
  O  O9  1  0.541182  0.958436  0.958284  1
  O  O10  1  0.708207  0.708207  0.291793  1
  O  O11  1  0.291505  0.291505  0.708495  1
  O  O12  1  0.001015  0.001015  0.998985  1
  O  O13  1  0.291564  0.708818  0.291716  1
  O  O14  1  0.708818  0.291564  0.707903  1
  O  O15  1  0.958436  0.541182  0.958284  1
  O  O16  1  0.541793  0.541793  0.958207  1
  O  O17  1  0.958495  0.958495  0.541505  1
  O  O18  1  0.248985  0.248985  0.251015  1
  O  O19  1  0.541182  0.958436  0.542097  1
  O  O20  1  0.708818  0.291564  0.291716  1
  O  O21  1  0.958436  0.541182  0.542097  1
