# generated using pymatgen
data_Er5Si3Ge6P3Ir19
_symmetry_space_group_name_H-M   'P 1'
_cell_length_a   12.98105400
_cell_length_b   12.98105354
_cell_length_c   3.95735800
_cell_angle_alpha   90.00000000
_cell_angle_beta   90.00000000
_cell_angle_gamma   120.00000117
_symmetry_Int_Tables_number   1
_chemical_formula_structural   Er5Si3Ge6P3Ir19
_chemical_formula_sum   'Er5 Si3 Ge6 P3 Ir19'
_cell_volume   577.50515399
_cell_formula_units_Z   1
loop_
 _symmetry_equiv_pos_site_id
 _symmetry_equiv_pos_as_xyz
  1  'x, y, z'
loop_
 _atom_site_type_symbol
 _atom_site_label
 _atom_site_symmetry_multiplicity
 _atom_site_fract_x
 _atom_site_fract_y
 _atom_site_fract_z
 _atom_site_occupancy
  Er  Er0  1  0.666667  0.333333  0.000000  1
  Er  Er1  1  0.333333  0.666667  0.000000  1
  Er  Er2  1  0.815530  0.815530  0.500000  1
  Er  Er3  1  0.184470  0.000000  0.500000  1
  Er  Er4  1  0.000000  0.184470  0.500000  1
  Si  Si5  1  0.634699  0.634699  0.000000  1
  Si  Si6  1  0.365301  0.000000  0.000000  1
  Si  Si7  1  0.000000  0.365301  0.000000  1
  Ge  Ge8  1  0.683036  0.165189  0.500000  1
  Ge  Ge9  1  0.834811  0.517847  0.500000  1
  Ge  Ge10  1  0.482153  0.316964  0.500000  1
  Ge  Ge11  1  0.165189  0.683036  0.500000  1
  Ge  Ge12  1  0.517847  0.834811  0.500000  1
  Ge  Ge13  1  0.316964  0.482153  0.500000  1
  P  P14  1  0.176275  0.176275  0.000000  1
  P  P15  1  0.823725  0.000000  0.000000  1
  P  P16  1  0.000000  0.823725  0.000000  1
  Ir  Ir17  1  0.813600  0.178876  0.000000  1
  Ir  Ir18  1  0.821124  0.634724  0.000000  1
  Ir  Ir19  1  0.365276  0.186400  0.000000  1
  Ir  Ir20  1  0.178876  0.813600  0.000000  1
  Ir  Ir21  1  0.634724  0.821124  0.000000  1
  Ir  Ir22  1  0.186400  0.365276  0.000000  1
  Ir  Ir23  1  0.449485  0.449485  0.000000  1
  Ir  Ir24  1  0.550515  0.000000  0.000000  1
  Ir  Ir25  1  0.000000  0.550515  0.000000  1
  Ir  Ir26  1  0.271693  0.271693  0.500000  1
  Ir  Ir27  1  0.728307  0.000000  0.500000  1
  Ir  Ir28  1  0.000000  0.728307  0.500000  1
  Ir  Ir29  1  0.875850  0.356276  0.500000  1
  Ir  Ir30  1  0.643724  0.519574  0.500000  1
  Ir  Ir31  1  0.480426  0.124150  0.500000  1
  Ir  Ir32  1  0.356276  0.875850  0.500000  1
  Ir  Ir33  1  0.519574  0.643724  0.500000  1
  Ir  Ir34  1  0.124150  0.480426  0.500000  1
  Ir  Ir35  1  0.000000  0.000000  0.000000  1
