# generated using pymatgen
data_Na20Si4AsP11
_symmetry_space_group_name_H-M   'P 1'
_cell_length_a   7.35095642
_cell_length_b   7.98499071
_cell_length_c   15.32609708
_cell_angle_alpha   59.30279665
_cell_angle_beta   89.88933563
_cell_angle_gamma   89.84111771
_symmetry_Int_Tables_number   1
_chemical_formula_structural   Na20Si4AsP11
_chemical_formula_sum   'Na20 Si4 As1 P11'
_cell_volume   773.54309991
_cell_formula_units_Z   1
loop_
 _symmetry_equiv_pos_site_id
 _symmetry_equiv_pos_as_xyz
  1  'x, y, z'
loop_
 _atom_site_type_symbol
 _atom_site_label
 _atom_site_symmetry_multiplicity
 _atom_site_fract_x
 _atom_site_fract_y
 _atom_site_fract_z
 _atom_site_occupancy
  Na  Na0  1  0.507404  0.558455  0.256023  1
  Na  Na1  1  0.009360  0.443867  0.242316  1
  Na  Na2  1  0.491348  0.442880  0.743284  1
  Na  Na3  1  0.991680  0.556994  0.756907  1
  Na  Na4  1  0.983567  0.913541  0.412619  1
  Na  Na5  1  0.482555  0.086255  0.087187  1
  Na  Na6  1  0.018552  0.085099  0.588263  1
  Na  Na7  1  0.517323  0.913916  0.912669  1
  Na  Na8  1  0.527884  0.256091  0.582774  1
  Na  Na9  1  0.028753  0.743829  0.918222  1
  Na  Na10  1  0.471297  0.744388  0.418195  1
  Na  Na11  1  0.971248  0.256154  0.081806  1
  Na  Na12  1  0.154699  0.837311  0.241187  1
  Na  Na13  1  0.653686  0.162688  0.256994  1
  Na  Na14  1  0.845468  0.162929  0.758678  1
  Na  Na15  1  0.345575  0.836777  0.741415  1
  Na  Na16  1  0.334458  0.158302  0.418249  1
  Na  Na17  1  0.837206  0.840996  0.081582  1
  Na  Na18  1  0.662092  0.837405  0.583242  1
  Na  Na19  1  0.162857  0.159068  0.918351  1
  Si  Si20  1  0.638436  0.511793  0.916995  1
  Si  Si21  1  0.138802  0.488620  0.583357  1
  Si  Si22  1  0.361636  0.488180  0.083024  1
  Si  Si23  1  0.864958  0.518723  0.416815  1
  As  As24  1  0.739780  0.235335  0.420880  1
  P  P25  1  0.241865  0.758157  0.079128  1
  P  P26  1  0.258328  0.757287  0.579355  1
  P  P27  1  0.758183  0.241931  0.920830  1
  P  P28  1  0.770560  0.799154  0.279051  1
  P  P29  1  0.270197  0.202491  0.219909  1
  P  P30  1  0.229457  0.202503  0.720364  1
  P  P31  1  0.729485  0.797257  0.779902  1
  P  P32  1  0.320756  0.480210  0.934868  1
  P  P33  1  0.820917  0.520115  0.565750  1
  P  P34  1  0.679290  0.520027  0.064974  1
  P  P35  1  0.180340  0.481275  0.434836  1
