# generated using pymatgen
data_Tb3DySc4(CrB6)4
_symmetry_space_group_name_H-M   'P 1'
_cell_length_a   3.47378000
_cell_length_b   9.01536000
_cell_length_c   11.38303700
_cell_angle_alpha   90.00017958
_cell_angle_beta   90.00000000
_cell_angle_gamma   90.00000000
_symmetry_Int_Tables_number   1
_chemical_formula_structural   Tb3DySc4(CrB6)4
_chemical_formula_sum   'Tb3 Dy1 Sc4 Cr4 B24'
_cell_volume   356.48686410
_cell_formula_units_Z   1
loop_
 _symmetry_equiv_pos_site_id
 _symmetry_equiv_pos_as_xyz
  1  'x, y, z'
loop_
 _atom_site_type_symbol
 _atom_site_label
 _atom_site_symmetry_multiplicity
 _atom_site_fract_x
 _atom_site_fract_y
 _atom_site_fract_z
 _atom_site_occupancy
  Tb  Tb0  1  0.000000  0.822802  0.085361  1
  Tb  Tb1  1  0.000000  0.177185  0.914635  1
  Tb  Tb2  1  0.000000  0.322842  0.414668  1
  Dy  Dy3  1  0.000000  0.677164  0.585375  1
  Sc  Sc4  1  0.000000  0.443246  0.130871  1
  Sc  Sc5  1  0.000000  0.556758  0.869060  1
  Sc  Sc6  1  0.000000  0.943231  0.369180  1
  Sc  Sc7  1  0.000000  0.056715  0.630869  1
  Cr  Cr8  1  0.000000  0.141667  0.182080  1
  Cr  Cr9  1  0.000000  0.858266  0.817804  1
  Cr  Cr10  1  0.000000  0.641696  0.318007  1
  Cr  Cr11  1  0.000000  0.358434  0.682068  1
  B  B12  1  0.500000  0.054972  0.068034  1
  B  B13  1  0.500000  0.945022  0.931955  1
  B  B14  1  0.500000  0.555072  0.432178  1
  B  B15  1  0.500000  0.445266  0.568021  1
  B  B16  1  0.500000  0.253247  0.082917  1
  B  B17  1  0.500000  0.746751  0.917064  1
  B  B18  1  0.500000  0.753190  0.417327  1
  B  B19  1  0.500000  0.246773  0.582933  1
  B  B20  1  0.500000  0.294549  0.235354  1
  B  B21  1  0.500000  0.705383  0.764438  1
  B  B22  1  0.500000  0.794539  0.264680  1
  B  B23  1  0.500000  0.205457  0.735340  1
  B  B24  1  0.500000  0.129429  0.316409  1
  B  B25  1  0.500000  0.870363  0.683450  1
  B  B26  1  0.500000  0.629441  0.183603  1
  B  B27  1  0.500000  0.370575  0.816393  1
  B  B28  1  0.500000  0.482888  0.286382  1
  B  B29  1  0.500000  0.517336  0.713491  1
  B  B30  1  0.500000  0.982863  0.213648  1
  B  B31  1  0.500000  0.017110  0.786347  1
  B  B32  1  0.500000  0.095750  0.473999  1
  B  B33  1  0.500000  0.904014  0.526068  1
  B  B34  1  0.500000  0.595749  0.025997  1
  B  B35  1  0.500000  0.404257  0.973991  1
