# generated using pymatgen
data_Ho7Sn22Os6Se
_symmetry_space_group_name_H-M   'P 1'
_cell_length_a   9.82963700
_cell_length_b   9.82963508
_cell_length_c   10.07048600
_cell_angle_alpha   90.00000000
_cell_angle_beta   90.00000000
_cell_angle_gamma   119.99999637
_symmetry_Int_Tables_number   1
_chemical_formula_structural   Ho7Sn22Os6Se
_chemical_formula_sum   'Ho7 Sn22 Os6 Se1'
_cell_volume   842.66693421
_cell_formula_units_Z   1
loop_
 _symmetry_equiv_pos_site_id
 _symmetry_equiv_pos_as_xyz
  1  'x, y, z'
loop_
 _atom_site_type_symbol
 _atom_site_label
 _atom_site_symmetry_multiplicity
 _atom_site_fract_x
 _atom_site_fract_y
 _atom_site_fract_z
 _atom_site_occupancy
  Ho  Ho0  1  0.000000  0.000000  0.000000  1
  Ho  Ho1  1  0.514634  0.485366  0.699991  1
  Ho  Ho2  1  0.514634  0.029265  0.699991  1
  Ho  Ho3  1  0.970735  0.485366  0.699991  1
  Ho  Ho4  1  0.029265  0.514634  0.300009  1
  Ho  Ho5  1  0.485366  0.970735  0.300009  1
  Ho  Ho6  1  0.485366  0.514634  0.300009  1
  Sn  Sn7  1  0.666667  0.333333  0.170085  1
  Sn  Sn8  1  0.666667  0.333333  0.869641  1
  Sn  Sn9  1  0.333333  0.666667  0.130359  1
  Sn  Sn10  1  0.350020  0.350020  0.000000  1
  Sn  Sn11  1  0.000000  0.649980  0.000000  1
  Sn  Sn12  1  0.649980  0.000000  0.000000  1
  Sn  Sn13  1  0.649980  0.649980  0.000000  1
  Sn  Sn14  1  0.333333  0.666667  0.829915  1
  Sn  Sn15  1  0.446719  0.223361  0.463536  1
  Sn  Sn16  1  0.223361  0.776639  0.536464  1
  Sn  Sn17  1  0.223361  0.446719  0.536464  1
  Sn  Sn18  1  0.553281  0.776639  0.536464  1
  Sn  Sn19  1  0.116576  0.883424  0.282562  1
  Sn  Sn20  1  0.776639  0.553281  0.463536  1
  Sn  Sn21  1  0.776639  0.223361  0.463536  1
  Sn  Sn22  1  0.350020  0.000000  0.000000  1
  Sn  Sn23  1  0.116576  0.233152  0.282562  1
  Sn  Sn24  1  0.766848  0.883424  0.282562  1
  Sn  Sn25  1  0.233152  0.116576  0.717438  1
  Sn  Sn26  1  0.883424  0.766848  0.717438  1
  Sn  Sn27  1  0.883424  0.116576  0.717438  1
  Sn  Sn28  1  0.000000  0.350020  0.000000  1
  Os  Os29  1  0.168794  0.831206  0.794893  1
  Os  Os30  1  0.168794  0.337589  0.794893  1
  Os  Os31  1  0.662411  0.831206  0.794893  1
  Os  Os32  1  0.337589  0.168794  0.205107  1
  Os  Os33  1  0.831206  0.662411  0.205107  1
  Os  Os34  1  0.831206  0.168794  0.205107  1
  Se  Se35  1  0.000000  0.000000  0.500000  1
