# generated using pymatgen
data_Mn3Sb12Ru
_symmetry_space_group_name_H-M   'P 1'
_cell_length_a   8.14870022
_cell_length_b   8.13241764
_cell_length_c   8.13241780
_cell_angle_alpha   109.43062795
_cell_angle_beta   109.51178081
_cell_angle_gamma   109.51177836
_symmetry_Int_Tables_number   1
_chemical_formula_structural   Mn3Sb12Ru
_chemical_formula_sum   'Mn3 Sb12 Ru1'
_cell_volume   414.65622723
_cell_formula_units_Z   1
loop_
 _symmetry_equiv_pos_site_id
 _symmetry_equiv_pos_as_xyz
  1  'x, y, z'
loop_
 _atom_site_type_symbol
 _atom_site_label
 _atom_site_symmetry_multiplicity
 _atom_site_fract_x
 _atom_site_fract_y
 _atom_site_fract_z
 _atom_site_occupancy
  Mn  Mn0  1  0.000000  0.000000  0.500000  1
  Mn  Mn1  1  0.000000  0.500000  0.000000  1
  Mn  Mn2  1  0.500000  0.500000  0.500000  1
  Sb  Sb3  1  0.156713  0.821075  0.665448  1
  Sb  Sb4  1  0.843287  0.178925  0.334552  1
  Sb  Sb5  1  0.844738  0.504932  0.660323  1
  Sb  Sb6  1  0.155262  0.495068  0.339677  1
  Sb  Sb7  1  0.815585  0.660323  0.155390  1
  Sb  Sb8  1  0.184415  0.339677  0.844610  1
  Sb  Sb9  1  0.508735  0.665448  0.844373  1
  Sb  Sb10  1  0.491265  0.334552  0.155627  1
  Sb  Sb11  1  0.664362  0.155627  0.821075  1
  Sb  Sb12  1  0.335638  0.844373  0.178925  1
  Sb  Sb13  1  0.660195  0.844610  0.504932  1
  Sb  Sb14  1  0.339805  0.155390  0.495068  1
  Ru  Ru15  1  0.500000  0.000000  0.000000  1
