# generated using pymatgen
data_Ti6Mn3Co3N2
_symmetry_space_group_name_H-M   'P 1'
_cell_length_a   7.79937529
_cell_length_b   7.83270197
_cell_length_c   7.83270202
_cell_angle_alpha   60.18849963
_cell_angle_beta   60.14064721
_cell_angle_gamma   60.14064425
_symmetry_Int_Tables_number   1
_chemical_formula_structural   Ti6Mn3Co3N2
_chemical_formula_sum   'Ti12 Mn6 Co6 N4'
_cell_volume   339.55138832
_cell_formula_units_Z   2
loop_
 _symmetry_equiv_pos_site_id
 _symmetry_equiv_pos_as_xyz
  1  'x, y, z'
loop_
 _atom_site_type_symbol
 _atom_site_label
 _atom_site_symmetry_multiplicity
 _atom_site_fract_x
 _atom_site_fract_y
 _atom_site_fract_z
 _atom_site_occupancy
  Ti  Ti0  1  0.188656  0.191418  0.810916  1
  Ti  Ti1  1  0.441730  0.059032  0.057508  1
  Ti  Ti2  1  0.058127  0.440841  0.442906  1
  Ti  Ti3  1  0.440990  0.439084  0.058582  1
  Ti  Ti4  1  0.443363  0.055615  0.443392  1
  Ti  Ti5  1  0.061344  0.439084  0.058582  1
  Ti  Ti6  1  0.809010  0.191418  0.810916  1
  Ti  Ti7  1  0.808270  0.192492  0.190968  1
  Ti  Ti8  1  0.191873  0.807094  0.809159  1
  Ti  Ti9  1  0.192370  0.806608  0.194385  1
  Ti  Ti10  1  0.057630  0.055615  0.443392  1
  Ti  Ti11  1  0.806637  0.806608  0.194385  1
  Mn  Mn12  1  0.621729  0.128128  0.628414  1
  Mn  Mn13  1  0.628271  0.621586  0.121872  1
  Mn  Mn14  1  0.125000  0.617469  0.632531  1
  Mn  Mn15  1  0.625000  0.617469  0.632531  1
  Mn  Mn16  1  0.825688  0.522585  0.826040  1
  Mn  Mn17  1  0.424312  0.423960  0.727415  1
  Co  Co18  1  0.741348  0.421352  0.416275  1
  Co  Co19  1  0.421025  0.421352  0.416275  1
  Co  Co20  1  0.508652  0.833725  0.828648  1
  Co  Co21  1  0.828975  0.833725  0.828648  1
  Co  Co22  1  0.829636  0.833408  0.507319  1
  Co  Co23  1  0.420364  0.742681  0.416592  1
  N  N24  1  0.124207  0.626153  0.125432  1
  N  N25  1  0.125793  0.124568  0.623847  1
  N  N26  1  0.625000  0.123464  0.126536  1
  N  N27  1  0.125000  0.123464  0.126536  1
