# generated using pymatgen
data_Dy4MnTcRu6
_symmetry_space_group_name_H-M   'P 1'
_cell_length_a   5.44167903
_cell_length_b   5.17905598
_cell_length_c   8.97154300
_cell_angle_alpha   90.00000000
_cell_angle_beta   90.00000000
_cell_angle_gamma   121.52042538
_symmetry_Int_Tables_number   1
_chemical_formula_structural   Dy4MnTcRu6
_chemical_formula_sum   'Dy4 Mn1 Tc1 Ru6'
_cell_volume   215.53685606
_cell_formula_units_Z   1
loop_
 _symmetry_equiv_pos_site_id
 _symmetry_equiv_pos_as_xyz
  1  'x, y, z'
loop_
 _atom_site_type_symbol
 _atom_site_label
 _atom_site_symmetry_multiplicity
 _atom_site_fract_x
 _atom_site_fract_y
 _atom_site_fract_z
 _atom_site_occupancy
  Dy  Dy0  1  0.667626  0.334309  0.566416  1
  Dy  Dy1  1  0.328934  0.658301  0.434884  1
  Dy  Dy2  1  0.328934  0.658301  0.065116  1
  Dy  Dy3  1  0.667626  0.334309  0.933584  1
  Mn  Mn4  1  0.164601  0.329251  0.750000  1
  Tc  Tc5  1  0.843866  0.688403  0.250000  1
  Ru  Ru6  1  0.994554  0.989260  0.502613  1
  Ru  Ru7  1  0.994554  0.989260  0.997387  1
  Ru  Ru8  1  0.174936  0.828432  0.750000  1
  Ru  Ru9  1  0.652604  0.827925  0.750000  1
  Ru  Ru10  1  0.828060  0.181375  0.250000  1
  Ru  Ru11  1  0.353705  0.180871  0.250000  1
