# generated using pymatgen
data_Tb2DyTm2Sb3
_symmetry_space_group_name_H-M   'P 1'
_cell_length_a   8.96356362
_cell_length_b   8.96934284
_cell_length_c   6.27085800
_cell_angle_alpha   90.00000000
_cell_angle_beta   90.00000000
_cell_angle_gamma   120.02133364
_symmetry_Int_Tables_number   1
_chemical_formula_structural   Tb2DyTm2Sb3
_chemical_formula_sum   'Tb4 Dy2 Tm4 Sb6'
_cell_volume   436.52138759
_cell_formula_units_Z   2
loop_
 _symmetry_equiv_pos_site_id
 _symmetry_equiv_pos_as_xyz
  1  'x, y, z'
loop_
 _atom_site_type_symbol
 _atom_site_label
 _atom_site_symmetry_multiplicity
 _atom_site_fract_x
 _atom_site_fract_y
 _atom_site_fract_z
 _atom_site_occupancy
  Tb  Tb0  1  0.752546  0.752484  0.250000  1
  Tb  Tb1  1  0.752546  0.000062  0.750000  1
  Tb  Tb2  1  0.247454  0.247516  0.750000  1
  Tb  Tb3  1  0.247454  0.999938  0.250000  1
  Dy  Dy4  1  0.000000  0.752418  0.750000  1
  Dy  Dy5  1  0.000000  0.247582  0.250000  1
  Tm  Tm6  1  0.333364  0.666683  0.500000  1
  Tm  Tm7  1  0.666636  0.333317  0.000000  1
  Tm  Tm8  1  0.666636  0.333317  0.500000  1
  Tm  Tm9  1  0.333364  0.666683  0.000000  1
  Sb  Sb10  1  0.389968  0.999832  0.750000  1
  Sb  Sb11  1  0.389968  0.390135  0.250000  1
  Sb  Sb12  1  0.000000  0.609742  0.250000  1
  Sb  Sb13  1  0.000000  0.390258  0.750000  1
  Sb  Sb14  1  0.610032  0.609865  0.750000  1
  Sb  Sb15  1  0.610032  0.000168  0.250000  1
