# generated using pymatgen
data_K3Sr3AlP4
_symmetry_space_group_name_H-M   'P 1'
_cell_length_a   10.00467100
_cell_length_b   10.00467141
_cell_length_c   7.47198000
_cell_angle_alpha   90.00000000
_cell_angle_beta   90.00000000
_cell_angle_gamma   119.99999535
_symmetry_Int_Tables_number   1
_chemical_formula_structural   K3Sr3AlP4
_chemical_formula_sum   'K6 Sr6 Al2 P8'
_cell_volume   647.69716123
_cell_formula_units_Z   2
loop_
 _symmetry_equiv_pos_site_id
 _symmetry_equiv_pos_as_xyz
  1  'x, y, z'
loop_
 _atom_site_type_symbol
 _atom_site_label
 _atom_site_symmetry_multiplicity
 _atom_site_fract_x
 _atom_site_fract_y
 _atom_site_fract_z
 _atom_site_occupancy
  K  K0  1  0.730585  0.865292  0.173779  1
  K  K1  1  0.865292  0.134708  0.673779  1
  K  K2  1  0.865292  0.730585  0.673779  1
  K  K3  1  0.134708  0.269415  0.173779  1
  K  K4  1  0.134708  0.865292  0.173779  1
  K  K5  1  0.269415  0.134708  0.673779  1
  Sr  Sr6  1  0.053921  0.526961  0.499498  1
  Sr  Sr7  1  0.473039  0.946079  0.499498  1
  Sr  Sr8  1  0.473039  0.526961  0.499498  1
  Sr  Sr9  1  0.526961  0.473039  0.999498  1
  Sr  Sr10  1  0.526961  0.053921  0.999498  1
  Sr  Sr11  1  0.946079  0.473039  0.999498  1
  Al  Al12  1  0.333333  0.666667  0.880235  1
  Al  Al13  1  0.666667  0.333333  0.380235  1
  P  P14  1  0.666667  0.333333  0.713321  1
  P  P15  1  0.596604  0.798303  0.771938  1
  P  P16  1  0.798303  0.201697  0.271938  1
  P  P17  1  0.798303  0.596604  0.271938  1
  P  P18  1  0.333333  0.666667  0.213321  1
  P  P19  1  0.201697  0.403396  0.771938  1
  P  P20  1  0.201697  0.798303  0.771938  1
  P  P21  1  0.403396  0.201697  0.271938  1
