# generated using pymatgen
data_Sc6Ta2Nb2Al12Fe7
_symmetry_space_group_name_H-M   'P 1'
_cell_length_a   8.67136796
_cell_length_b   8.67222488
_cell_length_c   8.67222600
_cell_angle_alpha   60.00188398
_cell_angle_beta   60.00327182
_cell_angle_gamma   60.00326874
_symmetry_Int_Tables_number   1
_chemical_formula_structural   Sc6Ta2Nb2Al12Fe7
_chemical_formula_sum   'Sc6 Ta2 Nb2 Al12 Fe7'
_cell_volume   461.17035813
_cell_formula_units_Z   1
loop_
 _symmetry_equiv_pos_site_id
 _symmetry_equiv_pos_as_xyz
  1  'x, y, z'
loop_
 _atom_site_type_symbol
 _atom_site_label
 _atom_site_symmetry_multiplicity
 _atom_site_fract_x
 _atom_site_fract_y
 _atom_site_fract_z
 _atom_site_occupancy
  Sc  Sc0  1  0.706953  0.706144  0.293699  1
  Sc  Sc1  1  0.293203  0.706144  0.293699  1
  Sc  Sc2  1  0.707113  0.292887  0.292887  1
  Sc  Sc3  1  0.293203  0.293699  0.706144  1
  Sc  Sc4  1  0.706953  0.293699  0.706144  1
  Sc  Sc5  1  0.293927  0.706073  0.706073  1
  Ta  Ta6  1  0.357885  0.880662  0.880662  1
  Ta  Ta7  1  0.880789  0.880662  0.880662  1
  Nb  Nb8  1  0.880647  0.880543  0.358161  1
  Nb  Nb9  1  0.880647  0.358161  0.880543  1
  Al  Al10  1  0.120636  0.119483  0.639244  1
  Al  Al11  1  0.120636  0.639244  0.119483  1
  Al  Al12  1  0.638825  0.120007  0.120007  1
  Al  Al13  1  0.121161  0.120007  0.120007  1
  Al  Al14  1  0.664034  0.664547  0.007387  1
  Al  Al15  1  0.664034  0.007387  0.664547  1
  Al  Al16  1  0.006638  0.664667  0.664667  1
  Al  Al17  1  0.664030  0.664667  0.664667  1
  Al  Al18  1  0.333880  0.333777  0.998465  1
  Al  Al19  1  0.333880  0.998465  0.333777  1
  Al  Al20  1  0.998826  0.333695  0.333695  1
  Al  Al21  1  0.333783  0.333695  0.333695  1
  Fe  Fe22  1  0.000307  0.999693  0.999693  1
  Fe  Fe23  1  0.994878  0.994853  0.506270  1
  Fe  Fe24  1  0.503999  0.994853  0.506270  1
  Fe  Fe25  1  0.994938  0.505062  0.505062  1
  Fe  Fe26  1  0.503999  0.506270  0.994853  1
  Fe  Fe27  1  0.994878  0.506270  0.994853  1
  Fe  Fe28  1  0.505317  0.994683  0.994683  1
