# generated using pymatgen
data_YHo3Al18(CuRh2)2
_symmetry_space_group_name_H-M   'P 1'
_cell_length_a   7.56656234
_cell_length_b   7.56574417
_cell_length_c   9.41283500
_cell_angle_alpha   90.00059221
_cell_angle_beta   89.99871723
_cell_angle_gamma   119.85292477
_symmetry_Int_Tables_number   1
_chemical_formula_structural   YHo3Al18(CuRh2)2
_chemical_formula_sum   'Y1 Ho3 Al18 Cu2 Rh4'
_cell_volume   467.35089078
_cell_formula_units_Z   1
loop_
 _symmetry_equiv_pos_site_id
 _symmetry_equiv_pos_as_xyz
  1  'x, y, z'
loop_
 _atom_site_type_symbol
 _atom_site_label
 _atom_site_symmetry_multiplicity
 _atom_site_fract_x
 _atom_site_fract_y
 _atom_site_fract_z
 _atom_site_occupancy
  Y  Y0  1  0.326788  0.006219  0.749997  1
  Ho  Ho1  1  0.993934  0.672997  0.249998  1
  Ho  Ho2  1  0.006223  0.326823  0.750001  1
  Ho  Ho3  1  0.673148  0.993879  0.249995  1
  Al  Al4  1  0.127170  0.127241  0.249996  1
  Al  Al5  1  0.872146  0.872478  0.749995  1
  Al  Al6  1  0.999494  0.337810  0.075272  1
  Al  Al7  1  0.000314  0.661843  0.925178  1
  Al  Al8  1  0.000314  0.661851  0.574819  1
  Al  Al9  1  0.337952  0.999417  0.424377  1
  Al  Al10  1  0.999502  0.337814  0.424724  1
  Al  Al11  1  0.662487  0.000513  0.574797  1
  Al  Al12  1  0.662482  0.000512  0.925201  1
  Al  Al13  1  0.337948  0.999412  0.075621  1
  Al  Al14  1  0.335267  0.335463  0.553226  1
  Al  Al15  1  0.664966  0.664921  0.446138  1
  Al  Al16  1  0.664964  0.664918  0.053860  1
  Al  Al17  1  0.335258  0.335456  0.946771  1
  Al  Al18  1  0.337413  0.548785  0.250005  1
  Al  Al19  1  0.663010  0.451618  0.749995  1
  Al  Al20  1  0.548884  0.337480  0.249998  1
  Al  Al21  1  0.451196  0.662248  0.750003  1
  Cu  Cu22  1  0.998757  0.000141  0.001224  1
  Cu  Cu23  1  0.998744  0.000078  0.498823  1
  Rh  Rh24  1  0.671996  0.328734  0.000427  1
  Rh  Rh25  1  0.328799  0.671331  0.000180  1
  Rh  Rh26  1  0.328785  0.671312  0.499804  1
  Rh  Rh27  1  0.672059  0.328705  0.499574  1
