# generated using pymatgen
data_Sc4Co16Cu(TcP4)3
_symmetry_space_group_name_H-M   'P 1'
_cell_length_a   3.64096400
_cell_length_b   10.21926870
_cell_length_c   11.69353725
_cell_angle_alpha   90.06396194
_cell_angle_beta   90.00000000
_cell_angle_gamma   90.00000000
_symmetry_Int_Tables_number   1
_chemical_formula_structural   Sc4Co16Cu(TcP4)3
_chemical_formula_sum   'Sc4 Co16 Cu1 Tc3 P12'
_cell_volume   435.09273961
_cell_formula_units_Z   1
loop_
 _symmetry_equiv_pos_site_id
 _symmetry_equiv_pos_as_xyz
  1  'x, y, z'
loop_
 _atom_site_type_symbol
 _atom_site_label
 _atom_site_symmetry_multiplicity
 _atom_site_fract_x
 _atom_site_fract_y
 _atom_site_fract_z
 _atom_site_occupancy
  Sc  Sc0  1  0.250000  0.580341  0.700639  1
  Sc  Sc1  1  0.250000  0.915002  0.205815  1
  Sc  Sc2  1  0.750000  0.416041  0.294740  1
  Sc  Sc3  1  0.750000  0.082662  0.795678  1
  Co  Co4  1  0.250000  0.407284  0.484684  1
  Co  Co5  1  0.250000  0.091394  0.985958  1
  Co  Co6  1  0.750000  0.591885  0.512582  1
  Co  Co7  1  0.750000  0.908117  0.013042  1
  Co  Co8  1  0.250000  0.219212  0.175063  1
  Co  Co9  1  0.250000  0.277187  0.679509  1
  Co  Co10  1  0.750000  0.778174  0.822172  1
  Co  Co11  1  0.750000  0.721784  0.322601  1
  Co  Co12  1  0.250000  0.885359  0.702526  1
  Co  Co13  1  0.250000  0.612270  0.203181  1
  Co  Co14  1  0.750000  0.117632  0.299185  1
  Co  Co15  1  0.750000  0.389736  0.797785  1
  Co  Co16  1  0.250000  0.465031  0.933068  1
  Co  Co17  1  0.250000  0.038188  0.431086  1
  Co  Co18  1  0.750000  0.535965  0.068933  1
  Co  Co19  1  0.750000  0.966148  0.570972  1
  Cu  Cu20  1  0.750000  0.214433  0.510647  1
  Tc  Tc21  1  0.250000  0.712607  0.989434  1
  Tc  Tc22  1  0.250000  0.787811  0.490736  1
  Tc  Tc23  1  0.750000  0.286753  0.009684  1
  P  P24  1  0.250000  0.419136  0.117269  1
  P  P25  1  0.250000  0.079676  0.617213  1
  P  P26  1  0.750000  0.580101  0.883156  1
  P  P27  1  0.750000  0.922058  0.385092  1
  P  P28  1  0.250000  0.265172  0.864199  1
  P  P29  1  0.250000  0.235678  0.363583  1
  P  P30  1  0.750000  0.735633  0.135871  1
  P  P31  1  0.750000  0.765116  0.633687  1
  P  P32  1  0.250000  0.592885  0.390271  1
  P  P33  1  0.250000  0.906561  0.888273  1
  P  P34  1  0.750000  0.403671  0.609656  1
  P  P35  1  0.750000  0.093296  0.112007  1
