# generated using pymatgen
data_Ti8Al14Co7Ge
_symmetry_space_group_name_H-M   'P 1'
_cell_length_a   8.42870188
_cell_length_b   8.42870236
_cell_length_c   8.42870262
_cell_angle_alpha   120.09242002
_cell_angle_beta   119.89152296
_cell_angle_gamma   90.01399191
_symmetry_Int_Tables_number   1
_chemical_formula_structural   Ti8Al14Co7Ge
_chemical_formula_sum   'Ti8 Al14 Co7 Ge1'
_cell_volume   423.46563382
_cell_formula_units_Z   1
loop_
 _symmetry_equiv_pos_site_id
 _symmetry_equiv_pos_as_xyz
  1  'x, y, z'
loop_
 _atom_site_type_symbol
 _atom_site_label
 _atom_site_symmetry_multiplicity
 _atom_site_fract_x
 _atom_site_fract_y
 _atom_site_fract_z
 _atom_site_occupancy
  Ti  Ti0  1  0.793385  0.290474  0.076879  1
  Ti  Ti1  1  0.213595  0.290474  0.497089  1
  Ti  Ti2  1  0.207940  0.707940  0.500000  1
  Ti  Ti3  1  0.213595  0.716506  0.923121  1
  Ti  Ti4  1  0.793385  0.716506  0.502911  1
  Ti  Ti5  1  0.785571  0.285571  0.500000  1
  Ti  Ti6  1  0.380097  0.120937  0.740840  1
  Ti  Ti7  1  0.380097  0.639256  0.259160  1
  Al  Al8  1  0.158995  0.339142  0.180147  1
  Al  Al9  1  0.158995  0.978849  0.819853  1
  Al  Al10  1  0.155947  0.341580  0.814368  1
  Al  Al11  1  0.527211  0.341580  0.185632  1
  Al  Al12  1  0.840827  0.658593  0.817768  1
  Al  Al13  1  0.840827  0.023058  0.182232  1
  Al  Al14  1  0.839692  0.659358  0.180334  1
  Al  Al15  1  0.479023  0.659358  0.819666  1
  Al  Al16  1  0.380422  0.119468  0.260954  1
  Al  Al17  1  0.858515  0.119468  0.739046  1
  Al  Al18  1  0.619581  0.879236  0.259654  1
  Al  Al19  1  0.619581  0.359926  0.740346  1
  Al  Al20  1  0.619922  0.879641  0.740282  1
  Al  Al21  1  0.139358  0.879641  0.259718  1
  Co  Co22  1  0.002671  0.000581  0.502480  1
  Co  Co23  1  0.498102  0.000581  0.997911  1
  Co  Co24  1  0.497262  0.497262  0.000000  1
  Co  Co25  1  0.498102  0.500191  0.497520  1
  Co  Co26  1  0.002671  0.500191  0.002089  1
  Co  Co27  1  0.000071  0.000071  0.000000  1
  Co  Co28  1  0.497589  0.997589  0.500000  1
  Ge  Ge29  1  0.996970  0.496970  0.500000  1
