# generated using pymatgen
data_La4Er6Co2Br15
_symmetry_space_group_name_H-M   'P 1'
_cell_length_a   9.51731409
_cell_length_b   10.28763578
_cell_length_c   11.05113900
_cell_angle_alpha   92.38168600
_cell_angle_beta   113.79445781
_cell_angle_gamma   110.79492641
_symmetry_Int_Tables_number   1
_chemical_formula_structural   La4Er6Co2Br15
_chemical_formula_sum   'La4 Er6 Co2 Br15'
_cell_volume   903.70003807
_cell_formula_units_Z   1
loop_
 _symmetry_equiv_pos_site_id
 _symmetry_equiv_pos_as_xyz
  1  'x, y, z'
loop_
 _atom_site_type_symbol
 _atom_site_label
 _atom_site_symmetry_multiplicity
 _atom_site_fract_x
 _atom_site_fract_y
 _atom_site_fract_z
 _atom_site_occupancy
  La  La0  1  0.803717  0.405559  0.272496  1
  La  La1  1  0.196283  0.594441  0.727504  1
  La  La2  1  0.670252  0.751641  0.818302  1
  La  La3  1  0.329748  0.248359  0.181698  1
  Er  Er4  1  0.527389  0.711866  0.098361  1
  Er  Er5  1  0.472611  0.288134  0.901639  1
  Er  Er6  1  0.589023  0.043651  0.329226  1
  Er  Er7  1  0.410977  0.956349  0.670774  1
  Er  Er8  1  0.715297  0.074173  0.045356  1
  Er  Er9  1  0.284703  0.925827  0.954644  1
  Co  Co10  1  0.466979  0.827224  0.880542  1
  Co  Co11  1  0.533021  0.172776  0.119458  1
  Br  Br12  1  0.000000  0.000000  0.000000  1
  Br  Br13  1  0.628284  0.895873  0.578331  1
  Br  Br14  1  0.371716  0.104127  0.421669  1
  Br  Br15  1  0.876721  0.289466  0.526499  1
  Br  Br16  1  0.123279  0.710534  0.473501  1
  Br  Br17  1  0.308793  0.768013  0.187529  1
  Br  Br18  1  0.691207  0.231987  0.812471  1
  Br  Br19  1  0.050439  0.329378  0.214390  1
  Br  Br20  1  0.179363  0.059738  0.703347  1
  Br  Br21  1  0.820637  0.940262  0.296653  1
  Br  Br22  1  0.258686  0.417972  0.951744  1
  Br  Br23  1  0.741314  0.582028  0.048256  1
  Br  Br24  1  0.405663  0.453143  0.670463  1
  Br  Br25  1  0.594337  0.546857  0.329537  1
  Br  Br26  1  0.949561  0.670622  0.785610  1
