# generated using pymatgen
data_Dy8Hf12Si15Sn
_symmetry_space_group_name_H-M   'P 1'
_cell_length_a   7.30269107
_cell_length_b   7.33223714
_cell_length_c   13.43448802
_cell_angle_alpha   89.76522308
_cell_angle_beta   90.00926691
_cell_angle_gamma   89.84443008
_symmetry_Int_Tables_number   1
_chemical_formula_structural   Dy8Hf12Si15Sn
_chemical_formula_sum   'Dy8 Hf12 Si15 Sn1'
_cell_volume   719.34180214
_cell_formula_units_Z   1
loop_
 _symmetry_equiv_pos_site_id
 _symmetry_equiv_pos_as_xyz
  1  'x, y, z'
loop_
 _atom_site_type_symbol
 _atom_site_label
 _atom_site_symmetry_multiplicity
 _atom_site_fract_x
 _atom_site_fract_y
 _atom_site_fract_z
 _atom_site_occupancy
  Dy  Dy0  1  0.988485  0.345012  0.212428  1
  Dy  Dy1  1  0.004709  0.656094  0.716256  1
  Dy  Dy2  1  0.148754  0.505035  0.470552  1
  Dy  Dy3  1  0.505750  0.842628  0.032887  1
  Dy  Dy4  1  0.844335  0.503956  0.964155  1
  Dy  Dy5  1  0.498047  0.153645  0.539008  1
  Dy  Dy6  1  0.343752  0.995777  0.785024  1
  Dy  Dy7  1  0.662157  0.997636  0.283373  1
  Hf  Hf8  1  0.174439  0.175131  0.999245  1
  Hf  Hf9  1  0.825364  0.826779  0.501125  1
  Hf  Hf10  1  0.326255  0.681275  0.247976  1
  Hf  Hf11  1  0.674974  0.325012  0.750199  1
  Hf  Hf12  1  0.142175  0.987694  0.373749  1
  Hf  Hf13  1  0.852204  0.003633  0.873749  1
  Hf  Hf14  1  0.503607  0.649912  0.624485  1
  Hf  Hf15  1  0.351251  0.495372  0.875717  1
  Hf  Hf16  1  0.496536  0.351686  0.118584  1
  Hf  Hf17  1  0.660099  0.514586  0.379600  1
  Hf  Hf18  1  0.994632  0.149190  0.626986  1
  Hf  Hf19  1  0.002566  0.849348  0.123987  1
  Si  Si20  1  0.637352  0.705069  0.816885  1
  Si  Si21  1  0.204802  0.864231  0.568070  1
  Si  Si22  1  0.138040  0.794617  0.932323  1
  Si  Si23  1  0.795479  0.136819  0.065324  1
  Si  Si24  1  0.861856  0.204326  0.433525  1
  Si  Si25  1  0.295355  0.362925  0.683569  1
  Si  Si26  1  0.703176  0.636862  0.182596  1
  Si  Si27  1  0.294735  0.042131  0.180704  1
  Si  Si28  1  0.705384  0.949688  0.686490  1
  Si  Si29  1  0.450265  0.797000  0.435642  1
  Si  Si30  1  0.204149  0.549061  0.064226  1
  Si  Si31  1  0.549025  0.203613  0.933876  1
  Si  Si32  1  0.793716  0.450566  0.566703  1
  Si  Si33  1  0.049392  0.295029  0.814678  1
  Si  Si34  1  0.952791  0.702431  0.312987  1
  Sn  Sn35  1  0.364393  0.296234  0.323318  1
