# generated using pymatgen
data_LuHf(Nb2N3)4
_symmetry_space_group_name_H-M   'P 1'
_cell_length_a   5.31543100
_cell_length_b   5.31542878
_cell_length_c   10.54519900
_cell_angle_alpha   90.00000000
_cell_angle_beta   90.00000000
_cell_angle_gamma   120.00000761
_symmetry_Int_Tables_number   1
_chemical_formula_structural   LuHf(Nb2N3)4
_chemical_formula_sum   'Lu1 Hf1 Nb8 N12'
_cell_volume   258.02522557
_cell_formula_units_Z   1
loop_
 _symmetry_equiv_pos_site_id
 _symmetry_equiv_pos_as_xyz
  1  'x, y, z'
loop_
 _atom_site_type_symbol
 _atom_site_label
 _atom_site_symmetry_multiplicity
 _atom_site_fract_x
 _atom_site_fract_y
 _atom_site_fract_z
 _atom_site_occupancy
  Lu  Lu0  1  0.666667  0.333333  0.000000  1
  Hf  Hf1  1  0.333333  0.666667  0.500000  1
  Nb  Nb2  1  0.666667  0.333333  0.500000  1
  Nb  Nb3  1  0.333333  0.666667  0.000000  1
  Nb  Nb4  1  0.678101  0.001120  0.748508  1
  Nb  Nb5  1  0.678101  0.676981  0.251492  1
  Nb  Nb6  1  0.998880  0.321899  0.251492  1
  Nb  Nb7  1  0.998880  0.676981  0.748508  1
  Nb  Nb8  1  0.323019  0.321899  0.748508  1
  Nb  Nb9  1  0.323019  0.001120  0.251492  1
  N  N10  1  0.345751  0.342792  0.377648  1
  N  N11  1  0.657208  0.002958  0.377648  1
  N  N12  1  0.997042  0.654249  0.377648  1
  N  N13  1  0.012207  0.349930  0.872293  1
  N  N14  1  0.650070  0.987793  0.127707  1
  N  N15  1  0.650070  0.662277  0.872293  1
  N  N16  1  0.337723  0.987793  0.872293  1
  N  N17  1  0.657208  0.654249  0.622352  1
  N  N18  1  0.997042  0.342792  0.622352  1
  N  N19  1  0.012207  0.662277  0.127707  1
  N  N20  1  0.345751  0.002958  0.622352  1
  N  N21  1  0.337723  0.349930  0.127707  1
