# generated using pymatgen
data_SrNd6MnBr12
_symmetry_space_group_name_H-M   'P 1'
_cell_length_a   9.53981110
_cell_length_b   9.69709605
_cell_length_c   9.37774739
_cell_angle_alpha   106.12770619
_cell_angle_beta   105.91639848
_cell_angle_gamma   106.56690991
_symmetry_Int_Tables_number   1
_chemical_formula_structural   SrNd6MnBr12
_chemical_formula_sum   'Sr1 Nd6 Mn1 Br12'
_cell_volume   737.59238746
_cell_formula_units_Z   1
loop_
 _symmetry_equiv_pos_site_id
 _symmetry_equiv_pos_as_xyz
  1  'x, y, z'
loop_
 _atom_site_type_symbol
 _atom_site_label
 _atom_site_symmetry_multiplicity
 _atom_site_fract_x
 _atom_site_fract_y
 _atom_site_fract_z
 _atom_site_occupancy
  Sr  Sr0  1  0.500000  0.500000  0.500000  1
  Nd  Nd1  1  0.107556  0.316882  0.016629  1
  Nd  Nd2  1  0.305925  0.020580  0.103028  1
  Nd  Nd3  1  0.019632  0.095879  0.289685  1
  Nd  Nd4  1  0.980367  0.904121  0.710315  1
  Nd  Nd5  1  0.694075  0.979419  0.896971  1
  Nd  Nd6  1  0.892444  0.683118  0.983371  1
  Mn  Mn7  1  0.000000  0.000000  0.000000  1
  Br  Br8  1  0.216872  0.683556  0.073045  1
  Br  Br9  1  0.450672  0.363421  0.144582  1
  Br  Br10  1  0.683751  0.072583  0.218866  1
  Br  Br11  1  0.930708  0.786508  0.323036  1
  Br  Br12  1  0.148927  0.444731  0.363874  1
  Br  Br13  1  0.366187  0.152571  0.451709  1
  Br  Br14  1  0.633813  0.847429  0.548291  1
  Br  Br15  1  0.851072  0.555269  0.636126  1
  Br  Br16  1  0.069293  0.213493  0.676965  1
  Br  Br17  1  0.316250  0.927418  0.781134  1
  Br  Br18  1  0.549327  0.636578  0.855418  1
  Br  Br19  1  0.783128  0.316445  0.926955  1
