# generated using pymatgen
data_Pa2Mn3Co9P7
_symmetry_space_group_name_H-M   'P 1'
_cell_length_a   9.02199400
_cell_length_b   9.02199587
_cell_length_c   3.66069100
_cell_angle_alpha   90.00000000
_cell_angle_beta   90.00000000
_cell_angle_gamma   120.00000146
_symmetry_Int_Tables_number   1
_chemical_formula_structural   Pa2Mn3Co9P7
_chemical_formula_sum   'Pa2 Mn3 Co9 P7'
_cell_volume   258.04702389
_cell_formula_units_Z   1
loop_
 _symmetry_equiv_pos_site_id
 _symmetry_equiv_pos_as_xyz
  1  'x, y, z'
loop_
 _atom_site_type_symbol
 _atom_site_label
 _atom_site_symmetry_multiplicity
 _atom_site_fract_x
 _atom_site_fract_y
 _atom_site_fract_z
 _atom_site_occupancy
  Pa  Pa0  1  0.333333  0.666667  0.000000  1
  Pa  Pa1  1  0.000000  0.000000  0.500000  1
  Mn  Mn2  1  0.786815  0.235076  0.500000  1
  Mn  Mn3  1  0.764924  0.551739  0.500000  1
  Mn  Mn4  1  0.448261  0.213185  0.500000  1
  Co  Co5  1  0.037245  0.265357  0.000000  1
  Co  Co6  1  0.734643  0.771887  0.000000  1
  Co  Co7  1  0.228113  0.962755  0.000000  1
  Co  Co8  1  0.543906  0.055624  0.000000  1
  Co  Co9  1  0.944376  0.488282  0.000000  1
  Co  Co10  1  0.511718  0.456094  0.000000  1
  Co  Co11  1  0.610447  0.893692  0.500000  1
  Co  Co12  1  0.106308  0.716756  0.500000  1
  Co  Co13  1  0.283244  0.389553  0.500000  1
  P  P14  1  0.773158  0.036376  0.000000  1
  P  P15  1  0.963624  0.736782  0.000000  1
  P  P16  1  0.263218  0.226842  0.000000  1
  P  P17  1  0.376356  0.935599  0.500000  1
  P  P18  1  0.064401  0.440759  0.500000  1
  P  P19  1  0.559241  0.623644  0.500000  1
  P  P20  1  0.666667  0.333333  0.000000  1
