# generated using pymatgen
data_Cs6LuTe4Br
_symmetry_space_group_name_H-M   'P 1'
_cell_length_a   12.36894500
_cell_length_b   12.36894611
_cell_length_c   9.13328400
_cell_angle_alpha   90.00000000
_cell_angle_beta   90.00000000
_cell_angle_gamma   120.00000506
_symmetry_Int_Tables_number   1
_chemical_formula_structural   Cs6LuTe4Br
_chemical_formula_sum   'Cs12 Lu2 Te8 Br2'
_cell_volume   1210.10464346
_cell_formula_units_Z   2
loop_
 _symmetry_equiv_pos_site_id
 _symmetry_equiv_pos_as_xyz
  1  'x, y, z'
loop_
 _atom_site_type_symbol
 _atom_site_label
 _atom_site_symmetry_multiplicity
 _atom_site_fract_x
 _atom_site_fract_y
 _atom_site_fract_z
 _atom_site_occupancy
  Cs  Cs0  1  0.130707  0.869293  0.514978  1
  Cs  Cs1  1  0.738584  0.869293  0.514978  1
  Cs  Cs2  1  0.949535  0.474768  0.319110  1
  Cs  Cs3  1  0.525232  0.474768  0.319110  1
  Cs  Cs4  1  0.869293  0.738584  0.014978  1
  Cs  Cs5  1  0.261416  0.130707  0.014978  1
  Cs  Cs6  1  0.525232  0.050465  0.319110  1
  Cs  Cs7  1  0.130707  0.261416  0.514978  1
  Cs  Cs8  1  0.869293  0.130707  0.014978  1
  Cs  Cs9  1  0.050465  0.525232  0.819110  1
  Cs  Cs10  1  0.474768  0.949535  0.819110  1
  Cs  Cs11  1  0.474768  0.525232  0.819110  1
  Lu  Lu12  1  0.666667  0.333333  0.710393  1
  Lu  Lu13  1  0.333333  0.666667  0.210393  1
  Te  Te14  1  0.410445  0.205222  0.608038  1
  Te  Te15  1  0.589555  0.794778  0.108038  1
  Te  Te16  1  0.666667  0.333333  0.029503  1
  Te  Te17  1  0.794778  0.589555  0.608038  1
  Te  Te18  1  0.205222  0.410445  0.108038  1
  Te  Te19  1  0.333333  0.666667  0.529503  1
  Te  Te20  1  0.205222  0.794778  0.108038  1
  Te  Te21  1  0.794778  0.205222  0.608038  1
  Br  Br22  1  0.000000  0.000000  0.274328  1
  Br  Br23  1  0.000000  0.000000  0.774328  1
