# generated using pymatgen
data_Cs4Ca(VSe4)2
_symmetry_space_group_name_H-M   'P 1'
_cell_length_a   10.02412126
_cell_length_b   10.13223929
_cell_length_c   12.07039037
_cell_angle_alpha   105.04737130
_cell_angle_beta   103.60964405
_cell_angle_gamma   93.20874129
_symmetry_Int_Tables_number   1
_chemical_formula_structural   Cs4Ca(VSe4)2
_chemical_formula_sum   'Cs8 Ca2 V4 Se16'
_cell_volume   1141.68746793
_cell_formula_units_Z   2
loop_
 _symmetry_equiv_pos_site_id
 _symmetry_equiv_pos_as_xyz
  1  'x, y, z'
loop_
 _atom_site_type_symbol
 _atom_site_label
 _atom_site_symmetry_multiplicity
 _atom_site_fract_x
 _atom_site_fract_y
 _atom_site_fract_z
 _atom_site_occupancy
  Cs  Cs0  1  0.938156  0.522033  0.253019  1
  Cs  Cs1  1  0.061844  0.477967  0.746981  1
  Cs  Cs2  1  0.761914  0.990170  0.467236  1
  Cs  Cs3  1  0.238086  0.009830  0.532764  1
  Cs  Cs4  1  0.600866  0.744519  0.019258  1
  Cs  Cs5  1  0.399134  0.255481  0.980742  1
  Cs  Cs6  1  0.617846  0.679781  0.615158  1
  Cs  Cs7  1  0.382154  0.320219  0.384842  1
  Ca  Ca8  1  0.852771  0.134671  0.923196  1
  Ca  Ca9  1  0.147229  0.865329  0.076804  1
  V  V10  1  0.951716  0.110115  0.226536  1
  V  V11  1  0.048284  0.889885  0.773464  1
  V  V12  1  0.369903  0.688538  0.256445  1
  V  V13  1  0.630097  0.311462  0.743555  1
  Se  Se14  1  0.957722  0.884929  0.232604  1
  Se  Se15  1  0.042278  0.115071  0.767396  1
  Se  Se16  1  0.591441  0.079390  0.733079  1
  Se  Se17  1  0.408559  0.920610  0.266921  1
  Se  Se18  1  0.287275  0.664688  0.411668  1
  Se  Se19  1  0.712725  0.335312  0.588332  1
  Se  Se20  1  0.791743  0.418002  0.919980  1
  Se  Se21  1  0.208257  0.581998  0.080020  1
  Se  Se22  1  0.013302  0.251408  0.413435  1
  Se  Se23  1  0.986698  0.748592  0.586565  1
  Se  Se24  1  0.106601  0.165657  0.124370  1
  Se  Se25  1  0.893399  0.834343  0.875630  1
  Se  Se26  1  0.734236  0.137443  0.128254  1
  Se  Se27  1  0.265764  0.862557  0.871746  1
  Se  Se28  1  0.569041  0.588225  0.265708  1
  Se  Se29  1  0.430959  0.411775  0.734292  1
