# generated using pymatgen
data_Ba4Zn(IrO6)2
_symmetry_space_group_name_H-M   'P 1'
_cell_length_a   9.94201794
_cell_length_b   9.94201857
_cell_length_c   9.94201839
_cell_angle_alpha   33.83011968
_cell_angle_beta   33.83011560
_cell_angle_gamma   33.83011146
_symmetry_Int_Tables_number   1
_chemical_formula_structural   Ba4Zn(IrO6)2
_chemical_formula_sum   'Ba4 Zn1 Ir2 O12'
_cell_volume   271.42823905
_cell_formula_units_Z   1
loop_
 _symmetry_equiv_pos_site_id
 _symmetry_equiv_pos_as_xyz
  1  'x, y, z'
loop_
 _atom_site_type_symbol
 _atom_site_label
 _atom_site_symmetry_multiplicity
 _atom_site_fract_x
 _atom_site_fract_y
 _atom_site_fract_z
 _atom_site_occupancy
  Ba  Ba0  1  0.708548  0.708548  0.708548  1
  Ba  Ba1  1  0.291452  0.291452  0.291452  1
  Ba  Ba2  1  0.869733  0.869733  0.869733  1
  Ba  Ba3  1  0.130267  0.130267  0.130267  1
  Zn  Zn4  1  0.000000  0.000000  0.000000  1
  Ir  Ir5  1  0.581299  0.581299  0.581299  1
  Ir  Ir6  1  0.418701  0.418701  0.418701  1
  O  O7  1  0.217607  0.695661  0.217607  1
  O  O8  1  0.217607  0.217607  0.695661  1
  O  O9  1  0.695661  0.217607  0.217607  1
  O  O10  1  0.782393  0.304339  0.782393  1
  O  O11  1  0.782393  0.782393  0.304339  1
  O  O12  1  0.304339  0.782393  0.782393  1
  O  O13  1  0.386557  0.860321  0.386557  1
  O  O14  1  0.386557  0.386557  0.860321  1
  O  O15  1  0.860321  0.386557  0.386557  1
  O  O16  1  0.613443  0.139679  0.613443  1
  O  O17  1  0.613443  0.613443  0.139679  1
  O  O18  1  0.139679  0.613443  0.613443  1
