# generated using pymatgen
data_Dy2Y2TcB12Os
_symmetry_space_group_name_H-M   'P 1'
_cell_length_a   3.67495000
_cell_length_b   9.16674505
_cell_length_c   11.55804004
_cell_angle_alpha   89.91950716
_cell_angle_beta   90.00000000
_cell_angle_gamma   90.00000000
_symmetry_Int_Tables_number   1
_chemical_formula_structural   Dy2Y2TcB12Os
_chemical_formula_sum   'Dy4 Y4 Tc2 B24 Os2'
_cell_volume   389.35912129
_cell_formula_units_Z   2
loop_
 _symmetry_equiv_pos_site_id
 _symmetry_equiv_pos_as_xyz
  1  'x, y, z'
loop_
 _atom_site_type_symbol
 _atom_site_label
 _atom_site_symmetry_multiplicity
 _atom_site_fract_x
 _atom_site_fract_y
 _atom_site_fract_z
 _atom_site_occupancy
  Dy  Dy0  1  0.000000  0.941704  0.370936  1
  Dy  Dy1  1  0.000000  0.058296  0.629064  1
  Dy  Dy2  1  0.000000  0.443665  0.129910  1
  Dy  Dy3  1  0.000000  0.556335  0.870090  1
  Y  Y4  1  0.000000  0.324972  0.415236  1
  Y  Y5  1  0.000000  0.675028  0.584764  1
  Y  Y6  1  0.000000  0.821234  0.087427  1
  Y  Y7  1  0.000000  0.178766  0.912573  1
  Tc  Tc8  1  0.000000  0.638453  0.320394  1
  Tc  Tc9  1  0.000000  0.361547  0.679606  1
  B  B10  1  0.500000  0.553172  0.432849  1
  B  B11  1  0.500000  0.446828  0.567151  1
  B  B12  1  0.500000  0.053692  0.067183  1
  B  B13  1  0.500000  0.946308  0.932817  1
  B  B14  1  0.500000  0.748002  0.418831  1
  B  B15  1  0.500000  0.251998  0.581169  1
  B  B16  1  0.500000  0.248311  0.081402  1
  B  B17  1  0.500000  0.751689  0.918598  1
  B  B18  1  0.500000  0.791127  0.265791  1
  B  B19  1  0.500000  0.208873  0.734209  1
  B  B20  1  0.500000  0.290399  0.233890  1
  B  B21  1  0.500000  0.709601  0.766110  1
  B  B22  1  0.500000  0.631533  0.185659  1
  B  B23  1  0.500000  0.368467  0.814341  1
  B  B24  1  0.500000  0.130977  0.313606  1
  B  B25  1  0.500000  0.869023  0.686394  1
  B  B26  1  0.500000  0.983239  0.212091  1
  B  B27  1  0.500000  0.016761  0.787909  1
  B  B28  1  0.500000  0.483152  0.287573  1
  B  B29  1  0.500000  0.516848  0.712427  1
  B  B30  1  0.500000  0.604387  0.028784  1
  B  B31  1  0.500000  0.395613  0.971216  1
  B  B32  1  0.500000  0.104167  0.470809  1
  B  B33  1  0.500000  0.895832  0.529191  1
  Os  Os34  1  0.000000  0.137409  0.178136  1
  Os  Os35  1  0.000000  0.862591  0.821864  1
