# generated using pymatgen
data_YbDy2Y3(CoSn6)2
_symmetry_space_group_name_H-M   'P 1'
_cell_length_a   8.48710652
_cell_length_b   8.48710687
_cell_length_c   13.12330113
_cell_angle_alpha   89.97288205
_cell_angle_beta   90.02711703
_cell_angle_gamma   148.60658227
_symmetry_Int_Tables_number   1
_chemical_formula_structural   YbDy2Y3(CoSn6)2
_chemical_formula_sum   'Yb1 Dy2 Y3 Co2 Sn12'
_cell_volume   492.40943987
_cell_formula_units_Z   1
loop_
 _symmetry_equiv_pos_site_id
 _symmetry_equiv_pos_as_xyz
  1  'x, y, z'
loop_
 _atom_site_type_symbol
 _atom_site_label
 _atom_site_symmetry_multiplicity
 _atom_site_fract_x
 _atom_site_fract_y
 _atom_site_fract_z
 _atom_site_occupancy
  Yb  Yb0  1  0.898987  0.101013  0.403494  1
  Dy  Dy1  1  0.101046  0.898954  0.906811  1
  Dy  Dy2  1  0.099779  0.900221  0.248875  1
  Y  Y3  1  0.898675  0.101325  0.093784  1
  Y  Y4  1  0.101457  0.898543  0.594351  1
  Y  Y5  1  0.900920  0.099080  0.752305  1
  Co  Co6  1  0.299452  0.700548  0.250279  1
  Co  Co7  1  0.699440  0.300560  0.749351  1
  Sn  Sn8  1  0.758559  0.241441  0.572390  1
  Sn  Sn9  1  0.428853  0.571147  0.576394  1
  Sn  Sn10  1  0.572703  0.427297  0.423543  1
  Sn  Sn11  1  0.734348  0.265652  0.249128  1
  Sn  Sn12  1  0.264424  0.735576  0.750789  1
  Sn  Sn13  1  0.242770  0.757230  0.071769  1
  Sn  Sn14  1  0.243375  0.756625  0.428403  1
  Sn  Sn15  1  0.572058  0.427942  0.075008  1
  Sn  Sn16  1  0.454296  0.545704  0.248736  1
  Sn  Sn17  1  0.545895  0.454105  0.751068  1
  Sn  Sn18  1  0.755840  0.244160  0.927957  1
  Sn  Sn19  1  0.427125  0.572875  0.925562  1
