# generated using pymatgen
data_EuCd3(Sb2O7)2
_symmetry_space_group_name_H-M   'P 1'
_cell_length_a   7.43796556
_cell_length_b   7.48263625
_cell_length_c   7.43796600
_cell_angle_alpha   60.19728549
_cell_angle_beta   59.99999804
_cell_angle_gamma   60.19728359
_symmetry_Int_Tables_number   1
_chemical_formula_structural   EuCd3(Sb2O7)2
_chemical_formula_sum   'Eu1 Cd3 Sb4 O14'
_cell_volume   293.58685842
_cell_formula_units_Z   1
loop_
 _symmetry_equiv_pos_site_id
 _symmetry_equiv_pos_as_xyz
  1  'x, y, z'
loop_
 _atom_site_type_symbol
 _atom_site_label
 _atom_site_symmetry_multiplicity
 _atom_site_fract_x
 _atom_site_fract_y
 _atom_site_fract_z
 _atom_site_occupancy
  Eu  Eu0  1  0.125000  0.625000  0.125000  1
  Cd  Cd1  1  0.625000  0.125000  0.125000  1
  Cd  Cd2  1  0.125000  0.125000  0.625000  1
  Cd  Cd3  1  0.125000  0.125000  0.125000  1
  Sb  Sb4  1  0.125000  0.625000  0.625000  1
  Sb  Sb5  1  0.625000  0.125000  0.625000  1
  Sb  Sb6  1  0.625000  0.625000  0.125000  1
  Sb  Sb7  1  0.625000  0.625000  0.625000  1
  O  O8  1  0.704162  0.693510  0.301163  1
  O  O9  1  0.300604  0.303453  0.697972  1
  O  O10  1  0.697972  0.303453  0.697972  1
  O  O11  1  0.301163  0.693510  0.301163  1
  O  O12  1  0.301163  0.693510  0.704162  1
  O  O13  1  0.697972  0.303453  0.300604  1
  O  O14  1  0.545838  0.556490  0.948837  1
  O  O15  1  0.949396  0.946547  0.552028  1
  O  O16  1  0.552028  0.946547  0.552028  1
  O  O17  1  0.948837  0.556490  0.948837  1
  O  O18  1  0.948837  0.556490  0.545838  1
  O  O19  1  0.552028  0.946547  0.949396  1
  O  O20  1  0.254459  0.236621  0.254459  1
  O  O21  1  0.995541  0.013379  0.995541  1
