# generated using pymatgen
data_Dy7Tm9Cd4Ru3Pt
_symmetry_space_group_name_H-M   'P 1'
_cell_length_a   9.54000492
_cell_length_b   9.58329186
_cell_length_c   9.61599900
_cell_angle_alpha   59.88643407
_cell_angle_beta   59.73584842
_cell_angle_gamma   59.70429256
_symmetry_Int_Tables_number   1
_chemical_formula_structural   Dy7Tm9Cd4Ru3Pt
_chemical_formula_sum   'Dy7 Tm9 Cd4 Ru3 Pt1'
_cell_volume   618.47355766
_cell_formula_units_Z   1
loop_
 _symmetry_equiv_pos_site_id
 _symmetry_equiv_pos_as_xyz
  1  'x, y, z'
loop_
 _atom_site_type_symbol
 _atom_site_label
 _atom_site_symmetry_multiplicity
 _atom_site_fract_x
 _atom_site_fract_y
 _atom_site_fract_z
 _atom_site_occupancy
  Dy  Dy0  1  0.815001  0.805480  0.189760  1
  Dy  Dy1  1  0.938628  0.559550  0.561821  1
  Dy  Dy2  1  0.555578  0.939949  0.938878  1
  Dy  Dy3  1  0.555577  0.939951  0.565594  1
  Dy  Dy4  1  0.938630  0.559554  0.940000  1
  Dy  Dy5  1  0.555839  0.564460  0.939851  1
  Dy  Dy6  1  0.938481  0.939768  0.560874  1
  Tm  Tm7  1  0.345660  0.350424  0.349461  1
  Tm  Tm8  1  0.345659  0.350420  0.954457  1
  Tm  Tm9  1  0.345651  0.956913  0.348715  1
  Tm  Tm10  1  0.965286  0.344213  0.345250  1
  Tm  Tm11  1  0.815138  0.189029  0.189530  1
  Tm  Tm12  1  0.186601  0.811769  0.812166  1
  Tm  Tm13  1  0.186600  0.811766  0.189465  1
  Tm  Tm14  1  0.815141  0.189027  0.806302  1
  Tm  Tm15  1  0.186657  0.187591  0.812876  1
  Cd  Cd16  1  0.580261  0.579953  0.580744  1
  Cd  Cd17  1  0.580259  0.579954  0.259041  1
  Cd  Cd18  1  0.580722  0.258246  0.580515  1
  Cd  Cd19  1  0.256110  0.581132  0.581377  1
  Ru  Ru20  1  0.145105  0.139380  0.137281  1
  Ru  Ru21  1  0.145100  0.139372  0.578243  1
  Ru  Ru22  1  0.147003  0.576641  0.138180  1
  Pt  Pt23  1  0.575318  0.145452  0.139614  1
