# generated using pymatgen
data_Y6Er(TmSb2)3
_symmetry_space_group_name_H-M   'P 1'
_cell_length_a   6.26981400
_cell_length_b   8.96316030
_cell_length_c   8.96235102
_cell_angle_alpha   120.00352278
_cell_angle_beta   89.99908916
_cell_angle_gamma   90.00108046
_symmetry_Int_Tables_number   1
_chemical_formula_structural   Y6Er(TmSb2)3
_chemical_formula_sum   'Y6 Er1 Tm3 Sb6'
_cell_volume   436.16718101
_cell_formula_units_Z   1
loop_
 _symmetry_equiv_pos_site_id
 _symmetry_equiv_pos_as_xyz
  1  'x, y, z'
loop_
 _atom_site_type_symbol
 _atom_site_label
 _atom_site_symmetry_multiplicity
 _atom_site_fract_x
 _atom_site_fract_y
 _atom_site_fract_z
 _atom_site_occupancy
  Y  Y0  1  0.750035  0.247457  0.999989  1
  Y  Y1  1  0.750037  0.752562  0.752620  1
  Y  Y2  1  0.749991  0.000053  0.247474  1
  Y  Y3  1  0.250008  0.752538  0.999953  1
  Y  Y4  1  0.249963  0.247402  0.247465  1
  Y  Y5  1  0.249971  0.000041  0.752578  1
  Er  Er6  1  0.000042  0.333261  0.666642  1
  Tm  Tm7  1  0.499987  0.333335  0.666671  1
  Tm  Tm8  1  0.499984  0.666672  0.333310  1
  Tm  Tm9  1  0.000006  0.666656  0.333313  1
  Sb  Sb10  1  0.749606  0.610221  0.000490  1
  Sb  Sb11  1  0.749604  0.390285  0.389794  1
  Sb  Sb12  1  0.749598  0.999533  0.609718  1
  Sb  Sb13  1  0.250385  0.390268  0.000471  1
  Sb  Sb14  1  0.250390  0.610191  0.609704  1
  Sb  Sb15  1  0.250396  0.999525  0.389809  1
