# generated using pymatgen
data_YbSm7(TcC2)4
_symmetry_space_group_name_H-M   'P 1'
_cell_length_a   5.24210500
_cell_length_b   6.62510216
_cell_length_c   10.15607754
_cell_angle_alpha   90.55161938
_cell_angle_beta   90.00000000
_cell_angle_gamma   90.00000000
_symmetry_Int_Tables_number   1
_chemical_formula_structural   YbSm7(TcC2)4
_chemical_formula_sum   'Yb1 Sm7 Tc4 C8'
_cell_volume   352.69895722
_cell_formula_units_Z   1
loop_
 _symmetry_equiv_pos_site_id
 _symmetry_equiv_pos_as_xyz
  1  'x, y, z'
loop_
 _atom_site_type_symbol
 _atom_site_label
 _atom_site_symmetry_multiplicity
 _atom_site_fract_x
 _atom_site_fract_y
 _atom_site_fract_z
 _atom_site_occupancy
  Yb  Yb0  1  0.750000  0.469734  0.780396  1
  Sm  Sm1  1  0.250000  0.030402  0.284470  1
  Sm  Sm2  1  0.750000  0.970977  0.718627  1
  Sm  Sm3  1  0.250000  0.531118  0.216584  1
  Sm  Sm4  1  0.750000  0.813326  0.052136  1
  Sm  Sm5  1  0.250000  0.189321  0.945258  1
  Sm  Sm6  1  0.750000  0.316935  0.448072  1
  Sm  Sm7  1  0.250000  0.684690  0.554554  1
  Tc  Tc8  1  0.750000  0.776355  0.359138  1
  Tc  Tc9  1  0.250000  0.723981  0.859558  1
  Tc  Tc10  1  0.250000  0.223059  0.639569  1
  Tc  Tc11  1  0.750000  0.272997  0.140588  1
  C  C12  1  0.250000  0.957934  0.742623  1
  C  C13  1  0.750000  0.539170  0.241795  1
  C  C14  1  0.250000  0.459264  0.757277  1
  C  C15  1  0.750000  0.041247  0.258356  1
  C  C16  1  0.250000  0.315447  0.460997  1
  C  C17  1  0.750000  0.182944  0.962033  1
  C  C18  1  0.250000  0.809129  0.040641  1
  C  C19  1  0.750000  0.691970  0.537328  1
