# generated using pymatgen
data_DyCd(AgO2)4
_symmetry_space_group_name_H-M   'P 1'
_cell_length_a   6.61856297
_cell_length_b   6.61856247
_cell_length_c   6.61856274
_cell_angle_alpha   126.23545733
_cell_angle_beta   126.23545175
_cell_angle_gamma   79.50150201
_symmetry_Int_Tables_number   1
_chemical_formula_structural   DyCd(AgO2)4
_chemical_formula_sum   'Dy1 Cd1 Ag4 O8'
_cell_volume   182.29100508
_cell_formula_units_Z   1
loop_
 _symmetry_equiv_pos_site_id
 _symmetry_equiv_pos_as_xyz
  1  'x, y, z'
loop_
 _atom_site_type_symbol
 _atom_site_label
 _atom_site_symmetry_multiplicity
 _atom_site_fract_x
 _atom_site_fract_y
 _atom_site_fract_z
 _atom_site_occupancy
  Dy  Dy0  1  0.000000  0.000000  0.000000  1
  Cd  Cd1  1  0.750000  0.250000  0.500000  1
  Ag  Ag2  1  0.379728  0.124255  0.755740  1
  Ag  Ag3  1  0.368515  0.623988  0.244260  1
  Ag  Ag4  1  0.875745  0.631485  0.255473  1
  Ag  Ag5  1  0.376012  0.620272  0.744527  1
  O  O6  1  0.044528  0.008262  0.663189  1
  O  O7  1  0.618661  0.955472  0.963734  1
  O  O8  1  0.991738  0.654927  0.036266  1
  O  O9  1  0.389319  0.857468  0.141132  1
  O  O10  1  0.751813  0.610681  0.468148  1
  O  O11  1  0.142532  0.283665  0.531852  1
  O  O12  1  0.345073  0.381339  0.336811  1
  O  O13  1  0.716335  0.248187  0.858868  1
