# generated using pymatgen
data_VFe20(B3W)2
_symmetry_space_group_name_H-M   'P 1'
_cell_length_a   7.49564999
_cell_length_b   7.49557741
_cell_length_c   7.49502400
_cell_angle_alpha   60.00244228
_cell_angle_beta   60.00276256
_cell_angle_gamma   60.00436680
_symmetry_Int_Tables_number   1
_chemical_formula_structural   VFe20(B3W)2
_chemical_formula_sum   'V1 Fe20 B6 W2'
_cell_volume   297.78569824
_cell_formula_units_Z   1
loop_
 _symmetry_equiv_pos_site_id
 _symmetry_equiv_pos_as_xyz
  1  'x, y, z'
loop_
 _atom_site_type_symbol
 _atom_site_label
 _atom_site_symmetry_multiplicity
 _atom_site_fract_x
 _atom_site_fract_y
 _atom_site_fract_z
 _atom_site_occupancy
  V  V0  1  0.000000  0.000000  0.000000  1
  Fe  Fe1  1  0.617694  0.617685  0.146929  1
  Fe  Fe2  1  0.617707  0.146894  0.617700  1
  Fe  Fe3  1  0.146884  0.617704  0.617706  1
  Fe  Fe4  1  0.617694  0.617685  0.617692  1
  Fe  Fe5  1  0.382306  0.382315  0.853071  1
  Fe  Fe6  1  0.382293  0.853106  0.382300  1
  Fe  Fe7  1  0.853116  0.382296  0.382294  1
  Fe  Fe8  1  0.382306  0.382315  0.382308  1
  Fe  Fe9  1  0.000000  0.000000  0.341878  1
  Fe  Fe10  1  0.658158  0.999993  0.341848  1
  Fe  Fe11  1  0.000006  0.658131  0.341849  1
  Fe  Fe12  1  0.658173  0.341853  0.999987  1
  Fe  Fe13  1  0.999994  0.341869  0.999985  1
  Fe  Fe14  1  0.999994  0.341869  0.658151  1
  Fe  Fe15  1  0.341827  0.658147  0.000013  1
  Fe  Fe16  1  0.341842  0.000007  0.658152  1
  Fe  Fe17  1  0.341842  0.000007  0.999999  1
  Fe  Fe18  1  0.000000  0.000000  0.658122  1
  Fe  Fe19  1  0.000006  0.658131  0.000015  1
  Fe  Fe20  1  0.658158  0.999993  0.000001  1
  B  B21  1  0.725263  0.725201  0.274769  1
  B  B22  1  0.274707  0.725260  0.274817  1
  B  B23  1  0.725293  0.274740  0.274784  1
  B  B24  1  0.274737  0.274799  0.725231  1
  B  B25  1  0.725293  0.274740  0.725183  1
  B  B26  1  0.274707  0.725260  0.725216  1
  W  W27  1  0.750045  0.750052  0.749951  1
  W  W28  1  0.249955  0.249948  0.250049  1
