# generated using pymatgen
data_Ir4Pb3O14
_symmetry_space_group_name_H-M   'P 1'
_cell_length_a   7.25253098
_cell_length_b   7.25253065
_cell_length_c   7.25253002
_cell_angle_alpha   60.39545742
_cell_angle_beta   60.39545574
_cell_angle_gamma   60.39546089
_symmetry_Int_Tables_number   1
_chemical_formula_structural   Ir4Pb3O14
_chemical_formula_sum   'Ir4 Pb3 O14'
_cell_volume   272.15762256
_cell_formula_units_Z   1
loop_
 _symmetry_equiv_pos_site_id
 _symmetry_equiv_pos_as_xyz
  1  'x, y, z'
loop_
 _atom_site_type_symbol
 _atom_site_label
 _atom_site_symmetry_multiplicity
 _atom_site_fract_x
 _atom_site_fract_y
 _atom_site_fract_z
 _atom_site_occupancy
  Ir  Ir0  1  0.000000  0.000000  0.000000  1
  Ir  Ir1  1  0.500000  0.000000  0.000000  1
  Ir  Ir2  1  0.000000  0.000000  0.500000  1
  Ir  Ir3  1  0.000000  0.500000  0.000000  1
  Pb  Pb4  1  0.000000  0.500000  0.500000  1
  Pb  Pb5  1  0.500000  0.500000  0.000000  1
  Pb  Pb6  1  0.500000  0.000000  0.500000  1
  O  O7  1  0.943023  0.321872  0.321872  1
  O  O8  1  0.327738  0.919912  0.919912  1
  O  O9  1  0.321872  0.321872  0.943023  1
  O  O10  1  0.919912  0.919912  0.327738  1
  O  O11  1  0.919912  0.327738  0.919912  1
  O  O12  1  0.321872  0.943023  0.321872  1
  O  O13  1  0.056977  0.678128  0.678128  1
  O  O14  1  0.672262  0.080088  0.080088  1
  O  O15  1  0.678128  0.678128  0.056977  1
  O  O16  1  0.080088  0.080088  0.672262  1
  O  O17  1  0.080088  0.672262  0.080088  1
  O  O18  1  0.678128  0.056977  0.678128  1
  O  O19  1  0.373032  0.373032  0.373032  1
  O  O20  1  0.626968  0.626968  0.626968  1
