# generated using pymatgen
data_LaPr7(CdRh)2
_symmetry_space_group_name_H-M   'P 1'
_cell_length_a   10.01312406
_cell_length_b   10.01312356
_cell_length_c   10.02656300
_cell_angle_alpha   59.94610818
_cell_angle_beta   59.94610985
_cell_angle_gamma   59.93192820
_symmetry_Int_Tables_number   1
_chemical_formula_structural   LaPr7(CdRh)2
_chemical_formula_sum   'La2 Pr14 Cd4 Rh4'
_cell_volume   709.90210398
_cell_formula_units_Z   2
loop_
 _symmetry_equiv_pos_site_id
 _symmetry_equiv_pos_as_xyz
  1  'x, y, z'
loop_
 _atom_site_type_symbol
 _atom_site_label
 _atom_site_symmetry_multiplicity
 _atom_site_fract_x
 _atom_site_fract_y
 _atom_site_fract_z
 _atom_site_occupancy
  La  La0  1  0.347176  0.347176  0.347868  1
  La  La1  1  0.348178  0.348178  0.955624  1
  Pr  Pr2  1  0.349846  0.949312  0.350628  1
  Pr  Pr3  1  0.949312  0.349846  0.350628  1
  Pr  Pr4  1  0.810748  0.190149  0.189756  1
  Pr  Pr5  1  0.189904  0.809796  0.808978  1
  Pr  Pr6  1  0.190149  0.810748  0.189756  1
  Pr  Pr7  1  0.809796  0.189904  0.808978  1
  Pr  Pr8  1  0.190021  0.190021  0.810319  1
  Pr  Pr9  1  0.809529  0.809529  0.189712  1
  Pr  Pr10  1  0.937734  0.562793  0.562759  1
  Pr  Pr11  1  0.561828  0.937764  0.937732  1
  Pr  Pr12  1  0.562793  0.937734  0.562759  1
  Pr  Pr13  1  0.937764  0.561828  0.937732  1
  Pr  Pr14  1  0.563472  0.563472  0.936811  1
  Pr  Pr15  1  0.938008  0.938008  0.561897  1
  Cd  Cd16  1  0.580725  0.580725  0.579738  1
  Cd  Cd17  1  0.580882  0.580882  0.258452  1
  Cd  Cd18  1  0.581179  0.258355  0.580430  1
  Cd  Cd19  1  0.258355  0.581179  0.580430  1
  Rh  Rh20  1  0.142931  0.142931  0.141206  1
  Rh  Rh21  1  0.143426  0.143426  0.572705  1
  Rh  Rh22  1  0.144257  0.571985  0.142550  1
  Rh  Rh23  1  0.571985  0.144257  0.142550  1
