# generated using pymatgen
data_Y5Ho6ErOs4
_symmetry_space_group_name_H-M   'P 1'
_cell_length_a   6.31221660
_cell_length_b   7.41479266
_cell_length_c   9.05214925
_cell_angle_alpha   90.00931196
_cell_angle_beta   90.13090099
_cell_angle_gamma   90.06977376
_symmetry_Int_Tables_number   1
_chemical_formula_structural   Y5Ho6ErOs4
_chemical_formula_sum   'Y5 Ho6 Er1 Os4'
_cell_volume   423.67335228
_cell_formula_units_Z   1
loop_
 _symmetry_equiv_pos_site_id
 _symmetry_equiv_pos_as_xyz
  1  'x, y, z'
loop_
 _atom_site_type_symbol
 _atom_site_label
 _atom_site_symmetry_multiplicity
 _atom_site_fract_x
 _atom_site_fract_y
 _atom_site_fract_z
 _atom_site_occupancy
  Y  Y0  1  0.332776  0.675729  0.062527  1
  Y  Y1  1  0.870380  0.538046  0.250318  1
  Y  Y2  1  0.629335  0.038390  0.250103  1
  Y  Y3  1  0.129302  0.461707  0.749628  1
  Y  Y4  1  0.370766  0.962070  0.749670  1
  Ho  Ho5  1  0.167134  0.175370  0.436845  1
  Ho  Ho6  1  0.667314  0.324650  0.562978  1
  Ho  Ho7  1  0.832689  0.825221  0.936811  1
  Ho  Ho8  1  0.667657  0.324492  0.936804  1
  Ho  Ho9  1  0.832905  0.824868  0.562986  1
  Ho  Ho10  1  0.332728  0.675011  0.437267  1
  Er  Er11  1  0.167050  0.175083  0.063023  1
  Os  Os12  1  0.042751  0.883470  0.250676  1
  Os  Os13  1  0.456531  0.381615  0.250885  1
  Os  Os14  1  0.956386  0.117211  0.750378  1
  Os  Os15  1  0.544296  0.617072  0.749100  1
