# generated using pymatgen
data_LiErCo4As3
_symmetry_space_group_name_H-M   'P 1'
_cell_length_a   3.83139000
_cell_length_b   10.71535100
_cell_length_c   12.35312600
_cell_angle_alpha   90.00000000
_cell_angle_beta   90.00000000
_cell_angle_gamma   90.00000000
_symmetry_Int_Tables_number   1
_chemical_formula_structural   LiErCo4As3
_chemical_formula_sum   'Li4 Er4 Co16 As12'
_cell_volume   507.15374201
_cell_formula_units_Z   4
loop_
 _symmetry_equiv_pos_site_id
 _symmetry_equiv_pos_as_xyz
  1  'x, y, z'
loop_
 _atom_site_type_symbol
 _atom_site_label
 _atom_site_symmetry_multiplicity
 _atom_site_fract_x
 _atom_site_fract_y
 _atom_site_fract_z
 _atom_site_occupancy
  Li  Li0  1  0.250000  0.699671  0.993713  1
  Li  Li1  1  0.250000  0.800329  0.493713  1
  Li  Li2  1  0.750000  0.300329  0.006287  1
  Li  Li3  1  0.750000  0.199671  0.506287  1
  Er  Er4  1  0.250000  0.574845  0.700669  1
  Er  Er5  1  0.250000  0.925155  0.200669  1
  Er  Er6  1  0.750000  0.425155  0.299331  1
  Er  Er7  1  0.750000  0.074845  0.799331  1
  Co  Co8  1  0.250000  0.408080  0.484200  1
  Co  Co9  1  0.250000  0.091920  0.984200  1
  Co  Co10  1  0.750000  0.591920  0.515800  1
  Co  Co11  1  0.750000  0.908080  0.015800  1
  Co  Co12  1  0.250000  0.216656  0.174075  1
  Co  Co13  1  0.250000  0.283344  0.674075  1
  Co  Co14  1  0.750000  0.783344  0.825925  1
  Co  Co15  1  0.750000  0.716656  0.325925  1
  Co  Co16  1  0.250000  0.878716  0.699730  1
  Co  Co17  1  0.250000  0.621284  0.199730  1
  Co  Co18  1  0.750000  0.121284  0.300270  1
  Co  Co19  1  0.750000  0.378716  0.800270  1
  Co  Co20  1  0.250000  0.465941  0.931567  1
  Co  Co21  1  0.250000  0.034059  0.431567  1
  Co  Co22  1  0.750000  0.534059  0.068433  1
  Co  Co23  1  0.750000  0.965941  0.568433  1
  As  As24  1  0.250000  0.422079  0.116723  1
  As  As25  1  0.250000  0.077921  0.616723  1
  As  As26  1  0.750000  0.577921  0.883277  1
  As  As27  1  0.750000  0.922079  0.383277  1
  As  As28  1  0.250000  0.265825  0.861778  1
  As  As29  1  0.250000  0.234175  0.361778  1
  As  As30  1  0.750000  0.734175  0.138222  1
  As  As31  1  0.750000  0.765825  0.638222  1
  As  As32  1  0.250000  0.603605  0.393523  1
  As  As33  1  0.250000  0.896395  0.893523  1
  As  As34  1  0.750000  0.396395  0.606477  1
  As  As35  1  0.750000  0.103605  0.106477  1
