# generated using pymatgen
data_Gd2HoLu5(WO6)4
_symmetry_space_group_name_H-M   'P 1'
_cell_length_a   5.35636200
_cell_length_b   7.64316000
_cell_length_c   11.36879445
_cell_angle_alpha   75.37057905
_cell_angle_beta   90.00000000
_cell_angle_gamma   90.00000000
_symmetry_Int_Tables_number   1
_chemical_formula_structural   Gd2HoLu5(WO6)4
_chemical_formula_sum   'Gd2 Ho1 Lu5 W4 O24'
_cell_volume   450.34359722
_cell_formula_units_Z   1
loop_
 _symmetry_equiv_pos_site_id
 _symmetry_equiv_pos_as_xyz
  1  'x, y, z'
loop_
 _atom_site_type_symbol
 _atom_site_label
 _atom_site_symmetry_multiplicity
 _atom_site_fract_x
 _atom_site_fract_y
 _atom_site_fract_z
 _atom_site_occupancy
  Gd  Gd0  1  0.314651  0.500000  0.750000  1
  Gd  Gd1  1  0.685735  0.500000  0.250000  1
  Ho  Ho2  1  0.256582  0.000000  0.750000  1
  Lu  Lu3  1  0.183826  0.796118  0.078559  1
  Lu  Lu4  1  0.183826  0.203882  0.421441  1
  Lu  Lu5  1  0.742697  0.000000  0.250000  1
  Lu  Lu6  1  0.815866  0.204077  0.921995  1
  Lu  Lu7  1  0.815866  0.795923  0.578005  1
  W  W8  1  0.744446  0.726220  0.885142  1
  W  W9  1  0.255653  0.727088  0.384748  1
  W  W10  1  0.744446  0.273780  0.614858  1
  W  W11  1  0.255653  0.272912  0.115252  1
  O  O12  1  0.541541  0.154360  0.069300  1
  O  O13  1  0.041935  0.056441  0.104444  1
  O  O14  1  0.017262  0.717101  0.768750  1
  O  O15  1  0.459352  0.155642  0.568050  1
  O  O16  1  0.352286  0.489145  0.386567  1
  O  O17  1  0.955008  0.056949  0.602870  1
  O  O18  1  0.544969  0.795316  0.724508  1
  O  O19  1  0.457805  0.797503  0.224591  1
  O  O20  1  0.144674  0.638869  0.548209  1
  O  O21  1  0.041935  0.943559  0.395556  1
  O  O22  1  0.459352  0.844358  0.931950  1
  O  O23  1  0.457805  0.202497  0.275409  1
  O  O24  1  0.855808  0.361720  0.451596  1
  O  O25  1  0.647392  0.488716  0.886879  1
  O  O26  1  0.352286  0.510855  0.113433  1
  O  O27  1  0.955008  0.943051  0.897130  1
  O  O28  1  0.541541  0.845640  0.430700  1
  O  O29  1  0.982345  0.281762  0.231410  1
  O  O30  1  0.544969  0.204684  0.775492  1
  O  O31  1  0.855808  0.638280  0.048404  1
  O  O32  1  0.017262  0.282899  0.731250  1
  O  O33  1  0.144674  0.361131  0.951791  1
  O  O34  1  0.982345  0.718238  0.268590  1
  O  O35  1  0.647392  0.511284  0.613121  1
