# generated using pymatgen
data_SmTh3Al3(Ga5Ir2)3
_symmetry_space_group_name_H-M   'P 1'
_cell_length_a   7.69070316
_cell_length_b   7.69579325
_cell_length_c   9.51288118
_cell_angle_alpha   89.96345989
_cell_angle_beta   89.97857411
_cell_angle_gamma   119.72551919
_symmetry_Int_Tables_number   1
_chemical_formula_structural   SmTh3Al3(Ga5Ir2)3
_chemical_formula_sum   'Sm1 Th3 Al3 Ga15 Ir6'
_cell_volume   488.94102693
_cell_formula_units_Z   1
loop_
 _symmetry_equiv_pos_site_id
 _symmetry_equiv_pos_as_xyz
  1  'x, y, z'
loop_
 _atom_site_type_symbol
 _atom_site_label
 _atom_site_symmetry_multiplicity
 _atom_site_fract_x
 _atom_site_fract_y
 _atom_site_fract_z
 _atom_site_occupancy
  Sm  Sm0  1  0.329134  0.002512  0.749140  1
  Th  Th1  1  0.998318  0.670460  0.250044  1
  Th  Th2  1  0.000712  0.330365  0.748869  1
  Th  Th3  1  0.670339  0.997784  0.250074  1
  Al  Al4  1  0.661406  0.661325  0.451286  1
  Al  Al5  1  0.664941  0.664789  0.049156  1
  Al  Al6  1  0.334801  0.332343  0.947239  1
  Ga  Ga7  1  0.135709  0.132688  0.249514  1
  Ga  Ga8  1  0.870545  0.869628  0.749576  1
  Ga  Ga9  1  0.004422  0.335290  0.078514  1
  Ga  Ga10  1  0.000345  0.668940  0.919421  1
  Ga  Ga11  1  0.999679  0.669115  0.580497  1
  Ga  Ga12  1  0.335513  0.004675  0.424325  1
  Ga  Ga13  1  0.005995  0.335554  0.419414  1
  Ga  Ga14  1  0.660271  0.995823  0.580560  1
  Ga  Ga15  1  0.660598  0.996648  0.919411  1
  Ga  Ga16  1  0.335330  0.003128  0.073593  1
  Ga  Ga17  1  0.333002  0.329799  0.564778  1
  Ga  Ga18  1  0.350033  0.546857  0.249960  1
  Ga  Ga19  1  0.653041  0.449979  0.750157  1
  Ga  Ga20  1  0.546990  0.346658  0.249958  1
  Ga  Ga21  1  0.453031  0.658087  0.750038  1
  Ir  Ir22  1  0.672194  0.331924  0.000336  1
  Ir  Ir23  1  0.329128  0.667170  0.000433  1
  Ir  Ir24  1  0.328686  0.670542  0.498255  1
  Ir  Ir25  1  0.675828  0.331776  0.498379  1
  Ir  Ir26  1  0.997547  0.000434  0.000703  1
  Ir  Ir27  1  0.992461  0.995705  0.496369  1
