# generated using pymatgen
data_Tb3ErFePt3O14
_symmetry_space_group_name_H-M   'P 1'
_cell_length_a   7.23700197
_cell_length_b   7.23700178
_cell_length_c   7.29515063
_cell_angle_alpha   60.26331769
_cell_angle_beta   60.26331870
_cell_angle_gamma   59.99999882
_symmetry_Int_Tables_number   1
_chemical_formula_structural   Tb3ErFePt3O14
_chemical_formula_sum   'Tb3 Er1 Fe1 Pt3 O14'
_cell_volume   271.23999642
_cell_formula_units_Z   1
loop_
 _symmetry_equiv_pos_site_id
 _symmetry_equiv_pos_as_xyz
  1  'x, y, z'
loop_
 _atom_site_type_symbol
 _atom_site_label
 _atom_site_symmetry_multiplicity
 _atom_site_fract_x
 _atom_site_fract_y
 _atom_site_fract_z
 _atom_site_occupancy
  Tb  Tb0  1  0.625000  0.625000  0.625000  1
  Tb  Tb1  1  0.625000  0.125000  0.625000  1
  Tb  Tb2  1  0.125000  0.625000  0.625000  1
  Er  Er3  1  0.625000  0.625000  0.125000  1
  Fe  Fe4  1  0.125000  0.125000  0.625000  1
  Pt  Pt5  1  0.125000  0.125000  0.125000  1
  Pt  Pt6  1  0.625000  0.125000  0.125000  1
  Pt  Pt7  1  0.125000  0.625000  0.125000  1
  O  O8  1  0.036092  0.466310  0.461507  1
  O  O9  1  0.786032  0.786032  0.209119  1
  O  O10  1  0.786032  0.218817  0.209119  1
  O  O11  1  0.466310  0.036092  0.461507  1
  O  O12  1  0.031183  0.463968  0.040881  1
  O  O13  1  0.746921  0.746921  0.759235  1
  O  O14  1  0.036092  0.036092  0.461507  1
  O  O15  1  0.218817  0.786032  0.209119  1
  O  O16  1  0.213908  0.213908  0.788493  1
  O  O17  1  0.503079  0.503079  0.490765  1
  O  O18  1  0.783690  0.213908  0.788493  1
  O  O19  1  0.463968  0.031183  0.040881  1
  O  O20  1  0.463968  0.463968  0.040881  1
  O  O21  1  0.213908  0.783690  0.788493  1
