# generated using pymatgen
data_Y10Os3Ru
_symmetry_space_group_name_H-M   'P 1'
_cell_length_a   6.40845859
_cell_length_b   7.38545909
_cell_length_c   8.51745629
_cell_angle_alpha   96.84386689
_cell_angle_beta   112.16408455
_cell_angle_gamma   89.92529674
_symmetry_Int_Tables_number   1
_chemical_formula_structural   Y10Os3Ru
_chemical_formula_sum   'Y10 Os3 Ru1'
_cell_volume   370.25993606
_cell_formula_units_Z   1
loop_
 _symmetry_equiv_pos_site_id
 _symmetry_equiv_pos_as_xyz
  1  'x, y, z'
loop_
 _atom_site_type_symbol
 _atom_site_label
 _atom_site_symmetry_multiplicity
 _atom_site_fract_x
 _atom_site_fract_y
 _atom_site_fract_z
 _atom_site_occupancy
  Y  Y0  1  0.978971  0.914721  0.183202  1
  Y  Y1  1  0.794159  0.584645  0.815763  1
  Y  Y2  1  0.020171  0.084778  0.814381  1
  Y  Y3  1  0.205440  0.414407  0.183799  1
  Y  Y4  1  0.638953  0.816410  0.434993  1
  Y  Y5  1  0.204851  0.683197  0.565051  1
  Y  Y6  1  0.359969  0.184172  0.565989  1
  Y  Y7  1  0.796707  0.317628  0.435419  1
  Y  Y8  1  0.422509  0.748994  0.999276  1
  Y  Y9  1  0.578056  0.251154  0.000028  1
  Os  Os10  1  0.823422  0.578186  0.220286  1
  Os  Os11  1  0.602814  0.923088  0.779643  1
  Os  Os12  1  0.177132  0.421822  0.780496  1
  Ru  Ru13  1  0.396846  0.076797  0.221673  1
