# generated using pymatgen
data_Er3Lu3Zn23Se
_symmetry_space_group_name_H-M   'P 1'
_cell_length_a   8.98607169
_cell_length_b   8.98577005
_cell_length_c   8.98583000
_cell_angle_alpha   59.99925657
_cell_angle_beta   60.00054369
_cell_angle_gamma   60.00102344
_symmetry_Int_Tables_number   1
_chemical_formula_structural   Er3Lu3Zn23Se
_chemical_formula_sum   'Er3 Lu3 Zn23 Se1'
_cell_volume   513.06345742
_cell_formula_units_Z   1
loop_
 _symmetry_equiv_pos_site_id
 _symmetry_equiv_pos_as_xyz
  1  'x, y, z'
loop_
 _atom_site_type_symbol
 _atom_site_label
 _atom_site_symmetry_multiplicity
 _atom_site_fract_x
 _atom_site_fract_y
 _atom_site_fract_z
 _atom_site_occupancy
  Er  Er0  1  0.283082  0.716842  0.717320  1
  Er  Er1  1  0.283037  0.716958  0.282855  1
  Er  Er2  1  0.282969  0.282784  0.717145  1
  Lu  Lu3  1  0.717053  0.282609  0.282738  1
  Lu  Lu4  1  0.716986  0.282709  0.717444  1
  Lu  Lu5  1  0.717211  0.717727  0.282596  1
  Zn  Zn6  1  0.629952  0.123369  0.123341  1
  Zn  Zn7  1  0.122335  0.626726  0.125485  1
  Zn  Zn8  1  0.122351  0.125422  0.626694  1
  Zn  Zn9  1  0.122283  0.125470  0.125580  1
  Zn  Zn10  1  0.375398  0.874842  0.874890  1
  Zn  Zn11  1  0.874343  0.371601  0.877022  1
  Zn  Zn12  1  0.874487  0.877051  0.371475  1
  Zn  Zn13  1  0.874490  0.877023  0.876980  1
  Zn  Zn14  1  0.501211  0.000026  0.000105  1
  Zn  Zn15  1  0.501303  0.999971  0.498670  1
  Zn  Zn16  1  0.501275  0.498660  0.000034  1
  Zn  Zn17  1  0.998813  0.500049  0.500015  1
  Zn  Zn18  1  0.998779  0.500080  0.001103  1
  Zn  Zn19  1  0.998803  0.001085  0.500048  1
  Zn  Zn20  1  0.003739  0.998824  0.998705  1
  Zn  Zn21  1  0.009680  0.330160  0.330153  1
  Zn  Zn22  1  0.329469  0.012430  0.329025  1
  Zn  Zn23  1  0.329418  0.329026  0.012363  1
  Zn  Zn24  1  0.329374  0.329122  0.329121  1
  Zn  Zn25  1  0.986246  0.671187  0.671240  1
  Zn  Zn26  1  0.670750  0.988865  0.670197  1
  Zn  Zn27  1  0.670760  0.670211  0.989017  1
  Zn  Zn28  1  0.670820  0.670119  0.670052  1
  Se  Se29  1  0.503581  0.499054  0.498587  1
