# generated using pymatgen
data_Dy10In8PdAu3
_symmetry_space_group_name_H-M   'P 1'
_cell_length_a   3.66636700
_cell_length_b   8.21024200
_cell_length_c   18.46200901
_cell_angle_alpha   89.99640889
_cell_angle_beta   90.00000000
_cell_angle_gamma   90.00000000
_symmetry_Int_Tables_number   1
_chemical_formula_structural   Dy10In8PdAu3
_chemical_formula_sum   'Dy10 In8 Pd1 Au3'
_cell_volume   555.73896960
_cell_formula_units_Z   1
loop_
 _symmetry_equiv_pos_site_id
 _symmetry_equiv_pos_as_xyz
  1  'x, y, z'
loop_
 _atom_site_type_symbol
 _atom_site_label
 _atom_site_symmetry_multiplicity
 _atom_site_fract_x
 _atom_site_fract_y
 _atom_site_fract_z
 _atom_site_occupancy
  Dy  Dy0  1  0.000000  0.500509  0.499701  1
  Dy  Dy1  1  0.000000  0.000158  0.000373  1
  Dy  Dy2  1  0.000000  0.748425  0.281860  1
  Dy  Dy3  1  0.000000  0.261200  0.718036  1
  Dy  Dy4  1  0.000000  0.760946  0.781645  1
  Dy  Dy5  1  0.000000  0.233895  0.220632  1
  Dy  Dy6  1  0.000000  0.619285  0.080481  1
  Dy  Dy7  1  0.000000  0.380320  0.920213  1
  Dy  Dy8  1  0.000000  0.880333  0.579256  1
  Dy  Dy9  1  0.000000  0.115908  0.416900  1
  In  In10  1  0.500000  0.711757  0.932709  1
  In  In11  1  0.500000  0.287861  0.068274  1
  In  In12  1  0.500000  0.790096  0.431269  1
  In  In13  1  0.500000  0.211486  0.566438  1
  In  In14  1  0.500000  0.578409  0.646479  1
  In  In15  1  0.500000  0.419874  0.352653  1
  In  In16  1  0.500000  0.923993  0.148743  1
  In  In17  1  0.500000  0.078392  0.853279  1
  Pd  Pd18  1  0.500000  0.026623  0.303999  1
  Au  Au19  1  0.500000  0.527688  0.197336  1
  Au  Au20  1  0.500000  0.471456  0.803375  1
  Au  Au21  1  0.500000  0.971385  0.696350  1
