# generated using pymatgen
data_V3Fe3O8
_symmetry_space_group_name_H-M   'P 1'
_cell_length_a   6.11443426
_cell_length_b   6.07290136
_cell_length_c   10.47722900
_cell_angle_alpha   73.21294539
_cell_angle_beta   88.82566261
_cell_angle_gamma   60.21751924
_symmetry_Int_Tables_number   1
_chemical_formula_structural   V3Fe3O8
_chemical_formula_sum   'V6 Fe6 O16'
_cell_volume   319.70968232
_cell_formula_units_Z   2
loop_
 _symmetry_equiv_pos_site_id
 _symmetry_equiv_pos_as_xyz
  1  'x, y, z'
loop_
 _atom_site_type_symbol
 _atom_site_label
 _atom_site_symmetry_multiplicity
 _atom_site_fract_x
 _atom_site_fract_y
 _atom_site_fract_z
 _atom_site_occupancy
  V  V0  1  0.062602  0.375824  0.187551  1
  V  V1  1  0.562357  0.373560  0.687445  1
  V  V2  1  0.562621  0.875915  0.188186  1
  V  V3  1  0.062345  0.873654  0.687323  1
  V  V4  1  0.562636  0.376421  0.187052  1
  V  V5  1  0.062487  0.373526  0.687464  1
  Fe  Fe6  1  0.812107  0.375261  0.437452  1
  Fe  Fe7  1  0.312921  0.375650  0.937578  1
  Fe  Fe8  1  0.502044  0.999177  0.501535  1
  Fe  Fe9  1  0.120648  0.752510  0.373544  1
  Fe  Fe10  1  0.622590  0.753554  0.873411  1
  Fe  Fe11  1  0.004837  0.998208  0.001337  1
  O  O12  1  0.424943  0.143351  0.293941  1
  O  O13  1  0.925863  0.139988  0.793755  1
  O  O14  1  0.699761  0.612024  0.081235  1
  O  O15  1  0.198916  0.606804  0.581073  1
  O  O16  1  0.656382  0.138254  0.065210  1
  O  O17  1  0.155530  0.136936  0.564187  1
  O  O18  1  0.207499  0.591081  0.068319  1
  O  O19  1  0.708784  0.589499  0.569053  1
  O  O20  1  0.209068  0.134286  0.067221  1
  O  O21  1  0.710104  0.131519  0.567257  1
  O  O22  1  0.468950  0.612843  0.309937  1
  O  O23  1  0.969069  0.608311  0.810601  1
  O  O24  1  0.917465  0.160310  0.305808  1
  O  O25  1  0.414601  0.158969  0.807611  1
  O  O26  1  0.916415  0.615997  0.308697  1
  O  O27  1  0.416454  0.616569  0.806218  1
