# generated using pymatgen
data_Y12CoTc2Ni
_symmetry_space_group_name_H-M   'P 1'
_cell_length_a   6.36936348
_cell_length_b   7.21839346
_cell_length_c   9.27239900
_cell_angle_alpha   90.00000000
_cell_angle_beta   90.00000000
_cell_angle_gamma   90.01425149
_symmetry_Int_Tables_number   1
_chemical_formula_structural   Y12CoTc2Ni
_chemical_formula_sum   'Y12 Co1 Tc2 Ni1'
_cell_volume   426.31310426
_cell_formula_units_Z   1
loop_
 _symmetry_equiv_pos_site_id
 _symmetry_equiv_pos_as_xyz
  1  'x, y, z'
loop_
 _atom_site_type_symbol
 _atom_site_label
 _atom_site_symmetry_multiplicity
 _atom_site_fract_x
 _atom_site_fract_y
 _atom_site_fract_z
 _atom_site_occupancy
  Y  Y0  1  0.327215  0.680265  0.064871  1
  Y  Y1  1  0.168094  0.176959  0.438739  1
  Y  Y2  1  0.668178  0.325407  0.564264  1
  Y  Y3  1  0.823241  0.817967  0.931444  1
  Y  Y4  1  0.668178  0.325407  0.935736  1
  Y  Y5  1  0.823241  0.817967  0.568556  1
  Y  Y6  1  0.327215  0.680265  0.435129  1
  Y  Y7  1  0.168094  0.176959  0.061261  1
  Y  Y8  1  0.871875  0.542268  0.250000  1
  Y  Y9  1  0.635550  0.040109  0.250000  1
  Y  Y10  1  0.141043  0.460627  0.750000  1
  Y  Y11  1  0.372047  0.953172  0.750000  1
  Co  Co12  1  0.538469  0.614185  0.750000  1
  Tc  Tc13  1  0.460653  0.391651  0.250000  1
  Tc  Tc14  1  0.965030  0.108663  0.750000  1
  Ni  Ni15  1  0.041878  0.888127  0.250000  1
