# generated using pymatgen
data_Th6MnNi17As12
_symmetry_space_group_name_H-M   'P 1'
_cell_length_a   4.00970400
_cell_length_b   11.13146500
_cell_length_c   13.06260400
_cell_angle_alpha   90.00000000
_cell_angle_beta   90.00000000
_cell_angle_gamma   90.00000000
_symmetry_Int_Tables_number   1
_chemical_formula_structural   Th6MnNi17As12
_chemical_formula_sum   'Th6 Mn1 Ni17 As12'
_cell_volume   583.03469598
_cell_formula_units_Z   1
loop_
 _symmetry_equiv_pos_site_id
 _symmetry_equiv_pos_as_xyz
  1  'x, y, z'
loop_
 _atom_site_type_symbol
 _atom_site_label
 _atom_site_symmetry_multiplicity
 _atom_site_fract_x
 _atom_site_fract_y
 _atom_site_fract_z
 _atom_site_occupancy
  Th  Th0  1  0.000000  0.500000  0.519355  1
  Th  Th1  1  0.500000  0.000000  0.482891  1
  Th  Th2  1  0.500000  0.814842  0.207448  1
  Th  Th3  1  0.500000  0.185158  0.207448  1
  Th  Th4  1  0.000000  0.687862  0.795145  1
  Th  Th5  1  0.000000  0.312138  0.795145  1
  Mn  Mn6  1  0.500000  0.500000  0.142276  1
  Ni  Ni7  1  0.000000  0.000000  0.849227  1
  Ni  Ni8  1  0.500000  0.500000  0.697334  1
  Ni  Ni9  1  0.000000  0.000000  0.305788  1
  Ni  Ni10  1  0.000000  0.500000  0.977706  1
  Ni  Ni11  1  0.500000  0.000000  0.026000  1
  Ni  Ni12  1  0.500000  0.328231  0.991776  1
  Ni  Ni13  1  0.500000  0.671769  0.991776  1
  Ni  Ni14  1  0.000000  0.164233  0.003914  1
  Ni  Ni15  1  0.000000  0.835767  0.003914  1
  Ni  Ni16  1  0.500000  0.307034  0.424504  1
  Ni  Ni17  1  0.500000  0.692966  0.424504  1
  Ni  Ni18  1  0.000000  0.192838  0.577218  1
  Ni  Ni19  1  0.000000  0.807162  0.577218  1
  Ni  Ni20  1  0.500000  0.879240  0.709747  1
  Ni  Ni21  1  0.500000  0.120760  0.709747  1
  Ni  Ni22  1  0.000000  0.619526  0.288279  1
  Ni  Ni23  1  0.000000  0.380474  0.288279  1
  As  As24  1  0.500000  0.500000  0.878574  1
  As  As25  1  0.000000  0.000000  0.124483  1
  As  As26  1  0.500000  0.500000  0.336187  1
  As  As27  1  0.000000  0.000000  0.666831  1
  As  As28  1  0.500000  0.309153  0.611126  1
  As  As29  1  0.500000  0.690847  0.611126  1
  As  As30  1  0.000000  0.191454  0.391108  1
  As  As31  1  0.000000  0.808546  0.391108  1
  As  As32  1  0.500000  0.855966  0.895218  1
  As  As33  1  0.500000  0.144034  0.895218  1
  As  As34  1  0.000000  0.653518  0.101191  1
  As  As35  1  0.000000  0.346482  0.101191  1
