# generated using pymatgen
data_LiHo2Be2(PPd5)4
_symmetry_space_group_name_H-M   'P 1'
_cell_length_a   8.59184522
_cell_length_b   8.54126645
_cell_length_c   8.54126579
_cell_angle_alpha   60.39216898
_cell_angle_beta   59.80391431
_cell_angle_gamma   59.80391991
_symmetry_Int_Tables_number   1
_chemical_formula_structural   LiHo2Be2(PPd5)4
_chemical_formula_sum   'Li1 Ho2 Be2 P4 Pd20'
_cell_volume   443.18527476
_cell_formula_units_Z   1
loop_
 _symmetry_equiv_pos_site_id
 _symmetry_equiv_pos_as_xyz
  1  'x, y, z'
loop_
 _atom_site_type_symbol
 _atom_site_label
 _atom_site_symmetry_multiplicity
 _atom_site_fract_x
 _atom_site_fract_y
 _atom_site_fract_z
 _atom_site_occupancy
  Li  Li0  1  0.000000  0.000000  0.000000  1
  Ho  Ho1  1  0.250000  0.250000  0.250000  1
  Ho  Ho2  1  0.750000  0.750000  0.750000  1
  Be  Be3  1  0.733754  0.266246  0.266246  1
  Be  Be4  1  0.266246  0.733754  0.733754  1
  P  P5  1  0.264991  0.735009  0.264991  1
  P  P6  1  0.735009  0.264991  0.735009  1
  P  P7  1  0.264991  0.264991  0.735009  1
  P  P8  1  0.735009  0.735009  0.264991  1
  Pd  Pd9  1  0.387101  0.382359  0.382359  1
  Pd  Pd10  1  0.612899  0.617641  0.617641  1
  Pd  Pd11  1  0.382359  0.387101  0.848183  1
  Pd  Pd12  1  0.382359  0.848183  0.387101  1
  Pd  Pd13  1  0.617641  0.612899  0.151817  1
  Pd  Pd14  1  0.617641  0.151817  0.612899  1
  Pd  Pd15  1  0.848183  0.382359  0.382359  1
  Pd  Pd16  1  0.151817  0.617641  0.617641  1
  Pd  Pd17  1  0.342528  0.000000  0.000000  1
  Pd  Pd18  1  0.657472  0.000000  0.000000  1
  Pd  Pd19  1  0.000000  0.342528  0.657472  1
  Pd  Pd20  1  0.000000  0.657472  0.342528  1
  Pd  Pd21  1  0.997209  0.341473  0.002791  1
  Pd  Pd22  1  0.658527  0.002791  0.341473  1
  Pd  Pd23  1  0.002791  0.658527  0.997209  1
  Pd  Pd24  1  0.341473  0.997209  0.658527  1
  Pd  Pd25  1  0.997209  0.002791  0.341473  1
  Pd  Pd26  1  0.002791  0.997209  0.658527  1
  Pd  Pd27  1  0.658527  0.341473  0.002791  1
  Pd  Pd28  1  0.341473  0.658527  0.997209  1
