# generated using pymatgen
data_Y16Ho4Ir11Os
_symmetry_space_group_name_H-M   'P 1'
_cell_length_a   10.91385900
_cell_length_b   10.91385900
_cell_length_c   6.41094400
_cell_angle_alpha   90.00000000
_cell_angle_beta   90.00000000
_cell_angle_gamma   90.00000000
_symmetry_Int_Tables_number   1
_chemical_formula_structural   Y16Ho4Ir11Os
_chemical_formula_sum   'Y16 Ho4 Ir11 Os1'
_cell_volume   763.62240215
_cell_formula_units_Z   1
loop_
 _symmetry_equiv_pos_site_id
 _symmetry_equiv_pos_as_xyz
  1  'x, y, z'
loop_
 _atom_site_type_symbol
 _atom_site_label
 _atom_site_symmetry_multiplicity
 _atom_site_fract_x
 _atom_site_fract_y
 _atom_site_fract_z
 _atom_site_occupancy
  Y  Y0  1  0.292186  0.086783  0.375923  1
  Y  Y1  1  0.292881  0.913173  0.880256  1
  Y  Y2  1  0.707119  0.086827  0.880256  1
  Y  Y3  1  0.707814  0.913217  0.375923  1
  Y  Y4  1  0.586827  0.792881  0.880256  1
  Y  Y5  1  0.586783  0.207814  0.375923  1
  Y  Y6  1  0.413217  0.792186  0.375923  1
  Y  Y7  1  0.413173  0.207119  0.880256  1
  Y  Y8  1  0.209374  0.411815  0.622216  1
  Y  Y9  1  0.209244  0.587736  0.121596  1
  Y  Y10  1  0.790756  0.412264  0.121596  1
  Y  Y11  1  0.790626  0.588185  0.622216  1
  Y  Y12  1  0.912264  0.709244  0.121596  1
  Y  Y13  1  0.911815  0.290626  0.622216  1
  Y  Y14  1  0.088185  0.709374  0.622216  1
  Y  Y15  1  0.087736  0.290756  0.121596  1
  Ho  Ho16  1  0.000000  0.000000  0.499034  1
  Ho  Ho17  1  0.000000  0.000000  0.998892  1
  Ho  Ho18  1  0.500000  0.500000  0.998892  1
  Ho  Ho19  1  0.500000  0.500000  0.499034  1
  Ir  Ir20  1  0.849475  0.152298  0.249996  1
  Ir  Ir21  1  0.849251  0.848179  0.749602  1
  Ir  Ir22  1  0.150749  0.151821  0.749602  1
  Ir  Ir23  1  0.150525  0.847702  0.249996  1
  Ir  Ir24  1  0.651821  0.349251  0.749602  1
  Ir  Ir25  1  0.652298  0.650525  0.249996  1
  Ir  Ir26  1  0.347702  0.349475  0.249996  1
  Ir  Ir27  1  0.348179  0.650749  0.749602  1
  Ir  Ir28  1  0.500000  0.000000  0.624464  1
  Ir  Ir29  1  0.000000  0.500000  0.876971  1
  Ir  Ir30  1  0.000000  0.500000  0.377459  1
  Os  Os31  1  0.500000  0.000000  0.126894  1
