# generated using pymatgen
data_Y8Cu3Si12Pd
_symmetry_space_group_name_H-M   'P 1'
_cell_length_a   8.04934000
_cell_length_b   8.04933957
_cell_length_c   8.12881900
_cell_angle_alpha   90.00000000
_cell_angle_beta   90.00000000
_cell_angle_gamma   119.99999356
_symmetry_Int_Tables_number   1
_chemical_formula_structural   Y8Cu3Si12Pd
_chemical_formula_sum   'Y8 Cu3 Si12 Pd1'
_cell_volume   456.11949438
_cell_formula_units_Z   1
loop_
 _symmetry_equiv_pos_site_id
 _symmetry_equiv_pos_as_xyz
  1  'x, y, z'
loop_
 _atom_site_type_symbol
 _atom_site_label
 _atom_site_symmetry_multiplicity
 _atom_site_fract_x
 _atom_site_fract_y
 _atom_site_fract_z
 _atom_site_occupancy
  Y  Y0  1  0.500949  0.001898  0.249216  1
  Y  Y1  1  0.500421  0.000842  0.750798  1
  Y  Y2  1  0.998102  0.499051  0.249216  1
  Y  Y3  1  0.999158  0.499579  0.750798  1
  Y  Y4  1  0.500949  0.499051  0.249216  1
  Y  Y5  1  0.500421  0.499579  0.750798  1
  Y  Y6  1  0.000000  0.000000  0.249251  1
  Y  Y7  1  0.000000  0.000000  0.750708  1
  Cu  Cu8  1  0.333333  0.666667  0.002791  1
  Cu  Cu9  1  0.666667  0.333333  0.997527  1
  Cu  Cu10  1  0.666667  0.333333  0.500962  1
  Si  Si11  1  0.169641  0.339281  0.999756  1
  Si  Si12  1  0.830853  0.661706  0.000355  1
  Si  Si13  1  0.660719  0.830359  0.999756  1
  Si  Si14  1  0.831100  0.662199  0.500285  1
  Si  Si15  1  0.338294  0.169147  0.000355  1
  Si  Si16  1  0.166071  0.332141  0.499580  1
  Si  Si17  1  0.169641  0.830359  0.999756  1
  Si  Si18  1  0.337801  0.168900  0.500285  1
  Si  Si19  1  0.830853  0.169147  0.000355  1
  Si  Si20  1  0.667859  0.833929  0.499580  1
  Si  Si21  1  0.831100  0.168900  0.500285  1
  Si  Si22  1  0.166071  0.833929  0.499580  1
  Pd  Pd23  1  0.333333  0.666667  0.498792  1
