# generated using pymatgen
data_Tb5ScSi24OsRu7
_symmetry_space_group_name_H-M   'P 1'
_cell_length_a   10.08782731
_cell_length_b   10.08782772
_cell_length_c   8.13639215
_cell_angle_alpha   90.00679774
_cell_angle_beta   90.00679478
_cell_angle_gamma   132.44269270
_symmetry_Int_Tables_number   1
_chemical_formula_structural   Tb5ScSi24OsRu7
_chemical_formula_sum   'Tb5 Sc1 Si24 Os1 Ru7'
_cell_volume   611.02034541
_cell_formula_units_Z   1
loop_
 _symmetry_equiv_pos_site_id
 _symmetry_equiv_pos_as_xyz
  1  'x, y, z'
loop_
 _atom_site_type_symbol
 _atom_site_label
 _atom_site_symmetry_multiplicity
 _atom_site_fract_x
 _atom_site_fract_y
 _atom_site_fract_z
 _atom_site_occupancy
  Tb  Tb0  1  0.000035  0.999965  0.000000  1
  Tb  Tb1  1  0.502398  0.002270  0.750005  1
  Tb  Tb2  1  0.997730  0.497602  0.249995  1
  Tb  Tb3  1  0.497734  0.997458  0.249865  1
  Tb  Tb4  1  0.002542  0.502266  0.750135  1
  Sc  Sc5  1  0.500091  0.499909  0.500000  1
  Si  Si6  1  0.795131  0.204869  0.500000  1
  Si  Si7  1  0.294942  0.705058  0.000000  1
  Si  Si8  1  0.205422  0.794578  0.500000  1
  Si  Si9  1  0.705176  0.294824  0.000000  1
  Si  Si10  1  0.333260  0.333501  0.831948  1
  Si  Si11  1  0.666499  0.666740  0.168052  1
  Si  Si12  1  0.168572  0.168374  0.333722  1
  Si  Si13  1  0.831626  0.831428  0.666278  1
  Si  Si14  1  0.121754  0.887632  0.728324  1
  Si  Si15  1  0.112368  0.878246  0.271676  1
  Si  Si16  1  0.611376  0.378883  0.228394  1
  Si  Si17  1  0.621117  0.388624  0.771606  1
  Si  Si18  1  0.877493  0.111474  0.271179  1
  Si  Si19  1  0.888526  0.122507  0.728821  1
  Si  Si20  1  0.388502  0.621580  0.770469  1
  Si  Si21  1  0.378420  0.611498  0.229531  1
  Si  Si22  1  0.344634  0.112818  0.505087  1
  Si  Si23  1  0.887182  0.655366  0.494913  1
  Si  Si24  1  0.388200  0.154643  0.004743  1
  Si  Si25  1  0.845357  0.611800  0.995257  1
  Si  Si26  1  0.653322  0.885721  0.493889  1
  Si  Si27  1  0.114279  0.346678  0.506111  1
  Si  Si28  1  0.611641  0.845136  0.995204  1
  Si  Si29  1  0.154864  0.388359  0.004796  1
  Os  Os30  1  0.667854  0.332146  0.500000  1
  Ru  Ru31  1  0.169079  0.830921  0.000000  1
  Ru  Ru32  1  0.332140  0.667860  0.500000  1
  Ru  Ru33  1  0.830941  0.169059  0.000000  1
  Ru  Ru34  1  0.128171  0.128438  0.625659  1
  Ru  Ru35  1  0.871562  0.871829  0.374341  1
  Ru  Ru36  1  0.374943  0.374883  0.128883  1
  Ru  Ru37  1  0.625117  0.625057  0.871117  1
