# generated using pymatgen
data_La12MnFeBr17
_symmetry_space_group_name_H-M   'P 1'
_cell_length_a   9.41336395
_cell_length_b   11.60953317
_cell_length_c   11.76986190
_cell_angle_alpha   72.96371575
_cell_angle_beta   74.17817321
_cell_angle_gamma   67.18440015
_symmetry_Int_Tables_number   1
_chemical_formula_structural   La12MnFeBr17
_chemical_formula_sum   'La12 Mn1 Fe1 Br17'
_cell_volume   1114.98922920
_cell_formula_units_Z   1
loop_
 _symmetry_equiv_pos_site_id
 _symmetry_equiv_pos_as_xyz
  1  'x, y, z'
loop_
 _atom_site_type_symbol
 _atom_site_label
 _atom_site_symmetry_multiplicity
 _atom_site_fract_x
 _atom_site_fract_y
 _atom_site_fract_z
 _atom_site_occupancy
  La  La0  1  0.453113  0.470465  0.329310  1
  La  La1  1  0.574143  0.674706  0.992359  1
  La  La2  1  0.284784  0.006711  0.086232  1
  La  La3  1  0.849971  0.283973  0.848977  1
  La  La4  1  0.404058  0.236369  0.724208  1
  La  La5  1  0.716219  0.996790  0.911639  1
  La  La6  1  0.548334  0.527168  0.673111  1
  La  La7  1  0.426719  0.323923  0.005838  1
  La  La8  1  0.586855  0.763228  0.273123  1
  La  La9  1  0.842074  0.190560  0.571221  1
  La  La10  1  0.156707  0.810905  0.431752  1
  La  La11  1  0.146906  0.716270  0.149568  1
  Mn  Mn12  1  0.648830  0.266400  0.792432  1
  Fe  Fe13  1  0.362102  0.733217  0.212272  1
  Br  Br14  1  0.064232  0.093088  0.320563  1
  Br  Br15  1  0.461987  0.945287  0.827565  1
  Br  Br16  1  0.420079  0.818936  0.524102  1
  Br  Br17  1  0.578846  0.181199  0.475401  1
  Br  Br18  1  0.858637  0.691721  0.053793  1
  Br  Br19  1  0.211777  0.424941  0.246681  1
  Br  Br20  1  0.674336  0.376185  0.099871  1
  Br  Br21  1  0.539250  0.054434  0.173127  1
  Br  Br22  1  0.732314  0.478477  0.415544  1
  Br  Br23  1  0.887049  0.781945  0.366079  1
  Br  Br24  1  0.936364  0.905478  0.678053  1
  Br  Br25  1  0.139813  0.305221  0.945972  1
  Br  Br26  1  0.323889  0.626434  0.902110  1
  Br  Br27  1  0.000992  0.998321  0.000788  1
  Br  Br28  1  0.115476  0.217350  0.631074  1
  Br  Br29  1  0.787389  0.578486  0.753385  1
  Br  Br30  1  0.266756  0.521811  0.583850  1
