# generated using pymatgen
data_NpHN
_symmetry_space_group_name_H-M   'P 1'
_cell_length_a   3.72064741
_cell_length_b   3.72064753
_cell_length_c   3.72064700
_cell_angle_alpha   59.99999587
_cell_angle_beta   59.99999471
_cell_angle_gamma   60.00000276
_symmetry_Int_Tables_number   1
_chemical_formula_structural   NpHN
_chemical_formula_sum   'Np1 H1 N1'
_cell_volume   36.42004631
_cell_formula_units_Z   1
loop_
 _symmetry_equiv_pos_site_id
 _symmetry_equiv_pos_as_xyz
  1  'x, y, z'
loop_
 _atom_site_type_symbol
 _atom_site_label
 _atom_site_symmetry_multiplicity
 _atom_site_fract_x
 _atom_site_fract_y
 _atom_site_fract_z
 _atom_site_occupancy
  Np  Np0  1  0.000000  0.000000  0.000000  1
  H  H1  1  0.750000  0.750000  0.750000  1
  N  N2  1  0.250000  0.250000  0.250000  1
