# generated using pymatgen
data_B4Ir5
_symmetry_space_group_name_H-M   'P 1'
_cell_length_a   4.05869131
_cell_length_b   6.34850706
_cell_length_c   7.70759350
_cell_angle_alpha   115.87229394
_cell_angle_beta   97.85801361
_cell_angle_gamma   38.52696228
_symmetry_Int_Tables_number   1
_chemical_formula_structural   B4Ir5
_chemical_formula_sum   'B4 Ir5'
_cell_volume   103.61832190
_cell_formula_units_Z   1
loop_
 _symmetry_equiv_pos_site_id
 _symmetry_equiv_pos_as_xyz
  1  'x, y, z'
loop_
 _atom_site_type_symbol
 _atom_site_label
 _atom_site_symmetry_multiplicity
 _atom_site_fract_x
 _atom_site_fract_y
 _atom_site_fract_z
 _atom_site_occupancy
  B  B0  1  0.662151  0.053911  0.022799  1
  B  B1  1  0.284661  0.228613  0.400903  1
  B  B2  1  0.861678  0.445850  0.817855  1
  B  B3  1  0.075057  0.841715  0.605388  1
  Ir  Ir4  1  0.839001  0.212567  0.511152  1
  Ir  Ir5  1  0.437031  0.405703  0.912920  1
  Ir  Ir6  1  0.645881  0.805230  0.712007  1
  Ir  Ir7  1  0.034103  0.612968  0.313036  1
  Ir  Ir8  1  0.236267  0.007776  0.110687  1
