# generated using pymatgen
data_Er10GaSn3Bi2
_symmetry_space_group_name_H-M   'P 1'
_cell_length_a   8.90976626
_cell_length_b   8.88706275
_cell_length_c   6.44799700
_cell_angle_alpha   90.00000000
_cell_angle_beta   90.00000000
_cell_angle_gamma   119.90829926
_symmetry_Int_Tables_number   1
_chemical_formula_structural   Er10GaSn3Bi2
_chemical_formula_sum   'Er10 Ga1 Sn3 Bi2'
_cell_volume   442.56858119
_cell_formula_units_Z   1
loop_
 _symmetry_equiv_pos_site_id
 _symmetry_equiv_pos_as_xyz
  1  'x, y, z'
loop_
 _atom_site_type_symbol
 _atom_site_label
 _atom_site_symmetry_multiplicity
 _atom_site_fract_x
 _atom_site_fract_y
 _atom_site_fract_z
 _atom_site_occupancy
  Er  Er0  1  0.994171  0.752623  0.750000  1
  Er  Er1  1  0.994819  0.237668  0.250000  1
  Er  Er2  1  0.764984  0.764286  0.250000  1
  Er  Er3  1  0.770883  0.010351  0.750000  1
  Er  Er4  1  0.229027  0.246112  0.750000  1
  Er  Er5  1  0.235517  0.993627  0.250000  1
  Er  Er6  1  0.324856  0.659962  0.501212  1
  Er  Er7  1  0.681394  0.337818  0.998630  1
  Er  Er8  1  0.681394  0.337818  0.501370  1
  Er  Er9  1  0.324856  0.659962  0.998788  1
  Ga  Ga10  1  0.001107  0.396639  0.750000  1
  Sn  Sn11  1  0.001312  0.604880  0.250000  1
  Sn  Sn12  1  0.604785  0.606322  0.750000  1
  Sn  Sn13  1  0.602571  0.997325  0.250000  1
  Bi  Bi14  1  0.391948  0.003622  0.750000  1
  Bi  Bi15  1  0.396377  0.390986  0.250000  1
