# generated using pymatgen
data_Li4Yb(ThGe2)2
_symmetry_space_group_name_H-M   'P 1'
_cell_length_a   4.40432948
_cell_length_b   6.91631885
_cell_length_c   8.36603358
_cell_angle_alpha   114.41588717
_cell_angle_beta   105.26162514
_cell_angle_gamma   89.99999619
_symmetry_Int_Tables_number   1
_chemical_formula_structural   Li4Yb(ThGe2)2
_chemical_formula_sum   'Li4 Yb1 Th2 Ge4'
_cell_volume   222.14557522
_cell_formula_units_Z   1
loop_
 _symmetry_equiv_pos_site_id
 _symmetry_equiv_pos_as_xyz
  1  'x, y, z'
loop_
 _atom_site_type_symbol
 _atom_site_label
 _atom_site_symmetry_multiplicity
 _atom_site_fract_x
 _atom_site_fract_y
 _atom_site_fract_z
 _atom_site_occupancy
  Li  Li0  1  0.672927  0.987508  0.345852  1
  Li  Li1  1  0.329553  0.023501  0.659106  1
  Li  Li2  1  0.329553  0.635606  0.659106  1
  Li  Li3  1  0.672927  0.358344  0.345852  1
  Yb  Yb4  1  0.868592  0.368592  0.737185  1
  Th  Th5  1  0.998840  0.998840  0.997680  1
  Th  Th6  1  0.128973  0.628973  0.257946  1
  Ge  Ge7  1  0.502426  0.690405  0.004851  1
  Ge  Ge8  1  0.502426  0.314446  0.004851  1
  Ge  Ge9  1  0.783028  0.783028  0.566057  1
  Ge  Ge10  1  0.210756  0.210756  0.421513  1
