# generated using pymatgen
data_TmLu15(Ga3Rh)2
_symmetry_space_group_name_H-M   'P 1'
_cell_length_a   9.87029000
_cell_length_b   9.87028974
_cell_length_c   6.83131100
_cell_angle_alpha   90.00000000
_cell_angle_beta   90.00000000
_cell_angle_gamma   120.00000759
_symmetry_Int_Tables_number   1
_chemical_formula_structural   TmLu15(Ga3Rh)2
_chemical_formula_sum   'Tm1 Lu15 Ga6 Rh2'
_cell_volume   576.36084578
_cell_formula_units_Z   1
loop_
 _symmetry_equiv_pos_site_id
 _symmetry_equiv_pos_as_xyz
  1  'x, y, z'
loop_
 _atom_site_type_symbol
 _atom_site_label
 _atom_site_symmetry_multiplicity
 _atom_site_fract_x
 _atom_site_fract_y
 _atom_site_fract_z
 _atom_site_occupancy
  Tm  Tm0  1  0.000000  0.000000  0.766560  1
  Lu  Lu1  1  0.171407  0.828593  0.989695  1
  Lu  Lu2  1  0.342809  0.171405  0.489292  1
  Lu  Lu3  1  0.828595  0.657191  0.489292  1
  Lu  Lu4  1  0.171407  0.342813  0.989695  1
  Lu  Lu5  1  0.657187  0.828593  0.989695  1
  Lu  Lu6  1  0.828595  0.171405  0.489292  1
  Lu  Lu7  1  0.333333  0.666667  0.663561  1
  Lu  Lu8  1  0.666667  0.333333  0.163794  1
  Lu  Lu9  1  0.466011  0.533989  0.295088  1
  Lu  Lu10  1  0.932025  0.466012  0.795035  1
  Lu  Lu11  1  0.533988  0.067975  0.795035  1
  Lu  Lu12  1  0.466011  0.932021  0.295088  1
  Lu  Lu13  1  0.067979  0.533989  0.295088  1
  Lu  Lu14  1  0.533988  0.466012  0.795035  1
  Lu  Lu15  1  0.000000  0.000000  0.266256  1
  Ga  Ga16  1  0.163340  0.836660  0.540557  1
  Ga  Ga17  1  0.326660  0.163330  0.040919  1
  Ga  Ga18  1  0.836670  0.673340  0.040919  1
  Ga  Ga19  1  0.163340  0.326680  0.540557  1
  Ga  Ga20  1  0.673320  0.836660  0.540557  1
  Ga  Ga21  1  0.836670  0.163330  0.040919  1
  Rh  Rh22  1  0.333333  0.666667  0.055965  1
  Rh  Rh23  1  0.666667  0.333333  0.556110  1
