# generated using pymatgen
data_ErPa(ZnRh)2
_symmetry_space_group_name_H-M   'P 1'
_cell_length_a   3.80767800
_cell_length_b   7.13128351
_cell_length_c   8.39992207
_cell_angle_alpha   91.36635527
_cell_angle_beta   90.00000000
_cell_angle_gamma   90.00000000
_symmetry_Int_Tables_number   1
_chemical_formula_structural   ErPa(ZnRh)2
_chemical_formula_sum   'Er2 Pa2 Zn4 Rh4'
_cell_volume   228.02353345
_cell_formula_units_Z   2
loop_
 _symmetry_equiv_pos_site_id
 _symmetry_equiv_pos_as_xyz
  1  'x, y, z'
loop_
 _atom_site_type_symbol
 _atom_site_label
 _atom_site_symmetry_multiplicity
 _atom_site_fract_x
 _atom_site_fract_y
 _atom_site_fract_z
 _atom_site_occupancy
  Er  Er0  1  0.750000  0.944319  0.685386  1
  Er  Er1  1  0.250000  0.055681  0.314614  1
  Pa  Pa2  1  0.250000  0.552563  0.190119  1
  Pa  Pa3  1  0.750000  0.447437  0.809881  1
  Zn  Zn4  1  0.250000  0.633991  0.559080  1
  Zn  Zn5  1  0.750000  0.366009  0.440920  1
  Zn  Zn6  1  0.750000  0.883550  0.060833  1
  Zn  Zn7  1  0.250000  0.116450  0.939167  1
  Rh  Rh8  1  0.250000  0.716382  0.878978  1
  Rh  Rh9  1  0.750000  0.283618  0.121022  1
  Rh  Rh10  1  0.750000  0.748141  0.357696  1
  Rh  Rh11  1  0.250000  0.251859  0.642304  1
