# generated using pymatgen
data_La16Cd3TcHgRu3
_symmetry_space_group_name_H-M   'P 1'
_cell_length_a   10.03699983
_cell_length_b   10.03700029
_cell_length_c   10.09511007
_cell_angle_alpha   60.19023740
_cell_angle_beta   60.19023153
_cell_angle_gamma   59.99999427
_symmetry_Int_Tables_number   1
_chemical_formula_structural   La16Cd3TcHgRu3
_chemical_formula_sum   'La16 Cd3 Tc1 Hg1 Ru3'
_cell_volume   721.18501892
_cell_formula_units_Z   1
loop_
 _symmetry_equiv_pos_site_id
 _symmetry_equiv_pos_as_xyz
  1  'x, y, z'
loop_
 _atom_site_type_symbol
 _atom_site_label
 _atom_site_symmetry_multiplicity
 _atom_site_fract_x
 _atom_site_fract_y
 _atom_site_fract_z
 _atom_site_occupancy
  La  La0  1  0.903322  0.903322  0.903481  1
  La  La1  1  0.439004  0.439004  0.061716  1
  La  La2  1  0.061716  0.061716  0.438926  1
  La  La3  1  0.439004  0.060278  0.061716  1
  La  La4  1  0.310280  0.690967  0.307786  1
  La  La5  1  0.690967  0.690967  0.307786  1
  La  La6  1  0.690967  0.310280  0.307786  1
  La  La7  1  0.289876  0.903322  0.903481  1
  La  La8  1  0.903322  0.289876  0.903481  1
  La  La9  1  0.308332  0.692536  0.690802  1
  La  La10  1  0.903568  0.903568  0.289297  1
  La  La11  1  0.060278  0.439004  0.061716  1
  La  La12  1  0.308332  0.308332  0.690802  1
  La  La13  1  0.061716  0.437640  0.438926  1
  La  La14  1  0.437640  0.061716  0.438926  1
  La  La15  1  0.692536  0.308332  0.690802  1
  Cd  Cd16  1  0.986347  0.671500  0.670654  1
  Cd  Cd17  1  0.671500  0.986347  0.670654  1
  Cd  Cd18  1  0.671500  0.671500  0.670654  1
  Tc  Tc19  1  0.115065  0.115065  0.654804  1
  Hg  Hg20  1  0.668337  0.668337  0.994986  1
  Ru  Ru21  1  0.113467  0.113467  0.113604  1
  Ru  Ru22  1  0.113467  0.659459  0.113604  1
  Ru  Ru23  1  0.659459  0.113467  0.113604  1
