# generated using pymatgen
data_Gd2YSi3Ru2
_symmetry_space_group_name_H-M   'P 1'
_cell_length_a   5.71395700
_cell_length_b   5.71395713
_cell_length_c   13.74051100
_cell_angle_alpha   90.00000000
_cell_angle_beta   90.00000000
_cell_angle_gamma   137.18098025
_symmetry_Int_Tables_number   1
_chemical_formula_structural   Gd2YSi3Ru2
_chemical_formula_sum   'Gd4 Y2 Si6 Ru4'
_cell_volume   304.91894519
_cell_formula_units_Z   2
loop_
 _symmetry_equiv_pos_site_id
 _symmetry_equiv_pos_as_xyz
  1  'x, y, z'
loop_
 _atom_site_type_symbol
 _atom_site_label
 _atom_site_symmetry_multiplicity
 _atom_site_fract_x
 _atom_site_fract_y
 _atom_site_fract_z
 _atom_site_occupancy
  Gd  Gd0  1  0.924444  0.075556  0.115834  1
  Gd  Gd1  1  0.075556  0.924444  0.884166  1
  Gd  Gd2  1  0.075556  0.924444  0.615834  1
  Gd  Gd3  1  0.924444  0.075556  0.384166  1
  Y  Y4  1  0.640397  0.359603  0.250000  1
  Y  Y5  1  0.359603  0.640397  0.750000  1
  Si  Si6  1  0.325361  0.674639  0.250000  1
  Si  Si7  1  0.674639  0.325361  0.750000  1
  Si  Si8  1  0.618009  0.381991  0.038928  1
  Si  Si9  1  0.381991  0.618009  0.961072  1
  Si  Si10  1  0.381991  0.618009  0.538928  1
  Si  Si11  1  0.618009  0.381991  0.461072  1
  Ru  Ru12  1  0.785919  0.214081  0.580925  1
  Ru  Ru13  1  0.214081  0.785919  0.419075  1
  Ru  Ru14  1  0.214081  0.785919  0.080925  1
  Ru  Ru15  1  0.785919  0.214081  0.919075  1
