# generated using pymatgen
data_Ta4NbReOs2
_symmetry_space_group_name_H-M   'P 1'
_cell_length_a   6.42663600
_cell_length_b   4.54227200
_cell_length_c   9.11466700
_cell_angle_alpha   90.00000000
_cell_angle_beta   90.00062371
_cell_angle_gamma   90.00000000
_symmetry_Int_Tables_number   1
_chemical_formula_structural   Ta4NbReOs2
_chemical_formula_sum   'Ta8 Nb2 Re2 Os4'
_cell_volume   266.07106383
_cell_formula_units_Z   2
loop_
 _symmetry_equiv_pos_site_id
 _symmetry_equiv_pos_as_xyz
  1  'x, y, z'
loop_
 _atom_site_type_symbol
 _atom_site_label
 _atom_site_symmetry_multiplicity
 _atom_site_fract_x
 _atom_site_fract_y
 _atom_site_fract_z
 _atom_site_occupancy
  Ta  Ta0  1  0.000754  0.750001  0.124892  1
  Ta  Ta1  1  0.499294  0.750001  0.124899  1
  Ta  Ta2  1  0.999304  0.250000  0.375103  1
  Ta  Ta3  1  0.500782  0.250000  0.375113  1
  Ta  Ta4  1  0.500816  0.750001  0.624671  1
  Ta  Ta5  1  0.999138  0.750001  0.624678  1
  Ta  Ta6  1  0.499147  0.250000  0.875318  1
  Ta  Ta7  1  0.000849  0.250000  0.875333  1
  Nb  Nb8  1  0.750013  0.250000  0.123575  1
  Nb  Nb9  1  0.250026  0.750001  0.376409  1
  Re  Re10  1  0.749965  0.250000  0.626512  1
  Re  Re11  1  0.249977  0.750001  0.873499  1
  Os  Os12  1  0.250042  0.250000  0.122514  1
  Os  Os13  1  0.749996  0.750001  0.377488  1
  Os  Os14  1  0.249943  0.250000  0.627809  1
  Os  Os15  1  0.749957  0.750001  0.872186  1
