# generated using pymatgen
data_RbAl3S5
_symmetry_space_group_name_H-M   'P 1'
_cell_length_a   12.83337400
_cell_length_b   6.97376226
_cell_length_c   10.73530991
_cell_angle_alpha   88.47642419
_cell_angle_beta   90.00000000
_cell_angle_gamma   90.00000000
_symmetry_Int_Tables_number   1
_chemical_formula_structural   RbAl3S5
_chemical_formula_sum   'Rb4 Al12 S20'
_cell_volume   960.43728496
_cell_formula_units_Z   4
loop_
 _symmetry_equiv_pos_site_id
 _symmetry_equiv_pos_as_xyz
  1  'x, y, z'
loop_
 _atom_site_type_symbol
 _atom_site_label
 _atom_site_symmetry_multiplicity
 _atom_site_fract_x
 _atom_site_fract_y
 _atom_site_fract_z
 _atom_site_occupancy
  Rb  Rb0  1  0.414610  0.865175  0.358793  1
  Rb  Rb1  1  0.085390  0.365175  0.358793  1
  Rb  Rb2  1  0.914610  0.634825  0.641207  1
  Rb  Rb3  1  0.585390  0.134825  0.641207  1
  Al  Al4  1  0.799963  0.982441  0.330809  1
  Al  Al5  1  0.200037  0.017559  0.669191  1
  Al  Al6  1  0.299963  0.517559  0.669191  1
  Al  Al7  1  0.462256  0.396700  0.127798  1
  Al  Al8  1  0.700037  0.482441  0.330809  1
  Al  Al9  1  0.723914  0.266363  0.014225  1
  Al  Al10  1  0.962256  0.103300  0.872202  1
  Al  Al11  1  0.037744  0.896700  0.127798  1
  Al  Al12  1  0.776086  0.766363  0.014225  1
  Al  Al13  1  0.276086  0.733637  0.985775  1
  Al  Al14  1  0.537744  0.603300  0.872202  1
  Al  Al15  1  0.223914  0.233637  0.985775  1
  S  S16  1  0.286990  0.002754  0.861101  1
  S  S17  1  0.552518  0.292551  0.954646  1
  S  S18  1  0.713010  0.997246  0.138899  1
  S  S19  1  0.201835  0.738708  0.566574  1
  S  S20  1  0.701835  0.761292  0.433426  1
  S  S21  1  0.298165  0.238708  0.566574  1
  S  S22  1  0.786990  0.497246  0.138899  1
  S  S23  1  0.213010  0.502754  0.861101  1
  S  S24  1  0.965105  0.877924  0.314766  1
  S  S25  1  0.534895  0.377924  0.314766  1
  S  S26  1  0.034895  0.122076  0.685234  1
  S  S27  1  0.447482  0.707449  0.045354  1
  S  S28  1  0.947482  0.792551  0.954646  1
  S  S29  1  0.052518  0.207449  0.045354  1
  S  S30  1  0.798165  0.261292  0.433426  1
  S  S31  1  0.811813  0.253387  0.837677  1
  S  S32  1  0.688187  0.753387  0.837677  1
  S  S33  1  0.311813  0.246613  0.162323  1
  S  S34  1  0.188187  0.746613  0.162323  1
  S  S35  1  0.465105  0.622076  0.685234  1
