# generated using pymatgen
data_Ba4Ga7GeIr8
_symmetry_space_group_name_H-M   'P 1'
_cell_length_a   6.22204311
_cell_length_b   8.59230956
_cell_length_c   8.59221785
_cell_angle_alpha   76.28459003
_cell_angle_beta   90.10943117
_cell_angle_gamma   90.10591007
_symmetry_Int_Tables_number   1
_chemical_formula_structural   Ba4Ga7GeIr8
_chemical_formula_sum   'Ba4 Ga7 Ge1 Ir8'
_cell_volume   446.25515147
_cell_formula_units_Z   1
loop_
 _symmetry_equiv_pos_site_id
 _symmetry_equiv_pos_as_xyz
  1  'x, y, z'
loop_
 _atom_site_type_symbol
 _atom_site_label
 _atom_site_symmetry_multiplicity
 _atom_site_fract_x
 _atom_site_fract_y
 _atom_site_fract_z
 _atom_site_occupancy
  Ba  Ba0  1  0.375015  0.001082  0.248548  1
  Ba  Ba1  1  0.874947  0.499291  0.751104  1
  Ba  Ba2  1  0.620858  0.999810  0.749938  1
  Ba  Ba3  1  0.129104  0.500394  0.249546  1
  Ga  Ga4  1  0.375774  0.322582  0.927454  1
  Ga  Ga5  1  0.875706  0.179744  0.070138  1
  Ga  Ga6  1  0.625573  0.679170  0.073233  1
  Ga  Ga7  1  0.120021  0.821684  0.927188  1
  Ga  Ga8  1  0.630061  0.322498  0.428966  1
  Ga  Ga9  1  0.124367  0.177284  0.570153  1
  Ga  Ga10  1  0.374202  0.676415  0.573492  1
  Ge  Ge11  1  0.874459  0.822572  0.427518  1
  Ir  Ir12  1  0.118971  0.876525  0.626480  1
  Ir  Ir13  1  0.630320  0.623312  0.373894  1
  Ir  Ir14  1  0.872113  0.117448  0.369853  1
  Ir  Ir15  1  0.375915  0.377619  0.628257  1
  Ir  Ir16  1  0.877700  0.879918  0.132572  1
  Ir  Ir17  1  0.373945  0.621901  0.872430  1
  Ir  Ir18  1  0.124179  0.121323  0.870024  1
  Ir  Ir19  1  0.626771  0.379428  0.129210  1
