# generated using pymatgen
data_K4NpPaI12
_symmetry_space_group_name_H-M   'P 1'
_cell_length_a   8.62644798
_cell_length_b   8.20764748
_cell_length_c   14.23831300
_cell_angle_alpha   54.94899886
_cell_angle_beta   89.87362496
_cell_angle_gamma   89.60268091
_symmetry_Int_Tables_number   1
_chemical_formula_structural   K4NpPaI12
_chemical_formula_sum   'K4 Np1 Pa1 I12'
_cell_volume   825.26105165
_cell_formula_units_Z   1
loop_
 _symmetry_equiv_pos_site_id
 _symmetry_equiv_pos_as_xyz
  1  'x, y, z'
loop_
 _atom_site_type_symbol
 _atom_site_label
 _atom_site_symmetry_multiplicity
 _atom_site_fract_x
 _atom_site_fract_y
 _atom_site_fract_z
 _atom_site_occupancy
  K  K0  1  0.578476  0.716166  0.263350  1
  K  K1  1  0.084466  0.264402  0.259080  1
  K  K2  1  0.421524  0.283834  0.736650  1
  K  K3  1  0.915534  0.735598  0.740920  1
  Np  Np4  1  0.500000  0.000000  0.500000  1
  Pa  Pa5  1  0.000000  0.000000  0.000000  1
  I  I6  1  0.987006  0.839866  0.249837  1
  I  I7  1  0.483067  0.159389  0.247820  1
  I  I8  1  0.012994  0.160134  0.750163  1
  I  I9  1  0.516933  0.840611  0.752180  1
  I  I10  1  0.695235  0.646537  0.551788  1
  I  I11  1  0.189124  0.349437  0.949745  1
  I  I12  1  0.304765  0.353463  0.448212  1
  I  I13  1  0.810876  0.650563  0.050255  1
  I  I14  1  0.704308  0.230366  0.957287  1
  I  I15  1  0.201886  0.771103  0.542685  1
  I  I16  1  0.295692  0.769634  0.042713  1
  I  I17  1  0.798114  0.228897  0.457315  1
