# generated using pymatgen
data_KSb12OsRh3
_symmetry_space_group_name_H-M   'P 1'
_cell_length_a   8.17105295
_cell_length_b   8.16676962
_cell_length_c   8.17105226
_cell_angle_alpha   109.46060095
_cell_angle_beta   109.48183802
_cell_angle_gamma   109.46060178
_symmetry_Int_Tables_number   1
_chemical_formula_structural   KSb12OsRh3
_chemical_formula_sum   'K1 Sb12 Os1 Rh3'
_cell_volume   419.79892906
_cell_formula_units_Z   1
loop_
 _symmetry_equiv_pos_site_id
 _symmetry_equiv_pos_as_xyz
  1  'x, y, z'
loop_
 _atom_site_type_symbol
 _atom_site_label
 _atom_site_symmetry_multiplicity
 _atom_site_fract_x
 _atom_site_fract_y
 _atom_site_fract_z
 _atom_site_occupancy
  K  K0  1  0.000000  0.000000  0.000000  1
  Sb  Sb1  1  0.843971  0.656181  0.500049  1
  Sb  Sb2  1  0.156029  0.343819  0.499951  1
  Sb  Sb3  1  0.156566  0.659016  0.816856  1
  Sb  Sb4  1  0.843434  0.340984  0.183144  1
  Sb  Sb5  1  0.660289  0.502450  0.843434  1
  Sb  Sb6  1  0.339711  0.497550  0.156566  1
  Sb  Sb7  1  0.656079  0.812212  0.156029  1
  Sb  Sb8  1  0.343921  0.187788  0.843971  1
  Sb  Sb9  1  0.500049  0.843868  0.656079  1
  Sb  Sb10  1  0.499951  0.156132  0.343921  1
  Sb  Sb11  1  0.183144  0.842161  0.339711  1
  Sb  Sb12  1  0.816856  0.157839  0.660289  1
  Os  Os13  1  0.000000  0.500000  0.000000  1
  Rh  Rh14  1  0.500000  0.500000  0.500000  1
  Rh  Rh15  1  0.500000  0.000000  0.000000  1
  Rh  Rh16  1  0.000000  0.000000  0.500000  1
