# generated using pymatgen
data_LiNdSc(H6Ir)2
_symmetry_space_group_name_H-M   'P 1'
_cell_length_a   4.65222300
_cell_length_b   4.65222335
_cell_length_c   7.83876100
_cell_angle_alpha   90.00000000
_cell_angle_beta   90.00000000
_cell_angle_gamma   119.99999037
_symmetry_Int_Tables_number   1
_chemical_formula_structural   LiNdSc(H6Ir)2
_chemical_formula_sum   'Li1 Nd1 Sc1 H12 Ir2'
_cell_volume   146.92617694
_cell_formula_units_Z   1
loop_
 _symmetry_equiv_pos_site_id
 _symmetry_equiv_pos_as_xyz
  1  'x, y, z'
loop_
 _atom_site_type_symbol
 _atom_site_label
 _atom_site_symmetry_multiplicity
 _atom_site_fract_x
 _atom_site_fract_y
 _atom_site_fract_z
 _atom_site_occupancy
  Li  Li0  1  0.666667  0.333333  0.363807  1
  Nd  Nd1  1  0.000000  0.000000  0.018919  1
  Sc  Sc2  1  0.333333  0.666667  0.621253  1
  H  H3  1  0.163453  0.836547  0.385896  1
  H  H4  1  0.673095  0.836547  0.385896  1
  H  H5  1  0.163453  0.326905  0.385896  1
  H  H6  1  0.837315  0.162685  0.612997  1
  H  H7  1  0.325369  0.162685  0.612997  1
  H  H8  1  0.837315  0.674631  0.612997  1
  H  H9  1  0.491280  0.982559  0.858766  1
  H  H10  1  0.491280  0.508720  0.858766  1
  H  H11  1  0.017441  0.508720  0.858766  1
  H  H12  1  0.505520  0.011042  0.141210  1
  H  H13  1  0.505520  0.494480  0.141210  1
  H  H14  1  0.988958  0.494480  0.141210  1
  Ir  Ir15  1  0.666667  0.333333  0.735022  1
  Ir  Ir16  1  0.333333  0.666667  0.264388  1
