# generated using pymatgen
data_Sr10V6SO24
_symmetry_space_group_name_H-M   'P 1'
_cell_length_a   10.34201100
_cell_length_b   10.34201234
_cell_length_c   7.47996300
_cell_angle_alpha   89.99996122
_cell_angle_beta   90.00003324
_cell_angle_gamma   120.00008209
_symmetry_Int_Tables_number   1
_chemical_formula_structural   Sr10V6SO24
_chemical_formula_sum   'Sr10 V6 S1 O24'
_cell_volume   692.85087355
_cell_formula_units_Z   1
loop_
 _symmetry_equiv_pos_site_id
 _symmetry_equiv_pos_as_xyz
  1  'x, y, z'
loop_
 _atom_site_type_symbol
 _atom_site_label
 _atom_site_symmetry_multiplicity
 _atom_site_fract_x
 _atom_site_fract_y
 _atom_site_fract_z
 _atom_site_occupancy
  Sr  Sr0  1  0.333334  0.666667  0.020818  1
  Sr  Sr1  1  0.249516  0.996082  0.260203  1
  Sr  Sr2  1  0.003918  0.253434  0.260203  1
  Sr  Sr3  1  0.746566  0.750484  0.260203  1
  Sr  Sr4  1  0.666667  0.333333  0.485666  1
  Sr  Sr5  1  0.333334  0.666666  0.514334  1
  Sr  Sr6  1  0.996082  0.746567  0.739796  1
  Sr  Sr7  1  0.253434  0.249516  0.739798  1
  Sr  Sr8  1  0.750484  0.003917  0.739798  1
  Sr  Sr9  1  0.666666  0.333333  0.979182  1
  V  V10  1  0.972237  0.601950  0.244626  1
  V  V11  1  0.398049  0.370287  0.244627  1
  V  V12  1  0.629714  0.027764  0.244627  1
  V  V13  1  0.370287  0.972237  0.755373  1
  V  V14  1  0.027763  0.398049  0.755373  1
  V  V15  1  0.601951  0.629713  0.755373  1
  S  S16  1  0.000000  0.000000  0.500000  1
  O  O17  1  0.305070  0.233511  0.083469  1
  O  O18  1  0.928441  0.694930  0.083469  1
  O  O19  1  0.766489  0.071560  0.083469  1
  O  O20  1  0.591454  0.470684  0.203742  1
  O  O21  1  0.879229  0.408546  0.203742  1
  O  O22  1  0.529316  0.120770  0.203742  1
  O  O23  1  0.317541  0.483865  0.259023  1
  O  O24  1  0.166326  0.682459  0.259025  1
  O  O25  1  0.516135  0.833675  0.259025  1
  O  O26  1  0.380777  0.274560  0.442042  1
  O  O27  1  0.893782  0.619223  0.442042  1
  O  O28  1  0.725441  0.106219  0.442042  1
  O  O29  1  0.274558  0.893781  0.557957  1
  O  O30  1  0.106217  0.380776  0.557959  1
  O  O31  1  0.619223  0.725441  0.557959  1
  O  O32  1  0.483865  0.166325  0.740975  1
  O  O33  1  0.682459  0.516135  0.740976  1
  O  O34  1  0.833675  0.317542  0.740976  1
  O  O35  1  0.470684  0.879231  0.796259  1
  O  O36  1  0.120770  0.591453  0.796259  1
  O  O37  1  0.408546  0.529316  0.796259  1
  O  O38  1  0.233511  0.928440  0.916530  1
  O  O39  1  0.694929  0.766488  0.916530  1
  O  O40  1  0.071559  0.305070  0.916531  1
