# generated using pymatgen
data_Pr8Tm2TlIn5Br2
_symmetry_space_group_name_H-M   'P 1'
_cell_length_a   9.55815907
_cell_length_b   9.55816037
_cell_length_c   6.89890600
_cell_angle_alpha   90.00671377
_cell_angle_beta   90.00670777
_cell_angle_gamma   120.09925713
_symmetry_Int_Tables_number   1
_chemical_formula_structural   Pr8Tm2TlIn5Br2
_chemical_formula_sum   'Pr8 Tm2 Tl1 In5 Br2'
_cell_volume   545.28577907
_cell_formula_units_Z   1
loop_
 _symmetry_equiv_pos_site_id
 _symmetry_equiv_pos_as_xyz
  1  'x, y, z'
loop_
 _atom_site_type_symbol
 _atom_site_label
 _atom_site_symmetry_multiplicity
 _atom_site_fract_x
 _atom_site_fract_y
 _atom_site_fract_z
 _atom_site_occupancy
  Pr  Pr0  1  0.267146  0.000320  0.746309  1
  Pr  Pr1  1  0.734404  0.002612  0.253422  1
  Pr  Pr2  1  0.000320  0.267146  0.746309  1
  Pr  Pr3  1  0.002612  0.734404  0.253422  1
  Pr  Pr4  1  0.731810  0.731810  0.747364  1
  Pr  Pr5  1  0.266709  0.266709  0.252170  1
  Pr  Pr6  1  0.667696  0.330603  0.999841  1
  Pr  Pr7  1  0.330603  0.667696  0.999841  1
  Tm  Tm8  1  0.332383  0.666607  0.500451  1
  Tm  Tm9  1  0.666607  0.332383  0.500451  1
  Tl  Tl10  1  0.605803  0.605803  0.258144  1
  In  In11  1  0.605887  0.999540  0.741019  1
  In  In12  1  0.395887  0.000680  0.259537  1
  In  In13  1  0.999540  0.605887  0.741019  1
  In  In14  1  0.000680  0.395887  0.259537  1
  In  In15  1  0.393715  0.393715  0.741221  1
  Br  Br16  1  0.999464  0.999464  0.500504  1
  Br  Br17  1  0.998733  0.998733  0.999441  1
