# generated using pymatgen
data_Dy2Ho3InSb2
_symmetry_space_group_name_H-M   'P 1'
_cell_length_a   8.95539719
_cell_length_b   8.95153399
_cell_length_c   6.43446000
_cell_angle_alpha   90.00000000
_cell_angle_beta   90.00000000
_cell_angle_gamma   119.98572949
_symmetry_Int_Tables_number   1
_chemical_formula_structural   Dy2Ho3InSb2
_chemical_formula_sum   'Dy4 Ho6 In2 Sb4'
_cell_volume   446.77358495
_cell_formula_units_Z   2
loop_
 _symmetry_equiv_pos_site_id
 _symmetry_equiv_pos_as_xyz
  1  'x, y, z'
loop_
 _atom_site_type_symbol
 _atom_site_label
 _atom_site_symmetry_multiplicity
 _atom_site_fract_x
 _atom_site_fract_y
 _atom_site_fract_z
 _atom_site_occupancy
  Dy  Dy0  1  0.758551  0.998708  0.750000  1
  Dy  Dy1  1  0.758551  0.759843  0.250000  1
  Dy  Dy2  1  0.002048  0.241829  0.250000  1
  Dy  Dy3  1  0.002048  0.760219  0.750000  1
  Ho  Ho4  1  0.334853  0.667427  0.000000  1
  Ho  Ho5  1  0.663395  0.331697  0.500000  1
  Ho  Ho6  1  0.663395  0.331697  0.000000  1
  Ho  Ho7  1  0.334853  0.667427  0.500000  1
  Ho  Ho8  1  0.240544  0.237201  0.750000  1
  Ho  Ho9  1  0.240544  0.003343  0.250000  1
  In  In10  1  0.394882  0.998468  0.750000  1
  In  In11  1  0.394882  0.396414  0.250000  1
  Sb  Sb12  1  0.999540  0.607444  0.250000  1
  Sb  Sb13  1  0.999540  0.392096  0.750000  1
  Sb  Sb14  1  0.606186  0.605863  0.750000  1
  Sb  Sb15  1  0.606186  0.000323  0.250000  1
