# generated using pymatgen
data_Ac9Er(Pb3Cl)2
_symmetry_space_group_name_H-M   'P 1'
_cell_length_a   10.06170800
_cell_length_b   10.06170836
_cell_length_c   7.20914300
_cell_angle_alpha   90.00000000
_cell_angle_beta   90.00000000
_cell_angle_gamma   120.00001195
_symmetry_Int_Tables_number   1
_chemical_formula_structural   Ac9Er(Pb3Cl)2
_chemical_formula_sum   'Ac9 Er1 Pb6 Cl2'
_cell_volume   632.05905061
_cell_formula_units_Z   1
loop_
 _symmetry_equiv_pos_site_id
 _symmetry_equiv_pos_as_xyz
  1  'x, y, z'
loop_
 _atom_site_type_symbol
 _atom_site_label
 _atom_site_symmetry_multiplicity
 _atom_site_fract_x
 _atom_site_fract_y
 _atom_site_fract_z
 _atom_site_occupancy
  Ac  Ac0  1  0.264810  0.000791  0.252150  1
  Ac  Ac1  1  0.735981  0.000791  0.747850  1
  Ac  Ac2  1  0.999209  0.264019  0.252150  1
  Ac  Ac3  1  0.999209  0.735190  0.747850  1
  Ac  Ac4  1  0.735981  0.735190  0.252150  1
  Ac  Ac5  1  0.264810  0.264019  0.747850  1
  Ac  Ac6  1  0.333333  0.666667  0.000000  1
  Ac  Ac7  1  0.666667  0.333333  0.000000  1
  Ac  Ac8  1  0.666667  0.333333  0.500000  1
  Er  Er9  1  0.333333  0.666667  0.500000  1
  Pb  Pb10  1  0.607650  0.991848  0.257820  1
  Pb  Pb11  1  0.384198  0.991848  0.742180  1
  Pb  Pb12  1  0.008152  0.615802  0.257820  1
  Pb  Pb13  1  0.008152  0.392350  0.742180  1
  Pb  Pb14  1  0.384198  0.392350  0.257820  1
  Pb  Pb15  1  0.607650  0.615802  0.742180  1
  Cl  Cl16  1  0.000000  0.000000  0.000000  1
  Cl  Cl17  1  0.000000  0.000000  0.500000  1
