# generated using pymatgen
data_HfTa2(ZnIr2)3
_symmetry_space_group_name_H-M   'P 1'
_cell_length_a   4.20501200
_cell_length_b   6.98108400
_cell_length_c   12.59843200
_cell_angle_alpha   90.00000000
_cell_angle_beta   90.00005454
_cell_angle_gamma   90.00000000
_symmetry_Int_Tables_number   1
_chemical_formula_structural   HfTa2(ZnIr2)3
_chemical_formula_sum   'Hf2 Ta4 Zn6 Ir12'
_cell_volume   369.83379962
_cell_formula_units_Z   2
loop_
 _symmetry_equiv_pos_site_id
 _symmetry_equiv_pos_as_xyz
  1  'x, y, z'
loop_
 _atom_site_type_symbol
 _atom_site_label
 _atom_site_symmetry_multiplicity
 _atom_site_fract_x
 _atom_site_fract_y
 _atom_site_fract_z
 _atom_site_occupancy
  Hf  Hf0  1  0.000080  0.000000  0.664907  1
  Hf  Hf1  1  0.500081  0.500001  0.835109  1
  Ta  Ta2  1  0.999999  0.000000  0.000566  1
  Ta  Ta3  1  0.499921  0.500001  0.165645  1
  Ta  Ta4  1  0.999921  0.000000  0.334345  1
  Ta  Ta5  1  0.499999  0.500001  0.499431  1
  Zn  Zn6  1  0.000006  0.500001  0.000845  1
  Zn  Zn7  1  0.499903  0.000000  0.169059  1
  Zn  Zn8  1  0.999903  0.500001  0.330941  1
  Zn  Zn9  1  0.500006  0.000000  0.499152  1
  Zn  Zn10  1  0.000092  0.500001  0.668136  1
  Zn  Zn11  1  0.500092  0.000000  0.831866  1
  Ir  Ir12  1  0.499998  0.244331  0.004675  1
  Ir  Ir13  1  0.499998  0.755669  0.004675  1
  Ir  Ir14  1  0.999927  0.251067  0.168053  1
  Ir  Ir15  1  0.999927  0.748933  0.168053  1
  Ir  Ir16  1  0.499927  0.248911  0.331970  1
  Ir  Ir17  1  0.499927  0.751088  0.331970  1
  Ir  Ir18  1  0.999998  0.255695  0.495318  1
  Ir  Ir19  1  0.999998  0.744304  0.495318  1
  Ir  Ir20  1  0.500074  0.256076  0.663255  1
  Ir  Ir21  1  0.500074  0.743923  0.663255  1
  Ir  Ir22  1  0.000074  0.243924  0.836730  1
  Ir  Ir23  1  0.000074  0.756076  0.836730  1
