# generated using pymatgen
data_Lu5GaCuTe2
_symmetry_space_group_name_H-M   'P 1'
_cell_length_a   8.43858452
_cell_length_b   8.43858551
_cell_length_c   7.73901167
_cell_angle_alpha   90.86329526
_cell_angle_beta   90.86329762
_cell_angle_gamma   125.34739831
_symmetry_Int_Tables_number   1
_chemical_formula_structural   Lu5GaCuTe2
_chemical_formula_sum   'Lu10 Ga2 Cu2 Te4'
_cell_volume   449.26180495
_cell_formula_units_Z   2
loop_
 _symmetry_equiv_pos_site_id
 _symmetry_equiv_pos_as_xyz
  1  'x, y, z'
loop_
 _atom_site_type_symbol
 _atom_site_label
 _atom_site_symmetry_multiplicity
 _atom_site_fract_x
 _atom_site_fract_y
 _atom_site_fract_z
 _atom_site_occupancy
  Lu  Lu0  1  0.000000  0.000000  0.000000  1
  Lu  Lu1  1  0.500000  0.500000  0.500000  1
  Lu  Lu2  1  0.795697  0.550502  0.173262  1
  Lu  Lu3  1  0.449498  0.204303  0.826738  1
  Lu  Lu4  1  0.964711  0.727748  0.653732  1
  Lu  Lu5  1  0.272252  0.035289  0.346268  1
  Lu  Lu6  1  0.204303  0.449498  0.826738  1
  Lu  Lu7  1  0.550502  0.795697  0.173262  1
  Lu  Lu8  1  0.035289  0.272252  0.346268  1
  Lu  Lu9  1  0.727748  0.964711  0.653732  1
  Ga  Ga10  1  0.633776  0.633776  0.868364  1
  Ga  Ga11  1  0.366224  0.366224  0.131636  1
  Cu  Cu12  1  0.869545  0.869545  0.373434  1
  Cu  Cu13  1  0.130455  0.130455  0.626566  1
  Te  Te14  1  0.207996  0.792004  0.000000  1
  Te  Te15  1  0.705852  0.294148  0.500000  1
  Te  Te16  1  0.792004  0.207996  0.000000  1
  Te  Te17  1  0.294148  0.705852  0.500000  1
