# generated using pymatgen
data_Y2Tm4Al15Si9Ru8
_symmetry_space_group_name_H-M   'P 1'
_cell_length_a   8.67509200
_cell_length_b   8.67205063
_cell_length_c   9.33640100
_cell_angle_alpha   90.00000000
_cell_angle_beta   90.00000000
_cell_angle_gamma   120.05894949
_symmetry_Int_Tables_number   1
_chemical_formula_structural   Y2Tm4Al15Si9Ru8
_chemical_formula_sum   'Y2 Tm4 Al15 Si9 Ru8'
_cell_volume   607.92182946
_cell_formula_units_Z   1
loop_
 _symmetry_equiv_pos_site_id
 _symmetry_equiv_pos_as_xyz
  1  'x, y, z'
loop_
 _atom_site_type_symbol
 _atom_site_label
 _atom_site_symmetry_multiplicity
 _atom_site_fract_x
 _atom_site_fract_y
 _atom_site_fract_z
 _atom_site_occupancy
  Y  Y0  1  0.191905  0.385608  0.250000  1
  Y  Y1  1  0.809549  0.615613  0.750000  1
  Tm  Tm2  1  0.610286  0.805803  0.250000  1
  Tm  Tm3  1  0.388312  0.192106  0.750000  1
  Tm  Tm4  1  0.195170  0.804655  0.250000  1
  Tm  Tm5  1  0.805373  0.194715  0.750000  1
  Al  Al6  1  0.165326  0.328636  0.579169  1
  Al  Al7  1  0.836125  0.671430  0.418885  1
  Al  Al8  1  0.671067  0.835134  0.577895  1
  Al  Al9  1  0.836125  0.671430  0.081115  1
  Al  Al10  1  0.328934  0.163517  0.419993  1
  Al  Al11  1  0.165326  0.328636  0.920831  1
  Al  Al12  1  0.165010  0.836175  0.578420  1
  Al  Al13  1  0.328934  0.163517  0.080007  1
  Al  Al14  1  0.834526  0.164211  0.420846  1
  Al  Al15  1  0.671067  0.835134  0.922105  1
  Al  Al16  1  0.834526  0.164211  0.079154  1
  Al  Al17  1  0.165010  0.836175  0.921580  1
  Al  Al18  1  0.435686  0.564301  0.750000  1
  Al  Al19  1  0.998564  0.995970  0.250000  1
  Al  Al20  1  0.001760  0.003655  0.750000  1
  Si  Si21  1  0.334464  0.665769  0.040001  1
  Si  Si22  1  0.665810  0.333846  0.958807  1
  Si  Si23  1  0.665810  0.333846  0.541193  1
  Si  Si24  1  0.334464  0.665769  0.459999  1
  Si  Si25  1  0.561020  0.123317  0.250000  1
  Si  Si26  1  0.436449  0.876568  0.750000  1
  Si  Si27  1  0.875247  0.438681  0.250000  1
  Si  Si28  1  0.124469  0.563734  0.750000  1
  Si  Si29  1  0.563308  0.437535  0.250000  1
  Ru  Ru30  1  0.500190  0.001042  0.000622  1
  Ru  Ru31  1  0.998934  0.499784  0.000617  1
  Ru  Ru32  1  0.500190  0.001042  0.499378  1
  Ru  Ru33  1  0.501180  0.499047  0.006676  1
  Ru  Ru34  1  0.998934  0.499784  0.499383  1
  Ru  Ru35  1  0.501180  0.499047  0.493324  1
  Ru  Ru36  1  0.999885  0.000281  0.999621  1
  Ru  Ru37  1  0.999885  0.000281  0.500379  1
