# generated using pymatgen
data_TbTm3Ga4Ru3Pt
_symmetry_space_group_name_H-M   'P 1'
_cell_length_a   4.26191900
_cell_length_b   6.85418732
_cell_length_c   7.81779183
_cell_angle_alpha   89.84769244
_cell_angle_beta   90.00000000
_cell_angle_gamma   90.00000000
_symmetry_Int_Tables_number   1
_chemical_formula_structural   TbTm3Ga4Ru3Pt
_chemical_formula_sum   'Tb1 Tm3 Ga4 Ru3 Pt1'
_cell_volume   228.37245903
_cell_formula_units_Z   1
loop_
 _symmetry_equiv_pos_site_id
 _symmetry_equiv_pos_as_xyz
  1  'x, y, z'
loop_
 _atom_site_type_symbol
 _atom_site_label
 _atom_site_symmetry_multiplicity
 _atom_site_fract_x
 _atom_site_fract_y
 _atom_site_fract_z
 _atom_site_occupancy
  Tb  Tb0  1  0.250000  0.481167  0.184545  1
  Tm  Tm1  1  0.750000  0.520752  0.811253  1
  Tm  Tm2  1  0.250000  0.974173  0.311163  1
  Tm  Tm3  1  0.750000  0.019814  0.691697  1
  Ga  Ga4  1  0.750000  0.668755  0.430844  1
  Ga  Ga5  1  0.250000  0.343189  0.575682  1
  Ga  Ga6  1  0.750000  0.158578  0.065847  1
  Ga  Ga7  1  0.250000  0.839769  0.928643  1
  Ru  Ru8  1  0.250000  0.727467  0.610153  1
  Ru  Ru9  1  0.250000  0.223107  0.888214  1
  Ru  Ru10  1  0.750000  0.773670  0.109134  1
  Pt  Pt11  1  0.750000  0.269559  0.392828  1
