# generated using pymatgen
data_YbU(TcB4)2
_symmetry_space_group_name_H-M   'P 1'
_cell_length_a   3.60138200
_cell_length_b   5.94358185
_cell_length_c   11.48638801
_cell_angle_alpha   90.03249962
_cell_angle_beta   90.00000000
_cell_angle_gamma   90.00000000
_symmetry_Int_Tables_number   1
_chemical_formula_structural   YbU(TcB4)2
_chemical_formula_sum   'Yb2 U2 Tc4 B16'
_cell_volume   245.86734426
_cell_formula_units_Z   2
loop_
 _symmetry_equiv_pos_site_id
 _symmetry_equiv_pos_as_xyz
  1  'x, y, z'
loop_
 _atom_site_type_symbol
 _atom_site_label
 _atom_site_symmetry_multiplicity
 _atom_site_fract_x
 _atom_site_fract_y
 _atom_site_fract_z
 _atom_site_occupancy
  Yb  Yb0  1  0.000000  0.625869  0.851613  1
  Yb  Yb1  1  0.000000  0.374131  0.148387  1
  U  U2  1  0.000000  0.127879  0.650208  1
  U  U3  1  0.000000  0.872121  0.349792  1
  Tc  Tc4  1  0.000000  0.130502  0.912373  1
  Tc  Tc5  1  0.000000  0.869498  0.087627  1
  Tc  Tc6  1  0.000000  0.641123  0.591189  1
  Tc  Tc7  1  0.000000  0.358877  0.408811  1
  B  B8  1  0.500000  0.364467  0.967902  1
  B  B9  1  0.500000  0.635533  0.032098  1
  B  B10  1  0.500000  0.867572  0.531787  1
  B  B11  1  0.500000  0.132428  0.468213  1
  B  B12  1  0.500000  0.470802  0.691328  1
  B  B13  1  0.500000  0.529198  0.308672  1
  B  B14  1  0.500000  0.980206  0.807161  1
  B  B15  1  0.500000  0.019794  0.192839  1
  B  B16  1  0.500000  0.285138  0.813925  1
  B  B17  1  0.500000  0.714862  0.186075  1
  B  B18  1  0.500000  0.790556  0.685940  1
  B  B19  1  0.500000  0.209444  0.314060  1
  B  B20  1  0.500000  0.386045  0.546949  1
  B  B21  1  0.500000  0.613955  0.453051  1
  B  B22  1  0.500000  0.886042  0.953308  1
  B  B23  1  0.500000  0.113958  0.046692  1
