# generated using pymatgen
data_GdDyErTaO7
_symmetry_space_group_name_H-M   'P 1'
_cell_length_a   6.49483006
_cell_length_b   6.49483005
_cell_length_c   7.48561703
_cell_angle_alpha   89.96530829
_cell_angle_beta   89.96530618
_cell_angle_gamma   108.47094613
_symmetry_Int_Tables_number   1
_chemical_formula_structural   GdDyErTaO7
_chemical_formula_sum   'Gd2 Dy2 Er2 Ta2 O14'
_cell_volume   299.49747305
_cell_formula_units_Z   2
loop_
 _symmetry_equiv_pos_site_id
 _symmetry_equiv_pos_as_xyz
  1  'x, y, z'
loop_
 _atom_site_type_symbol
 _atom_site_label
 _atom_site_symmetry_multiplicity
 _atom_site_fract_x
 _atom_site_fract_y
 _atom_site_fract_z
 _atom_site_occupancy
  Gd  Gd0  1  0.467708  0.466827  0.000795  1
  Gd  Gd1  1  0.533173  0.532292  0.499205  1
  Dy  Dy2  1  0.000069  0.465049  0.741562  1
  Dy  Dy3  1  0.534951  0.999931  0.758438  1
  Er  Er4  1  0.000518  0.535105  0.241264  1
  Er  Er5  1  0.464895  0.999482  0.258736  1
  Ta  Ta6  1  0.002028  0.002358  0.498874  1
  Ta  Ta7  1  0.997642  0.997972  0.001126  1
  O  O8  1  0.932749  0.067251  0.750000  1
  O  O9  1  0.640849  0.359151  0.750000  1
  O  O10  1  0.309221  0.051885  0.542959  1
  O  O11  1  0.948115  0.690779  0.957041  1
  O  O12  1  0.632479  0.367521  0.250000  1
  O  O13  1  0.920474  0.672363  0.523422  1
  O  O14  1  0.327637  0.079526  0.976578  1
  O  O15  1  0.078921  0.327338  0.026594  1
  O  O16  1  0.672662  0.921079  0.473406  1
  O  O17  1  0.368873  0.631127  0.750000  1
  O  O18  1  0.692234  0.951695  0.047097  1
  O  O19  1  0.048305  0.307766  0.452903  1
  O  O20  1  0.356857  0.643143  0.250000  1
  O  O21  1  0.069642  0.930358  0.250000  1
