# generated using pymatgen
data_ThNp3(SbAs)4
_symmetry_space_group_name_H-M   'P 1'
_cell_length_a   16.92366576
_cell_length_b   4.16305221
_cell_length_c   5.93672253
_cell_angle_alpha   45.78824916
_cell_angle_beta   89.99590583
_cell_angle_gamma   90.01843395
_symmetry_Int_Tables_number   1
_chemical_formula_structural   ThNp3(SbAs)4
_chemical_formula_sum   'Th1 Np3 Sb4 As4'
_cell_volume   299.79981492
_cell_formula_units_Z   1
loop_
 _symmetry_equiv_pos_site_id
 _symmetry_equiv_pos_as_xyz
  1  'x, y, z'
loop_
 _atom_site_type_symbol
 _atom_site_label
 _atom_site_symmetry_multiplicity
 _atom_site_fract_x
 _atom_site_fract_y
 _atom_site_fract_z
 _atom_site_occupancy
  Th  Th0  1  0.349174  0.494995  0.254188  1
  Np  Np1  1  0.147375  0.494999  0.754076  1
  Np  Np2  1  0.656293  0.505174  0.745679  1
  Np  Np3  1  0.848113  0.504840  0.246024  1
  Sb  Sb4  1  0.505583  0.998861  0.750852  1
  Sb  Sb5  1  0.997065  0.000608  0.749407  1
  Sb  Sb6  1  0.506667  0.999914  0.249821  1
  Sb  Sb7  1  0.997321  0.999922  0.250272  1
  As  As8  1  0.317340  0.494510  0.754474  1
  As  As9  1  0.824574  0.505359  0.745738  1
  As  As10  1  0.679793  0.505706  0.245345  1
  As  As11  1  0.170702  0.495111  0.254125  1
