# generated using pymatgen
data_Sc9Re4Se
_symmetry_space_group_name_H-M   'P 1'
_cell_length_a   8.57400400
_cell_length_b   8.71418843
_cell_length_c   8.71418700
_cell_angle_alpha   120.01198488
_cell_angle_beta   90.00000000
_cell_angle_gamma   90.00000000
_symmetry_Int_Tables_number   1
_chemical_formula_structural   Sc9Re4Se
_chemical_formula_sum   'Sc18 Re8 Se2'
_cell_volume   563.78780061
_cell_formula_units_Z   2
loop_
 _symmetry_equiv_pos_site_id
 _symmetry_equiv_pos_as_xyz
  1  'x, y, z'
loop_
 _atom_site_type_symbol
 _atom_site_label
 _atom_site_symmetry_multiplicity
 _atom_site_fract_x
 _atom_site_fract_y
 _atom_site_fract_z
 _atom_site_occupancy
  Sc  Sc0  1  0.547351  0.805711  0.611430  1
  Sc  Sc1  1  0.547308  0.805710  0.194290  1
  Sc  Sc2  1  0.547351  0.388570  0.194289  1
  Sc  Sc3  1  0.452649  0.194289  0.388570  1
  Sc  Sc4  1  0.452692  0.194290  0.805710  1
  Sc  Sc5  1  0.452649  0.611430  0.805711  1
  Sc  Sc6  1  0.047351  0.194289  0.388570  1
  Sc  Sc7  1  0.047308  0.194290  0.805710  1
  Sc  Sc8  1  0.047351  0.611430  0.805711  1
  Sc  Sc9  1  0.952649  0.805711  0.611430  1
  Sc  Sc10  1  0.952692  0.805710  0.194290  1
  Sc  Sc11  1  0.952649  0.388570  0.194289  1
  Sc  Sc12  1  0.750000  0.457443  0.914875  1
  Sc  Sc13  1  0.750000  0.457437  0.542563  1
  Sc  Sc14  1  0.750000  0.085125  0.542557  1
  Sc  Sc15  1  0.250000  0.542557  0.085125  1
  Sc  Sc16  1  0.250000  0.542563  0.457437  1
  Sc  Sc17  1  0.250000  0.914875  0.457443  1
  Re  Re18  1  0.750000  0.107148  0.214282  1
  Re  Re19  1  0.750000  0.107183  0.892817  1
  Re  Re20  1  0.750000  0.785718  0.892852  1
  Re  Re21  1  0.250000  0.892852  0.785718  1
  Re  Re22  1  0.250000  0.892817  0.107183  1
  Re  Re23  1  0.250000  0.214282  0.107148  1
  Re  Re24  1  0.500000  0.000000  0.000000  1
  Re  Re25  1  0.000000  0.000000  0.000000  1
  Se  Se26  1  0.750000  0.666680  0.333320  1
  Se  Se27  1  0.250000  0.333320  0.666680  1
