# generated using pymatgen
data_Nd3Dy2Tc6P12Ir13
_symmetry_space_group_name_H-M   'P 1'
_cell_length_a   12.72516900
_cell_length_b   12.72516908
_cell_length_c   4.01763100
_cell_angle_alpha   90.00000000
_cell_angle_beta   90.00000000
_cell_angle_gamma   119.99999720
_symmetry_Int_Tables_number   1
_chemical_formula_structural   Nd3Dy2Tc6P12Ir13
_chemical_formula_sum   'Nd3 Dy2 Tc6 P12 Ir13'
_cell_volume   563.41422868
_cell_formula_units_Z   1
loop_
 _symmetry_equiv_pos_site_id
 _symmetry_equiv_pos_as_xyz
  1  'x, y, z'
loop_
 _atom_site_type_symbol
 _atom_site_label
 _atom_site_symmetry_multiplicity
 _atom_site_fract_x
 _atom_site_fract_y
 _atom_site_fract_z
 _atom_site_occupancy
  Nd  Nd0  1  0.000848  0.812251  0.000000  1
  Nd  Nd1  1  0.187749  0.188597  0.000000  1
  Nd  Nd2  1  0.811403  0.999152  0.000000  1
  Dy  Dy3  1  0.333333  0.666667  0.500000  1
  Dy  Dy4  1  0.666667  0.333333  0.500000  1
  Tc  Tc5  1  0.990247  0.446151  0.500000  1
  Tc  Tc6  1  0.553849  0.544095  0.500000  1
  Tc  Tc7  1  0.455905  0.009753  0.500000  1
  Tc  Tc8  1  0.617738  0.796885  0.500000  1
  Tc  Tc9  1  0.203115  0.820853  0.500000  1
  Tc  Tc10  1  0.179147  0.382262  0.500000  1
  P  P11  1  0.007268  0.636224  0.500000  1
  P  P12  1  0.363776  0.371045  0.500000  1
  P  P13  1  0.628955  0.992732  0.500000  1
  P  P14  1  0.520873  0.694302  0.000000  1
  P  P15  1  0.305698  0.826571  0.000000  1
  P  P16  1  0.173429  0.479127  0.000000  1
  P  P17  1  0.482694  0.168937  0.000000  1
  P  P18  1  0.686242  0.517306  0.000000  1
  P  P19  1  0.831063  0.313758  0.000000  1
  P  P20  1  0.003159  0.184752  0.500000  1
  P  P21  1  0.815248  0.818407  0.500000  1
  P  P22  1  0.181593  0.996841  0.500000  1
  Ir  Ir23  1  0.505990  0.874600  0.000000  1
  Ir  Ir24  1  0.125400  0.631391  0.000000  1
  Ir  Ir25  1  0.368609  0.494010  0.000000  1
  Ir  Ir26  1  0.494664  0.358527  0.000000  1
  Ir  Ir27  1  0.863864  0.505336  0.000000  1
  Ir  Ir28  1  0.641473  0.136136  0.000000  1
  Ir  Ir29  1  0.995446  0.284140  0.000000  1
  Ir  Ir30  1  0.715860  0.711307  0.000000  1
  Ir  Ir31  1  0.288693  0.004554  0.000000  1
  Ir  Ir32  1  0.377441  0.185278  0.500000  1
  Ir  Ir33  1  0.807838  0.622559  0.500000  1
  Ir  Ir34  1  0.814722  0.192162  0.500000  1
  Ir  Ir35  1  0.000000  0.000000  0.500000  1
