# generated using pymatgen
data_SrTa6(CS2)3
_symmetry_space_group_name_H-M   'P 1'
_cell_length_a   5.73555351
_cell_length_b   5.73555313
_cell_length_c   10.13806700
_cell_angle_alpha   84.44996354
_cell_angle_beta   84.44997394
_cell_angle_gamma   119.72303688
_symmetry_Int_Tables_number   1
_chemical_formula_structural   SrTa6(CS2)3
_chemical_formula_sum   'Sr1 Ta6 C3 S6'
_cell_volume   284.20481138
_cell_formula_units_Z   1
loop_
 _symmetry_equiv_pos_site_id
 _symmetry_equiv_pos_as_xyz
  1  'x, y, z'
loop_
 _atom_site_type_symbol
 _atom_site_label
 _atom_site_symmetry_multiplicity
 _atom_site_fract_x
 _atom_site_fract_y
 _atom_site_fract_z
 _atom_site_occupancy
  Sr  Sr0  1  0.000000  0.000000  0.000000  1
  Ta  Ta1  1  0.129160  0.129160  0.614883  1
  Ta  Ta2  1  0.462790  0.795970  0.614442  1
  Ta  Ta3  1  0.795970  0.462790  0.614442  1
  Ta  Ta4  1  0.204030  0.537210  0.385558  1
  Ta  Ta5  1  0.537210  0.204030  0.385558  1
  Ta  Ta6  1  0.870840  0.870840  0.385117  1
  C  C7  1  0.166674  0.833326  0.500000  1
  C  C8  1  0.500000  0.500000  0.500000  1
  C  C9  1  0.833326  0.166674  0.500000  1
  S  S10  1  0.265993  0.265993  0.219990  1
  S  S11  1  0.589197  0.927694  0.220251  1
  S  S12  1  0.927694  0.589197  0.220251  1
  S  S13  1  0.072306  0.410803  0.779749  1
  S  S14  1  0.410803  0.072306  0.779749  1
  S  S15  1  0.734007  0.734007  0.780010  1
