# generated using pymatgen
data_Y10Cd2InCo
_symmetry_space_group_name_H-M   'P 1'
_cell_length_a   9.69475557
_cell_length_b   9.75902127
_cell_length_c   9.71279400
_cell_angle_alpha   90.00000000
_cell_angle_beta   90.00000000
_cell_angle_gamma   120.21951750
_symmetry_Int_Tables_number   1
_chemical_formula_structural   Y10Cd2InCo
_chemical_formula_sum   'Y20 Cd4 In2 Co2'
_cell_volume   794.05945363
_cell_formula_units_Z   2
loop_
 _symmetry_equiv_pos_site_id
 _symmetry_equiv_pos_as_xyz
  1  'x, y, z'
loop_
 _atom_site_type_symbol
 _atom_site_label
 _atom_site_symmetry_multiplicity
 _atom_site_fract_x
 _atom_site_fract_y
 _atom_site_fract_z
 _atom_site_occupancy
  Y  Y0  1  0.002871  0.001436  0.504229  1
  Y  Y1  1  0.002871  0.001436  0.995771  1
  Y  Y2  1  0.539947  0.454566  0.250000  1
  Y  Y3  1  0.539947  0.085381  0.250000  1
  Y  Y4  1  0.914539  0.457270  0.250000  1
  Y  Y5  1  0.456711  0.544037  0.750000  1
  Y  Y6  1  0.456711  0.912674  0.750000  1
  Y  Y7  1  0.085693  0.542847  0.750000  1
  Y  Y8  1  0.211400  0.787957  0.436164  1
  Y  Y9  1  0.211400  0.423444  0.436164  1
  Y  Y10  1  0.577332  0.788666  0.434589  1
  Y  Y11  1  0.787859  0.211543  0.563877  1
  Y  Y12  1  0.787859  0.576315  0.563877  1
  Y  Y13  1  0.424204  0.212102  0.566228  1
  Y  Y14  1  0.787859  0.211543  0.936123  1
  Y  Y15  1  0.787859  0.576315  0.936123  1
  Y  Y16  1  0.424204  0.212102  0.933772  1
  Y  Y17  1  0.211400  0.787957  0.063836  1
  Y  Y18  1  0.211400  0.423444  0.063836  1
  Y  Y19  1  0.577332  0.788666  0.065411  1
  Cd  Cd20  1  0.230002  0.115001  0.250000  1
  Cd  Cd21  1  0.115463  0.883160  0.750000  1
  Cd  Cd22  1  0.115463  0.232302  0.750000  1
  Cd  Cd23  1  0.768438  0.884219  0.750000  1
  In  In24  1  0.884724  0.116429  0.250000  1
  In  In25  1  0.884724  0.768295  0.250000  1
  Co  Co26  1  0.331353  0.665678  0.250000  1
  Co  Co27  1  0.670432  0.335216  0.750000  1
