# generated using pymatgen
data_Tb2Sm5FeBr12
_symmetry_space_group_name_H-M   'P 1'
_cell_length_a   9.38016393
_cell_length_b   9.24911980
_cell_length_c   9.39972811
_cell_angle_alpha   106.91938169
_cell_angle_beta   106.92210681
_cell_angle_gamma   106.86624677
_symmetry_Int_Tables_number   1
_chemical_formula_structural   Tb2Sm5FeBr12
_chemical_formula_sum   'Tb2 Sm5 Fe1 Br12'
_cell_volume   680.95626139
_cell_formula_units_Z   1
loop_
 _symmetry_equiv_pos_site_id
 _symmetry_equiv_pos_as_xyz
  1  'x, y, z'
loop_
 _atom_site_type_symbol
 _atom_site_label
 _atom_site_symmetry_multiplicity
 _atom_site_fract_x
 _atom_site_fract_y
 _atom_site_fract_z
 _atom_site_occupancy
  Tb  Tb0  1  0.804131  0.522812  0.598736  1
  Tb  Tb1  1  0.001629  0.998230  0.999814  1
  Sm  Sm2  1  0.520831  0.600277  0.808341  1
  Sm  Sm3  1  0.189591  0.477852  0.400162  1
  Sm  Sm4  1  0.477245  0.400563  0.191771  1
  Sm  Sm5  1  0.596514  0.798257  0.524430  1
  Sm  Sm6  1  0.405422  0.203084  0.476509  1
  Fe  Fe7  1  0.498883  0.500767  0.500062  1
  Br  Br8  1  0.727301  0.187635  0.573581  1
  Br  Br9  1  0.962312  0.883009  0.669987  1
  Br  Br10  1  0.574295  0.727185  0.185357  1
  Br  Br11  1  0.112432  0.330327  0.035613  1
  Br  Br12  1  0.674365  0.966873  0.889255  1
  Br  Br13  1  0.885941  0.664186  0.958321  1
  Br  Br14  1  0.038004  0.109897  0.328105  1
  Br  Br15  1  0.818650  0.430221  0.282267  1
  Br  Br16  1  0.329727  0.033809  0.111432  1
  Br  Br17  1  0.278189  0.820139  0.428293  1
  Br  Br18  1  0.177534  0.571127  0.722796  1
  Br  Br19  1  0.427004  0.273753  0.815170  1
