# generated using pymatgen
data_Tb4Al18Pd5W
_symmetry_space_group_name_H-M   'P 1'
_cell_length_a   7.64642750
_cell_length_b   7.64642733
_cell_length_c   9.54929320
_cell_angle_alpha   89.65966098
_cell_angle_beta   89.65966092
_cell_angle_gamma   118.91158254
_symmetry_Int_Tables_number   1
_chemical_formula_structural   Tb4Al18Pd5W
_chemical_formula_sum   'Tb4 Al18 Pd5 W1'
_cell_volume   488.70724572
_cell_formula_units_Z   1
loop_
 _symmetry_equiv_pos_site_id
 _symmetry_equiv_pos_as_xyz
  1  'x, y, z'
loop_
 _atom_site_type_symbol
 _atom_site_label
 _atom_site_symmetry_multiplicity
 _atom_site_fract_x
 _atom_site_fract_y
 _atom_site_fract_z
 _atom_site_occupancy
  Tb  Tb0  1  0.995258  0.679701  0.246990  1
  Tb  Tb1  1  0.004742  0.320299  0.753010  1
  Tb  Tb2  1  0.679701  0.995258  0.246990  1
  Tb  Tb3  1  0.320299  0.004742  0.753010  1
  Al  Al4  1  0.136651  0.136651  0.248976  1
  Al  Al5  1  0.863349  0.863349  0.751024  1
  Al  Al6  1  0.003242  0.335882  0.076210  1
  Al  Al7  1  0.996758  0.664118  0.923790  1
  Al  Al8  1  0.998273  0.660558  0.577990  1
  Al  Al9  1  0.339442  0.001727  0.422010  1
  Al  Al10  1  0.001727  0.339442  0.422010  1
  Al  Al11  1  0.660558  0.998273  0.577990  1
  Al  Al12  1  0.664118  0.996758  0.923790  1
  Al  Al13  1  0.335882  0.003242  0.076210  1
  Al  Al14  1  0.333450  0.333450  0.553731  1
  Al  Al15  1  0.666550  0.666550  0.446269  1
  Al  Al16  1  0.666990  0.666990  0.050948  1
  Al  Al17  1  0.333010  0.333010  0.949052  1
  Al  Al18  1  0.343023  0.551527  0.250365  1
  Al  Al19  1  0.656977  0.448473  0.749635  1
  Al  Al20  1  0.551527  0.343023  0.250365  1
  Al  Al21  1  0.448473  0.656977  0.749635  1
  Pd  Pd22  1  0.672556  0.327444  0.000000  1
  Pd  Pd23  1  0.327444  0.672556  0.000000  1
  Pd  Pd24  1  0.327888  0.672112  0.500000  1
  Pd  Pd25  1  0.672112  0.327888  0.500000  1
  Pd  Pd26  1  0.000000  0.000000  0.500000  1
  W  W27  1  0.000000  0.000000  0.000000  1
