# generated using pymatgen
data_Sm2Ga9Pd2Ru
_symmetry_space_group_name_H-M   'P 1'
_cell_length_a   7.67227876
_cell_length_b   7.67227915
_cell_length_c   9.65471315
_cell_angle_alpha   89.90056755
_cell_angle_beta   89.90057039
_cell_angle_gamma   119.83266285
_symmetry_Int_Tables_number   1
_chemical_formula_structural   Sm2Ga9Pd2Ru
_chemical_formula_sum   'Sm4 Ga18 Pd4 Ru2'
_cell_volume   492.99897296
_cell_formula_units_Z   2
loop_
 _symmetry_equiv_pos_site_id
 _symmetry_equiv_pos_as_xyz
  1  'x, y, z'
loop_
 _atom_site_type_symbol
 _atom_site_label
 _atom_site_symmetry_multiplicity
 _atom_site_fract_x
 _atom_site_fract_y
 _atom_site_fract_z
 _atom_site_occupancy
  Sm  Sm0  1  0.996463  0.668933  0.249370  1
  Sm  Sm1  1  0.003537  0.331067  0.750630  1
  Sm  Sm2  1  0.668933  0.996463  0.249370  1
  Sm  Sm3  1  0.331067  0.003537  0.750630  1
  Ga  Ga4  1  0.130914  0.130914  0.251263  1
  Ga  Ga5  1  0.869086  0.869086  0.748737  1
  Ga  Ga6  1  0.002649  0.334214  0.081786  1
  Ga  Ga7  1  0.997352  0.665786  0.918214  1
  Ga  Ga8  1  0.999902  0.659910  0.575020  1
  Ga  Ga9  1  0.340090  0.000099  0.424980  1
  Ga  Ga10  1  0.000099  0.340090  0.424980  1
  Ga  Ga11  1  0.659910  0.999901  0.575020  1
  Ga  Ga12  1  0.665786  0.997351  0.918214  1
  Ga  Ga13  1  0.334214  0.002649  0.081786  1
  Ga  Ga14  1  0.338094  0.338094  0.560068  1
  Ga  Ga15  1  0.661906  0.661906  0.439932  1
  Ga  Ga16  1  0.663425  0.663425  0.070045  1
  Ga  Ga17  1  0.336575  0.336575  0.929955  1
  Ga  Ga18  1  0.336762  0.544951  0.255350  1
  Ga  Ga19  1  0.663238  0.455049  0.744650  1
  Ga  Ga20  1  0.544951  0.336762  0.255350  1
  Ga  Ga21  1  0.455049  0.663238  0.744650  1
  Pd  Pd22  1  0.670223  0.329777  0.000000  1
  Pd  Pd23  1  0.329777  0.670223  0.000000  1
  Pd  Pd24  1  0.000000  0.000000  0.000000  1
  Pd  Pd25  1  0.000000  0.000000  0.500000  1
  Ru  Ru26  1  0.328304  0.671696  0.500000  1
  Ru  Ru27  1  0.671696  0.328304  0.500000  1
