# generated using pymatgen
data_Eu4YIr2
_symmetry_space_group_name_H-M   'P 1'
_cell_length_a   8.85624986
_cell_length_b   8.85625103
_cell_length_c   7.52065040
_cell_angle_alpha   82.93637943
_cell_angle_beta   82.93636986
_cell_angle_gamma   44.34313563
_symmetry_Int_Tables_number   1
_chemical_formula_structural   Eu4YIr2
_chemical_formula_sum   'Eu8 Y2 Ir4'
_cell_volume   408.63968541
_cell_formula_units_Z   2
loop_
 _symmetry_equiv_pos_site_id
 _symmetry_equiv_pos_as_xyz
  1  'x, y, z'
loop_
 _atom_site_type_symbol
 _atom_site_label
 _atom_site_symmetry_multiplicity
 _atom_site_fract_x
 _atom_site_fract_y
 _atom_site_fract_z
 _atom_site_occupancy
  Eu  Eu0  1  0.023984  0.799035  0.921684  1
  Eu  Eu1  1  0.200965  0.976016  0.578316  1
  Eu  Eu2  1  0.976016  0.200965  0.078316  1
  Eu  Eu3  1  0.799035  0.023984  0.421684  1
  Eu  Eu4  1  0.364272  0.202434  0.818525  1
  Eu  Eu5  1  0.797566  0.635728  0.681475  1
  Eu  Eu6  1  0.635728  0.797566  0.181475  1
  Eu  Eu7  1  0.202434  0.364272  0.318525  1
  Y  Y8  1  0.566566  0.433434  0.750000  1
  Y  Y9  1  0.433434  0.566566  0.250000  1
  Ir  Ir10  1  0.195488  0.597340  0.575718  1
  Ir  Ir11  1  0.402660  0.804512  0.924282  1
  Ir  Ir12  1  0.804512  0.402660  0.424282  1
  Ir  Ir13  1  0.597340  0.195488  0.075718  1
