# generated using pymatgen
data_TbSm2Y(B6Os)2
_symmetry_space_group_name_H-M   'P 1'
_cell_length_a   3.69329600
_cell_length_b   9.22267503
_cell_length_c   11.62363804
_cell_angle_alpha   90.00897103
_cell_angle_beta   90.00000000
_cell_angle_gamma   90.00000000
_symmetry_Int_Tables_number   1
_chemical_formula_structural   TbSm2Y(B6Os)2
_chemical_formula_sum   'Tb2 Sm4 Y2 B24 Os4'
_cell_volume   395.92515352
_cell_formula_units_Z   2
loop_
 _symmetry_equiv_pos_site_id
 _symmetry_equiv_pos_as_xyz
  1  'x, y, z'
loop_
 _atom_site_type_symbol
 _atom_site_label
 _atom_site_symmetry_multiplicity
 _atom_site_fract_x
 _atom_site_fract_y
 _atom_site_fract_z
 _atom_site_occupancy
  Tb  Tb0  1  0.000000  0.944085  0.372571  1
  Tb  Tb1  1  0.000000  0.055915  0.627429  1
  Sm  Sm2  1  0.000000  0.322870  0.413885  1
  Sm  Sm3  1  0.000000  0.677130  0.586115  1
  Sm  Sm4  1  0.000000  0.822786  0.086095  1
  Sm  Sm5  1  0.000000  0.177214  0.913905  1
  Y  Y6  1  0.000000  0.444206  0.127156  1
  Y  Y7  1  0.000000  0.555794  0.872844  1
  B  B8  1  0.500000  0.555036  0.431537  1
  B  B9  1  0.500000  0.444964  0.568463  1
  B  B10  1  0.500000  0.055085  0.068436  1
  B  B11  1  0.500000  0.944915  0.931564  1
  B  B12  1  0.500000  0.748178  0.418582  1
  B  B13  1  0.500000  0.251822  0.581418  1
  B  B14  1  0.500000  0.248342  0.081380  1
  B  B15  1  0.500000  0.751658  0.918620  1
  B  B16  1  0.500000  0.790211  0.267077  1
  B  B17  1  0.500000  0.209789  0.732923  1
  B  B18  1  0.500000  0.290449  0.232923  1
  B  B19  1  0.500000  0.709551  0.767077  1
  B  B20  1  0.500000  0.631628  0.185668  1
  B  B21  1  0.500000  0.368372  0.814332  1
  B  B22  1  0.500000  0.131755  0.314233  1
  B  B23  1  0.500000  0.868245  0.685767  1
  B  B24  1  0.500000  0.985258  0.213448  1
  B  B25  1  0.500000  0.014742  0.786552  1
  B  B26  1  0.500000  0.485086  0.286476  1
  B  B27  1  0.500000  0.514914  0.713524  1
  B  B28  1  0.500000  0.606438  0.029355  1
  B  B29  1  0.500000  0.393562  0.970645  1
  B  B30  1  0.500000  0.106724  0.470567  1
  B  B31  1  0.500000  0.893276  0.529433  1
  Os  Os32  1  0.000000  0.638246  0.320583  1
  Os  Os33  1  0.000000  0.361754  0.679417  1
  Os  Os34  1  0.000000  0.138501  0.179298  1
  Os  Os35  1  0.000000  0.861499  0.820702  1
