# generated using pymatgen
data_DyEr2Lu2Bi3
_symmetry_space_group_name_H-M   'P 1'
_cell_length_a   8.20185300
_cell_length_b   9.45455000
_cell_length_c   11.94471100
_cell_angle_alpha   90.00000000
_cell_angle_beta   90.00000000
_cell_angle_gamma   90.00000000
_symmetry_Int_Tables_number   1
_chemical_formula_structural   DyEr2Lu2Bi3
_chemical_formula_sum   'Dy4 Er8 Lu8 Bi12'
_cell_volume   926.25057531
_cell_formula_units_Z   4
loop_
 _symmetry_equiv_pos_site_id
 _symmetry_equiv_pos_as_xyz
  1  'x, y, z'
loop_
 _atom_site_type_symbol
 _atom_site_label
 _atom_site_symmetry_multiplicity
 _atom_site_fract_x
 _atom_site_fract_y
 _atom_site_fract_z
 _atom_site_occupancy
  Dy  Dy0  1  0.313335  0.250122  0.217774  1
  Dy  Dy1  1  0.813335  0.249878  0.282226  1
  Dy  Dy2  1  0.686665  0.750122  0.782226  1
  Dy  Dy3  1  0.186665  0.749878  0.717774  1
  Er  Er4  1  0.353161  0.750213  0.217478  1
  Er  Er5  1  0.853161  0.749787  0.282522  1
  Er  Er6  1  0.646839  0.250213  0.782522  1
  Er  Er7  1  0.146839  0.249787  0.717478  1
  Er  Er8  1  0.692540  0.564899  0.059530  1
  Er  Er9  1  0.192540  0.935101  0.440470  1
  Er  Er10  1  0.307460  0.064899  0.940470  1
  Er  Er11  1  0.807460  0.435101  0.559530  1
  Lu  Lu12  1  0.308425  0.432132  0.940770  1
  Lu  Lu13  1  0.808425  0.067868  0.559230  1
  Lu  Lu14  1  0.691575  0.932132  0.059230  1
  Lu  Lu15  1  0.191575  0.567868  0.440770  1
  Lu  Lu16  1  0.476964  0.249806  0.489106  1
  Lu  Lu17  1  0.976964  0.250194  0.010894  1
  Lu  Lu18  1  0.523036  0.749806  0.510894  1
  Lu  Lu19  1  0.023036  0.750194  0.989106  1
  Bi  Bi20  1  0.403270  0.747859  0.958188  1
  Bi  Bi21  1  0.903270  0.752141  0.541812  1
  Bi  Bi22  1  0.596730  0.247859  0.041812  1
  Bi  Bi23  1  0.096730  0.252141  0.458188  1
  Bi  Bi24  1  0.565733  0.995257  0.327165  1
  Bi  Bi25  1  0.065733  0.504743  0.172835  1
  Bi  Bi26  1  0.434267  0.495257  0.672835  1
  Bi  Bi27  1  0.934267  0.004743  0.827165  1
  Bi  Bi28  1  0.434671  0.004557  0.673036  1
  Bi  Bi29  1  0.934671  0.495443  0.826964  1
  Bi  Bi30  1  0.565329  0.504557  0.326964  1
  Bi  Bi31  1  0.065329  0.995443  0.173036  1
