# generated using pymatgen
data_Tb3Tm(ScAu)4
_symmetry_space_group_name_H-M   'P 1'
_cell_length_a   4.76931600
_cell_length_b   7.00943690
_cell_length_c   8.57513069
_cell_angle_alpha   89.74778082
_cell_angle_beta   90.00000000
_cell_angle_gamma   90.00000000
_symmetry_Int_Tables_number   1
_chemical_formula_structural   Tb3Tm(ScAu)4
_chemical_formula_sum   'Tb3 Tm1 Sc4 Au4'
_cell_volume   286.66572448
_cell_formula_units_Z   1
loop_
 _symmetry_equiv_pos_site_id
 _symmetry_equiv_pos_as_xyz
  1  'x, y, z'
loop_
 _atom_site_type_symbol
 _atom_site_label
 _atom_site_symmetry_multiplicity
 _atom_site_fract_x
 _atom_site_fract_y
 _atom_site_fract_z
 _atom_site_occupancy
  Tb  Tb0  1  0.250000  0.983202  0.319452  1
  Tb  Tb1  1  0.750000  0.516659  0.821031  1
  Tb  Tb2  1  0.750000  0.017084  0.679606  1
  Tm  Tm3  1  0.250000  0.482872  0.179287  1
  Sc  Sc4  1  0.250000  0.854384  0.924078  1
  Sc  Sc5  1  0.250000  0.355447  0.576115  1
  Sc  Sc6  1  0.750000  0.145590  0.077235  1
  Sc  Sc7  1  0.750000  0.644515  0.421318  1
  Au  Au8  1  0.250000  0.245337  0.900103  1
  Au  Au9  1  0.250000  0.744566  0.602417  1
  Au  Au10  1  0.750000  0.753644  0.102872  1
  Au  Au11  1  0.750000  0.256700  0.396486  1
