# generated using pymatgen
data_Er10Si4BiIr
_symmetry_space_group_name_H-M   'P 1'
_cell_length_a   8.67907891
_cell_length_b   8.67907818
_cell_length_c   8.67908000
_cell_angle_alpha   129.64171511
_cell_angle_beta   129.64171112
_cell_angle_gamma   73.98020026
_symmetry_Int_Tables_number   1
_chemical_formula_structural   Er10Si4BiIr
_chemical_formula_sum   'Er10 Si4 Bi1 Ir1'
_cell_volume   378.07930732
_cell_formula_units_Z   1
loop_
 _symmetry_equiv_pos_site_id
 _symmetry_equiv_pos_as_xyz
  1  'x, y, z'
loop_
 _atom_site_type_symbol
 _atom_site_label
 _atom_site_symmetry_multiplicity
 _atom_site_fract_x
 _atom_site_fract_y
 _atom_site_fract_z
 _atom_site_occupancy
  Er  Er0  1  0.983458  0.983458  0.000000  1
  Er  Er1  1  0.516542  0.516542  0.000000  1
  Er  Er2  1  0.834653  0.289922  0.839532  1
  Er  Er3  1  0.210078  0.665347  0.160468  1
  Er  Er4  1  0.450390  0.995122  0.160468  1
  Er  Er5  1  0.289922  0.450390  0.455268  1
  Er  Er6  1  0.049610  0.210078  0.544732  1
  Er  Er7  1  0.504878  0.049610  0.839532  1
  Er  Er8  1  0.665347  0.504878  0.455268  1
  Er  Er9  1  0.995122  0.834653  0.544732  1
  Si  Si10  1  0.125870  0.625870  0.751742  1
  Si  Si11  1  0.874130  0.374130  0.248258  1
  Si  Si12  1  0.625870  0.874130  0.500000  1
  Si  Si13  1  0.374130  0.125870  0.500000  1
  Bi  Bi14  1  0.750000  0.750000  0.000000  1
  Ir  Ir15  1  0.250000  0.250000  0.000000  1
