# generated using pymatgen
data_Nd8In3Hg3Au20
_symmetry_space_group_name_H-M   'P 1'
_cell_length_a   8.74725009
_cell_length_b   8.74725105
_cell_length_c   10.41873014
_cell_angle_alpha   90.05881515
_cell_angle_beta   89.94118800
_cell_angle_gamma   108.15233088
_symmetry_Int_Tables_number   1
_chemical_formula_structural   Nd8In3Hg3Au20
_chemical_formula_sum   'Nd8 In3 Hg3 Au20'
_cell_volume   757.50767068
_cell_formula_units_Z   1
loop_
 _symmetry_equiv_pos_site_id
 _symmetry_equiv_pos_as_xyz
  1  'x, y, z'
loop_
 _atom_site_type_symbol
 _atom_site_label
 _atom_site_symmetry_multiplicity
 _atom_site_fract_x
 _atom_site_fract_y
 _atom_site_fract_z
 _atom_site_occupancy
  Nd  Nd0  1  0.703084  0.297558  0.001140  1
  Nd  Nd1  1  0.200468  0.796288  0.498040  1
  Nd  Nd2  1  0.801027  0.801977  0.298169  1
  Nd  Nd3  1  0.301977  0.301027  0.201831  1
  Nd  Nd4  1  0.797558  0.203084  0.498860  1
  Nd  Nd5  1  0.296288  0.700468  0.001960  1
  Nd  Nd6  1  0.699716  0.698004  0.798239  1
  Nd  Nd7  1  0.198004  0.199716  0.701761  1
  In  In8  1  0.999084  0.000278  0.998960  1
  In  In9  1  0.480950  0.980950  0.750000  1
  In  In10  1  0.500278  0.499084  0.501040  1
  Hg  Hg11  1  0.522955  0.022955  0.250000  1
  Hg  Hg12  1  0.977700  0.477700  0.750000  1
  Hg  Hg13  1  0.022310  0.522310  0.250000  1
  Au  Au14  1  0.158859  0.428772  0.479239  1
  Au  Au15  1  0.904423  0.904256  0.594224  1
  Au  Au16  1  0.571134  0.843307  0.524224  1
  Au  Au17  1  0.892291  0.166704  0.209358  1
  Au  Au18  1  0.393305  0.667956  0.290970  1
  Au  Au19  1  0.666704  0.392291  0.290642  1
  Au  Au20  1  0.404256  0.404423  0.905776  1
  Au  Au21  1  0.928772  0.658859  0.020761  1
  Au  Au22  1  0.334714  0.610577  0.710673  1
  Au  Au23  1  0.343307  0.071134  0.975776  1
  Au  Au24  1  0.596336  0.595547  0.094752  1
  Au  Au25  1  0.655668  0.926644  0.020686  1
  Au  Au26  1  0.095547  0.096336  0.405248  1
  Au  Au27  1  0.606302  0.328958  0.710604  1
  Au  Au28  1  0.110577  0.834714  0.789327  1
  Au  Au29  1  0.071446  0.341399  0.977784  1
  Au  Au30  1  0.841399  0.571446  0.522216  1
  Au  Au31  1  0.167956  0.893305  0.209030  1
  Au  Au32  1  0.426644  0.155668  0.479314  1
  Au  Au33  1  0.828958  0.106302  0.789396  1
