# generated using pymatgen
data_K(TiSe2)3
_symmetry_space_group_name_H-M   'P 1'
_cell_length_a   9.13952360
_cell_length_b   9.13952369
_cell_length_c   9.13952393
_cell_angle_alpha   39.30802703
_cell_angle_beta   39.30803772
_cell_angle_gamma   39.30803227
_symmetry_Int_Tables_number   1
_chemical_formula_structural   K(TiSe2)3
_chemical_formula_sum   'K1 Ti3 Se6'
_cell_volume   275.68549543
_cell_formula_units_Z   1
loop_
 _symmetry_equiv_pos_site_id
 _symmetry_equiv_pos_as_xyz
  1  'x, y, z'
loop_
 _atom_site_type_symbol
 _atom_site_label
 _atom_site_symmetry_multiplicity
 _atom_site_fract_x
 _atom_site_fract_y
 _atom_site_fract_z
 _atom_site_occupancy
  K  K0  1  0.000000  0.000000  0.000000  1
  Ti  Ti1  1  0.500000  0.500000  0.500000  1
  Ti  Ti2  1  0.166920  0.166920  0.166920  1
  Ti  Ti3  1  0.833080  0.833080  0.833080  1
  Se  Se4  1  0.560589  0.229973  0.894798  1
  Se  Se5  1  0.894798  0.560589  0.229973  1
  Se  Se6  1  0.229973  0.894798  0.560589  1
  Se  Se7  1  0.770027  0.105202  0.439411  1
  Se  Se8  1  0.105202  0.439411  0.770027  1
  Se  Se9  1  0.439411  0.770027  0.105202  1
