# generated using pymatgen
data_CeY3(Al8Pt3)3
_symmetry_space_group_name_H-M   'P 1'
_cell_length_a   7.53334245
_cell_length_b   7.54147305
_cell_length_c   13.15353805
_cell_angle_alpha   84.52290056
_cell_angle_beta   78.98161582
_cell_angle_gamma   59.91562573
_symmetry_Int_Tables_number   1
_chemical_formula_structural   CeY3(Al8Pt3)3
_chemical_formula_sum   'Ce1 Y3 Al24 Pt9'
_cell_volume   634.69732513
_cell_formula_units_Z   1
loop_
 _symmetry_equiv_pos_site_id
 _symmetry_equiv_pos_as_xyz
  1  'x, y, z'
loop_
 _atom_site_type_symbol
 _atom_site_label
 _atom_site_symmetry_multiplicity
 _atom_site_fract_x
 _atom_site_fract_y
 _atom_site_fract_z
 _atom_site_occupancy
  Ce  Ce0  1  0.393921  0.167898  0.807417  1
  Y  Y1  1  0.606262  0.831834  0.192120  1
  Y  Y2  1  0.733375  0.498739  0.808033  1
  Y  Y3  1  0.266423  0.501432  0.192116  1
  Al  Al4  1  0.685173  0.832685  0.945331  1
  Al  Al5  1  0.315180  0.166161  0.055922  1
  Al  Al6  1  0.146688  0.832697  0.560794  1
  Al  Al7  1  0.853934  0.167214  0.438437  1
  Al  Al8  1  0.480131  0.166809  0.558221  1
  Al  Al9  1  0.519927  0.832656  0.441227  1
  Al  Al10  1  0.217560  0.165401  0.330581  1
  Al  Al11  1  0.784022  0.833393  0.668678  1
  Al  Al12  1  0.437752  0.507611  0.668942  1
  Al  Al13  1  0.562621  0.493609  0.330166  1
  Al  Al14  1  0.108800  0.160068  0.667694  1
  Al  Al15  1  0.890397  0.839884  0.331278  1
  Al  Al16  1  0.352365  0.500393  0.945115  1
  Al  Al17  1  0.647460  0.500358  0.055685  1
  Al  Al18  1  0.014413  0.167449  0.954076  1
  Al  Al19  1  0.984547  0.832811  0.046962  1
  Al  Al20  1  0.186127  0.499975  0.441247  1
  Al  Al21  1  0.813474  0.500681  0.558237  1
  Al  Al22  1  0.734459  0.164021  0.183864  1
  Al  Al23  1  0.264813  0.835047  0.816567  1
  Al  Al24  1  0.060265  0.632871  0.815368  1
  Al  Al25  1  0.938464  0.369022  0.184944  1
  Al  Al26  1  0.857080  0.041100  0.816249  1
  Al  Al27  1  0.144401  0.958205  0.184172  1
  Pt  Pt28  1  0.119715  0.492848  0.638412  1
  Pt  Pt29  1  0.879835  0.507944  0.361499  1
  Pt  Pt30  1  0.657268  0.171298  0.000135  1
  Pt  Pt31  1  0.342933  0.828177  0.000130  1
  Pt  Pt32  1  0.537743  0.166660  0.361927  1
  Pt  Pt33  1  0.462000  0.832647  0.638322  1
  Pt  Pt34  1  0.779839  0.174774  0.637157  1
  Pt  Pt35  1  0.220937  0.825137  0.362786  1
  Pt  Pt36  1  0.999695  0.500490  0.000188  1
