# generated using pymatgen
data_Sr4Sn2IrPt3
_symmetry_space_group_name_H-M   'P 1'
_cell_length_a   5.97690157
_cell_length_b   5.95446800
_cell_length_c   8.38966097
_cell_angle_alpha   79.43283216
_cell_angle_beta   79.10255461
_cell_angle_gamma   61.09755567
_symmetry_Int_Tables_number   1
_chemical_formula_structural   Sr4Sn2IrPt3
_chemical_formula_sum   'Sr4 Sn2 Ir1 Pt3'
_cell_volume   255.20344481
_cell_formula_units_Z   1
loop_
 _symmetry_equiv_pos_site_id
 _symmetry_equiv_pos_as_xyz
  1  'x, y, z'
loop_
 _atom_site_type_symbol
 _atom_site_label
 _atom_site_symmetry_multiplicity
 _atom_site_fract_x
 _atom_site_fract_y
 _atom_site_fract_z
 _atom_site_occupancy
  Sr  Sr0  1  0.510600  0.785982  0.351288  1
  Sr  Sr1  1  0.212901  0.492921  0.146409  1
  Sr  Sr2  1  0.487856  0.214489  0.648073  1
  Sr  Sr3  1  0.790827  0.505384  0.853901  1
  Sn  Sn4  1  0.877986  0.126314  0.244630  1
  Sn  Sn5  1  0.132249  0.873966  0.755143  1
  Ir  Ir6  1  0.272011  0.998429  0.999786  1
  Pt  Pt7  1  0.001708  0.731878  0.501559  1
  Pt  Pt8  1  0.715630  0.999403  0.998697  1
  Pt  Pt9  1  0.998231  0.271235  0.500514  1
