# generated using pymatgen
data_Yb6Th2SiPd24
_symmetry_space_group_name_H-M   'P 1'
_cell_length_a   8.35470175
_cell_length_b   8.35470150
_cell_length_c   8.35470100
_cell_angle_alpha   89.97568186
_cell_angle_beta   89.97568186
_cell_angle_gamma   89.97567839
_symmetry_Int_Tables_number   1
_chemical_formula_structural   Yb6Th2SiPd24
_chemical_formula_sum   'Yb6 Th2 Si1 Pd24'
_cell_volume   583.16665531
_cell_formula_units_Z   1
loop_
 _symmetry_equiv_pos_site_id
 _symmetry_equiv_pos_as_xyz
  1  'x, y, z'
loop_
 _atom_site_type_symbol
 _atom_site_label
 _atom_site_symmetry_multiplicity
 _atom_site_fract_x
 _atom_site_fract_y
 _atom_site_fract_z
 _atom_site_occupancy
  Yb  Yb0  1  0.747678  0.747678  0.252447  1
  Yb  Yb1  1  0.747678  0.252447  0.747678  1
  Yb  Yb2  1  0.252322  0.252322  0.747553  1
  Yb  Yb3  1  0.252322  0.747553  0.252322  1
  Yb  Yb4  1  0.252447  0.747678  0.747678  1
  Yb  Yb5  1  0.747553  0.252322  0.252322  1
  Th  Th6  1  0.255096  0.255096  0.255096  1
  Th  Th7  1  0.744904  0.744904  0.744904  1
  Si  Si8  1  0.000000  0.000000  0.000000  1
  Pd  Pd9  1  0.256693  0.500133  0.999136  1
  Pd  Pd10  1  0.743307  0.499867  0.000864  1
  Pd  Pd11  1  0.999136  0.256693  0.500133  1
  Pd  Pd12  1  0.500133  0.256693  0.999136  1
  Pd  Pd13  1  0.000864  0.743307  0.499867  1
  Pd  Pd14  1  0.499867  0.743307  0.000864  1
  Pd  Pd15  1  0.500133  0.999136  0.256693  1
  Pd  Pd16  1  0.256693  0.999136  0.500133  1
  Pd  Pd17  1  0.499867  0.000864  0.743307  1
  Pd  Pd18  1  0.743307  0.000864  0.499867  1
  Pd  Pd19  1  0.999136  0.500133  0.256693  1
  Pd  Pd20  1  0.000864  0.499867  0.743307  1
  Pd  Pd21  1  0.251523  0.501459  0.501459  1
  Pd  Pd22  1  0.748477  0.498541  0.498541  1
  Pd  Pd23  1  0.501459  0.251523  0.501459  1
  Pd  Pd24  1  0.498541  0.748477  0.498541  1
  Pd  Pd25  1  0.501459  0.501459  0.251523  1
  Pd  Pd26  1  0.498541  0.498541  0.748477  1
  Pd  Pd27  1  0.280280  0.997918  0.997918  1
  Pd  Pd28  1  0.719720  0.002082  0.002082  1
  Pd  Pd29  1  0.997918  0.280280  0.997918  1
  Pd  Pd30  1  0.002082  0.719720  0.002082  1
  Pd  Pd31  1  0.997918  0.997918  0.280280  1
  Pd  Pd32  1  0.002082  0.002082  0.719720  1
