# generated using pymatgen
data_LaZn9CuNi
_symmetry_space_group_name_H-M   'P 1'
_cell_length_a   8.21632007
_cell_length_b   8.21419478
_cell_length_c   8.21632010
_cell_angle_alpha   99.49289622
_cell_angle_beta   100.12631189
_cell_angle_gamma   131.25940215
_symmetry_Int_Tables_number   1
_chemical_formula_structural   LaZn9CuNi
_chemical_formula_sum   'La2 Zn18 Cu2 Ni2'
_cell_volume   379.65304547
_cell_formula_units_Z   2
loop_
 _symmetry_equiv_pos_site_id
 _symmetry_equiv_pos_as_xyz
  1  'x, y, z'
loop_
 _atom_site_type_symbol
 _atom_site_label
 _atom_site_symmetry_multiplicity
 _atom_site_fract_x
 _atom_site_fract_y
 _atom_site_fract_z
 _atom_site_occupancy
  La  La0  1  0.247713  0.747687  0.499975  1
  La  La1  1  0.002287  0.002320  0.000033  1
  Zn  Zn2  1  0.891483  0.565691  0.083515  1
  Zn  Zn3  1  0.435207  0.513917  0.325967  1
  Zn  Zn4  1  0.482175  0.565691  0.674208  1
  Zn  Zn5  1  0.435227  0.109238  0.921276  1
  Zn  Zn6  1  0.767825  0.184313  0.825797  1
  Zn  Zn7  1  0.482252  0.808019  0.916564  1
  Zn  Zn8  1  0.494528  0.494536  0.000008  1
  Zn  Zn9  1  0.767748  0.941986  0.583440  1
  Zn  Zn10  1  0.755471  0.255468  0.499997  1
  Zn  Zn11  1  0.062037  0.640767  0.825992  1
  Zn  Zn12  1  0.358517  0.184313  0.416490  1
  Zn  Zn13  1  0.814773  0.640767  0.578728  1
  Zn  Zn14  1  0.891454  0.808019  0.325767  1
  Zn  Zn15  1  0.187963  0.109238  0.674012  1
  Zn  Zn16  1  0.062051  0.236088  0.421295  1
  Zn  Zn17  1  0.358546  0.941986  0.174238  1
  Zn  Zn18  1  0.814793  0.236088  0.174037  1
  Zn  Zn19  1  0.187949  0.513917  0.078710  1
  Cu  Cu20  1  0.624984  0.874938  0.249954  1
  Cu  Cu21  1  0.625032  0.375010  0.749978  1
  Ni  Ni22  1  0.124989  0.375002  0.750006  1
  Ni  Ni23  1  0.624996  0.375002  0.250014  1
