# generated using pymatgen
data_YHo9Si16Pd
_symmetry_space_group_name_H-M   'P 1'
_cell_length_a   11.08543547
_cell_length_b   11.09200676
_cell_length_c   11.08639865
_cell_angle_alpha   144.76703907
_cell_angle_beta   136.52489743
_cell_angle_gamma   57.13982214
_symmetry_Int_Tables_number   1
_chemical_formula_structural   YHo9Si16Pd
_chemical_formula_sum   'Y1 Ho9 Si16 Pd1'
_cell_volume   536.75340129
_cell_formula_units_Z   1
loop_
 _symmetry_equiv_pos_site_id
 _symmetry_equiv_pos_as_xyz
  1  'x, y, z'
loop_
 _atom_site_type_symbol
 _atom_site_label
 _atom_site_symmetry_multiplicity
 _atom_site_fract_x
 _atom_site_fract_y
 _atom_site_fract_z
 _atom_site_occupancy
  Y  Y0  1  0.051769  0.564113  0.016476  1
  Ho  Ho1  1  0.352193  0.371153  0.521736  1
  Ho  Ho2  1  0.151464  0.166440  0.520119  1
  Ho  Ho3  1  0.451455  0.962805  0.014582  1
  Ho  Ho4  1  0.646199  0.166198  0.014612  1
  Ho  Ho5  1  0.948257  0.962919  0.511453  1
  Ho  Ho6  1  0.849517  0.371256  0.019086  1
  Ho  Ho7  1  0.548036  0.563944  0.512448  1
  Ho  Ho8  1  0.249089  0.763238  0.010852  1
  Ho  Ho9  1  0.752383  0.763451  0.514174  1
  Si  Si10  1  0.117691  0.077127  0.959506  1
  Si  Si11  1  0.797908  0.184210  0.385950  1
  Si  Si12  1  0.300964  0.899595  0.599873  1
  Si  Si13  1  0.400505  0.500814  0.101375  1
  Si  Si14  1  0.884887  0.847878  0.961733  1
  Si  Si15  1  0.104063  0.708716  0.604691  1
  Si  Si16  1  0.201005  0.586568  0.386987  1
  Si  Si17  1  0.697444  0.293415  0.594975  1
  Si  Si18  1  0.000074  0.433183  0.433223  1
  Si  Si19  1  0.712807  0.666504  0.952645  1
  Si  Si20  1  0.600371  0.702290  0.101782  1
  Si  Si21  1  0.000626  0.085982  0.085302  1
  Si  Si22  1  0.501052  0.392955  0.892080  1
  Si  Si23  1  0.286736  0.240547  0.955340  1
  Si  Si24  1  0.583227  0.040368  0.457125  1
  Si  Si25  1  0.414834  0.870605  0.456081  1
  Pd  Pd26  1  0.895445  0.502644  0.604714  1
