# generated using pymatgen
data_SrAs2IrRu
_symmetry_space_group_name_H-M   'P 1'
_cell_length_a   6.63471372
_cell_length_b   6.63471386
_cell_length_c   6.63471422
_cell_angle_alpha   143.53645243
_cell_angle_beta   143.53645282
_cell_angle_gamma   52.52102261
_symmetry_Int_Tables_number   1
_chemical_formula_structural   SrAs2IrRu
_chemical_formula_sum   'Sr1 As2 Ir1 Ru1'
_cell_volume   102.54698039
_cell_formula_units_Z   1
loop_
 _symmetry_equiv_pos_site_id
 _symmetry_equiv_pos_as_xyz
  1  'x, y, z'
loop_
 _atom_site_type_symbol
 _atom_site_label
 _atom_site_symmetry_multiplicity
 _atom_site_fract_x
 _atom_site_fract_y
 _atom_site_fract_z
 _atom_site_occupancy
  Sr  Sr0  1  0.000000  0.000000  0.000000  1
  As  As1  1  0.638919  0.638919  0.000000  1
  As  As2  1  0.361081  0.361081  0.000000  1
  Ir  Ir3  1  0.250000  0.750000  0.500000  1
  Ru  Ru4  1  0.750000  0.250000  0.500000  1
