# generated using pymatgen
data_Tb10Hg3Ru
_symmetry_space_group_name_H-M   'P 1'
_cell_length_a   9.62155400
_cell_length_b   9.62155434
_cell_length_c   9.80759200
_cell_angle_alpha   90.00000000
_cell_angle_beta   90.00000000
_cell_angle_gamma   120.00000572
_symmetry_Int_Tables_number   1
_chemical_formula_structural   Tb10Hg3Ru
_chemical_formula_sum   'Tb20 Hg6 Ru2'
_cell_volume   786.29127373
_cell_formula_units_Z   2
loop_
 _symmetry_equiv_pos_site_id
 _symmetry_equiv_pos_as_xyz
  1  'x, y, z'
loop_
 _atom_site_type_symbol
 _atom_site_label
 _atom_site_symmetry_multiplicity
 _atom_site_fract_x
 _atom_site_fract_y
 _atom_site_fract_z
 _atom_site_occupancy
  Tb  Tb0  1  0.000000  0.000000  0.500000  1
  Tb  Tb1  1  0.000000  0.000000  0.000000  1
  Tb  Tb2  1  0.209422  0.790578  0.439850  1
  Tb  Tb3  1  0.209422  0.418843  0.439850  1
  Tb  Tb4  1  0.581157  0.790578  0.439850  1
  Tb  Tb5  1  0.790578  0.209422  0.560150  1
  Tb  Tb6  1  0.790578  0.581157  0.560150  1
  Tb  Tb7  1  0.418843  0.209422  0.560150  1
  Tb  Tb8  1  0.790578  0.209422  0.939850  1
  Tb  Tb9  1  0.790578  0.581157  0.939850  1
  Tb  Tb10  1  0.418843  0.209422  0.939850  1
  Tb  Tb11  1  0.209422  0.790578  0.060150  1
  Tb  Tb12  1  0.209422  0.418843  0.060150  1
  Tb  Tb13  1  0.581157  0.790578  0.060150  1
  Tb  Tb14  1  0.541161  0.458839  0.250000  1
  Tb  Tb15  1  0.541161  0.082322  0.250000  1
  Tb  Tb16  1  0.917678  0.458839  0.250000  1
  Tb  Tb17  1  0.458839  0.541161  0.750000  1
  Tb  Tb18  1  0.458839  0.917678  0.750000  1
  Tb  Tb19  1  0.082322  0.541161  0.750000  1
  Hg  Hg20  1  0.882445  0.117555  0.250000  1
  Hg  Hg21  1  0.882445  0.764894  0.250000  1
  Hg  Hg22  1  0.235106  0.117555  0.250000  1
  Hg  Hg23  1  0.117555  0.882445  0.750000  1
  Hg  Hg24  1  0.117555  0.235106  0.750000  1
  Hg  Hg25  1  0.764894  0.882445  0.750000  1
  Ru  Ru26  1  0.333333  0.666667  0.250000  1
  Ru  Ru27  1  0.666667  0.333333  0.750000  1
