# generated using pymatgen
data_Th5TaRh10
_symmetry_space_group_name_H-M   'P 1'
_cell_length_a   5.95395860
_cell_length_b   5.95395928
_cell_length_c   9.11553500
_cell_angle_alpha   90.00000000
_cell_angle_beta   90.00000000
_cell_angle_gamma   102.84123452
_symmetry_Int_Tables_number   1
_chemical_formula_structural   Th5TaRh10
_chemical_formula_sum   'Th5 Ta1 Rh10'
_cell_volume   315.06041621
_cell_formula_units_Z   1
loop_
 _symmetry_equiv_pos_site_id
 _symmetry_equiv_pos_as_xyz
  1  'x, y, z'
loop_
 _atom_site_type_symbol
 _atom_site_label
 _atom_site_symmetry_multiplicity
 _atom_site_fract_x
 _atom_site_fract_y
 _atom_site_fract_z
 _atom_site_occupancy
  Th  Th0  1  0.375009  0.375009  0.250000  1
  Th  Th1  1  0.798378  0.212044  0.504145  1
  Th  Th2  1  0.212044  0.798378  0.995855  1
  Th  Th3  1  0.212044  0.798378  0.504145  1
  Th  Th4  1  0.798378  0.212044  0.995855  1
  Ta  Ta5  1  0.616322  0.616322  0.750000  1
  Rh  Rh6  1  0.694980  0.694980  0.031822  1
  Rh  Rh7  1  0.694980  0.694980  0.468178  1
  Rh  Rh8  1  0.330217  0.330217  0.918459  1
  Rh  Rh9  1  0.330217  0.330217  0.581541  1
  Rh  Rh10  1  0.502387  0.007888  0.750000  1
  Rh  Rh11  1  0.500850  0.949684  0.250000  1
  Rh  Rh12  1  0.980748  0.980748  0.250000  1
  Rh  Rh13  1  0.995875  0.995875  0.750000  1
  Rh  Rh14  1  0.007888  0.502387  0.750000  1
  Rh  Rh15  1  0.949684  0.500850  0.250000  1
