# generated using pymatgen
data_DyZr3(Rh5Pb)2
_symmetry_space_group_name_H-M   'P 1'
_cell_length_a   5.74299361
_cell_length_b   5.74299245
_cell_length_c   8.33373701
_cell_angle_alpha   89.99678696
_cell_angle_beta   89.99678808
_cell_angle_gamma   96.40675269
_symmetry_Int_Tables_number   1
_chemical_formula_structural   DyZr3(Rh5Pb)2
_chemical_formula_sum   'Dy1 Zr3 Rh10 Pb2'
_cell_volume   273.14647228
_cell_formula_units_Z   1
loop_
 _symmetry_equiv_pos_site_id
 _symmetry_equiv_pos_as_xyz
  1  'x, y, z'
loop_
 _atom_site_type_symbol
 _atom_site_label
 _atom_site_symmetry_multiplicity
 _atom_site_fract_x
 _atom_site_fract_y
 _atom_site_fract_z
 _atom_site_occupancy
  Dy  Dy0  1  0.777857  0.222143  0.500000  1
  Zr  Zr1  1  0.216528  0.783472  0.000000  1
  Zr  Zr2  1  0.216385  0.783615  0.500000  1
  Zr  Zr3  1  0.782969  0.217031  0.000000  1
  Rh  Rh4  1  0.737801  0.737986  0.000716  1
  Rh  Rh5  1  0.738580  0.735900  0.499219  1
  Rh  Rh6  1  0.262014  0.262199  0.999284  1
  Rh  Rh7  1  0.264100  0.261420  0.500781  1
  Rh  Rh8  1  0.496505  0.997364  0.754555  1
  Rh  Rh9  1  0.496702  0.995973  0.245543  1
  Rh  Rh10  1  0.003120  0.997601  0.245811  1
  Rh  Rh11  1  0.002399  0.996880  0.754189  1
  Rh  Rh12  1  0.004027  0.503298  0.754457  1
  Rh  Rh13  1  0.002636  0.503495  0.245445  1
  Pb  Pb14  1  0.500666  0.502289  0.751249  1
  Pb  Pb15  1  0.497711  0.499334  0.248751  1
