# generated using pymatgen
data_LaPr4ScMoO12
_symmetry_space_group_name_H-M   'P 1'
_cell_length_a   7.16945133
_cell_length_b   7.16945119
_cell_length_c   7.72328000
_cell_angle_alpha   74.43883211
_cell_angle_beta   74.43882413
_cell_angle_gamma   50.52453217
_symmetry_Int_Tables_number   1
_chemical_formula_structural   LaPr4ScMoO12
_chemical_formula_sum   'La1 Pr4 Sc1 Mo1 O12'
_cell_volume   292.63883923
_cell_formula_units_Z   1
loop_
 _symmetry_equiv_pos_site_id
 _symmetry_equiv_pos_as_xyz
  1  'x, y, z'
loop_
 _atom_site_type_symbol
 _atom_site_label
 _atom_site_symmetry_multiplicity
 _atom_site_fract_x
 _atom_site_fract_y
 _atom_site_fract_z
 _atom_site_occupancy
  La  La0  1  0.007702  0.992298  0.500000  1
  Pr  Pr1  1  0.310064  0.297444  0.358499  1
  Pr  Pr2  1  0.702556  0.689936  0.641501  1
  Pr  Pr3  1  0.691986  0.697592  0.164863  1
  Pr  Pr4  1  0.302408  0.308014  0.835137  1
  Sc  Sc5  1  0.749413  0.250587  0.000000  1
  Mo  Mo6  1  0.238679  0.761321  0.000000  1
  O  O7  1  0.097426  0.596997  0.572996  1
  O  O8  1  0.020821  0.978368  0.175629  1
  O  O9  1  0.403003  0.902574  0.427004  1
  O  O10  1  0.484550  0.517794  0.175930  1
  O  O11  1  0.103550  0.585083  0.079578  1
  O  O12  1  0.908721  0.403053  0.420758  1
  O  O13  1  0.021632  0.979179  0.824371  1
  O  O14  1  0.596947  0.091278  0.579242  1
  O  O15  1  0.482206  0.515450  0.824070  1
  O  O16  1  0.565126  0.101706  0.081646  1
  O  O17  1  0.414917  0.896450  0.920422  1
  O  O18  1  0.898294  0.434874  0.918354  1
