# generated using pymatgen
data_Be3VCoIr
_symmetry_space_group_name_H-M   'P 1'
_cell_length_a   4.42072900
_cell_length_b   4.42072822
_cell_length_c   7.08582400
_cell_angle_alpha   90.00000000
_cell_angle_beta   90.00000000
_cell_angle_gamma   119.99999839
_symmetry_Int_Tables_number   1
_chemical_formula_structural   Be3VCoIr
_chemical_formula_sum   'Be6 V2 Co2 Ir2'
_cell_volume   119.92471851
_cell_formula_units_Z   2
loop_
 _symmetry_equiv_pos_site_id
 _symmetry_equiv_pos_as_xyz
  1  'x, y, z'
loop_
 _atom_site_type_symbol
 _atom_site_label
 _atom_site_symmetry_multiplicity
 _atom_site_fract_x
 _atom_site_fract_y
 _atom_site_fract_z
 _atom_site_occupancy
  Be  Be0  1  0.832243  0.664485  0.247177  1
  Be  Be1  1  0.167757  0.832243  0.747177  1
  Be  Be2  1  0.664485  0.832243  0.747177  1
  Be  Be3  1  0.335515  0.167757  0.247177  1
  Be  Be4  1  0.832243  0.167757  0.247177  1
  Be  Be5  1  0.167757  0.335515  0.747177  1
  V  V6  1  0.666667  0.333333  0.937203  1
  V  V7  1  0.333333  0.666667  0.437203  1
  Co  Co8  1  0.000000  0.000000  0.991768  1
  Co  Co9  1  0.000000  0.000000  0.491768  1
  Ir  Ir10  1  0.333333  0.666667  0.079496  1
  Ir  Ir11  1  0.666667  0.333333  0.579496  1
