# generated using pymatgen
data_NaGaSb4
_symmetry_space_group_name_H-M   'P 1'
_cell_length_a   4.25325900
_cell_length_b   10.26095400
_cell_length_c   17.35566600
_cell_angle_alpha   90.00000000
_cell_angle_beta   90.00000000
_cell_angle_gamma   90.00000000
_symmetry_Int_Tables_number   1
_chemical_formula_structural   NaGaSb4
_chemical_formula_sum   'Na4 Ga4 Sb16'
_cell_volume   757.44456574
_cell_formula_units_Z   4
loop_
 _symmetry_equiv_pos_site_id
 _symmetry_equiv_pos_as_xyz
  1  'x, y, z'
loop_
 _atom_site_type_symbol
 _atom_site_label
 _atom_site_symmetry_multiplicity
 _atom_site_fract_x
 _atom_site_fract_y
 _atom_site_fract_z
 _atom_site_occupancy
  Na  Na0  1  0.250000  0.335295  0.936209  1
  Na  Na1  1  0.750000  0.664705  0.063791  1
  Na  Na2  1  0.250000  0.835295  0.563791  1
  Na  Na3  1  0.750000  0.164705  0.436209  1
  Ga  Ga4  1  0.250000  0.189306  0.128884  1
  Ga  Ga5  1  0.750000  0.810694  0.871116  1
  Ga  Ga6  1  0.250000  0.689306  0.371116  1
  Ga  Ga7  1  0.750000  0.310694  0.628884  1
  Sb  Sb8  1  0.750000  0.837595  0.409515  1
  Sb  Sb9  1  0.250000  0.162405  0.590485  1
  Sb  Sb10  1  0.750000  0.337595  0.090485  1
  Sb  Sb11  1  0.250000  0.662405  0.909515  1
  Sb  Sb12  1  0.750000  0.367695  0.781494  1
  Sb  Sb13  1  0.250000  0.632305  0.218506  1
  Sb  Sb14  1  0.750000  0.867695  0.718506  1
  Sb  Sb15  1  0.250000  0.132305  0.281494  1
  Sb  Sb16  1  0.750000  0.540857  0.551340  1
  Sb  Sb17  1  0.250000  0.459143  0.448660  1
  Sb  Sb18  1  0.750000  0.040857  0.948660  1
  Sb  Sb19  1  0.250000  0.959143  0.051340  1
  Sb  Sb20  1  0.750000  0.943337  0.256294  1
  Sb  Sb21  1  0.250000  0.056663  0.743706  1
  Sb  Sb22  1  0.750000  0.443337  0.243706  1
  Sb  Sb23  1  0.250000  0.556663  0.756294  1
