# generated using pymatgen
data_Zr4Mn2IrRh9
_symmetry_space_group_name_H-M   'P 1'
_cell_length_a   5.57935905
_cell_length_b   5.57935857
_cell_length_c   8.18898500
_cell_angle_alpha   89.99829962
_cell_angle_beta   89.99830092
_cell_angle_gamma   95.74119344
_symmetry_Int_Tables_number   1
_chemical_formula_structural   Zr4Mn2IrRh9
_chemical_formula_sum   'Zr4 Mn2 Ir1 Rh9'
_cell_volume   253.63823080
_cell_formula_units_Z   1
loop_
 _symmetry_equiv_pos_site_id
 _symmetry_equiv_pos_as_xyz
  1  'x, y, z'
loop_
 _atom_site_type_symbol
 _atom_site_label
 _atom_site_symmetry_multiplicity
 _atom_site_fract_x
 _atom_site_fract_y
 _atom_site_fract_z
 _atom_site_occupancy
  Zr  Zr0  1  0.776213  0.223783  0.500008  1
  Zr  Zr1  1  0.224205  0.776336  0.999984  1
  Zr  Zr2  1  0.223783  0.776213  0.500008  1
  Zr  Zr3  1  0.776336  0.224205  0.999984  1
  Mn  Mn4  1  0.503696  0.503696  0.750403  1
  Mn  Mn5  1  0.496737  0.496737  0.249559  1
  Ir  Ir6  1  0.722579  0.722579  0.001624  1
  Rh  Rh7  1  0.722851  0.722851  0.498396  1
  Rh  Rh8  1  0.276664  0.276664  0.998361  1
  Rh  Rh9  1  0.276805  0.276805  0.501619  1
  Rh  Rh10  1  0.499868  0.000471  0.750153  1
  Rh  Rh11  1  0.500084  0.999325  0.249878  1
  Rh  Rh12  1  0.001081  0.001081  0.249859  1
  Rh  Rh13  1  0.999302  0.999302  0.750135  1
  Rh  Rh14  1  0.000471  0.499868  0.750153  1
  Rh  Rh15  1  0.999325  0.500084  0.249878  1
