# generated using pymatgen
data_Hf4MnCu2Si4Os
_symmetry_space_group_name_H-M   'P 1'
_cell_length_a   3.85143000
_cell_length_b   6.46422885
_cell_length_c   7.47183784
_cell_angle_alpha   89.99156107
_cell_angle_beta   90.00000000
_cell_angle_gamma   90.00000000
_symmetry_Int_Tables_number   1
_chemical_formula_structural   Hf4MnCu2Si4Os
_chemical_formula_sum   'Hf4 Mn1 Cu2 Si4 Os1'
_cell_volume   186.02279490
_cell_formula_units_Z   1
loop_
 _symmetry_equiv_pos_site_id
 _symmetry_equiv_pos_as_xyz
  1  'x, y, z'
loop_
 _atom_site_type_symbol
 _atom_site_label
 _atom_site_symmetry_multiplicity
 _atom_site_fract_x
 _atom_site_fract_y
 _atom_site_fract_z
 _atom_site_occupancy
  Hf  Hf0  1  0.250000  0.524517  0.676201  1
  Hf  Hf1  1  0.750000  0.472205  0.322736  1
  Hf  Hf2  1  0.250000  0.016144  0.817768  1
  Hf  Hf3  1  0.750000  0.984915  0.182488  1
  Mn  Mn4  1  0.250000  0.148109  0.436854  1
  Cu  Cu5  1  0.750000  0.353398  0.937341  1
  Cu  Cu6  1  0.250000  0.648082  0.062158  1
  Si  Si7  1  0.250000  0.269121  0.121854  1
  Si  Si8  1  0.750000  0.729763  0.881025  1
  Si  Si9  1  0.250000  0.772311  0.378402  1
  Si  Si10  1  0.750000  0.227534  0.620758  1
  Os  Os11  1  0.750000  0.853901  0.562416  1
