# generated using pymatgen
data_Ta4BeB3Mo2
_symmetry_space_group_name_H-M   'P 1'
_cell_length_a   6.19948039
_cell_length_b   6.19948201
_cell_length_c   3.27930200
_cell_angle_alpha   90.00000000
_cell_angle_beta   90.00000000
_cell_angle_gamma   90.20834316
_symmetry_Int_Tables_number   1
_chemical_formula_structural   Ta4BeB3Mo2
_chemical_formula_sum   'Ta4 Be1 B3 Mo2'
_cell_volume   126.03444035
_cell_formula_units_Z   1
loop_
 _symmetry_equiv_pos_site_id
 _symmetry_equiv_pos_as_xyz
  1  'x, y, z'
loop_
 _atom_site_type_symbol
 _atom_site_label
 _atom_site_symmetry_multiplicity
 _atom_site_fract_x
 _atom_site_fract_y
 _atom_site_fract_z
 _atom_site_occupancy
  Ta  Ta0  1  0.678835  0.178835  0.500000  1
  Ta  Ta1  1  0.327443  0.827443  0.500000  1
  Ta  Ta2  1  0.179314  0.315294  0.500000  1
  Ta  Ta3  1  0.815294  0.679314  0.500000  1
  Be  Be4  1  0.111843  0.611843  0.000000  1
  B  B5  1  0.885935  0.385935  0.000000  1
  B  B6  1  0.609551  0.891404  0.000000  1
  B  B7  1  0.391404  0.109551  0.000000  1
  Mo  Mo8  1  0.998129  0.002252  0.000000  1
  Mo  Mo9  1  0.502252  0.498129  0.000000  1
