# generated using pymatgen
data_V2NiTeO7
_symmetry_space_group_name_H-M   'P 1'
_cell_length_a   6.66269597
_cell_length_b   6.90879706
_cell_length_c   7.76112586
_cell_angle_alpha   95.07831068
_cell_angle_beta   112.03853865
_cell_angle_gamma   114.08243613
_symmetry_Int_Tables_number   1
_chemical_formula_structural   V2NiTeO7
_chemical_formula_sum   'V4 Ni2 Te2 O14'
_cell_volume   289.74062319
_cell_formula_units_Z   2
loop_
 _symmetry_equiv_pos_site_id
 _symmetry_equiv_pos_as_xyz
  1  'x, y, z'
loop_
 _atom_site_type_symbol
 _atom_site_label
 _atom_site_symmetry_multiplicity
 _atom_site_fract_x
 _atom_site_fract_y
 _atom_site_fract_z
 _atom_site_occupancy
  V  V0  1  0.026422  0.886480  0.673897  1
  V  V1  1  0.516835  0.562399  0.322782  1
  V  V2  1  0.483165  0.437601  0.677218  1
  V  V3  1  0.973578  0.113520  0.326103  1
  Ni  Ni4  1  0.450726  0.060496  0.180307  1
  Ni  Ni5  1  0.549274  0.939504  0.819693  1
  Te  Te6  1  0.071909  0.696239  0.287310  1
  Te  Te7  1  0.928091  0.303761  0.712690  1
  O  O8  1  0.159673  0.990865  0.251343  1
  O  O9  1  0.464798  0.357829  0.149888  1
  O  O10  1  0.166342  0.183778  0.632600  1
  O  O11  1  0.361196  0.746275  0.243961  1
  O  O12  1  0.224996  0.783746  0.562985  1
  O  O13  1  0.638804  0.253725  0.756039  1
  O  O14  1  0.833658  0.816222  0.367400  1
  O  O15  1  0.747484  0.092176  0.110385  1
  O  O16  1  0.840327  0.009135  0.748657  1
  O  O17  1  0.263473  0.412332  0.411079  1
  O  O18  1  0.535202  0.642171  0.850112  1
  O  O19  1  0.775004  0.216254  0.437015  1
  O  O20  1  0.252516  0.907824  0.889615  1
  O  O21  1  0.736527  0.587668  0.588921  1
