# generated using pymatgen
data_Tb6Dy2Ti9Si16W3
_symmetry_space_group_name_H-M   'P 1'
_cell_length_a   7.01546432
_cell_length_b   7.01549484
_cell_length_c   12.91328820
_cell_angle_alpha   90.02324645
_cell_angle_beta   89.99285530
_cell_angle_gamma   89.94247075
_symmetry_Int_Tables_number   1
_chemical_formula_structural   Tb6Dy2Ti9Si16W3
_chemical_formula_sum   'Tb6 Dy2 Ti9 Si16 W3'
_cell_volume   635.55233051
_cell_formula_units_Z   1
loop_
 _symmetry_equiv_pos_site_id
 _symmetry_equiv_pos_as_xyz
  1  'x, y, z'
loop_
 _atom_site_type_symbol
 _atom_site_label
 _atom_site_symmetry_multiplicity
 _atom_site_fract_x
 _atom_site_fract_y
 _atom_site_fract_z
 _atom_site_occupancy
  Tb  Tb0  1  0.500724  0.159481  0.216812  1
  Tb  Tb1  1  0.840943  0.498234  0.281867  1
  Tb  Tb2  1  0.159532  0.500798  0.783160  1
  Tb  Tb3  1  0.660100  0.999120  0.967052  1
  Tb  Tb4  1  0.002268  0.339654  0.533271  1
  Tb  Tb5  1  0.999183  0.660129  0.032898  1
  Dy  Dy6  1  0.339818  0.001939  0.466761  1
  Dy  Dy7  1  0.498461  0.841196  0.718051  1
  Ti  Ti8  1  0.672824  0.672987  0.500074  1
  Ti  Ti9  1  0.153563  0.009346  0.876451  1
  Ti  Ti10  1  0.490263  0.653764  0.125732  1
  Ti  Ti11  1  0.508400  0.345311  0.627729  1
  Ti  Ti12  1  0.653673  0.490326  0.874191  1
  Ti  Ti13  1  0.345281  0.508512  0.372309  1
  Ti  Ti14  1  0.847704  0.991451  0.375268  1
  Ti  Ti15  1  0.009484  0.153511  0.123493  1
  Ti  Ti16  1  0.991443  0.847686  0.624778  1
  Si  Si17  1  0.200730  0.128784  0.685067  1
  Si  Si18  1  0.370558  0.699871  0.935036  1
  Si  Si19  1  0.629162  0.298002  0.435195  1
  Si  Si20  1  0.699775  0.370554  0.064890  1
  Si  Si21  1  0.298412  0.629857  0.564988  1
  Si  Si22  1  0.800059  0.870996  0.185413  1
  Si  Si23  1  0.129225  0.200276  0.314955  1
  Si  Si24  1  0.870729  0.800134  0.814468  1
  Si  Si25  1  0.291415  0.953794  0.065135  1
  Si  Si26  1  0.545390  0.790989  0.315093  1
  Si  Si27  1  0.453254  0.208493  0.815515  1
  Si  Si28  1  0.790644  0.545789  0.684983  1
  Si  Si29  1  0.208853  0.453234  0.184370  1
  Si  Si30  1  0.708045  0.047706  0.566254  1
  Si  Si31  1  0.953829  0.291381  0.934858  1
  Si  Si32  1  0.048148  0.708644  0.433864  1
  W  W33  1  0.326968  0.326962  0.999987  1
  W  W34  1  0.174010  0.827270  0.249326  1
  W  W35  1  0.827127  0.173820  0.750703  1
