# generated using pymatgen
data_LaSi6(As3Pt2)2
_symmetry_space_group_name_H-M   'P 1'
_cell_length_a   7.41646088
_cell_length_b   7.43469557
_cell_length_c   7.41646200
_cell_angle_alpha   109.44122593
_cell_angle_beta   109.48434300
_cell_angle_gamma   109.38878687
_symmetry_Int_Tables_number   1
_chemical_formula_structural   LaSi6(As3Pt2)2
_chemical_formula_sum   'La1 Si6 As6 Pt4'
_cell_volume   315.18509924
_cell_formula_units_Z   1
loop_
 _symmetry_equiv_pos_site_id
 _symmetry_equiv_pos_as_xyz
  1  'x, y, z'
loop_
 _atom_site_type_symbol
 _atom_site_label
 _atom_site_symmetry_multiplicity
 _atom_site_fract_x
 _atom_site_fract_y
 _atom_site_fract_z
 _atom_site_occupancy
  La  La0  1  0.006234  0.995473  0.989237  1
  Si  Si1  1  0.141268  0.346000  0.494606  1
  Si  Si2  1  0.514044  0.158773  0.363005  1
  Si  Si3  1  0.851395  0.346000  0.204732  1
  Si  Si4  1  0.636159  0.484202  0.848043  1
  Si  Si5  1  0.358956  0.212951  0.853994  1
  Si  Si6  1  0.795768  0.158773  0.644730  1
  As  As7  1  0.848682  0.636875  0.491039  1
  As  As8  1  0.347126  0.489855  0.142729  1
  As  As9  1  0.212611  0.865125  0.353624  1
  As  As10  1  0.145835  0.636875  0.788192  1
  As  As11  1  0.649340  0.791542  0.142204  1
  As  As12  1  0.511500  0.865125  0.652513  1
  Pt  Pt13  1  0.005667  0.014015  0.517018  1
  Pt  Pt14  1  0.493672  0.492201  0.507454  1
  Pt  Pt15  1  0.984747  0.492201  0.998530  1
  Pt  Pt16  1  0.496997  0.014015  0.008347  1
