# generated using pymatgen
data_Ho12Co4HgRh
_symmetry_space_group_name_H-M   'P 1'
_cell_length_a   8.24038760
_cell_length_b   8.24110251
_cell_length_c   8.24038796
_cell_angle_alpha   110.95452138
_cell_angle_beta   110.44682218
_cell_angle_gamma   107.03637029
_symmetry_Int_Tables_number   1
_chemical_formula_structural   Ho12Co4HgRh
_chemical_formula_sum   'Ho12 Co4 Hg1 Rh1'
_cell_volume   430.21280350
_cell_formula_units_Z   1
loop_
 _symmetry_equiv_pos_site_id
 _symmetry_equiv_pos_as_xyz
  1  'x, y, z'
loop_
 _atom_site_type_symbol
 _atom_site_label
 _atom_site_symmetry_multiplicity
 _atom_site_fract_x
 _atom_site_fract_y
 _atom_site_fract_z
 _atom_site_occupancy
  Ho  Ho0  1  0.314603  0.619213  0.304609  1
  Ho  Ho1  1  0.685397  0.380787  0.695391  1
  Ho  Ho2  1  0.314578  0.009974  0.695397  1
  Ho  Ho3  1  0.685422  0.990026  0.304603  1
  Ho  Ho4  1  0.185400  0.289455  0.474847  1
  Ho  Ho5  1  0.814600  0.710545  0.525153  1
  Ho  Ho6  1  0.185392  0.710545  0.895945  1
  Ho  Ho7  1  0.814608  0.289455  0.104055  1
  Ho  Ho8  1  0.410149  0.215347  0.194809  1
  Ho  Ho9  1  0.589851  0.784653  0.805191  1
  Ho  Ho10  1  0.020538  0.215347  0.805199  1
  Ho  Ho11  1  0.979462  0.784653  0.194801  1
  Co  Co12  1  0.112750  0.612757  0.500007  1
  Co  Co13  1  0.887250  0.387243  0.499993  1
  Co  Co14  1  0.377952  0.000000  0.377952  1
  Co  Co15  1  0.622048  0.000000  0.622048  1
  Hg  Hg16  1  0.500000  0.500000  0.000000  1
  Rh  Rh17  1  0.000000  0.000000  0.000000  1
