# generated using pymatgen
data_Li3Pr4TiPt4
_symmetry_space_group_name_H-M   'P 1'
_cell_length_a   4.22900300
_cell_length_b   7.19917613
_cell_length_c   8.64952541
_cell_angle_alpha   87.69755344
_cell_angle_beta   90.00000000
_cell_angle_gamma   90.00000000
_symmetry_Int_Tables_number   1
_chemical_formula_structural   Li3Pr4TiPt4
_chemical_formula_sum   'Li3 Pr4 Ti1 Pt4'
_cell_volume   263.12512206
_cell_formula_units_Z   1
loop_
 _symmetry_equiv_pos_site_id
 _symmetry_equiv_pos_as_xyz
  1  'x, y, z'
loop_
 _atom_site_type_symbol
 _atom_site_label
 _atom_site_symmetry_multiplicity
 _atom_site_fract_x
 _atom_site_fract_y
 _atom_site_fract_z
 _atom_site_occupancy
  Li  Li0  1  0.250000  0.135219  0.065585  1
  Li  Li1  1  0.750000  0.373244  0.555943  1
  Li  Li2  1  0.250000  0.633719  0.439616  1
  Pr  Pr3  1  0.250000  0.524392  0.805795  1
  Pr  Pr4  1  0.250000  0.039567  0.680155  1
  Pr  Pr5  1  0.750000  0.964388  0.320851  1
  Pr  Pr6  1  0.750000  0.466085  0.188282  1
  Ti  Ti7  1  0.750000  0.872164  0.946023  1
  Pt  Pt8  1  0.250000  0.758692  0.087447  1
  Pt  Pt9  1  0.250000  0.256563  0.382446  1
  Pt  Pt10  1  0.750000  0.749684  0.636173  1
  Pt  Pt11  1  0.750000  0.226283  0.891687  1
