# generated using pymatgen
data_Yb6Pr14Si15Pd
_symmetry_space_group_name_H-M   'P 1'
_cell_length_a   7.94667045
_cell_length_b   7.90283496
_cell_length_c   15.13199637
_cell_angle_alpha   89.74081973
_cell_angle_beta   89.73900558
_cell_angle_gamma   90.22693339
_symmetry_Int_Tables_number   1
_chemical_formula_structural   Yb6Pr14Si15Pd
_chemical_formula_sum   'Yb6 Pr14 Si15 Pd1'
_cell_volume   950.28079627
_cell_formula_units_Z   1
loop_
 _symmetry_equiv_pos_site_id
 _symmetry_equiv_pos_as_xyz
  1  'x, y, z'
loop_
 _atom_site_type_symbol
 _atom_site_label
 _atom_site_symmetry_multiplicity
 _atom_site_fract_x
 _atom_site_fract_y
 _atom_site_fract_z
 _atom_site_occupancy
  Yb  Yb0  1  0.309283  0.309429  0.999978  1
  Yb  Yb1  1  0.192153  0.811470  0.252384  1
  Yb  Yb2  1  0.810905  0.189300  0.747941  1
  Yb  Yb3  1  0.682444  0.694686  0.501228  1
  Yb  Yb4  1  0.376256  0.013166  0.451601  1
  Yb  Yb5  1  0.491088  0.878936  0.699143  1
  Pr  Pr6  1  0.508697  0.123203  0.199203  1
  Pr  Pr7  1  0.875941  0.489877  0.299948  1
  Pr  Pr8  1  0.123421  0.510542  0.802098  1
  Pr  Pr9  1  0.624465  0.993440  0.948865  1
  Pr  Pr10  1  0.998084  0.376156  0.549352  1
  Pr  Pr11  1  0.991384  0.624515  0.051368  1
  Pr  Pr12  1  0.132015  0.992180  0.874541  1
  Pr  Pr13  1  0.512110  0.627880  0.125020  1
  Pr  Pr14  1  0.482130  0.365360  0.627597  1
  Pr  Pr15  1  0.627958  0.513536  0.874156  1
  Pr  Pr16  1  0.371521  0.484004  0.375640  1
  Pr  Pr17  1  0.874513  0.012412  0.375872  1
  Pr  Pr18  1  0.989788  0.124307  0.123819  1
  Pr  Pr19  1  0.020724  0.876581  0.621726  1
  Si  Si20  1  0.332773  0.698749  0.948647  1
  Si  Si21  1  0.663423  0.299958  0.448182  1
  Si  Si22  1  0.703551  0.335110  0.053175  1
  Si  Si23  1  0.293030  0.657179  0.551582  1
  Si  Si24  1  0.799149  0.833335  0.199076  1
  Si  Si25  1  0.164114  0.201689  0.299703  1
  Si  Si26  1  0.839463  0.799056  0.800281  1
  Si  Si27  1  0.286944  0.918809  0.058037  1
  Si  Si28  1  0.582259  0.784243  0.307842  1
  Si  Si29  1  0.427981  0.214106  0.814961  1
  Si  Si30  1  0.790657  0.580934  0.689786  1
  Si  Si31  1  0.211005  0.422125  0.190503  1
  Si  Si32  1  0.715202  0.081294  0.557132  1
  Si  Si33  1  0.920369  0.288389  0.941298  1
  Si  Si34  1  0.073562  0.707207  0.441585  1
  Pd  Pd35  1  0.201636  0.166841  0.696729  1
