# generated using pymatgen
data_Sm5Dy(CI5)2
_symmetry_space_group_name_H-M   'P 1'
_cell_length_a   7.79558392
_cell_length_b   9.60831069
_cell_length_c   9.69906078
_cell_angle_alpha   107.07717213
_cell_angle_beta   96.54832799
_cell_angle_gamma   104.32440317
_symmetry_Int_Tables_number   1
_chemical_formula_structural   Sm5Dy(CI5)2
_chemical_formula_sum   'Sm5 Dy1 C2 I10'
_cell_volume   659.05043936
_cell_formula_units_Z   1
loop_
 _symmetry_equiv_pos_site_id
 _symmetry_equiv_pos_as_xyz
  1  'x, y, z'
loop_
 _atom_site_type_symbol
 _atom_site_label
 _atom_site_symmetry_multiplicity
 _atom_site_fract_x
 _atom_site_fract_y
 _atom_site_fract_z
 _atom_site_occupancy
  Sm  Sm0  1  0.104796  0.038884  0.778133  1
  Sm  Sm1  1  0.374352  0.132877  0.178973  1
  Sm  Sm2  1  0.893858  0.960568  0.221330  1
  Sm  Sm3  1  0.029728  0.737713  0.923763  1
  Sm  Sm4  1  0.969269  0.262215  0.075668  1
  Dy  Dy5  1  0.629219  0.868726  0.823313  1
  C  C6  1  0.908770  0.969571  0.958337  1
  C  C7  1  0.087854  0.029553  0.040601  1
  I  I8  1  0.199024  0.736148  0.648270  1
  I  I9  1  0.088373  0.368321  0.820369  1
  I  I10  1  0.458473  0.808465  0.088102  1
  I  I11  1  0.253820  0.083924  0.460225  1
  I  I12  1  0.543952  0.186101  0.904540  1
  I  I13  1  0.808556  0.265939  0.355114  1
  I  I14  1  0.344559  0.455898  0.273493  1
  I  I15  1  0.912104  0.631894  0.179453  1
  I  I16  1  0.652188  0.548921  0.726743  1
  I  I17  1  0.741105  0.914281  0.543572  1
