# generated using pymatgen
data_Tm3MgAlZnSi2Pt
_symmetry_space_group_name_H-M   'P 1'
_cell_length_a   6.96079600
_cell_length_b   6.89176542
_cell_length_c   4.22966200
_cell_angle_alpha   90.00000000
_cell_angle_beta   90.00000000
_cell_angle_gamma   120.33189624
_symmetry_Int_Tables_number   1
_chemical_formula_structural   Tm3MgAlZnSi2Pt
_chemical_formula_sum   'Tm3 Mg1 Al1 Zn1 Si2 Pt1'
_cell_volume   175.13118786
_cell_formula_units_Z   1
loop_
 _symmetry_equiv_pos_site_id
 _symmetry_equiv_pos_as_xyz
  1  'x, y, z'
loop_
 _atom_site_type_symbol
 _atom_site_label
 _atom_site_symmetry_multiplicity
 _atom_site_fract_x
 _atom_site_fract_y
 _atom_site_fract_z
 _atom_site_occupancy
  Tm  Tm0  1  0.415725  0.002804  0.000000  1
  Tm  Tm1  1  0.000064  0.416316  0.000000  1
  Tm  Tm2  1  0.576542  0.578930  0.000000  1
  Mg  Mg3  1  0.765151  0.002282  0.500000  1
  Al  Al4  1  0.002955  0.765458  0.500000  1
  Zn  Zn5  1  0.246950  0.246675  0.500000  1
  Si  Si6  1  0.666969  0.341192  0.500000  1
  Si  Si7  1  0.323335  0.661468  0.500000  1
  Pt  Pt8  1  0.002307  0.984875  0.000000  1
