# generated using pymatgen
data_Hf5CrSn2
_symmetry_space_group_name_H-M   'P 1'
_cell_length_a   5.51404380
_cell_length_b   8.32535152
_cell_length_c   8.32535230
_cell_angle_alpha   83.69981557
_cell_angle_beta   70.67066777
_cell_angle_gamma   70.67065705
_symmetry_Int_Tables_number   1
_chemical_formula_structural   Hf5CrSn2
_chemical_formula_sum   'Hf10 Cr2 Sn4'
_cell_volume   340.31441669
_cell_formula_units_Z   2
loop_
 _symmetry_equiv_pos_site_id
 _symmetry_equiv_pos_as_xyz
  1  'x, y, z'
loop_
 _atom_site_type_symbol
 _atom_site_label
 _atom_site_symmetry_multiplicity
 _atom_site_fract_x
 _atom_site_fract_y
 _atom_site_fract_z
 _atom_site_occupancy
  Hf  Hf0  1  0.071789  0.126736  0.729540  1
  Hf  Hf1  1  0.928211  0.873264  0.270460  1
  Hf  Hf2  1  0.801145  0.270592  0.126847  1
  Hf  Hf3  1  0.428211  0.270460  0.873264  1
  Hf  Hf4  1  0.198855  0.729408  0.873153  1
  Hf  Hf5  1  0.571789  0.729540  0.126736  1
  Hf  Hf6  1  0.698855  0.873153  0.729408  1
  Hf  Hf7  1  0.301145  0.126847  0.270592  1
  Hf  Hf8  1  0.250000  0.500153  0.499847  1
  Hf  Hf9  1  0.750000  0.499847  0.500153  1
  Cr  Cr10  1  0.250000  0.999830  0.000170  1
  Cr  Cr11  1  0.750000  0.000170  0.999830  1
  Sn  Sn12  1  0.163997  0.499964  0.171761  1
  Sn  Sn13  1  0.836003  0.500036  0.828239  1
  Sn  Sn14  1  0.336003  0.828239  0.500036  1
  Sn  Sn15  1  0.663997  0.171761  0.499964  1
