# generated using pymatgen
data_Dy2Mn4Ni8AsP6
_symmetry_space_group_name_H-M   'P 1'
_cell_length_a   9.19675713
_cell_length_b   9.16133160
_cell_length_c   3.67322700
_cell_angle_alpha   90.00000000
_cell_angle_beta   90.00000000
_cell_angle_gamma   120.05009348
_symmetry_Int_Tables_number   1
_chemical_formula_structural   Dy2Mn4Ni8AsP6
_chemical_formula_sum   'Dy2 Mn4 Ni8 As1 P6'
_cell_volume   267.88739403
_cell_formula_units_Z   1
loop_
 _symmetry_equiv_pos_site_id
 _symmetry_equiv_pos_as_xyz
  1  'x, y, z'
loop_
 _atom_site_type_symbol
 _atom_site_label
 _atom_site_symmetry_multiplicity
 _atom_site_fract_x
 _atom_site_fract_y
 _atom_site_fract_z
 _atom_site_occupancy
  Dy  Dy0  1  0.667057  0.332910  0.000000  1
  Dy  Dy1  1  0.337332  0.664159  0.500000  1
  Mn  Mn2  1  0.843683  0.118509  0.000000  1
  Mn  Mn3  1  0.117443  0.908978  0.500000  1
  Mn  Mn4  1  0.100592  0.221265  0.500000  1
  Mn  Mn5  1  0.775153  0.876114  0.500000  1
  Ni  Ni6  1  0.387618  0.950891  0.000000  1
  Ni  Ni7  1  0.063172  0.427709  0.000000  1
  Ni  Ni8  1  0.564142  0.626773  0.000000  1
  Ni  Ni9  1  0.871058  0.724553  0.000000  1
  Ni  Ni10  1  0.278865  0.154298  0.000000  1
  Ni  Ni11  1  0.936531  0.555938  0.500000  1
  Ni  Ni12  1  0.436924  0.384724  0.500000  1
  Ni  Ni13  1  0.616923  0.051819  0.500000  1
  As  As14  1  0.117150  0.708727  0.000000  1
  P  P15  1  0.294315  0.405250  0.000000  1
  P  P16  1  0.594404  0.887798  0.000000  1
  P  P17  1  0.707095  0.594215  0.500000  1
  P  P18  1  0.404968  0.114642  0.500000  1
  P  P19  1  0.885801  0.286831  0.500000  1
  P  P20  1  0.999774  0.003898  0.000000  1
