# generated using pymatgen
data_TbHo2Mg3Ge2Au
_symmetry_space_group_name_H-M   'P 1'
_cell_length_a   7.26351378
_cell_length_b   7.26351415
_cell_length_c   4.34727000
_cell_angle_alpha   90.00000000
_cell_angle_beta   90.00000000
_cell_angle_gamma   120.08016321
_symmetry_Int_Tables_number   1
_chemical_formula_structural   TbHo2Mg3Ge2Au
_chemical_formula_sum   'Tb1 Ho2 Mg3 Ge2 Au1'
_cell_volume   198.46750811
_cell_formula_units_Z   1
loop_
 _symmetry_equiv_pos_site_id
 _symmetry_equiv_pos_as_xyz
  1  'x, y, z'
loop_
 _atom_site_type_symbol
 _atom_site_label
 _atom_site_symmetry_multiplicity
 _atom_site_fract_x
 _atom_site_fract_y
 _atom_site_fract_z
 _atom_site_occupancy
  Tb  Tb0  1  0.417477  0.417477  0.000000  1
  Ho  Ho1  1  0.583291  0.000515  0.000000  1
  Ho  Ho2  1  0.000515  0.583291  0.000000  1
  Mg  Mg3  1  0.243880  0.000014  0.500000  1
  Mg  Mg4  1  0.000014  0.243880  0.500000  1
  Mg  Mg5  1  0.756070  0.756070  0.500000  1
  Ge  Ge6  1  0.332800  0.667706  0.500000  1
  Ge  Ge7  1  0.667706  0.332800  0.500000  1
  Au  Au8  1  0.998247  0.998247  0.000000  1
