# generated using pymatgen
data_Tb3DyScTiAl6
_symmetry_space_group_name_H-M   'P 1'
_cell_length_a   9.66565006
_cell_length_b   9.66565082
_cell_length_c   9.66565203
_cell_angle_alpha   34.75619775
_cell_angle_beta   34.75619207
_cell_angle_gamma   34.75619518
_symmetry_Int_Tables_number   1
_chemical_formula_structural   Tb3DyScTiAl6
_chemical_formula_sum   'Tb3 Dy1 Sc1 Ti1 Al6'
_cell_volume   261.93078807
_cell_formula_units_Z   1
loop_
 _symmetry_equiv_pos_site_id
 _symmetry_equiv_pos_as_xyz
  1  'x, y, z'
loop_
 _atom_site_type_symbol
 _atom_site_label
 _atom_site_symmetry_multiplicity
 _atom_site_fract_x
 _atom_site_fract_y
 _atom_site_fract_z
 _atom_site_occupancy
  Tb  Tb0  1  0.185893  0.185893  0.185893  1
  Tb  Tb1  1  0.813980  0.813980  0.813980  1
  Tb  Tb2  1  0.311736  0.311736  0.311736  1
  Dy  Dy3  1  0.688180  0.688180  0.688180  1
  Sc  Sc4  1  0.000081  0.000081  0.000081  1
  Ti  Ti5  1  0.500058  0.500058  0.500058  1
  Al  Al6  1  0.745334  0.255050  0.255050  1
  Al  Al7  1  0.254665  0.744985  0.744985  1
  Al  Al8  1  0.255050  0.745334  0.255050  1
  Al  Al9  1  0.744985  0.254665  0.744985  1
  Al  Al10  1  0.255050  0.255050  0.745334  1
  Al  Al11  1  0.744985  0.744985  0.254665  1
