# generated using pymatgen
data_SmY3(AuO3)4
_symmetry_space_group_name_H-M   'P 1'
_cell_length_a   3.86889221
_cell_length_b   5.61610800
_cell_length_c   12.98459510
_cell_angle_alpha   90.00001700
_cell_angle_beta   89.74078200
_cell_angle_gamma   90.00007078
_symmetry_Int_Tables_number   1
_chemical_formula_structural   SmY3(AuO3)4
_chemical_formula_sum   'Sm1 Y3 Au4 O12'
_cell_volume   282.12790759
_cell_formula_units_Z   1
loop_
 _symmetry_equiv_pos_site_id
 _symmetry_equiv_pos_as_xyz
  1  'x, y, z'
loop_
 _atom_site_type_symbol
 _atom_site_label
 _atom_site_symmetry_multiplicity
 _atom_site_fract_x
 _atom_site_fract_y
 _atom_site_fract_z
 _atom_site_occupancy
  Sm  Sm0  1  0.735812  0.750000  0.575220  1
  Y  Y1  1  0.262633  0.750000  0.076153  1
  Y  Y2  1  0.257653  0.250000  0.422369  1
  Y  Y3  1  0.741557  0.250000  0.925703  1
  Au  Au4  1  0.068677  0.749999  0.832763  1
  Au  Au5  1  0.061712  0.250000  0.670539  1
  Au  Au6  1  0.936248  0.250000  0.168824  1
  Au  Au7  1  0.934453  0.750000  0.328633  1
  O  O8  1  0.199287  0.500516  0.248486  1
  O  O9  1  0.804455  0.002225  0.754257  1
  O  O10  1  0.804455  0.497770  0.754259  1
  O  O11  1  0.199285  0.999487  0.248487  1
  O  O12  1  0.743851  0.501866  0.074827  1
  O  O13  1  0.740626  0.496783  0.422265  1
  O  O14  1  0.259849  0.001727  0.927053  1
  O  O15  1  0.252562  0.003760  0.573007  1
  O  O16  1  0.740624  0.003216  0.422265  1
  O  O17  1  0.743849  0.998135  0.074828  1
  O  O18  1  0.252562  0.496243  0.573007  1
  O  O19  1  0.259850  0.498274  0.927054  1
