# generated using pymatgen
data_Ca5Ir2
_symmetry_space_group_name_H-M   'P 1'
_cell_length_a   8.57288749
_cell_length_b   8.57288693
_cell_length_c   7.68267418
_cell_angle_alpha   82.90965073
_cell_angle_beta   82.90965186
_cell_angle_gamma   44.01218026
_symmetry_Int_Tables_number   1
_chemical_formula_structural   Ca5Ir2
_chemical_formula_sum   'Ca10 Ir4'
_cell_volume   388.82136267
_cell_formula_units_Z   2
loop_
 _symmetry_equiv_pos_site_id
 _symmetry_equiv_pos_as_xyz
  1  'x, y, z'
loop_
 _atom_site_type_symbol
 _atom_site_label
 _atom_site_symmetry_multiplicity
 _atom_site_fract_x
 _atom_site_fract_y
 _atom_site_fract_z
 _atom_site_occupancy
  Ca  Ca0  1  0.028063  0.796429  0.917810  1
  Ca  Ca1  1  0.203571  0.971937  0.582190  1
  Ca  Ca2  1  0.971937  0.203571  0.082190  1
  Ca  Ca3  1  0.796429  0.028063  0.417810  1
  Ca  Ca4  1  0.365493  0.199076  0.822748  1
  Ca  Ca5  1  0.800924  0.634507  0.677252  1
  Ca  Ca6  1  0.634507  0.800924  0.177252  1
  Ca  Ca7  1  0.199076  0.365493  0.322748  1
  Ca  Ca8  1  0.576624  0.423376  0.750000  1
  Ca  Ca9  1  0.423376  0.576624  0.250000  1
  Ir  Ir10  1  0.178142  0.599946  0.582856  1
  Ir  Ir11  1  0.400054  0.821858  0.917144  1
  Ir  Ir12  1  0.821858  0.400054  0.417144  1
  Ir  Ir13  1  0.599946  0.178142  0.082856  1
