# generated using pymatgen
data_HoEr3Si6PtRh
_symmetry_space_group_name_H-M   'P 1'
_cell_length_a   8.15159600
_cell_length_b   8.15159668
_cell_length_c   7.86140700
_cell_angle_alpha   90.00000000
_cell_angle_beta   90.00000000
_cell_angle_gamma   119.99999725
_symmetry_Int_Tables_number   1
_chemical_formula_structural   HoEr3Si6PtRh
_chemical_formula_sum   'Ho2 Er6 Si12 Pt2 Rh2'
_cell_volume   452.39339548
_cell_formula_units_Z   2
loop_
 _symmetry_equiv_pos_site_id
 _symmetry_equiv_pos_as_xyz
  1  'x, y, z'
loop_
 _atom_site_type_symbol
 _atom_site_label
 _atom_site_symmetry_multiplicity
 _atom_site_fract_x
 _atom_site_fract_y
 _atom_site_fract_z
 _atom_site_occupancy
  Ho  Ho0  1  0.000000  0.000000  0.250000  1
  Ho  Ho1  1  0.000000  0.000000  0.750000  1
  Er  Er2  1  0.490500  0.509500  0.250000  1
  Er  Er3  1  0.490500  0.980998  0.250000  1
  Er  Er4  1  0.019002  0.509500  0.250000  1
  Er  Er5  1  0.507275  0.492725  0.750000  1
  Er  Er6  1  0.985450  0.492725  0.750000  1
  Er  Er7  1  0.507275  0.014550  0.750000  1
  Si  Si8  1  0.835852  0.164148  0.500036  1
  Si  Si9  1  0.835852  0.671705  0.500036  1
  Si  Si10  1  0.328295  0.164148  0.500036  1
  Si  Si11  1  0.835852  0.164148  0.999964  1
  Si  Si12  1  0.835852  0.671705  0.999964  1
  Si  Si13  1  0.328295  0.164148  0.999964  1
  Si  Si14  1  0.167900  0.832100  0.001121  1
  Si  Si15  1  0.664202  0.832100  0.001121  1
  Si  Si16  1  0.167900  0.335798  0.001121  1
  Si  Si17  1  0.167900  0.832100  0.498879  1
  Si  Si18  1  0.664202  0.832100  0.498879  1
  Si  Si19  1  0.167900  0.335798  0.498879  1
  Pt  Pt20  1  0.666667  0.333333  0.474488  1
  Pt  Pt21  1  0.666667  0.333333  0.025512  1
  Rh  Rh22  1  0.333333  0.666667  0.962630  1
  Rh  Rh23  1  0.333333  0.666667  0.537370  1
