# generated using pymatgen
data_Ho13Tm7(Bi2Os)4
_symmetry_space_group_name_H-M   'P 1'
_cell_length_a   7.90351235
_cell_length_b   8.99836299
_cell_length_c   12.45181905
_cell_angle_alpha   89.98102506
_cell_angle_beta   90.01203187
_cell_angle_gamma   90.01833362
_symmetry_Int_Tables_number   1
_chemical_formula_structural   Ho13Tm7(Bi2Os)4
_chemical_formula_sum   'Ho13 Tm7 Bi8 Os4'
_cell_volume   885.55673442
_cell_formula_units_Z   1
loop_
 _symmetry_equiv_pos_site_id
 _symmetry_equiv_pos_as_xyz
  1  'x, y, z'
loop_
 _atom_site_type_symbol
 _atom_site_label
 _atom_site_symmetry_multiplicity
 _atom_site_fract_x
 _atom_site_fract_y
 _atom_site_fract_z
 _atom_site_occupancy
  Ho  Ho0  1  0.343173  0.749973  0.707380  1
  Ho  Ho1  1  0.656942  0.249996  0.292304  1
  Ho  Ho2  1  0.842878  0.250312  0.792248  1
  Ho  Ho3  1  0.156979  0.749933  0.207777  1
  Ho  Ho4  1  0.878724  0.749566  0.808700  1
  Ho  Ho5  1  0.120399  0.250559  0.191487  1
  Ho  Ho6  1  0.379116  0.249972  0.691029  1
  Ho  Ho7  1  0.620791  0.750007  0.308926  1
  Ho  Ho8  1  0.175291  0.041483  0.936193  1
  Ho  Ho9  1  0.057149  0.749977  0.495805  1
  Ho  Ho10  1  0.942647  0.250093  0.504074  1
  Ho  Ho11  1  0.557537  0.250441  0.004142  1
  Ho  Ho12  1  0.443314  0.749302  0.996004  1
  Tm  Tm13  1  0.673395  0.541691  0.563699  1
  Tm  Tm14  1  0.326736  0.458249  0.436238  1
  Tm  Tm15  1  0.173184  0.458189  0.936325  1
  Tm  Tm16  1  0.326606  0.041804  0.436288  1
  Tm  Tm17  1  0.826628  0.541964  0.063871  1
  Tm  Tm18  1  0.673488  0.958354  0.563602  1
  Tm  Tm19  1  0.826324  0.958213  0.063874  1
  Bi  Bi20  1  0.568526  0.507144  0.827692  1
  Bi  Bi21  1  0.431161  0.492808  0.172306  1
  Bi  Bi22  1  0.068831  0.492806  0.672096  1
  Bi  Bi23  1  0.430947  0.007237  0.172051  1
  Bi  Bi24  1  0.931047  0.507343  0.328030  1
  Bi  Bi25  1  0.569664  0.992594  0.827625  1
  Bi  Bi26  1  0.931211  0.992806  0.327886  1
  Bi  Bi27  1  0.068581  0.007163  0.672020  1
  Os  Os28  1  0.072908  0.749488  0.991162  1
  Os  Os29  1  0.925721  0.250512  0.009255  1
  Os  Os30  1  0.573285  0.249996  0.508866  1
  Os  Os31  1  0.426816  0.750029  0.491047  1
