# generated using pymatgen
data_Er7Cd(Sn11Ru3)2
_symmetry_space_group_name_H-M   'P 1'
_cell_length_a   9.80369800
_cell_length_b   9.80369755
_cell_length_c   10.10847400
_cell_angle_alpha   90.00000000
_cell_angle_beta   90.00000000
_cell_angle_gamma   120.00000152
_symmetry_Int_Tables_number   1
_chemical_formula_structural   Er7Cd(Sn11Ru3)2
_chemical_formula_sum   'Er7 Cd1 Sn22 Ru6'
_cell_volume   841.38749381
_cell_formula_units_Z   1
loop_
 _symmetry_equiv_pos_site_id
 _symmetry_equiv_pos_as_xyz
  1  'x, y, z'
loop_
 _atom_site_type_symbol
 _atom_site_label
 _atom_site_symmetry_multiplicity
 _atom_site_fract_x
 _atom_site_fract_y
 _atom_site_fract_z
 _atom_site_occupancy
  Er  Er0  1  0.484128  0.515872  0.306276  1
  Er  Er1  1  0.515872  0.484128  0.693724  1
  Er  Er2  1  0.484128  0.968258  0.306276  1
  Er  Er3  1  0.515872  0.031742  0.693724  1
  Er  Er4  1  0.031742  0.515872  0.306276  1
  Er  Er5  1  0.968258  0.484128  0.693724  1
  Er  Er6  1  0.000000  0.000000  0.000000  1
  Cd  Cd7  1  0.000000  0.000000  0.500000  1
  Sn  Sn8  1  0.122715  0.877285  0.267962  1
  Sn  Sn9  1  0.877285  0.122715  0.732038  1
  Sn  Sn10  1  0.122715  0.245432  0.267962  1
  Sn  Sn11  1  0.877285  0.754568  0.732038  1
  Sn  Sn12  1  0.754568  0.877285  0.267962  1
  Sn  Sn13  1  0.245432  0.122715  0.732038  1
  Sn  Sn14  1  0.779688  0.220312  0.462296  1
  Sn  Sn15  1  0.220312  0.779688  0.537704  1
  Sn  Sn16  1  0.779688  0.559375  0.462296  1
  Sn  Sn17  1  0.220312  0.440625  0.537704  1
  Sn  Sn18  1  0.440625  0.220312  0.462296  1
  Sn  Sn19  1  0.559375  0.779688  0.537704  1
  Sn  Sn20  1  0.349074  0.000000  0.000000  1
  Sn  Sn21  1  0.650926  0.000000  0.000000  1
  Sn  Sn22  1  0.000000  0.349074  0.000000  1
  Sn  Sn23  1  0.000000  0.650926  0.000000  1
  Sn  Sn24  1  0.650926  0.650926  0.000000  1
  Sn  Sn25  1  0.349074  0.349074  0.000000  1
  Sn  Sn26  1  0.333333  0.666667  0.130020  1
  Sn  Sn27  1  0.666667  0.333333  0.869980  1
  Sn  Sn28  1  0.333333  0.666667  0.822331  1
  Sn  Sn29  1  0.666667  0.333333  0.177669  1
  Ru  Ru30  1  0.830871  0.169129  0.203830  1
  Ru  Ru31  1  0.169129  0.830871  0.796170  1
  Ru  Ru32  1  0.830871  0.661744  0.203830  1
  Ru  Ru33  1  0.169129  0.338256  0.796170  1
  Ru  Ru34  1  0.338256  0.169129  0.203830  1
  Ru  Ru35  1  0.661744  0.830871  0.796170  1
