# generated using pymatgen
data_Lu3Sn3GeRuRh
_symmetry_space_group_name_H-M   'P 1'
_cell_length_a   7.33506400
_cell_length_b   7.33506507
_cell_length_c   4.09129600
_cell_angle_alpha   90.00000000
_cell_angle_beta   90.00000000
_cell_angle_gamma   119.99999517
_symmetry_Int_Tables_number   1
_chemical_formula_structural   Lu3Sn3GeRuRh
_chemical_formula_sum   'Lu3 Sn3 Ge1 Ru1 Rh1'
_cell_volume   190.63359266
_cell_formula_units_Z   1
loop_
 _symmetry_equiv_pos_site_id
 _symmetry_equiv_pos_as_xyz
  1  'x, y, z'
loop_
 _atom_site_type_symbol
 _atom_site_label
 _atom_site_symmetry_multiplicity
 _atom_site_fract_x
 _atom_site_fract_y
 _atom_site_fract_z
 _atom_site_occupancy
  Lu  Lu0  1  0.400620  0.410150  0.500000  1
  Lu  Lu1  1  0.589850  0.990471  0.500000  1
  Lu  Lu2  1  0.009529  0.599380  0.500000  1
  Sn  Sn3  1  0.742298  0.754265  0.000000  1
  Sn  Sn4  1  0.245735  0.988034  0.000000  1
  Sn  Sn5  1  0.011966  0.257702  0.000000  1
  Ge  Ge6  1  0.666667  0.333333  0.000000  1
  Ru  Ru7  1  0.000000  0.000000  0.500000  1
  Rh  Rh8  1  0.333333  0.666667  0.000000  1
