# generated using pymatgen
data_LaP12Os3Rh
_symmetry_space_group_name_H-M   'P 1'
_cell_length_a   7.04464185
_cell_length_b   7.04464113
_cell_length_c   7.05684700
_cell_angle_alpha   109.50632861
_cell_angle_beta   109.50632654
_cell_angle_gamma   109.43609399
_symmetry_Int_Tables_number   1
_chemical_formula_structural   LaP12Os3Rh
_chemical_formula_sum   'La1 P12 Os3 Rh1'
_cell_volume   269.47484930
_cell_formula_units_Z   1
loop_
 _symmetry_equiv_pos_site_id
 _symmetry_equiv_pos_as_xyz
  1  'x, y, z'
loop_
 _atom_site_type_symbol
 _atom_site_label
 _atom_site_symmetry_multiplicity
 _atom_site_fract_x
 _atom_site_fract_y
 _atom_site_fract_z
 _atom_site_occupancy
  La  La0  1  0.000000  0.000000  0.000000  1
  P  P1  1  0.855043  0.641608  0.500333  1
  P  P2  1  0.144957  0.358392  0.499667  1
  P  P3  1  0.143858  0.644040  0.788009  1
  P  P4  1  0.856142  0.355960  0.211991  1
  P  P5  1  0.644040  0.500182  0.856032  1
  P  P6  1  0.355960  0.499818  0.143968  1
  P  P7  1  0.641608  0.786567  0.141275  1
  P  P8  1  0.358392  0.213433  0.858725  1
  P  P9  1  0.500182  0.856142  0.644149  1
  P  P10  1  0.499818  0.143858  0.355851  1
  P  P11  1  0.786567  0.144957  0.645291  1
  P  P12  1  0.213433  0.855043  0.354709  1
  Os  Os13  1  0.500000  0.500000  0.500000  1
  Os  Os14  1  0.500000  0.000000  0.000000  1
  Os  Os15  1  0.000000  0.500000  0.000000  1
  Rh  Rh16  1  0.000000  0.000000  0.500000  1
