# generated using pymatgen
data_Th2GeBr2
_symmetry_space_group_name_H-M   'P 1'
_cell_length_a   4.26148000
_cell_length_b   4.26147969
_cell_length_c   10.38360300
_cell_angle_alpha   90.00000000
_cell_angle_beta   90.00000000
_cell_angle_gamma   120.00001795
_symmetry_Int_Tables_number   1
_chemical_formula_structural   Th2GeBr2
_chemical_formula_sum   'Th2 Ge1 Br2'
_cell_volume   163.30500892
_cell_formula_units_Z   1
loop_
 _symmetry_equiv_pos_site_id
 _symmetry_equiv_pos_as_xyz
  1  'x, y, z'
loop_
 _atom_site_type_symbol
 _atom_site_label
 _atom_site_symmetry_multiplicity
 _atom_site_fract_x
 _atom_site_fract_y
 _atom_site_fract_z
 _atom_site_occupancy
  Th  Th0  1  0.333333  0.666667  0.152555  1
  Th  Th1  1  0.666667  0.333333  0.847445  1
  Ge  Ge2  1  0.000000  0.000000  0.000000  1
  Br  Br3  1  0.333333  0.666667  0.662909  1
  Br  Br4  1  0.666667  0.333333  0.337091  1
