# generated using pymatgen
data_La5Y(Sn6Ru)2
_symmetry_space_group_name_H-M   'P 1'
_cell_length_a   8.74096437
_cell_length_b   8.74096369
_cell_length_c   13.58954000
_cell_angle_alpha   90.00000000
_cell_angle_beta   90.00000000
_cell_angle_gamma   148.30955228
_symmetry_Int_Tables_number   1
_chemical_formula_structural   La5Y(Sn6Ru)2
_chemical_formula_sum   'La5 Y1 Sn12 Ru2'
_cell_volume   545.45064327
_cell_formula_units_Z   1
loop_
 _symmetry_equiv_pos_site_id
 _symmetry_equiv_pos_as_xyz
  1  'x, y, z'
loop_
 _atom_site_type_symbol
 _atom_site_label
 _atom_site_symmetry_multiplicity
 _atom_site_fract_x
 _atom_site_fract_y
 _atom_site_fract_z
 _atom_site_occupancy
  La  La0  1  0.396553  0.603447  0.750000  1
  La  La1  1  0.400398  0.599602  0.404399  1
  La  La2  1  0.600254  0.399746  0.595111  1
  La  La3  1  0.400398  0.599602  0.095601  1
  La  La4  1  0.600254  0.399746  0.904889  1
  Y  Y5  1  0.603789  0.396211  0.250000  1
  Sn  Sn6  1  0.927644  0.072356  0.923725  1
  Sn  Sn7  1  0.073220  0.926780  0.078817  1
  Sn  Sn8  1  0.927644  0.072356  0.576275  1
  Sn  Sn9  1  0.073220  0.926780  0.421183  1
  Sn  Sn10  1  0.960495  0.039505  0.250000  1
  Sn  Sn11  1  0.040958  0.959042  0.750000  1
  Sn  Sn12  1  0.746138  0.253863  0.432794  1
  Sn  Sn13  1  0.253058  0.746942  0.566375  1
  Sn  Sn14  1  0.746138  0.253863  0.067206  1
  Sn  Sn15  1  0.253058  0.746942  0.933625  1
  Sn  Sn16  1  0.231897  0.768103  0.250000  1
  Sn  Sn17  1  0.765897  0.234103  0.750000  1
  Ru  Ru18  1  0.799420  0.200580  0.250000  1
  Ru  Ru19  1  0.199570  0.800430  0.750000  1
