# generated using pymatgen
data_Tb5Y(NiRh8)2
_symmetry_space_group_name_H-M   'P 1'
_cell_length_a   5.27465600
_cell_length_b   5.27465765
_cell_length_c   17.26518700
_cell_angle_alpha   90.00000000
_cell_angle_beta   90.00000000
_cell_angle_gamma   119.99998964
_symmetry_Int_Tables_number   1
_chemical_formula_structural   Tb5Y(NiRh8)2
_chemical_formula_sum   'Tb5 Y1 Ni2 Rh16'
_cell_volume   415.99717580
_cell_formula_units_Z   1
loop_
 _symmetry_equiv_pos_site_id
 _symmetry_equiv_pos_as_xyz
  1  'x, y, z'
loop_
 _atom_site_type_symbol
 _atom_site_label
 _atom_site_symmetry_multiplicity
 _atom_site_fract_x
 _atom_site_fract_y
 _atom_site_fract_z
 _atom_site_occupancy
  Tb  Tb0  1  0.333333  0.666667  0.957731  1
  Tb  Tb1  1  0.666667  0.333333  0.042264  1
  Tb  Tb2  1  0.666667  0.333333  0.457728  1
  Tb  Tb3  1  0.333333  0.666667  0.749982  1
  Tb  Tb4  1  0.666667  0.333333  0.250006  1
  Y  Y5  1  0.333333  0.666667  0.542253  1
  Ni  Ni6  1  0.333333  0.666667  0.250006  1
  Ni  Ni7  1  0.666667  0.333333  0.749989  1
  Rh  Rh8  1  0.168504  0.831496  0.372692  1
  Rh  Rh9  1  0.168504  0.337009  0.372692  1
  Rh  Rh10  1  0.662991  0.831496  0.372692  1
  Rh  Rh11  1  0.831534  0.168466  0.627298  1
  Rh  Rh12  1  0.831534  0.663068  0.627298  1
  Rh  Rh13  1  0.336932  0.168466  0.627298  1
  Rh  Rh14  1  0.831520  0.168480  0.872703  1
  Rh  Rh15  1  0.831520  0.663039  0.872703  1
  Rh  Rh16  1  0.336961  0.168480  0.872703  1
  Rh  Rh17  1  0.168517  0.831483  0.127319  1
  Rh  Rh18  1  0.168517  0.337035  0.127319  1
  Rh  Rh19  1  0.662965  0.831483  0.127319  1
  Rh  Rh20  1  0.000000  0.000000  0.249989  1
  Rh  Rh21  1  0.000000  0.000000  0.749979  1
  Rh  Rh22  1  0.000000  0.000000  0.500026  1
  Rh  Rh23  1  0.000000  0.000000  0.000012  1
