# generated using pymatgen
data_Hf16Co5TcPt2
_symmetry_space_group_name_H-M   'P 1'
_cell_length_a   8.56252828
_cell_length_b   8.56252845
_cell_length_c   8.60240563
_cell_angle_alpha   60.20589541
_cell_angle_beta   60.20589841
_cell_angle_gamma   60.12857166
_symmetry_Int_Tables_number   1
_chemical_formula_structural   Hf16Co5TcPt2
_chemical_formula_sum   'Hf16 Co5 Tc1 Pt2'
_cell_volume   447.79206131
_cell_formula_units_Z   1
loop_
 _symmetry_equiv_pos_site_id
 _symmetry_equiv_pos_as_xyz
  1  'x, y, z'
loop_
 _atom_site_type_symbol
 _atom_site_label
 _atom_site_symmetry_multiplicity
 _atom_site_fract_x
 _atom_site_fract_y
 _atom_site_fract_z
 _atom_site_occupancy
  Hf  Hf0  1  0.063335  0.644637  0.645646  1
  Hf  Hf1  1  0.644637  0.063335  0.645646  1
  Hf  Hf2  1  0.641184  0.641184  0.073933  1
  Hf  Hf3  1  0.645093  0.645093  0.645047  1
  Hf  Hf4  1  0.805590  0.805590  0.194292  1
  Hf  Hf5  1  0.196970  0.196970  0.804904  1
  Hf  Hf6  1  0.803378  0.194284  0.808251  1
  Hf  Hf7  1  0.194653  0.804540  0.194563  1
  Hf  Hf8  1  0.194284  0.803378  0.808251  1
  Hf  Hf9  1  0.804540  0.194653  0.194563  1
  Hf  Hf10  1  0.437643  0.437643  0.059266  1
  Hf  Hf11  1  0.063818  0.063818  0.436633  1
  Hf  Hf12  1  0.436936  0.072197  0.435962  1
  Hf  Hf13  1  0.071510  0.437292  0.055193  1
  Hf  Hf14  1  0.072197  0.436936  0.435962  1
  Hf  Hf15  1  0.437292  0.071510  0.055193  1
  Co  Co16  1  0.410928  0.410928  0.417447  1
  Co  Co17  1  0.430249  0.854140  0.860144  1
  Co  Co18  1  0.854140  0.430249  0.860144  1
  Co  Co19  1  0.857487  0.857487  0.426607  1
  Co  Co20  1  0.854525  0.854525  0.860545  1
  Tc  Tc21  1  0.415453  0.415453  0.748305  1
  Pt  Pt22  1  0.752260  0.411899  0.416751  1
  Pt  Pt23  1  0.411899  0.752260  0.416751  1
