# generated using pymatgen
data_Sc3Al3Ga2Rh
_symmetry_space_group_name_H-M   'P 1'
_cell_length_a   6.69176900
_cell_length_b   6.69176929
_cell_length_c   4.14032500
_cell_angle_alpha   90.00000000
_cell_angle_beta   90.00000000
_cell_angle_gamma   120.00000349
_symmetry_Int_Tables_number   1
_chemical_formula_structural   Sc3Al3Ga2Rh
_chemical_formula_sum   'Sc3 Al3 Ga2 Rh1'
_cell_volume   160.56354560
_cell_formula_units_Z   1
loop_
 _symmetry_equiv_pos_site_id
 _symmetry_equiv_pos_as_xyz
  1  'x, y, z'
loop_
 _atom_site_type_symbol
 _atom_site_label
 _atom_site_symmetry_multiplicity
 _atom_site_fract_x
 _atom_site_fract_y
 _atom_site_fract_z
 _atom_site_occupancy
  Sc  Sc0  1  0.418290  0.000000  0.000000  1
  Sc  Sc1  1  0.000000  0.418290  0.000000  1
  Sc  Sc2  1  0.581711  0.581711  0.000000  1
  Al  Al3  1  0.762061  0.000000  0.499999  1
  Al  Al4  1  0.237940  0.237939  0.499999  1
  Al  Al5  1  0.000000  0.762062  0.499999  1
  Ga  Ga6  1  0.666667  0.333333  0.499999  1
  Ga  Ga7  1  0.333333  0.666667  0.499999  1
  Rh  Rh8  1  0.000000  0.000000  0.000000  1
