# generated using pymatgen
data_Nd8Bi3O8
_symmetry_space_group_name_H-M   'P 1'
_cell_length_a   7.27402033
_cell_length_b   7.27402006
_cell_length_c   15.69274724
_cell_angle_alpha   73.45398328
_cell_angle_beta   73.45398376
_cell_angle_gamma   31.70455498
_symmetry_Int_Tables_number   1
_chemical_formula_structural   Nd8Bi3O8
_chemical_formula_sum   'Nd8 Bi3 O8'
_cell_volume   416.80775051
_cell_formula_units_Z   1
loop_
 _symmetry_equiv_pos_site_id
 _symmetry_equiv_pos_as_xyz
  1  'x, y, z'
loop_
 _atom_site_type_symbol
 _atom_site_label
 _atom_site_symmetry_multiplicity
 _atom_site_fract_x
 _atom_site_fract_y
 _atom_site_fract_z
 _atom_site_occupancy
  Nd  Nd0  1  0.715297  0.724814  0.911571  1
  Nd  Nd1  1  0.275186  0.284703  0.088429  1
  Nd  Nd2  1  0.643173  0.642748  0.568015  1
  Nd  Nd3  1  0.357252  0.356827  0.431985  1
  Nd  Nd4  1  0.878865  0.880214  0.651551  1
  Nd  Nd5  1  0.119786  0.121135  0.348449  1
  Nd  Nd6  1  0.450459  0.456513  0.829922  1
  Nd  Nd7  1  0.543487  0.549541  0.170078  1
  Bi  Bi8  1  0.171566  0.171055  0.734153  1
  Bi  Bi9  1  0.828945  0.828434  0.265847  1
  Bi  Bi10  1  0.985469  0.014531  0.000000  1
  O  O11  1  0.468986  0.470215  0.632592  1
  O  O12  1  0.529785  0.531014  0.367408  1
  O  O13  1  0.878704  0.885578  0.798966  1
  O  O14  1  0.114422  0.121296  0.201034  1
  O  O15  1  0.165292  0.164730  0.486772  1
  O  O16  1  0.835270  0.834708  0.513228  1
  O  O17  1  0.290980  0.300925  0.933866  1
  O  O18  1  0.699075  0.709020  0.066134  1
