# generated using pymatgen
data_TbTm(MgPt)2
_symmetry_space_group_name_H-M   'P 1'
_cell_length_a   4.13120800
_cell_length_b   7.11741644
_cell_length_c   8.64931018
_cell_angle_alpha   89.24968719
_cell_angle_beta   90.00000000
_cell_angle_gamma   90.00000000
_symmetry_Int_Tables_number   1
_chemical_formula_structural   TbTm(MgPt)2
_chemical_formula_sum   'Tb2 Tm2 Mg4 Pt4'
_cell_volume   254.29842531
_cell_formula_units_Z   2
loop_
 _symmetry_equiv_pos_site_id
 _symmetry_equiv_pos_as_xyz
  1  'x, y, z'
loop_
 _atom_site_type_symbol
 _atom_site_label
 _atom_site_symmetry_multiplicity
 _atom_site_fract_x
 _atom_site_fract_y
 _atom_site_fract_z
 _atom_site_occupancy
  Tb  Tb0  1  0.750000  0.034608  0.675163  1
  Tb  Tb1  1  0.250000  0.965392  0.324837  1
  Tm  Tm2  1  0.750000  0.537894  0.825945  1
  Tm  Tm3  1  0.250000  0.462106  0.174055  1
  Mg  Mg4  1  0.750000  0.634652  0.438361  1
  Mg  Mg5  1  0.250000  0.365348  0.561639  1
  Mg  Mg6  1  0.750000  0.136178  0.061098  1
  Mg  Mg7  1  0.250000  0.863822  0.938902  1
  Pt  Pt8  1  0.750000  0.250864  0.370445  1
  Pt  Pt9  1  0.250000  0.749136  0.629555  1
  Pt  Pt10  1  0.750000  0.742884  0.124387  1
  Pt  Pt11  1  0.250000  0.257116  0.875613  1
