# generated using pymatgen
data_Pr8Er2(IrRh)3
_symmetry_space_group_name_H-M   'P 1'
_cell_length_a   11.21068456
_cell_length_b   11.20971200
_cell_length_c   6.60548190
_cell_angle_alpha   90.00000000
_cell_angle_beta   90.06012256
_cell_angle_gamma   90.00000000
_symmetry_Int_Tables_number   1
_chemical_formula_structural   Pr8Er2(IrRh)3
_chemical_formula_sum   'Pr16 Er4 Ir6 Rh6'
_cell_volume   830.10084387
_cell_formula_units_Z   2
loop_
 _symmetry_equiv_pos_site_id
 _symmetry_equiv_pos_as_xyz
  1  'x, y, z'
loop_
 _atom_site_type_symbol
 _atom_site_label
 _atom_site_symmetry_multiplicity
 _atom_site_fract_x
 _atom_site_fract_y
 _atom_site_fract_z
 _atom_site_occupancy
  Pr  Pr0  1  0.287689  0.087884  0.382159  1
  Pr  Pr1  1  0.287689  0.912116  0.882159  1
  Pr  Pr2  1  0.710839  0.088740  0.882072  1
  Pr  Pr3  1  0.710839  0.911260  0.382072  1
  Pr  Pr4  1  0.585984  0.786990  0.883314  1
  Pr  Pr5  1  0.585984  0.213010  0.383314  1
  Pr  Pr6  1  0.412098  0.787335  0.382886  1
  Pr  Pr7  1  0.412098  0.212665  0.882886  1
  Pr  Pr8  1  0.212730  0.412139  0.616905  1
  Pr  Pr9  1  0.212730  0.587861  0.116905  1
  Pr  Pr10  1  0.786945  0.413998  0.116903  1
  Pr  Pr11  1  0.786945  0.586002  0.616903  1
  Pr  Pr12  1  0.912689  0.711621  0.118531  1
  Pr  Pr13  1  0.912689  0.288379  0.618531  1
  Pr  Pr14  1  0.089352  0.711431  0.617327  1
  Pr  Pr15  1  0.089352  0.288569  0.117327  1
  Er  Er16  1  0.000838  0.999882  0.500014  1
  Er  Er17  1  0.000838  0.000118  0.000014  1
  Er  Er18  1  0.499990  0.499905  0.000003  1
  Er  Er19  1  0.499990  0.500095  0.500003  1
  Ir  Ir20  1  0.146847  0.147316  0.749964  1
  Ir  Ir21  1  0.146847  0.852684  0.249964  1
  Ir  Ir22  1  0.648173  0.351954  0.750056  1
  Ir  Ir23  1  0.648173  0.648046  0.250056  1
  Ir  Ir24  1  0.352258  0.352150  0.250013  1
  Ir  Ir25  1  0.352258  0.647850  0.750013  1
  Rh  Rh26  1  0.852719  0.146654  0.249931  1
  Rh  Rh27  1  0.852719  0.853346  0.749931  1
  Rh  Rh28  1  0.501334  0.000137  0.116768  1
  Rh  Rh29  1  0.501334  0.999863  0.616768  1
  Rh  Rh30  1  0.999516  0.500401  0.883152  1
  Rh  Rh31  1  0.999516  0.499599  0.383152  1
