# generated using pymatgen
data_DyHo(CuP)3
_symmetry_space_group_name_H-M   'P 1'
_cell_length_a   3.85204600
_cell_length_b   10.68275600
_cell_length_c   12.95894900
_cell_angle_alpha   90.00000000
_cell_angle_beta   90.00000000
_cell_angle_gamma   90.00000000
_symmetry_Int_Tables_number   1
_chemical_formula_structural   DyHo(CuP)3
_chemical_formula_sum   'Dy4 Ho4 Cu12 P12'
_cell_volume   533.26680990
_cell_formula_units_Z   4
loop_
 _symmetry_equiv_pos_site_id
 _symmetry_equiv_pos_as_xyz
  1  'x, y, z'
loop_
 _atom_site_type_symbol
 _atom_site_label
 _atom_site_symmetry_multiplicity
 _atom_site_fract_x
 _atom_site_fract_y
 _atom_site_fract_z
 _atom_site_occupancy
  Dy  Dy0  1  0.250000  0.930043  0.792911  1
  Dy  Dy1  1  0.750000  0.430043  0.707089  1
  Dy  Dy2  1  0.250000  0.569957  0.292911  1
  Dy  Dy3  1  0.750000  0.069957  0.207089  1
  Ho  Ho4  1  0.250000  0.841433  0.503109  1
  Ho  Ho5  1  0.750000  0.341433  0.996891  1
  Ho  Ho6  1  0.250000  0.658567  0.003109  1
  Ho  Ho7  1  0.750000  0.158567  0.496891  1
  Cu  Cu8  1  0.250000  0.402512  0.513891  1
  Cu  Cu9  1  0.750000  0.902512  0.986109  1
  Cu  Cu10  1  0.250000  0.097488  0.013891  1
  Cu  Cu11  1  0.750000  0.597488  0.486109  1
  Cu  Cu12  1  0.250000  0.273086  0.332345  1
  Cu  Cu13  1  0.750000  0.773086  0.167655  1
  Cu  Cu14  1  0.250000  0.226914  0.832345  1
  Cu  Cu15  1  0.750000  0.726914  0.667655  1
  Cu  Cu16  1  0.250000  0.860612  0.280079  1
  Cu  Cu17  1  0.750000  0.360612  0.219921  1
  Cu  Cu18  1  0.250000  0.639388  0.780079  1
  Cu  Cu19  1  0.750000  0.139388  0.719921  1
  P  P20  1  0.250000  0.240479  0.643042  1
  P  P21  1  0.750000  0.740479  0.856958  1
  P  P22  1  0.250000  0.259521  0.143042  1
  P  P23  1  0.750000  0.759521  0.356958  1
  P  P24  1  0.250000  0.604302  0.600645  1
  P  P25  1  0.750000  0.104302  0.899355  1
  P  P26  1  0.250000  0.895698  0.100645  1
  P  P27  1  0.750000  0.395698  0.399355  1
  P  P28  1  0.250000  0.057253  0.369188  1
  P  P29  1  0.750000  0.557253  0.130812  1
  P  P30  1  0.250000  0.442747  0.869188  1
  P  P31  1  0.750000  0.942747  0.630812  1
