# generated using pymatgen
data_Ho4Hf4Ir3Rh
_symmetry_space_group_name_H-M   'P 1'
_cell_length_a   4.53109300
_cell_length_b   7.03007975
_cell_length_c   8.27976300
_cell_angle_alpha   89.95955925
_cell_angle_beta   90.00000000
_cell_angle_gamma   90.00000000
_symmetry_Int_Tables_number   1
_chemical_formula_structural   Ho4Hf4Ir3Rh
_chemical_formula_sum   'Ho4 Hf4 Ir3 Rh1'
_cell_volume   263.74305076
_cell_formula_units_Z   1
loop_
 _symmetry_equiv_pos_site_id
 _symmetry_equiv_pos_as_xyz
  1  'x, y, z'
loop_
 _atom_site_type_symbol
 _atom_site_label
 _atom_site_symmetry_multiplicity
 _atom_site_fract_x
 _atom_site_fract_y
 _atom_site_fract_z
 _atom_site_occupancy
  Ho  Ho0  1  0.250000  0.983871  0.323333  1
  Ho  Ho1  1  0.250000  0.484253  0.176459  1
  Ho  Ho2  1  0.750000  0.013999  0.676295  1
  Ho  Ho3  1  0.750000  0.518952  0.821750  1
  Hf  Hf4  1  0.250000  0.357593  0.570874  1
  Hf  Hf5  1  0.250000  0.859893  0.928528  1
  Hf  Hf6  1  0.750000  0.640743  0.427218  1
  Hf  Hf7  1  0.750000  0.141654  0.074084  1
  Ir  Ir8  1  0.250000  0.732035  0.594317  1
  Ir  Ir9  1  0.750000  0.767621  0.092691  1
  Ir  Ir10  1  0.750000  0.266127  0.406627  1
  Rh  Rh11  1  0.250000  0.233257  0.907823  1
