# generated using pymatgen
data_HoEr7Zn3Si12Rh
_symmetry_space_group_name_H-M   'P 1'
_cell_length_a   8.08957332
_cell_length_b   8.08588900
_cell_length_c   7.97303606
_cell_angle_alpha   89.99999984
_cell_angle_beta   89.98792825
_cell_angle_gamma   119.98493906
_symmetry_Int_Tables_number   1
_chemical_formula_structural   HoEr7Zn3Si12Rh
_chemical_formula_sum   'Ho1 Er7 Zn3 Si12 Rh1'
_cell_volume   451.72448198
_cell_formula_units_Z   1
loop_
 _symmetry_equiv_pos_site_id
 _symmetry_equiv_pos_as_xyz
  1  'x, y, z'
loop_
 _atom_site_type_symbol
 _atom_site_label
 _atom_site_symmetry_multiplicity
 _atom_site_fract_x
 _atom_site_fract_y
 _atom_site_fract_z
 _atom_site_occupancy
  Ho  Ho0  1  0.995600  0.497800  0.250458  1
  Er  Er1  1  0.501953  0.497976  0.250659  1
  Er  Er2  1  0.495887  0.991820  0.749413  1
  Er  Er3  1  0.008154  0.504077  0.749414  1
  Er  Er4  1  0.495887  0.504065  0.749413  1
  Er  Er5  1  0.501953  0.003977  0.250659  1
  Er  Er6  1  0.000008  0.000004  0.751067  1
  Er  Er7  1  0.000012  0.000006  0.248939  1
  Zn  Zn8  1  0.333583  0.666792  0.017293  1
  Zn  Zn9  1  0.666473  0.333236  0.984953  1
  Zn  Zn10  1  0.666391  0.333195  0.505124  1
  Si  Si11  1  0.169495  0.830717  0.496448  1
  Si  Si12  1  0.169495  0.338777  0.496448  1
  Si  Si13  1  0.661391  0.830695  0.496301  1
  Si  Si14  1  0.333337  0.166669  0.002989  1
  Si  Si15  1  0.836415  0.672939  0.503757  1
  Si  Si16  1  0.833233  0.166565  0.002860  1
  Si  Si17  1  0.833233  0.666671  0.002860  1
  Si  Si18  1  0.166805  0.333544  0.996078  1
  Si  Si19  1  0.666419  0.833209  0.996086  1
  Si  Si20  1  0.327044  0.163523  0.503746  1
  Si  Si21  1  0.836415  0.163477  0.503757  1
  Si  Si22  1  0.166805  0.833262  0.996078  1
  Rh  Rh23  1  0.334010  0.667006  0.495200  1
