# generated using pymatgen
data_Tb4Gd2NbO12
_symmetry_space_group_name_H-M   'P 1'
_cell_length_a   6.53460779
_cell_length_b   6.55344922
_cell_length_c   6.52323820
_cell_angle_alpha   98.85578751
_cell_angle_beta   98.54729956
_cell_angle_gamma   98.76481527
_symmetry_Int_Tables_number   1
_chemical_formula_structural   Tb4Gd2NbO12
_chemical_formula_sum   'Tb4 Gd2 Nb1 O12'
_cell_volume   268.53006338
_cell_formula_units_Z   1
loop_
 _symmetry_equiv_pos_site_id
 _symmetry_equiv_pos_as_xyz
  1  'x, y, z'
loop_
 _atom_site_type_symbol
 _atom_site_label
 _atom_site_symmetry_multiplicity
 _atom_site_fract_x
 _atom_site_fract_y
 _atom_site_fract_z
 _atom_site_occupancy
  Tb  Tb0  1  0.859842  0.386844  0.697072  1
  Tb  Tb1  1  0.613444  0.298725  0.139692  1
  Tb  Tb2  1  0.304685  0.141462  0.610717  1
  Tb  Tb3  1  0.700202  0.864473  0.389960  1
  Gd  Gd4  1  0.392027  0.695463  0.858014  1
  Gd  Gd5  1  0.137092  0.607074  0.304464  1
  Nb  Nb6  1  0.002474  0.998396  0.999003  1
  O  O7  1  0.926627  0.041705  0.696220  1
  O  O8  1  0.955510  0.303281  0.069615  1
  O  O9  1  0.587383  0.178470  0.438300  1
  O  O10  1  0.821163  0.563652  0.410572  1
  O  O11  1  0.302950  0.075462  0.958068  1
  O  O12  1  0.563703  0.413605  0.825359  1
  O  O13  1  0.435057  0.588426  0.177570  1
  O  O14  1  0.696337  0.930729  0.046048  1
  O  O15  1  0.175831  0.433978  0.586712  1
  O  O16  1  0.413567  0.821487  0.564371  1
  O  O17  1  0.039353  0.697798  0.924534  1
  O  O18  1  0.072754  0.958972  0.303707  1
