# generated using pymatgen
data_Er4ReTc3B8
_symmetry_space_group_name_H-M   'P 1'
_cell_length_a   5.27310700
_cell_length_b   5.92359321
_cell_length_c   6.42908911
_cell_angle_alpha   90.14443104
_cell_angle_beta   90.00000000
_cell_angle_gamma   90.00000000
_symmetry_Int_Tables_number   1
_chemical_formula_structural   Er4ReTc3B8
_chemical_formula_sum   'Er4 Re1 Tc3 B8'
_cell_volume   200.81672284
_cell_formula_units_Z   1
loop_
 _symmetry_equiv_pos_site_id
 _symmetry_equiv_pos_as_xyz
  1  'x, y, z'
loop_
 _atom_site_type_symbol
 _atom_site_label
 _atom_site_symmetry_multiplicity
 _atom_site_fract_x
 _atom_site_fract_y
 _atom_site_fract_z
 _atom_site_occupancy
  Er  Er0  1  0.250000  0.514579  0.838207  1
  Er  Er1  1  0.250000  0.015206  0.661506  1
  Er  Er2  1  0.750000  0.484836  0.162132  1
  Er  Er3  1  0.750000  0.985471  0.338271  1
  Re  Re4  1  0.750000  0.818153  0.814166  1
  Tc  Tc5  1  0.250000  0.681318  0.315212  1
  Tc  Tc6  1  0.250000  0.181798  0.185158  1
  Tc  Tc7  1  0.750000  0.317432  0.684864  1
  B  B8  1  0.077294  0.868503  0.034868  1
  B  B9  1  0.421923  0.369386  0.464759  1
  B  B10  1  0.577596  0.131027  0.964923  1
  B  B11  1  0.922900  0.631687  0.535691  1
  B  B12  1  0.922404  0.131027  0.964923  1
  B  B13  1  0.577100  0.631687  0.535691  1
  B  B14  1  0.422706  0.868503  0.034868  1
  B  B15  1  0.078077  0.369386  0.464759  1
