# generated using pymatgen
data_KHo(NbCl3)6
_symmetry_space_group_name_H-M   'P 1'
_cell_length_a   10.20514105
_cell_length_b   10.20514094
_cell_length_c   10.20514123
_cell_angle_alpha   55.37802819
_cell_angle_beta   55.37802662
_cell_angle_gamma   55.37803293
_symmetry_Int_Tables_number   1
_chemical_formula_structural   KHo(NbCl3)6
_chemical_formula_sum   'K1 Ho1 Nb6 Cl18'
_cell_volume   670.83171107
_cell_formula_units_Z   1
loop_
 _symmetry_equiv_pos_site_id
 _symmetry_equiv_pos_as_xyz
  1  'x, y, z'
loop_
 _atom_site_type_symbol
 _atom_site_label
 _atom_site_symmetry_multiplicity
 _atom_site_fract_x
 _atom_site_fract_y
 _atom_site_fract_z
 _atom_site_occupancy
  K  K0  1  0.221082  0.221082  0.221082  1
  Ho  Ho1  1  0.498584  0.498584  0.498584  1
  Nb  Nb2  1  0.799927  0.149710  0.911890  1
  Nb  Nb3  1  0.911890  0.799927  0.149710  1
  Nb  Nb4  1  0.149710  0.911890  0.799927  1
  Nb  Nb5  1  0.201263  0.850622  0.087068  1
  Nb  Nb6  1  0.087068  0.201263  0.850622  1
  Nb  Nb7  1  0.850622  0.087068  0.201263  1
  Cl  Cl8  1  0.863215  0.413861  0.725863  1
  Cl  Cl9  1  0.725863  0.863215  0.413861  1
  Cl  Cl10  1  0.413861  0.725863  0.863215  1
  Cl  Cl11  1  0.136627  0.585346  0.275422  1
  Cl  Cl12  1  0.275422  0.136627  0.585346  1
  Cl  Cl13  1  0.585346  0.275422  0.136627  1
  Cl  Cl14  1  0.531308  0.342936  0.803346  1
  Cl  Cl15  1  0.803346  0.531308  0.342936  1
  Cl  Cl16  1  0.342936  0.803346  0.531308  1
  Cl  Cl17  1  0.464028  0.658406  0.200325  1
  Cl  Cl18  1  0.200325  0.464028  0.658406  1
  Cl  Cl19  1  0.658406  0.200325  0.464028  1
  Cl  Cl20  1  0.660685  0.939292  0.072260  1
  Cl  Cl21  1  0.072260  0.660685  0.939292  1
  Cl  Cl22  1  0.939292  0.072260  0.660685  1
  Cl  Cl23  1  0.339812  0.061185  0.927077  1
  Cl  Cl24  1  0.927077  0.339812  0.061185  1
  Cl  Cl25  1  0.061185  0.927077  0.339812  1
