# generated using pymatgen
data_La13Pr3Cd4(PdRu)2
_symmetry_space_group_name_H-M   'P 1'
_cell_length_a   10.12473691
_cell_length_b   10.13449248
_cell_length_c   10.21421361
_cell_angle_alpha   59.63835513
_cell_angle_beta   59.57040824
_cell_angle_gamma   59.70482293
_symmetry_Int_Tables_number   1
_chemical_formula_structural   La13Pr3Cd4(PdRu)2
_chemical_formula_sum   'La13 Pr3 Cd4 Pd2 Ru2'
_cell_volume   734.99749345
_cell_formula_units_Z   1
loop_
 _symmetry_equiv_pos_site_id
 _symmetry_equiv_pos_as_xyz
  1  'x, y, z'
loop_
 _atom_site_type_symbol
 _atom_site_label
 _atom_site_symmetry_multiplicity
 _atom_site_fract_x
 _atom_site_fract_y
 _atom_site_fract_z
 _atom_site_occupancy
  La  La0  1  0.346486  0.346032  0.356595  1
  La  La1  1  0.346807  0.347312  0.948969  1
  La  La2  1  0.342407  0.957418  0.349187  1
  La  La3  1  0.957168  0.342632  0.349090  1
  La  La4  1  0.817916  0.190759  0.190279  1
  La  La5  1  0.189483  0.816666  0.801828  1
  La  La6  1  0.190333  0.817682  0.190687  1
  La  La7  1  0.817238  0.189780  0.801700  1
  La  La8  1  0.188584  0.189097  0.811434  1
  La  La9  1  0.805562  0.805225  0.194108  1
  La  La10  1  0.936128  0.559935  0.566345  1
  La  La11  1  0.558864  0.936418  0.939120  1
  La  La12  1  0.559554  0.936591  0.565866  1
  Pr  Pr13  1  0.936563  0.559340  0.938501  1
  Pr  Pr14  1  0.563024  0.562697  0.938126  1
  Pr  Pr15  1  0.937902  0.937559  0.562394  1
  Cd  Cd16  1  0.579373  0.579308  0.579910  1
  Cd  Cd17  1  0.580026  0.579446  0.260539  1
  Cd  Cd18  1  0.581178  0.259134  0.579756  1
  Cd  Cd19  1  0.258914  0.580974  0.580170  1
  Pd  Pd20  1  0.146703  0.573996  0.139916  1
  Pd  Pd21  1  0.574130  0.146757  0.139975  1
  Ru  Ru22  1  0.143133  0.142608  0.137211  1
  Ru  Ru23  1  0.142524  0.142635  0.578295  1
