# generated using pymatgen
data_Dy3Y12Er(CdIr)4
_symmetry_space_group_name_H-M   'P 1'
_cell_length_a   9.66195183
_cell_length_b   9.66130925
_cell_length_c   9.66131000
_cell_angle_alpha   59.99999742
_cell_angle_beta   60.00219741
_cell_angle_gamma   60.00220043
_symmetry_Int_Tables_number   1
_chemical_formula_structural   Dy3Y12Er(CdIr)4
_chemical_formula_sum   'Dy3 Y12 Er1 Cd4 Ir4'
_cell_volume   637.72919050
_cell_formula_units_Z   1
loop_
 _symmetry_equiv_pos_site_id
 _symmetry_equiv_pos_as_xyz
  1  'x, y, z'
loop_
 _atom_site_type_symbol
 _atom_site_label
 _atom_site_symmetry_multiplicity
 _atom_site_fract_x
 _atom_site_fract_y
 _atom_site_fract_z
 _atom_site_occupancy
  Dy  Dy0  1  0.348694  0.348727  0.348727  1
  Dy  Dy1  1  0.348694  0.348727  0.953854  1
  Dy  Dy2  1  0.348694  0.953854  0.348727  1
  Y  Y3  1  0.810192  0.189919  0.189919  1
  Y  Y4  1  0.189625  0.810274  0.810274  1
  Y  Y5  1  0.189625  0.810274  0.189827  1
  Y  Y6  1  0.810192  0.189919  0.809970  1
  Y  Y7  1  0.189625  0.189827  0.810274  1
  Y  Y8  1  0.810192  0.809970  0.189919  1
  Y  Y9  1  0.938242  0.561762  0.561762  1
  Y  Y10  1  0.562140  0.937993  0.937993  1
  Y  Y11  1  0.562140  0.937993  0.561873  1
  Y  Y12  1  0.938242  0.561762  0.938234  1
  Y  Y13  1  0.562140  0.561873  0.937993  1
  Y  Y14  1  0.938242  0.938234  0.561762  1
  Er  Er15  1  0.954662  0.348446  0.348446  1
  Cd  Cd16  1  0.580793  0.580487  0.580487  1
  Cd  Cd17  1  0.580793  0.580487  0.258234  1
  Cd  Cd18  1  0.580793  0.258234  0.580487  1
  Cd  Cd19  1  0.258160  0.580613  0.580613  1
  Ir  Ir20  1  0.141628  0.142873  0.142873  1
  Ir  Ir21  1  0.141628  0.142873  0.572628  1
  Ir  Ir22  1  0.141628  0.572628  0.142873  1
  Ir  Ir23  1  0.573240  0.142254  0.142254  1
