# generated using pymatgen
data_PrNd3(DyPt)4
_symmetry_space_group_name_H-M   'P 1'
_cell_length_a   4.81340300
_cell_length_b   7.34573012
_cell_length_c   8.78838000
_cell_angle_alpha   89.98979776
_cell_angle_beta   90.00000000
_cell_angle_gamma   90.00000000
_symmetry_Int_Tables_number   1
_chemical_formula_structural   PrNd3(DyPt)4
_chemical_formula_sum   'Pr1 Nd3 Dy4 Pt4'
_cell_volume   310.73917813
_cell_formula_units_Z   1
loop_
 _symmetry_equiv_pos_site_id
 _symmetry_equiv_pos_as_xyz
  1  'x, y, z'
loop_
 _atom_site_type_symbol
 _atom_site_label
 _atom_site_symmetry_multiplicity
 _atom_site_fract_x
 _atom_site_fract_y
 _atom_site_fract_z
 _atom_site_occupancy
  Pr  Pr0  1  0.250000  0.012843  0.673914  1
  Nd  Nd1  1  0.250000  0.513211  0.826889  1
  Nd  Nd2  1  0.750000  0.986671  0.326017  1
  Nd  Nd3  1  0.750000  0.486571  0.173936  1
  Dy  Dy4  1  0.250000  0.144104  0.079293  1
  Dy  Dy5  1  0.250000  0.644329  0.420737  1
  Dy  Dy6  1  0.750000  0.855614  0.921872  1
  Dy  Dy7  1  0.750000  0.356198  0.578775  1
  Pt  Pt8  1  0.250000  0.253725  0.406793  1
  Pt  Pt9  1  0.250000  0.753036  0.091881  1
  Pt  Pt10  1  0.750000  0.745973  0.591286  1
  Pt  Pt11  1  0.750000  0.247726  0.908607  1
