# generated using pymatgen
data_Na8Zr3SnBr24
_symmetry_space_group_name_H-M   'P 1'
_cell_length_a   7.16802700
_cell_length_b   7.16802770
_cell_length_c   27.35915700
_cell_angle_alpha   90.00000000
_cell_angle_beta   90.00000000
_cell_angle_gamma   120.00000137
_symmetry_Int_Tables_number   1
_chemical_formula_structural   Na8Zr3SnBr24
_chemical_formula_sum   'Na8 Zr3 Sn1 Br24'
_cell_volume   1217.39817104
_cell_formula_units_Z   1
loop_
 _symmetry_equiv_pos_site_id
 _symmetry_equiv_pos_as_xyz
  1  'x, y, z'
loop_
 _atom_site_type_symbol
 _atom_site_label
 _atom_site_symmetry_multiplicity
 _atom_site_fract_x
 _atom_site_fract_y
 _atom_site_fract_z
 _atom_site_occupancy
  Na  Na0  1  0.000000  0.000000  0.250137  1
  Na  Na1  1  0.000000  0.000000  0.749863  1
  Na  Na2  1  0.333333  0.666667  0.000310  1
  Na  Na3  1  0.333333  0.666667  0.499541  1
  Na  Na4  1  0.333333  0.666667  0.250010  1
  Na  Na5  1  0.666667  0.333333  0.749990  1
  Na  Na6  1  0.666667  0.333333  0.999690  1
  Na  Na7  1  0.666667  0.333333  0.500459  1
  Zr  Zr8  1  0.000000  0.000000  0.500000  1
  Zr  Zr9  1  0.333333  0.666667  0.749694  1
  Zr  Zr10  1  0.666667  0.333333  0.250306  1
  Sn  Sn11  1  0.000000  0.000000  0.000000  1
  Br  Br12  1  0.366397  0.032803  0.307248  1
  Br  Br13  1  0.333625  0.967039  0.806779  1
  Br  Br14  1  0.999330  0.299760  0.056959  1
  Br  Br15  1  0.000054  0.300463  0.556999  1
  Br  Br16  1  0.967197  0.333595  0.307248  1
  Br  Br17  1  0.032961  0.366584  0.806779  1
  Br  Br18  1  0.366584  0.333625  0.193221  1
  Br  Br19  1  0.333595  0.366397  0.692752  1
  Br  Br20  1  0.300463  0.300409  0.443001  1
  Br  Br21  1  0.299760  0.300430  0.943041  1
  Br  Br22  1  0.699591  0.000054  0.443001  1
  Br  Br23  1  0.300430  0.000670  0.056959  1
  Br  Br24  1  0.300409  0.999946  0.556999  1
  Br  Br25  1  0.700240  0.699570  0.056959  1
  Br  Br26  1  0.699537  0.699591  0.556999  1
  Br  Br27  1  0.666405  0.633603  0.307248  1
  Br  Br28  1  0.633416  0.666375  0.806779  1
  Br  Br29  1  0.967039  0.633416  0.193221  1
  Br  Br30  1  0.032803  0.666405  0.692752  1
  Br  Br31  1  0.999946  0.699537  0.443001  1
  Br  Br32  1  0.000670  0.700240  0.943041  1
  Br  Br33  1  0.699570  0.999330  0.943041  1
  Br  Br34  1  0.666375  0.032961  0.193221  1
  Br  Br35  1  0.633603  0.967197  0.692752  1
