# generated using pymatgen
data_Sm3Tm(B4Mo)4
_symmetry_space_group_name_H-M   'P 1'
_cell_length_a   3.65594300
_cell_length_b   6.06606475
_cell_length_c   11.72629614
_cell_angle_alpha   89.88839520
_cell_angle_beta   90.00000000
_cell_angle_gamma   90.00000000
_symmetry_Int_Tables_number   1
_chemical_formula_structural   Sm3Tm(B4Mo)4
_chemical_formula_sum   'Sm3 Tm1 B16 Mo4'
_cell_volume   260.05576858
_cell_formula_units_Z   1
loop_
 _symmetry_equiv_pos_site_id
 _symmetry_equiv_pos_as_xyz
  1  'x, y, z'
loop_
 _atom_site_type_symbol
 _atom_site_label
 _atom_site_symmetry_multiplicity
 _atom_site_fract_x
 _atom_site_fract_y
 _atom_site_fract_z
 _atom_site_occupancy
  Sm  Sm0  1  0.000000  0.626267  0.349861  1
  Sm  Sm1  1  0.000000  0.373725  0.650735  1
  Sm  Sm2  1  0.000000  0.126222  0.149712  1
  Tm  Tm3  1  0.000000  0.873549  0.850524  1
  B  B4  1  0.500000  0.784382  0.184690  1
  B  B5  1  0.500000  0.212146  0.814877  1
  B  B6  1  0.500000  0.284333  0.314523  1
  B  B7  1  0.500000  0.716097  0.687491  1
  B  B8  1  0.500000  0.865911  0.030023  1
  B  B9  1  0.500000  0.133607  0.966480  1
  B  B10  1  0.500000  0.364953  0.468422  1
  B  B11  1  0.500000  0.635201  0.532879  1
  B  B12  1  0.500000  0.886909  0.453791  1
  B  B13  1  0.500000  0.112377  0.547686  1
  B  B14  1  0.500000  0.387832  0.045593  1
  B  B15  1  0.500000  0.615771  0.951312  1
  B  B16  1  0.500000  0.975759  0.307889  1
  B  B17  1  0.500000  0.022270  0.694647  1
  B  B18  1  0.500000  0.475938  0.191556  1
  B  B19  1  0.500000  0.526250  0.807524  1
  Mo  Mo20  1  0.000000  0.629745  0.081824  1
  Mo  Mo21  1  0.000000  0.371156  0.915897  1
  Mo  Mo22  1  0.000000  0.128665  0.417321  1
  Mo  Mo23  1  0.000000  0.870935  0.584743  1
