# generated using pymatgen
data_Nd2TmCuS5
_symmetry_space_group_name_H-M   'P 1'
_cell_length_a   11.58220800
_cell_length_b   3.92351600
_cell_length_c   16.95266900
_cell_angle_alpha   90.00000000
_cell_angle_beta   90.00000000
_cell_angle_gamma   90.00000000
_symmetry_Int_Tables_number   1
_chemical_formula_structural   Nd2TmCuS5
_chemical_formula_sum   'Nd8 Tm4 Cu4 S20'
_cell_volume   770.37977125
_cell_formula_units_Z   4
loop_
 _symmetry_equiv_pos_site_id
 _symmetry_equiv_pos_as_xyz
  1  'x, y, z'
loop_
 _atom_site_type_symbol
 _atom_site_label
 _atom_site_symmetry_multiplicity
 _atom_site_fract_x
 _atom_site_fract_y
 _atom_site_fract_z
 _atom_site_occupancy
  Nd  Nd0  1  0.360726  0.250000  0.104534  1
  Nd  Nd1  1  0.012484  0.250000  0.174447  1
  Nd  Nd2  1  0.512484  0.250000  0.325554  1
  Nd  Nd3  1  0.860725  0.250000  0.395466  1
  Nd  Nd4  1  0.139275  0.749999  0.604534  1
  Nd  Nd5  1  0.487516  0.749999  0.674447  1
  Nd  Nd6  1  0.987516  0.749999  0.825554  1
  Nd  Nd7  1  0.639274  0.749999  0.895466  1
  Tm  Tm8  1  0.696711  0.749999  0.136356  1
  Tm  Tm9  1  0.196711  0.749999  0.363645  1
  Tm  Tm10  1  0.803289  0.250000  0.636356  1
  Tm  Tm11  1  0.303289  0.250000  0.863645  1
  Cu  Cu12  1  0.826572  0.250000  0.019465  1
  Cu  Cu13  1  0.326571  0.250000  0.480535  1
  Cu  Cu14  1  0.673429  0.749999  0.519465  1
  Cu  Cu15  1  0.173429  0.749999  0.980535  1
  S  S16  1  0.617582  0.250000  0.031839  1
  S  S17  1  0.904031  0.749999  0.072626  1
  S  S18  1  0.181246  0.749999  0.114851  1
  S  S19  1  0.485091  0.749999  0.198727  1
  S  S20  1  0.759334  0.250000  0.231161  1
  S  S21  1  0.259333  0.250000  0.268839  1
  S  S22  1  0.985090  0.749999  0.301273  1
  S  S23  1  0.681246  0.749999  0.385149  1
  S  S24  1  0.404031  0.749999  0.427374  1
  S  S25  1  0.117582  0.250000  0.468160  1
  S  S26  1  0.882418  0.749999  0.531839  1
  S  S27  1  0.595969  0.250000  0.572626  1
  S  S28  1  0.318755  0.250000  0.614851  1
  S  S29  1  0.014910  0.250000  0.698728  1
  S  S30  1  0.740667  0.749999  0.731161  1
  S  S31  1  0.240666  0.749999  0.768839  1
  S  S32  1  0.514909  0.250000  0.801273  1
  S  S33  1  0.818754  0.250000  0.885149  1
  S  S34  1  0.095969  0.250000  0.927374  1
  S  S35  1  0.382418  0.749999  0.968160  1
