# generated using pymatgen
data_PrYMn6P7Ir6
_symmetry_space_group_name_H-M   'P 1'
_cell_length_a   9.43833300
_cell_length_b   9.43833226
_cell_length_c   3.88392100
_cell_angle_alpha   90.00000000
_cell_angle_beta   90.00000000
_cell_angle_gamma   120.00000611
_symmetry_Int_Tables_number   1
_chemical_formula_structural   PrYMn6P7Ir6
_chemical_formula_sum   'Pr1 Y1 Mn6 P7 Ir6'
_cell_volume   299.63431614
_cell_formula_units_Z   1
loop_
 _symmetry_equiv_pos_site_id
 _symmetry_equiv_pos_as_xyz
  1  'x, y, z'
loop_
 _atom_site_type_symbol
 _atom_site_label
 _atom_site_symmetry_multiplicity
 _atom_site_fract_x
 _atom_site_fract_y
 _atom_site_fract_z
 _atom_site_occupancy
  Pr  Pr0  1  0.000000  0.000000  0.000000  1
  Y  Y1  1  0.666667  0.333333  0.500000  1
  Mn  Mn2  1  0.223575  0.397732  0.000000  1
  Mn  Mn3  1  0.602268  0.825844  0.000000  1
  Mn  Mn4  1  0.174156  0.776425  0.000000  1
  Mn  Mn5  1  0.450556  0.570927  0.500000  1
  Mn  Mn6  1  0.429073  0.879630  0.500000  1
  Mn  Mn7  1  0.120370  0.549444  0.500000  1
  P  P8  1  0.443972  0.365971  0.000000  1
  P  P9  1  0.634029  0.078001  0.000000  1
  P  P10  1  0.921999  0.556028  0.000000  1
  P  P11  1  0.056147  0.274215  0.500000  1
  P  P12  1  0.725785  0.781933  0.500000  1
  P  P13  1  0.218067  0.943853  0.500000  1
  P  P14  1  0.333333  0.666667  0.000000  1
  Ir  Ir15  1  0.693433  0.602250  0.000000  1
  Ir  Ir16  1  0.397750  0.091185  0.000000  1
  Ir  Ir17  1  0.908815  0.306567  0.000000  1
  Ir  Ir18  1  0.284118  0.229740  0.500000  1
  Ir  Ir19  1  0.770260  0.054376  0.500000  1
  Ir  Ir20  1  0.945624  0.715882  0.500000  1
