# generated using pymatgen
data_Tb3Lu9Tc3Rh
_symmetry_space_group_name_H-M   'P 1'
_cell_length_a   6.19044503
_cell_length_b   7.35361217
_cell_length_c   8.93509400
_cell_angle_alpha   90.00000000
_cell_angle_beta   90.00000000
_cell_angle_gamma   90.10467240
_symmetry_Int_Tables_number   1
_chemical_formula_structural   Tb3Lu9Tc3Rh
_chemical_formula_sum   'Tb3 Lu9 Tc3 Rh1'
_cell_volume   406.74384888
_cell_formula_units_Z   1
loop_
 _symmetry_equiv_pos_site_id
 _symmetry_equiv_pos_as_xyz
  1  'x, y, z'
loop_
 _atom_site_type_symbol
 _atom_site_label
 _atom_site_symmetry_multiplicity
 _atom_site_fract_x
 _atom_site_fract_y
 _atom_site_fract_z
 _atom_site_occupancy
  Tb  Tb0  1  0.620772  0.035220  0.250000  1
  Tb  Tb1  1  0.128001  0.456952  0.750000  1
  Tb  Tb2  1  0.378794  0.963956  0.750000  1
  Lu  Lu3  1  0.333423  0.674214  0.066250  1
  Lu  Lu4  1  0.155503  0.177561  0.436323  1
  Lu  Lu5  1  0.659742  0.326052  0.560088  1
  Lu  Lu6  1  0.843902  0.823909  0.939457  1
  Lu  Lu7  1  0.659742  0.326052  0.939912  1
  Lu  Lu8  1  0.843902  0.823909  0.560543  1
  Lu  Lu9  1  0.333423  0.674214  0.433750  1
  Lu  Lu10  1  0.155503  0.177561  0.063677  1
  Lu  Lu11  1  0.875572  0.540066  0.250000  1
  Tc  Tc12  1  0.043953  0.881719  0.250000  1
  Tc  Tc13  1  0.462408  0.383951  0.250000  1
  Tc  Tc14  1  0.953433  0.117605  0.750000  1
  Rh  Rh15  1  0.551927  0.617058  0.750000  1
