# generated using pymatgen
data_Zr3Ni8MoP6
_symmetry_space_group_name_H-M   'P 1'
_cell_length_a   12.21058496
_cell_length_b   12.17432072
_cell_length_c   3.68882800
_cell_angle_alpha   90.00000000
_cell_angle_beta   90.00000000
_cell_angle_gamma   119.90181025
_symmetry_Int_Tables_number   1
_chemical_formula_structural   Zr3Ni8MoP6
_chemical_formula_sum   'Zr6 Ni16 Mo2 P12'
_cell_volume   475.36707469
_cell_formula_units_Z   2
loop_
 _symmetry_equiv_pos_site_id
 _symmetry_equiv_pos_as_xyz
  1  'x, y, z'
loop_
 _atom_site_type_symbol
 _atom_site_label
 _atom_site_symmetry_multiplicity
 _atom_site_fract_x
 _atom_site_fract_y
 _atom_site_fract_z
 _atom_site_occupancy
  Zr  Zr0  1  0.821652  0.820920  0.500000  1
  Zr  Zr1  1  0.000000  0.174325  0.500000  1
  Zr  Zr2  1  0.335888  0.668649  0.000000  1
  Zr  Zr3  1  0.664112  0.332760  0.000000  1
  Zr  Zr4  1  0.000000  0.555346  0.000000  1
  Zr  Zr5  1  0.178348  0.999269  0.500000  1
  Ni  Ni6  1  0.626375  0.818621  0.000000  1
  Ni  Ni7  1  0.373625  0.192246  0.000000  1
  Ni  Ni8  1  0.000000  0.725775  0.500000  1
  Ni  Ni9  1  0.278602  0.278775  0.500000  1
  Ni  Ni10  1  0.871463  0.349725  0.500000  1
  Ni  Ni11  1  0.721398  0.000174  0.500000  1
  Ni  Ni12  1  0.814788  0.628612  0.000000  1
  Ni  Ni13  1  0.185212  0.813824  0.000000  1
  Ni  Ni14  1  0.358031  0.876155  0.500000  1
  Ni  Ni15  1  0.128537  0.478262  0.500000  1
  Ni  Ni16  1  0.641969  0.518124  0.500000  1
  Ni  Ni17  1  0.000000  0.999523  0.000000  1
  Ni  Ni18  1  0.516791  0.646897  0.500000  1
  Ni  Ni19  1  0.483209  0.130105  0.500000  1
  Ni  Ni20  1  0.194158  0.372707  0.000000  1
  Ni  Ni21  1  0.805842  0.178549  0.000000  1
  Mo  Mo22  1  0.446400  0.446862  0.000000  1
  Mo  Mo23  1  0.553600  0.000462  0.000000  1
  P  P24  1  0.000000  0.347356  0.000000  1
  P  P25  1  0.825388  0.514463  0.500000  1
  P  P26  1  0.682990  0.166205  0.500000  1
  P  P27  1  0.177451  0.175433  0.000000  1
  P  P28  1  0.639779  0.642351  0.000000  1
  P  P29  1  0.822549  0.997981  0.000000  1
  P  P30  1  0.518111  0.834916  0.500000  1
  P  P31  1  0.174612  0.689073  0.500000  1
  P  P32  1  0.360221  0.002572  0.000000  1
  P  P33  1  0.481889  0.316807  0.500000  1
  P  P34  1  0.000000  0.822963  0.000000  1
  P  P35  1  0.317010  0.483213  0.500000  1
