# generated using pymatgen
data_AuF8
_symmetry_space_group_name_H-M   'P 1'
_cell_length_a   7.60148700
_cell_length_b   7.02194000
_cell_length_c   11.52578700
_cell_angle_alpha   90.00000000
_cell_angle_beta   90.00000000
_cell_angle_gamma   90.00000000
_symmetry_Int_Tables_number   1
_chemical_formula_structural   AuF8
_chemical_formula_sum   'Au4 F32'
_cell_volume   615.21407217
_cell_formula_units_Z   4
loop_
 _symmetry_equiv_pos_site_id
 _symmetry_equiv_pos_as_xyz
  1  'x, y, z'
loop_
 _atom_site_type_symbol
 _atom_site_label
 _atom_site_symmetry_multiplicity
 _atom_site_fract_x
 _atom_site_fract_y
 _atom_site_fract_z
 _atom_site_occupancy
  Au  Au0  1  0.250000  0.813978  0.562789  1
  Au  Au1  1  0.250000  0.313978  0.937211  1
  Au  Au2  1  0.750000  0.186022  0.437211  1
  Au  Au3  1  0.750000  0.686022  0.062789  1
  F  F4  1  0.750000  0.958652  0.773819  1
  F  F5  1  0.750000  0.458652  0.726181  1
  F  F6  1  0.250000  0.041348  0.226181  1
  F  F7  1  0.250000  0.541348  0.273819  1
  F  F8  1  0.750000  0.627591  0.658711  1
  F  F9  1  0.750000  0.127591  0.841289  1
  F  F10  1  0.250000  0.372409  0.341289  1
  F  F11  1  0.250000  0.872409  0.158711  1
  F  F12  1  0.750000  0.928639  0.497873  1
  F  F13  1  0.750000  0.428639  0.002127  1
  F  F14  1  0.250000  0.071361  0.502127  1
  F  F15  1  0.250000  0.571361  0.997873  1
  F  F16  1  0.930868  0.755060  0.952797  1
  F  F17  1  0.569132  0.255060  0.547203  1
  F  F18  1  0.430868  0.244940  0.047203  1
  F  F19  1  0.069132  0.744940  0.452797  1
  F  F20  1  0.069132  0.244940  0.047203  1
  F  F21  1  0.430868  0.744940  0.452797  1
  F  F22  1  0.569132  0.755060  0.952797  1
  F  F23  1  0.930868  0.255060  0.547203  1
  F  F24  1  0.429686  0.883279  0.673094  1
  F  F25  1  0.070314  0.383279  0.826906  1
  F  F26  1  0.929686  0.116721  0.326906  1
  F  F27  1  0.570314  0.616721  0.173094  1
  F  F28  1  0.570314  0.116721  0.326906  1
  F  F29  1  0.929686  0.616721  0.173094  1
  F  F30  1  0.070314  0.883279  0.673094  1
  F  F31  1  0.429686  0.383279  0.826906  1
  F  F32  1  0.250000  0.557163  0.622444  1
  F  F33  1  0.250000  0.057163  0.877556  1
  F  F34  1  0.750000  0.442837  0.377556  1
  F  F35  1  0.750000  0.942837  0.122444  1
