# generated using pymatgen
data_YTm15Cd4TcNi3
_symmetry_space_group_name_H-M   'P 1'
_cell_length_a   9.51041578
_cell_length_b   9.51041632
_cell_length_c   9.51260886
_cell_angle_alpha   59.36721605
_cell_angle_beta   59.36722292
_cell_angle_gamma   59.28633538
_symmetry_Int_Tables_number   1
_chemical_formula_structural   YTm15Cd4TcNi3
_chemical_formula_sum   'Y1 Tm15 Cd4 Tc1 Ni3'
_cell_volume   599.25414288
_cell_formula_units_Z   1
loop_
 _symmetry_equiv_pos_site_id
 _symmetry_equiv_pos_as_xyz
  1  'x, y, z'
loop_
 _atom_site_type_symbol
 _atom_site_label
 _atom_site_symmetry_multiplicity
 _atom_site_fract_x
 _atom_site_fract_y
 _atom_site_fract_z
 _atom_site_occupancy
  Y  Y0  1  0.188935  0.188935  0.806674  1
  Tm  Tm1  1  0.596803  0.596803  0.596780  1
  Tm  Tm2  1  0.602595  0.602595  0.204212  1
  Tm  Tm3  1  0.602839  0.204272  0.601913  1
  Tm  Tm4  1  0.204272  0.602839  0.601913  1
  Tm  Tm5  1  0.060641  0.437717  0.436411  1
  Tm  Tm6  1  0.436772  0.061076  0.061663  1
  Tm  Tm7  1  0.437717  0.060641  0.436411  1
  Tm  Tm8  1  0.061076  0.436772  0.061663  1
  Tm  Tm9  1  0.437262  0.437262  0.060797  1
  Tm  Tm10  1  0.061455  0.061455  0.436015  1
  Tm  Tm11  1  0.185703  0.814412  0.815510  1
  Tm  Tm12  1  0.804512  0.189852  0.190333  1
  Tm  Tm13  1  0.814412  0.185703  0.815510  1
  Tm  Tm14  1  0.189852  0.804512  0.190333  1
  Tm  Tm15  1  0.815633  0.815633  0.185724  1
  Cd  Cd16  1  0.829872  0.829872  0.829961  1
  Cd  Cd17  1  0.829634  0.829634  0.505351  1
  Cd  Cd18  1  0.828696  0.506281  0.829613  1
  Cd  Cd19  1  0.506281  0.828696  0.829613  1
  Tc  Tc20  1  0.395028  0.395028  0.393293  1
  Ni  Ni21  1  0.392233  0.392233  0.825926  1
  Ni  Ni22  1  0.392111  0.825661  0.392190  1
  Ni  Ni23  1  0.825661  0.392111  0.392190  1
