# generated using pymatgen
data_Hf3BMo(POs)2
_symmetry_space_group_name_H-M   'P 1'
_cell_length_a   6.63288550
_cell_length_b   6.63288544
_cell_length_c   3.44469300
_cell_angle_alpha   90.00000000
_cell_angle_beta   90.00000000
_cell_angle_gamma   119.23321600
_symmetry_Int_Tables_number   1
_chemical_formula_structural   Hf3BMo(POs)2
_chemical_formula_sum   'Hf3 B1 Mo1 P2 Os2'
_cell_volume   132.24832787
_cell_formula_units_Z   1
loop_
 _symmetry_equiv_pos_site_id
 _symmetry_equiv_pos_as_xyz
  1  'x, y, z'
loop_
 _atom_site_type_symbol
 _atom_site_label
 _atom_site_symmetry_multiplicity
 _atom_site_fract_x
 _atom_site_fract_y
 _atom_site_fract_z
 _atom_site_occupancy
  Hf  Hf0  1  0.396898  0.396898  0.500000  1
  Hf  Hf1  1  0.600276  0.997704  0.500000  1
  Hf  Hf2  1  0.997704  0.600276  0.500000  1
  B  B3  1  0.003466  0.003466  0.500000  1
  Mo  Mo4  1  0.760434  0.760434  0.000000  1
  P  P5  1  0.667258  0.333812  0.000000  1
  P  P6  1  0.333812  0.667258  0.000000  1
  Os  Os7  1  0.239505  0.000647  0.000000  1
  Os  Os8  1  0.000647  0.239505  0.000000  1
