# generated using pymatgen
data_Nd2Al9Co2Pd
_symmetry_space_group_name_H-M   'P 1'
_cell_length_a   7.55977840
_cell_length_b   7.55977790
_cell_length_c   9.55065921
_cell_angle_alpha   89.78425949
_cell_angle_beta   89.78426273
_cell_angle_gamma   119.32152614
_symmetry_Int_Tables_number   1
_chemical_formula_structural   Nd2Al9Co2Pd
_chemical_formula_sum   'Nd4 Al18 Co4 Pd2'
_cell_volume   475.88143556
_cell_formula_units_Z   2
loop_
 _symmetry_equiv_pos_site_id
 _symmetry_equiv_pos_as_xyz
  1  'x, y, z'
loop_
 _atom_site_type_symbol
 _atom_site_label
 _atom_site_symmetry_multiplicity
 _atom_site_fract_x
 _atom_site_fract_y
 _atom_site_fract_z
 _atom_site_occupancy
  Nd  Nd0  1  0.004776  0.327906  0.749557  1
  Nd  Nd1  1  0.328713  0.005947  0.749871  1
  Nd  Nd2  1  0.994053  0.671287  0.250129  1
  Nd  Nd3  1  0.672094  0.995224  0.250443  1
  Al  Al4  1  0.656974  0.999024  0.927773  1
  Al  Al5  1  0.008197  0.673085  0.570852  1
  Al  Al6  1  0.131806  0.130493  0.256725  1
  Al  Al7  1  0.659731  0.660292  0.042547  1
  Al  Al8  1  0.327116  0.334059  0.542331  1
  Al  Al9  1  0.339708  0.340269  0.957453  1
  Al  Al10  1  0.665941  0.672884  0.457669  1
  Al  Al11  1  0.342933  0.000256  0.071701  1
  Al  Al12  1  0.008659  0.335608  0.428263  1
  Al  Al13  1  0.340405  0.552139  0.249975  1
  Al  Al14  1  0.000976  0.343026  0.072227  1
  Al  Al15  1  0.547330  0.339815  0.241836  1
  Al  Al16  1  0.660185  0.452670  0.758164  1
  Al  Al17  1  0.869507  0.868194  0.743275  1
  Al  Al18  1  0.999744  0.657067  0.928299  1
  Al  Al19  1  0.664392  0.991341  0.571737  1
  Al  Al20  1  0.326915  0.991803  0.429148  1
  Al  Al21  1  0.447861  0.659595  0.750025  1
  Co  Co22  1  0.670484  0.329516  0.000000  1
  Co  Co23  1  0.330179  0.669821  0.500000  1
  Co  Co24  1  0.000148  0.999852  0.500000  1
  Co  Co25  1  0.329703  0.670297  0.000000  1
  Pd  Pd26  1  0.671432  0.328568  0.500000  1
  Pd  Pd27  1  0.000039  0.999961  0.000000  1
