# generated using pymatgen
data_Ce3BeSi4Rh3
_symmetry_space_group_name_H-M   'P 1'
_cell_length_a   4.08201562
_cell_length_b   4.06549521
_cell_length_c   12.43379786
_cell_angle_alpha   80.59072622
_cell_angle_beta   80.55214160
_cell_angle_gamma   90.00000550
_symmetry_Int_Tables_number   1
_chemical_formula_structural   Ce3BeSi4Rh3
_chemical_formula_sum   'Ce3 Be1 Si4 Rh3'
_cell_volume   200.73013880
_cell_formula_units_Z   1
loop_
 _symmetry_equiv_pos_site_id
 _symmetry_equiv_pos_as_xyz
  1  'x, y, z'
loop_
 _atom_site_type_symbol
 _atom_site_label
 _atom_site_symmetry_multiplicity
 _atom_site_fract_x
 _atom_site_fract_y
 _atom_site_fract_z
 _atom_site_occupancy
  Ce  Ce0  1  0.000985  0.000985  0.998029  1
  Ce  Ce1  1  0.856029  0.356029  0.287944  1
  Ce  Ce2  1  0.145625  0.645625  0.708749  1
  Be  Be3  1  0.596300  0.096300  0.807399  1
  Si  Si4  1  0.692657  0.192657  0.614687  1
  Si  Si5  1  0.302130  0.802130  0.395739  1
  Si  Si6  1  0.455503  0.455503  0.088994  1
  Si  Si7  1  0.553682  0.553682  0.892636  1
  Rh  Rh8  1  0.402130  0.902130  0.195741  1
  Rh  Rh9  1  0.247072  0.247072  0.505855  1
  Rh  Rh10  1  0.747886  0.747886  0.504227  1
