# generated using pymatgen
data_Sc7Br12N
_symmetry_space_group_name_H-M   'P 1'
_cell_length_a   8.63207961
_cell_length_b   8.63207966
_cell_length_c   8.63207931
_cell_angle_alpha   107.97170040
_cell_angle_beta   107.97170225
_cell_angle_gamma   107.97171215
_symmetry_Int_Tables_number   1
_chemical_formula_structural   Sc7Br12N
_chemical_formula_sum   'Sc7 Br12 N1'
_cell_volume   520.81259885
_cell_formula_units_Z   1
loop_
 _symmetry_equiv_pos_site_id
 _symmetry_equiv_pos_as_xyz
  1  'x, y, z'
loop_
 _atom_site_type_symbol
 _atom_site_label
 _atom_site_symmetry_multiplicity
 _atom_site_fract_x
 _atom_site_fract_y
 _atom_site_fract_z
 _atom_site_occupancy
  Sc  Sc0  1  0.475468  0.475468  0.475468  1
  Sc  Sc1  1  0.913396  0.979675  0.719305  1
  Sc  Sc2  1  0.979675  0.719305  0.913396  1
  Sc  Sc3  1  0.719305  0.913396  0.979675  1
  Sc  Sc4  1  0.037662  0.288308  0.101612  1
  Sc  Sc5  1  0.288308  0.101612  0.037662  1
  Sc  Sc6  1  0.101612  0.037662  0.288308  1
  Br  Br7  1  0.226992  0.077798  0.698891  1
  Br  Br8  1  0.077798  0.698891  0.226992  1
  Br  Br9  1  0.698891  0.226992  0.077798  1
  Br  Br10  1  0.548538  0.842798  0.621676  1
  Br  Br11  1  0.842798  0.621676  0.548538  1
  Br  Br12  1  0.621676  0.548538  0.842798  1
  Br  Br13  1  0.925528  0.308489  0.782179  1
  Br  Br14  1  0.308489  0.782179  0.925528  1
  Br  Br15  1  0.782179  0.925528  0.308489  1
  Br  Br16  1  0.384951  0.463442  0.147994  1
  Br  Br17  1  0.463442  0.147994  0.384951  1
  Br  Br18  1  0.147994  0.384951  0.463442  1
  N  N19  1  0.999499  0.999499  0.999499  1
