# generated using pymatgen
data_Pr8Y9Si16Ag3
_symmetry_space_group_name_H-M   'P 1'
_cell_length_a   7.26645800
_cell_length_b   7.79554801
_cell_length_c   14.83031300
_cell_angle_alpha   90.00000000
_cell_angle_beta   90.00000000
_cell_angle_gamma   89.83838486
_symmetry_Int_Tables_number   1
_chemical_formula_structural   Pr8Y9Si16Ag3
_chemical_formula_sum   'Pr8 Y9 Si16 Ag3'
_cell_volume   840.07489770
_cell_formula_units_Z   1
loop_
 _symmetry_equiv_pos_site_id
 _symmetry_equiv_pos_as_xyz
  1  'x, y, z'
loop_
 _atom_site_type_symbol
 _atom_site_label
 _atom_site_symmetry_multiplicity
 _atom_site_fract_x
 _atom_site_fract_y
 _atom_site_fract_z
 _atom_site_occupancy
  Pr  Pr0  1  0.975793  0.815508  0.104829  1
  Pr  Pr1  1  0.477065  0.686661  0.397129  1
  Pr  Pr2  1  0.527318  0.325891  0.899430  1
  Pr  Pr3  1  0.016138  0.188225  0.599443  1
  Pr  Pr4  1  0.016138  0.188225  0.900557  1
  Pr  Pr5  1  0.527318  0.325891  0.600570  1
  Pr  Pr6  1  0.477065  0.686661  0.102871  1
  Pr  Pr7  1  0.975793  0.815508  0.395171  1
  Y  Y8  1  0.349579  0.007087  0.750000  1
  Y  Y9  1  0.683014  0.809875  0.874610  1
  Y  Y10  1  0.167668  0.675003  0.625476  1
  Y  Y11  1  0.823683  0.315839  0.128621  1
  Y  Y12  1  0.327076  0.179446  0.373173  1
  Y  Y13  1  0.327076  0.179446  0.126827  1
  Y  Y14  1  0.823683  0.315839  0.371379  1
  Y  Y15  1  0.167668  0.675003  0.874524  1
  Y  Y16  1  0.683014  0.809875  0.625390  1
  Si  Si17  1  0.769050  0.613802  0.250000  1
  Si  Si18  1  0.271936  0.885648  0.250000  1
  Si  Si19  1  0.725238  0.114134  0.750000  1
  Si  Si20  1  0.229844  0.379543  0.750000  1
  Si  Si21  1  0.024544  0.090797  0.250000  1
  Si  Si22  1  0.520755  0.409213  0.250000  1
  Si  Si23  1  0.468177  0.606196  0.750000  1
  Si  Si24  1  0.975556  0.907924  0.750000  1
  Si  Si25  1  0.850715  0.536235  0.972200  1
  Si  Si26  1  0.353415  0.971984  0.539881  1
  Si  Si27  1  0.652779  0.035271  0.031063  1
  Si  Si28  1  0.151957  0.464919  0.463890  1
  Si  Si29  1  0.151957  0.464919  0.036110  1
  Si  Si30  1  0.652779  0.035271  0.468937  1
  Si  Si31  1  0.353415  0.971984  0.960119  1
  Si  Si32  1  0.850715  0.536235  0.527800  1
  Ag  Ag33  1  0.651473  0.980741  0.250000  1
  Ag  Ag34  1  0.151372  0.515866  0.250000  1
  Ag  Ag35  1  0.849231  0.479334  0.750000  1
