# generated using pymatgen
data_Yb2Th(Ga8Pd3)3
_symmetry_space_group_name_H-M   'P 1'
_cell_length_a   8.51994721
_cell_length_b   8.49725537
_cell_length_c   8.51994832
_cell_angle_alpha   90.16775058
_cell_angle_beta   90.50235666
_cell_angle_gamma   90.16774705
_symmetry_Int_Tables_number   1
_chemical_formula_structural   Yb2Th(Ga8Pd3)3
_chemical_formula_sum   'Yb2 Th1 Ga24 Pd9'
_cell_volume   616.78256112
_cell_formula_units_Z   1
loop_
 _symmetry_equiv_pos_site_id
 _symmetry_equiv_pos_as_xyz
  1  'x, y, z'
loop_
 _atom_site_type_symbol
 _atom_site_label
 _atom_site_symmetry_multiplicity
 _atom_site_fract_x
 _atom_site_fract_y
 _atom_site_fract_z
 _atom_site_occupancy
  Yb  Yb0  1  0.500000  0.000000  0.000000  1
  Yb  Yb1  1  0.000000  0.000000  0.500000  1
  Th  Th2  1  0.000000  0.500000  0.000000  1
  Ga  Ga3  1  0.988412  0.645430  0.642276  1
  Ga  Ga4  1  0.642276  0.645430  0.988412  1
  Ga  Ga5  1  0.643491  0.988549  0.643491  1
  Ga  Ga6  1  0.011588  0.354570  0.357724  1
  Ga  Ga7  1  0.357724  0.354570  0.011588  1
  Ga  Ga8  1  0.356509  0.011451  0.356509  1
  Ga  Ga9  1  0.736810  0.500000  0.263190  1
  Ga  Ga10  1  0.263190  0.500000  0.736810  1
  Ga  Ga11  1  0.500157  0.256729  0.742058  1
  Ga  Ga12  1  0.499843  0.743271  0.257942  1
  Ga  Ga13  1  0.257942  0.743271  0.499843  1
  Ga  Ga14  1  0.742058  0.256729  0.500157  1
  Ga  Ga15  1  0.838744  0.141049  0.838744  1
  Ga  Ga16  1  0.141924  0.840047  0.838276  1
  Ga  Ga17  1  0.838276  0.840047  0.141924  1
  Ga  Ga18  1  0.161256  0.858951  0.161256  1
  Ga  Ga19  1  0.858076  0.159953  0.161724  1
  Ga  Ga20  1  0.161724  0.159953  0.858076  1
  Ga  Ga21  1  0.729822  0.484139  0.729822  1
  Ga  Ga22  1  0.484611  0.734391  0.733339  1
  Ga  Ga23  1  0.733339  0.734391  0.484611  1
  Ga  Ga24  1  0.270178  0.515861  0.270178  1
  Ga  Ga25  1  0.515389  0.265609  0.266661  1
  Ga  Ga26  1  0.266661  0.265609  0.515389  1
  Pd  Pd27  1  0.836335  0.833669  0.836335  1
  Pd  Pd28  1  0.163665  0.166331  0.163665  1
  Pd  Pd29  1  0.663648  0.334943  0.000339  1
  Pd  Pd30  1  0.000339  0.334943  0.663648  1
  Pd  Pd31  1  0.334670  0.000000  0.665330  1
  Pd  Pd32  1  0.336352  0.665057  0.999661  1
  Pd  Pd33  1  0.999661  0.665057  0.336352  1
  Pd  Pd34  1  0.665330  0.000000  0.334670  1
  Pd  Pd35  1  0.500000  0.500000  0.500000  1
