# generated using pymatgen
data_Y3Zn3Ag2Ir
_symmetry_space_group_name_H-M   'P 1'
_cell_length_a   7.61012500
_cell_length_b   7.61013242
_cell_length_c   3.76921200
_cell_angle_alpha   90.00000000
_cell_angle_beta   90.00000000
_cell_angle_gamma   120.00018826
_symmetry_Int_Tables_number   1
_chemical_formula_structural   Y3Zn3Ag2Ir
_chemical_formula_sum   'Y3 Zn3 Ag2 Ir1'
_cell_volume   189.04464383
_cell_formula_units_Z   1
loop_
 _symmetry_equiv_pos_site_id
 _symmetry_equiv_pos_as_xyz
  1  'x, y, z'
loop_
 _atom_site_type_symbol
 _atom_site_label
 _atom_site_symmetry_multiplicity
 _atom_site_fract_x
 _atom_site_fract_y
 _atom_site_fract_z
 _atom_site_occupancy
  Y  Y0  1  0.581615  0.605305  0.000000  1
  Y  Y1  1  0.394695  0.976309  0.000000  1
  Y  Y2  1  0.023691  0.418386  0.000000  1
  Zn  Zn3  1  0.262134  0.268203  0.500000  1
  Zn  Zn4  1  0.731797  0.993929  0.500000  1
  Zn  Zn5  1  0.006070  0.737868  0.500000  1
  Ag  Ag6  1  0.000000  0.000000  0.000000  1
  Ag  Ag7  1  0.666666  0.333333  0.500000  1
  Ir  Ir8  1  0.333334  0.666667  0.500000  1
