# generated using pymatgen
data_Dy12In2Os3
_symmetry_space_group_name_H-M   'P 1'
_cell_length_a   8.47307391
_cell_length_b   8.47307493
_cell_length_c   8.47307402
_cell_angle_alpha   109.40144864
_cell_angle_beta   109.40145677
_cell_angle_gamma   109.61084750
_symmetry_Int_Tables_number   1
_chemical_formula_structural   Dy12In2Os3
_chemical_formula_sum   'Dy12 In2 Os3'
_cell_volume   468.27310237
_cell_formula_units_Z   1
loop_
 _symmetry_equiv_pos_site_id
 _symmetry_equiv_pos_as_xyz
  1  'x, y, z'
loop_
 _atom_site_type_symbol
 _atom_site_label
 _atom_site_symmetry_multiplicity
 _atom_site_fract_x
 _atom_site_fract_y
 _atom_site_fract_z
 _atom_site_occupancy
  Dy  Dy0  1  0.318582  0.318582  0.637063  1
  Dy  Dy1  1  0.681518  0.681518  0.362937  1
  Dy  Dy2  1  0.681518  0.318582  0.000000  1
  Dy  Dy3  1  0.318582  0.681518  0.000000  1
  Dy  Dy4  1  0.184976  0.426540  0.241565  1
  Dy  Dy5  1  0.815213  0.573918  0.758704  1
  Dy  Dy6  1  0.184976  0.943409  0.758435  1
  Dy  Dy7  1  0.943409  0.184976  0.758435  1
  Dy  Dy8  1  0.815213  0.056510  0.241296  1
  Dy  Dy9  1  0.056510  0.815213  0.241296  1
  Dy  Dy10  1  0.426540  0.184976  0.241565  1
  Dy  Dy11  1  0.573918  0.815213  0.758704  1
  In  In12  1  0.999494  0.499494  0.500000  1
  In  In13  1  0.499494  0.999494  0.500000  1
  Os  Os14  1  0.654699  0.654699  0.000000  1
  Os  Os15  1  0.345196  0.345196  0.000000  1
  Os  Os16  1  0.000165  0.000165  0.000000  1
