# generated using pymatgen
data_Y8NiAg2Rh
_symmetry_space_group_name_H-M   'P 1'
_cell_length_a   9.54038812
_cell_length_b   9.54038815
_cell_length_c   9.58166500
_cell_angle_alpha   59.85677230
_cell_angle_beta   59.85677222
_cell_angle_gamma   59.88588188
_symmetry_Int_Tables_number   1
_chemical_formula_structural   Y8NiAg2Rh
_chemical_formula_sum   'Y16 Ni2 Ag4 Rh2'
_cell_volume   614.80889841
_cell_formula_units_Z   2
loop_
 _symmetry_equiv_pos_site_id
 _symmetry_equiv_pos_as_xyz
  1  'x, y, z'
loop_
 _atom_site_type_symbol
 _atom_site_label
 _atom_site_symmetry_multiplicity
 _atom_site_fract_x
 _atom_site_fract_y
 _atom_site_fract_z
 _atom_site_occupancy
  Y  Y0  1  0.603163  0.603163  0.594204  1
  Y  Y1  1  0.603163  0.603163  0.199468  1
  Y  Y2  1  0.608699  0.192465  0.599417  1
  Y  Y3  1  0.192465  0.608699  0.599417  1
  Y  Y4  1  0.059021  0.437212  0.439240  1
  Y  Y5  1  0.437212  0.059021  0.064527  1
  Y  Y6  1  0.437212  0.059021  0.439240  1
  Y  Y7  1  0.059021  0.437212  0.064527  1
  Y  Y8  1  0.438245  0.438245  0.061755  1
  Y  Y9  1  0.060705  0.060705  0.439295  1
  Y  Y10  1  0.185739  0.813382  0.815850  1
  Y  Y11  1  0.813382  0.185739  0.185030  1
  Y  Y12  1  0.813382  0.185739  0.815850  1
  Y  Y13  1  0.185739  0.813382  0.185030  1
  Y  Y14  1  0.815582  0.815582  0.184418  1
  Y  Y15  1  0.187276  0.187276  0.812724  1
  Ni  Ni16  1  0.392158  0.821717  0.393062  1
  Ni  Ni17  1  0.821717  0.392158  0.393062  1
  Ag  Ag18  1  0.831660  0.831660  0.832652  1
  Ag  Ag19  1  0.831660  0.831660  0.504029  1
  Ag  Ag20  1  0.831227  0.505220  0.831776  1
  Ag  Ag21  1  0.505220  0.831227  0.831776  1
  Rh  Rh22  1  0.393175  0.393175  0.393878  1
  Rh  Rh23  1  0.393175  0.393175  0.819772  1
