# generated using pymatgen
data_Tb11Tm5CdCo4Hg3
_symmetry_space_group_name_H-M   'P 1'
_cell_length_a   9.44557208
_cell_length_b   9.44585193
_cell_length_c   9.45337034
_cell_angle_alpha   60.14678086
_cell_angle_beta   60.10986281
_cell_angle_gamma   60.16814738
_symmetry_Int_Tables_number   1
_chemical_formula_structural   Tb11Tm5CdCo4Hg3
_chemical_formula_sum   'Tb11 Tm5 Cd1 Co4 Hg3'
_cell_volume   598.31736389
_cell_formula_units_Z   1
loop_
 _symmetry_equiv_pos_site_id
 _symmetry_equiv_pos_as_xyz
  1  'x, y, z'
loop_
 _atom_site_type_symbol
 _atom_site_label
 _atom_site_symmetry_multiplicity
 _atom_site_fract_x
 _atom_site_fract_y
 _atom_site_fract_z
 _atom_site_occupancy
  Tb  Tb0  1  0.811520  0.187246  0.811578  1
  Tb  Tb1  1  0.437938  0.060320  0.438032  1
  Tb  Tb2  1  0.598725  0.206559  0.599142  1
  Tb  Tb3  1  0.811113  0.810598  0.188853  1
  Tb  Tb4  1  0.207948  0.598893  0.597901  1
  Tb  Tb5  1  0.810992  0.187942  0.189758  1
  Tb  Tb6  1  0.061228  0.438136  0.437309  1
  Tb  Tb7  1  0.189654  0.810951  0.187735  1
  Tb  Tb8  1  0.596792  0.598581  0.207481  1
  Tb  Tb9  1  0.190159  0.186337  0.811622  1
  Tb  Tb10  1  0.064192  0.436465  0.061973  1
  Tm  Tm11  1  0.437852  0.438925  0.059609  1
  Tm  Tm12  1  0.595348  0.596148  0.598192  1
  Tm  Tm13  1  0.190073  0.810099  0.810812  1
  Tm  Tm14  1  0.061959  0.060610  0.438027  1
  Tm  Tm15  1  0.437261  0.062334  0.061710  1
  Cd  Cd16  1  0.828036  0.512680  0.829050  1
  Co  Co17  1  0.391231  0.389498  0.390882  1
  Co  Co18  1  0.827536  0.390478  0.393011  1
  Co  Co19  1  0.391554  0.827221  0.392892  1
  Co  Co20  1  0.392476  0.391342  0.827945  1
  Hg  Hg21  1  0.834417  0.833004  0.497923  1
  Hg  Hg22  1  0.835313  0.833316  0.833861  1
  Hg  Hg23  1  0.496684  0.832318  0.834706  1
