# generated using pymatgen
data_Tb6Dy(HoSn2)3
_symmetry_space_group_name_H-M   'P 1'
_cell_length_a   8.99907900
_cell_length_b   8.99907873
_cell_length_c   6.55807900
_cell_angle_alpha   90.00000000
_cell_angle_beta   90.00000000
_cell_angle_gamma   119.99999732
_symmetry_Int_Tables_number   1
_chemical_formula_structural   Tb6Dy(HoSn2)3
_chemical_formula_sum   'Tb6 Dy1 Ho3 Sn6'
_cell_volume   459.94235336
_cell_formula_units_Z   1
loop_
 _symmetry_equiv_pos_site_id
 _symmetry_equiv_pos_as_xyz
  1  'x, y, z'
loop_
 _atom_site_type_symbol
 _atom_site_label
 _atom_site_symmetry_multiplicity
 _atom_site_fract_x
 _atom_site_fract_y
 _atom_site_fract_z
 _atom_site_occupancy
  Tb  Tb0  1  0.999986  0.760892  0.750008  1
  Tb  Tb1  1  0.999986  0.239094  0.249992  1
  Tb  Tb2  1  0.760906  0.760892  0.249992  1
  Tb  Tb3  1  0.760906  0.000014  0.750008  1
  Tb  Tb4  1  0.239108  0.239094  0.750008  1
  Tb  Tb5  1  0.239108  0.000014  0.249992  1
  Dy  Dy6  1  0.333333  0.666667  0.500000  1
  Ho  Ho7  1  0.666667  0.333333  0.000000  1
  Ho  Ho8  1  0.666667  0.333333  0.500000  1
  Ho  Ho9  1  0.333333  0.666667  0.000000  1
  Sn  Sn10  1  0.395711  0.000051  0.750033  1
  Sn  Sn11  1  0.395711  0.395660  0.249967  1
  Sn  Sn12  1  0.999949  0.604289  0.249967  1
  Sn  Sn13  1  0.999949  0.395660  0.750033  1
  Sn  Sn14  1  0.604340  0.604289  0.750033  1
  Sn  Sn15  1  0.604340  0.000051  0.249967  1
