# generated using pymatgen
data_Ca3Mg3AgHg2
_symmetry_space_group_name_H-M   'P 1'
_cell_length_a   8.07890700
_cell_length_b   8.07890751
_cell_length_c   4.17045000
_cell_angle_alpha   90.00000000
_cell_angle_beta   90.00000000
_cell_angle_gamma   120.00000200
_symmetry_Int_Tables_number   1
_chemical_formula_structural   Ca3Mg3AgHg2
_chemical_formula_sum   'Ca3 Mg3 Ag1 Hg2'
_cell_volume   235.73213353
_cell_formula_units_Z   1
loop_
 _symmetry_equiv_pos_site_id
 _symmetry_equiv_pos_as_xyz
  1  'x, y, z'
loop_
 _atom_site_type_symbol
 _atom_site_label
 _atom_site_symmetry_multiplicity
 _atom_site_fract_x
 _atom_site_fract_y
 _atom_site_fract_z
 _atom_site_occupancy
  Ca  Ca0  1  0.407413  0.000000  0.000000  1
  Ca  Ca1  1  0.000000  0.407413  0.000000  1
  Ca  Ca2  1  0.592587  0.592587  0.000000  1
  Mg  Mg3  1  0.755297  0.000000  0.500000  1
  Mg  Mg4  1  0.244704  0.244704  0.500000  1
  Mg  Mg5  1  0.000000  0.755296  0.500000  1
  Ag  Ag6  1  0.000000  0.000000  0.000000  1
  Hg  Hg7  1  0.666667  0.333334  0.500000  1
  Hg  Hg8  1  0.333333  0.666666  0.500000  1
