# generated using pymatgen
data_Ho3Er2Ta3(Co4P3)4
_symmetry_space_group_name_H-M   'P 1'
_cell_length_a   12.15067404
_cell_length_b   12.15232201
_cell_length_c   3.68731000
_cell_angle_alpha   90.00000000
_cell_angle_beta   90.00000000
_cell_angle_gamma   120.00448980
_symmetry_Int_Tables_number   1
_chemical_formula_structural   Ho3Er2Ta3(Co4P3)4
_chemical_formula_sum   'Ho3 Er2 Ta3 Co16 P12'
_cell_volume   471.49845264
_cell_formula_units_Z   1
loop_
 _symmetry_equiv_pos_site_id
 _symmetry_equiv_pos_as_xyz
  1  'x, y, z'
loop_
 _atom_site_type_symbol
 _atom_site_label
 _atom_site_symmetry_multiplicity
 _atom_site_fract_x
 _atom_site_fract_y
 _atom_site_fract_z
 _atom_site_occupancy
  Ho  Ho0  1  0.666680  0.333341  0.000000  1
  Ho  Ho1  1  0.333320  0.666662  0.000000  1
  Ho  Ho2  1  0.000000  0.183839  0.500000  1
  Er  Er3  1  0.816177  0.816096  0.500000  1
  Er  Er4  1  0.183823  0.999918  0.500000  1
  Ta  Ta5  1  0.443779  0.443743  0.000000  1
  Ta  Ta6  1  0.556221  0.999964  0.000000  1
  Ta  Ta7  1  0.000000  0.556443  0.000000  1
  Co  Co8  1  0.873393  0.354906  0.500000  1
  Co  Co9  1  0.645199  0.518608  0.500000  1
  Co  Co10  1  0.481426  0.126615  0.500000  1
  Co  Co11  1  0.354801  0.873409  0.500000  1
  Co  Co12  1  0.518574  0.645189  0.500000  1
  Co  Co13  1  0.126607  0.481513  0.500000  1
  Co  Co14  1  0.802441  0.176729  0.000000  1
  Co  Co15  1  0.823256  0.625935  0.000000  1
  Co  Co16  1  0.374063  0.197306  0.000000  1
  Co  Co17  1  0.176744  0.802680  0.000000  1
  Co  Co18  1  0.625937  0.823244  0.000000  1
  Co  Co19  1  0.197559  0.374289  0.000000  1
  Co  Co20  1  0.280091  0.279938  0.500000  1
  Co  Co21  1  0.719909  0.999847  0.500000  1
  Co  Co22  1  0.000000  0.720075  0.500000  1
  Co  Co23  1  0.000000  0.999753  0.000000  1
  P  P24  1  0.688453  0.168427  0.500000  1
  P  P25  1  0.831576  0.520014  0.500000  1
  P  P26  1  0.480032  0.311595  0.500000  1
  P  P27  1  0.168424  0.688438  0.500000  1
  P  P28  1  0.519968  0.831564  0.500000  1
  P  P29  1  0.311547  0.479975  0.500000  1
  P  P30  1  0.177574  0.177275  0.000000  1
  P  P31  1  0.822426  0.999700  0.000000  1
  P  P32  1  0.000000  0.822672  0.000000  1
  P  P33  1  0.644755  0.644759  0.000000  1
  P  P34  1  0.355245  0.000004  0.000000  1
  P  P35  1  0.000000  0.355535  0.000000  1
