# generated using pymatgen
data_Be2AlV12Ga5N4
_symmetry_space_group_name_H-M   'P 1'
_cell_length_a   6.52842344
_cell_length_b   6.53970132
_cell_length_c   6.53055441
_cell_angle_alpha   90.08739316
_cell_angle_beta   90.05852941
_cell_angle_gamma   90.05659825
_symmetry_Int_Tables_number   1
_chemical_formula_structural   Be2AlV12Ga5N4
_chemical_formula_sum   'Be2 Al1 V12 Ga5 N4'
_cell_volume   278.81448776
_cell_formula_units_Z   1
loop_
 _symmetry_equiv_pos_site_id
 _symmetry_equiv_pos_as_xyz
  1  'x, y, z'
loop_
 _atom_site_type_symbol
 _atom_site_label
 _atom_site_symmetry_multiplicity
 _atom_site_fract_x
 _atom_site_fract_y
 _atom_site_fract_z
 _atom_site_occupancy
  Be  Be0  1  0.321306  0.178908  0.825961  1
  Be  Be1  1  0.822777  0.320348  0.174993  1
  Al  Al2  1  0.178472  0.822885  0.319825  1
  V  V3  1  0.792667  0.962433  0.371892  1
  V  V4  1  0.705688  0.041931  0.875748  1
  V  V5  1  0.207641  0.458534  0.124011  1
  V  V6  1  0.291614  0.538460  0.626824  1
  V  V7  1  0.961595  0.371285  0.794525  1
  V  V8  1  0.041910  0.876994  0.708285  1
  V  V9  1  0.461398  0.126168  0.207313  1
  V  V10  1  0.541882  0.624736  0.290679  1
  V  V11  1  0.373011  0.793405  0.958918  1
  V  V12  1  0.875371  0.706408  0.041488  1
  V  V13  1  0.125289  0.207824  0.460956  1
  V  V14  1  0.627366  0.292920  0.539300  1
  Ga  Ga15  1  0.679143  0.678553  0.680634  1
  Ga  Ga16  1  0.570562  0.413813  0.936211  1
  Ga  Ga17  1  0.424035  0.943549  0.582282  1
  Ga  Ga18  1  0.925760  0.557694  0.416769  1
  Ga  Ga19  1  0.070695  0.085080  0.065245  1
  N  N20  1  0.875134  0.124647  0.625013  1
  N  N21  1  0.625667  0.875125  0.123688  1
  N  N22  1  0.124595  0.623854  0.874101  1
  N  N23  1  0.376420  0.374446  0.375337  1
