# generated using pymatgen
data_Sc8Ni9(P4Rh)3
_symmetry_space_group_name_H-M   'P 1'
_cell_length_a   3.68229900
_cell_length_b   10.13786626
_cell_length_c   12.38178928
_cell_angle_alpha   89.89453933
_cell_angle_beta   90.00000000
_cell_angle_gamma   90.00000000
_symmetry_Int_Tables_number   1
_chemical_formula_structural   Sc8Ni9(P4Rh)3
_chemical_formula_sum   'Sc8 Ni9 P12 Rh3'
_cell_volume   462.21951849
_cell_formula_units_Z   1
loop_
 _symmetry_equiv_pos_site_id
 _symmetry_equiv_pos_as_xyz
  1  'x, y, z'
loop_
 _atom_site_type_symbol
 _atom_site_label
 _atom_site_symmetry_multiplicity
 _atom_site_fract_x
 _atom_site_fract_y
 _atom_site_fract_z
 _atom_site_occupancy
  Sc  Sc0  1  0.250000  0.344017  0.996575  1
  Sc  Sc1  1  0.250000  0.158437  0.496773  1
  Sc  Sc2  1  0.750000  0.655903  0.002714  1
  Sc  Sc3  1  0.750000  0.842415  0.504030  1
  Sc  Sc4  1  0.250000  0.425391  0.712782  1
  Sc  Sc5  1  0.250000  0.071550  0.215955  1
  Sc  Sc6  1  0.750000  0.573607  0.285591  1
  Sc  Sc7  1  0.750000  0.928904  0.784214  1
  Ni  Ni8  1  0.750000  0.401476  0.520199  1
  Ni  Ni9  1  0.250000  0.134435  0.715517  1
  Ni  Ni10  1  0.250000  0.367573  0.217517  1
  Ni  Ni11  1  0.750000  0.867698  0.283934  1
  Ni  Ni12  1  0.750000  0.630608  0.781787  1
  Ni  Ni13  1  0.250000  0.770036  0.168892  1
  Ni  Ni14  1  0.250000  0.730224  0.667779  1
  Ni  Ni15  1  0.750000  0.229346  0.830804  1
  Ni  Ni16  1  0.750000  0.274287  0.335032  1
  P  P17  1  0.250000  0.106762  0.892400  1
  P  P18  1  0.250000  0.393307  0.395848  1
  P  P19  1  0.750000  0.893610  0.106332  1
  P  P20  1  0.750000  0.601449  0.605304  1
  P  P21  1  0.250000  0.731878  0.847963  1
  P  P22  1  0.250000  0.767079  0.351529  1
  P  P23  1  0.750000  0.266300  0.153166  1
  P  P24  1  0.750000  0.235934  0.645316  1
  P  P25  1  0.250000  0.555792  0.126053  1
  P  P26  1  0.250000  0.945207  0.625083  1
  P  P27  1  0.750000  0.443528  0.874085  1
  P  P28  1  0.750000  0.056674  0.374899  1
  Rh  Rh29  1  0.250000  0.898356  0.978447  1
  Rh  Rh30  1  0.250000  0.595437  0.481973  1
  Rh  Rh31  1  0.750000  0.102779  0.021505  1
