# generated using pymatgen
data_Ho2Ga2Ru2C
_symmetry_space_group_name_H-M   'P 1'
_cell_length_a   6.02704366
_cell_length_b   6.02704417
_cell_length_c   7.03121375
_cell_angle_alpha   127.02752790
_cell_angle_beta   127.02753276
_cell_angle_gamma   39.50875907
_symmetry_Int_Tables_number   1
_chemical_formula_structural   Ho2Ga2Ru2C
_chemical_formula_sum   'Ho2 Ga2 Ru2 C1'
_cell_volume   124.87398279
_cell_formula_units_Z   1
loop_
 _symmetry_equiv_pos_site_id
 _symmetry_equiv_pos_as_xyz
  1  'x, y, z'
loop_
 _atom_site_type_symbol
 _atom_site_label
 _atom_site_symmetry_multiplicity
 _atom_site_fract_x
 _atom_site_fract_y
 _atom_site_fract_z
 _atom_site_occupancy
  Ho  Ho0  1  0.438981  0.438981  0.167205  1
  Ho  Ho1  1  0.561019  0.561019  0.832796  1
  Ga  Ga2  1  0.850180  0.850180  0.389857  1
  Ga  Ga3  1  0.149820  0.149820  0.610144  1
  Ru  Ru4  1  0.199119  0.199119  0.304708  1
  Ru  Ru5  1  0.800881  0.800881  0.695292  1
  C  C6  1  0.000000  0.000000  0.000000  1
