# generated using pymatgen
data_Pa7Zn8CdRh8
_symmetry_space_group_name_H-M   'P 1'
_cell_length_a   3.83009400
_cell_length_b   7.27058216
_cell_length_c   16.33206060
_cell_angle_alpha   90.08747976
_cell_angle_beta   90.00000000
_cell_angle_gamma   90.00000000
_symmetry_Int_Tables_number   1
_chemical_formula_structural   Pa7Zn8CdRh8
_chemical_formula_sum   'Pa7 Zn8 Cd1 Rh8'
_cell_volume   454.79857557
_cell_formula_units_Z   1
loop_
 _symmetry_equiv_pos_site_id
 _symmetry_equiv_pos_as_xyz
  1  'x, y, z'
loop_
 _atom_site_type_symbol
 _atom_site_label
 _atom_site_symmetry_multiplicity
 _atom_site_fract_x
 _atom_site_fract_y
 _atom_site_fract_z
 _atom_site_occupancy
  Pa  Pa0  1  0.250000  0.171285  0.935888  1
  Pa  Pa1  1  0.250000  0.675724  0.565331  1
  Pa  Pa2  1  0.750000  0.335930  0.441351  1
  Pa  Pa3  1  0.750000  0.941227  0.285075  1
  Pa  Pa4  1  0.750000  0.828867  0.060378  1
  Pa  Pa5  1  0.750000  0.439334  0.216075  1
  Pa  Pa6  1  0.250000  0.056354  0.716816  1
  Zn  Zn7  1  0.750000  0.013199  0.559819  1
  Zn  Zn8  1  0.250000  0.612281  0.345579  1
  Zn  Zn9  1  0.750000  0.393771  0.661553  1
  Zn  Zn10  1  0.250000  0.491402  0.061435  1
  Zn  Zn11  1  0.750000  0.511632  0.932114  1
  Zn  Zn12  1  0.250000  0.994161  0.439218  1
  Zn  Zn13  1  0.250000  0.113612  0.154818  1
  Zn  Zn14  1  0.750000  0.868559  0.843675  1
  Cd  Cd15  1  0.250000  0.553763  0.782698  1
  Rh  Rh16  1  0.750000  0.735189  0.443304  1
  Rh  Rh17  1  0.250000  0.237846  0.313926  1
  Rh  Rh18  1  0.750000  0.237997  0.814469  1
  Rh  Rh19  1  0.750000  0.775219  0.680245  1
  Rh  Rh20  1  0.250000  0.271574  0.558009  1
  Rh  Rh21  1  0.250000  0.737757  0.188792  1
  Rh  Rh22  1  0.750000  0.231906  0.054816  1
  Rh  Rh23  1  0.250000  0.771412  0.944615  1
