# generated using pymatgen
data_Sc22Tc3Ir3Os2
_symmetry_space_group_name_H-M   'P 1'
_cell_length_a   9.45354356
_cell_length_b   9.48815273
_cell_length_c   9.49162091
_cell_angle_alpha   60.17890540
_cell_angle_beta   60.10757065
_cell_angle_gamma   60.14537631
_symmetry_Int_Tables_number   1
_chemical_formula_structural   Sc22Tc3Ir3Os2
_chemical_formula_sum   'Sc22 Tc3 Ir3 Os2'
_cell_volume   603.96972458
_cell_formula_units_Z   1
loop_
 _symmetry_equiv_pos_site_id
 _symmetry_equiv_pos_as_xyz
  1  'x, y, z'
loop_
 _atom_site_type_symbol
 _atom_site_label
 _atom_site_symmetry_multiplicity
 _atom_site_fract_x
 _atom_site_fract_y
 _atom_site_fract_z
 _atom_site_occupancy
  Sc  Sc0  1  0.803028  0.801449  0.198548  1
  Sc  Sc1  1  0.196679  0.801810  0.198201  1
  Sc  Sc2  1  0.802397  0.197605  0.197614  1
  Sc  Sc3  1  0.196972  0.198551  0.801452  1
  Sc  Sc4  1  0.803321  0.198190  0.801799  1
  Sc  Sc5  1  0.197603  0.802395  0.802386  1
  Sc  Sc6  1  0.616365  0.614759  0.150985  1
  Sc  Sc7  1  0.617913  0.150966  0.614761  1
  Sc  Sc8  1  0.148727  0.616599  0.615168  1
  Sc  Sc9  1  0.619515  0.615168  0.616587  1
  Sc  Sc10  1  0.383635  0.385241  0.849015  1
  Sc  Sc11  1  0.382087  0.849034  0.385239  1
  Sc  Sc12  1  0.851273  0.383401  0.384832  1
  Sc  Sc13  1  0.380485  0.384832  0.383413  1
  Sc  Sc14  1  0.843620  0.843779  0.468778  1
  Sc  Sc15  1  0.843857  0.468771  0.843766  1
  Sc  Sc16  1  0.469437  0.844080  0.843642  1
  Sc  Sc17  1  0.842840  0.843672  0.844051  1
  Sc  Sc18  1  0.156380  0.156221  0.531222  1
  Sc  Sc19  1  0.156143  0.531229  0.156234  1
  Sc  Sc20  1  0.530563  0.155920  0.156358  1
  Sc  Sc21  1  0.157160  0.156328  0.155949  1
  Tc  Tc22  1  0.000000  0.000000  0.000000  1
  Tc  Tc23  1  0.000000  0.000000  0.500000  1
  Tc  Tc24  1  0.500000  0.500000  0.000000  1
  Ir  Ir25  1  0.500000  0.000000  0.500000  1
  Ir  Ir26  1  0.000000  0.500000  0.000000  1
  Ir  Ir27  1  0.500000  0.000000  0.000000  1
  Os  Os28  1  0.500000  0.500000  0.500000  1
  Os  Os29  1  0.000000  0.500000  0.500000  1
