# generated using pymatgen
data_Tb16InCo4Hg3
_symmetry_space_group_name_H-M   'P 1'
_cell_length_a   9.54890159
_cell_length_b   9.55546853
_cell_length_c   9.54988505
_cell_angle_alpha   60.02921424
_cell_angle_beta   60.00587555
_cell_angle_gamma   60.02523820
_symmetry_Int_Tables_number   1
_chemical_formula_structural   Tb16InCo4Hg3
_chemical_formula_sum   'Tb16 In1 Co4 Hg3'
_cell_volume   616.43380349
_cell_formula_units_Z   1
loop_
 _symmetry_equiv_pos_site_id
 _symmetry_equiv_pos_as_xyz
  1  'x, y, z'
loop_
 _atom_site_type_symbol
 _atom_site_label
 _atom_site_symmetry_multiplicity
 _atom_site_fract_x
 _atom_site_fract_y
 _atom_site_fract_z
 _atom_site_occupancy
  Tb  Tb0  1  0.439156  0.437581  0.061795  1
  Tb  Tb1  1  0.596963  0.596737  0.596771  1
  Tb  Tb2  1  0.188382  0.810848  0.812391  1
  Tb  Tb3  1  0.062857  0.061768  0.437682  1
  Tb  Tb4  1  0.437704  0.061641  0.062947  1
  Tb  Tb5  1  0.812429  0.185709  0.812438  1
  Tb  Tb6  1  0.437684  0.061825  0.437676  1
  Tb  Tb7  1  0.597683  0.207054  0.597501  1
  Tb  Tb8  1  0.812382  0.810845  0.188391  1
  Tb  Tb9  1  0.209564  0.596697  0.596730  1
  Tb  Tb10  1  0.812421  0.185717  0.189441  1
  Tb  Tb11  1  0.061702  0.437565  0.439133  1
  Tb  Tb12  1  0.188388  0.810838  0.188395  1
  Tb  Tb13  1  0.596830  0.596610  0.209641  1
  Tb  Tb14  1  0.189431  0.185714  0.812432  1
  Tb  Tb15  1  0.061513  0.437586  0.061735  1
  In  In16  1  0.829351  0.511949  0.829350  1
  Co  Co17  1  0.390481  0.390935  0.390474  1
  Co  Co18  1  0.828113  0.390932  0.390473  1
  Co  Co19  1  0.390552  0.828347  0.390545  1
  Co  Co20  1  0.390477  0.390929  0.828115  1
  Hg  Hg21  1  0.833932  0.834055  0.498080  1
  Hg  Hg22  1  0.833935  0.834059  0.833934  1
  Hg  Hg23  1  0.498072  0.834059  0.833934  1
