# generated using pymatgen
data_La6AlInSiSe14
_symmetry_space_group_name_H-M   'P 1'
_cell_length_a   10.76337600
_cell_length_b   10.76337733
_cell_length_c   6.26046500
_cell_angle_alpha   90.00000000
_cell_angle_beta   90.00000000
_cell_angle_gamma   120.00000740
_symmetry_Int_Tables_number   1
_chemical_formula_structural   La6AlInSiSe14
_chemical_formula_sum   'La6 Al1 In1 Si1 Se14'
_cell_volume   628.10791839
_cell_formula_units_Z   1
loop_
 _symmetry_equiv_pos_site_id
 _symmetry_equiv_pos_as_xyz
  1  'x, y, z'
loop_
 _atom_site_type_symbol
 _atom_site_label
 _atom_site_symmetry_multiplicity
 _atom_site_fract_x
 _atom_site_fract_y
 _atom_site_fract_z
 _atom_site_occupancy
  La  La0  1  0.804180  0.698841  0.524215  1
  La  La1  1  0.894661  0.195820  0.524215  1
  La  La2  1  0.301159  0.105339  0.524215  1
  La  La3  1  0.520737  0.964578  0.042462  1
  La  La4  1  0.443841  0.479263  0.042462  1
  La  La5  1  0.035422  0.556159  0.042462  1
  Al  Al6  1  0.333333  0.666667  0.448854  1
  In  In7  1  0.666667  0.333333  0.322102  1
  Si  Si8  1  0.000000  0.000000  0.941417  1
  Se  Se9  1  0.000000  0.000000  0.306445  1
  Se  Se10  1  0.333333  0.666667  0.827726  1
  Se  Se11  1  0.083847  0.857835  0.800627  1
  Se  Se12  1  0.773987  0.916153  0.800627  1
  Se  Se13  1  0.142165  0.226013  0.800627  1
  Se  Se14  1  0.240217  0.812044  0.303189  1
  Se  Se15  1  0.571826  0.759783  0.303189  1
  Se  Se16  1  0.187956  0.428174  0.303189  1
  Se  Se17  1  0.921180  0.491461  0.554265  1
  Se  Se18  1  0.570282  0.078820  0.554265  1
  Se  Se19  1  0.508539  0.429718  0.554265  1
  Se  Se20  1  0.418489  0.184893  0.073730  1
  Se  Se21  1  0.766404  0.581511  0.073730  1
  Se  Se22  1  0.815107  0.233596  0.073730  1
