# generated using pymatgen
data_Pr10Si16B
_symmetry_space_group_name_H-M   'P 1'
_cell_length_a   6.83805975
_cell_length_b   8.69013311
_cell_length_c   11.35727925
_cell_angle_alpha   112.49357409
_cell_angle_beta   107.52025015
_cell_angle_gamma   90.00000104
_symmetry_Int_Tables_number   1
_chemical_formula_structural   Pr10Si16B
_chemical_formula_sum   'Pr10 Si16 B1'
_cell_volume   589.51867467
_cell_formula_units_Z   1
loop_
 _symmetry_equiv_pos_site_id
 _symmetry_equiv_pos_as_xyz
  1  'x, y, z'
loop_
 _atom_site_type_symbol
 _atom_site_label
 _atom_site_symmetry_multiplicity
 _atom_site_fract_x
 _atom_site_fract_y
 _atom_site_fract_z
 _atom_site_occupancy
  Pr  Pr0  1  0.237045  0.246327  0.000000  1
  Pr  Pr1  1  0.237045  0.753673  0.000000  1
  Pr  Pr2  1  0.831017  0.350598  0.198491  1
  Pr  Pr3  1  0.831017  0.847892  0.198491  1
  Pr  Pr4  1  0.432445  0.447670  0.397699  1
  Pr  Pr5  1  0.432445  0.950028  0.397699  1
  Pr  Pr6  1  0.034747  0.049972  0.602301  1
  Pr  Pr7  1  0.034747  0.552330  0.602301  1
  Pr  Pr8  1  0.632527  0.152108  0.801509  1
  Pr  Pr9  1  0.632527  0.649402  0.801509  1
  Si  Si10  1  0.882073  0.000000  0.000000  1
  Si  Si11  1  0.592913  0.500000  0.000000  1
  Si  Si12  1  0.140344  0.589588  0.179175  1
  Si  Si13  1  0.497249  0.600057  0.200113  1
  Si  Si14  1  0.503278  0.091849  0.183699  1
  Si  Si15  1  0.166460  0.106225  0.212451  1
  Si  Si16  1  0.792764  0.196730  0.393459  1
  Si  Si17  1  0.101937  0.700847  0.401695  1
  Si  Si18  1  0.757642  0.708243  0.416487  1
  Si  Si19  1  0.341155  0.291757  0.583513  1
  Si  Si20  1  0.700244  0.299153  0.598305  1
  Si  Si21  1  0.399303  0.803270  0.606540  1
  Si  Si22  1  0.954008  0.893775  0.787549  1
  Si  Si23  1  0.319579  0.908151  0.816301  1
  Si  Si24  1  0.297138  0.399943  0.799887  1
  Si  Si25  1  0.961167  0.410412  0.820825  1
  B  B26  1  0.568262  0.000000  0.000000  1
