# generated using pymatgen
data_Y6MgCo17P12
_symmetry_space_group_name_H-M   'P 1'
_cell_length_a   3.71535500
_cell_length_b   10.56414200
_cell_length_c   12.23787500
_cell_angle_alpha   90.00000000
_cell_angle_beta   90.00000000
_cell_angle_gamma   90.00000000
_symmetry_Int_Tables_number   1
_chemical_formula_structural   Y6MgCo17P12
_chemical_formula_sum   'Y6 Mg1 Co17 P12'
_cell_volume   480.33093741
_cell_formula_units_Z   1
loop_
 _symmetry_equiv_pos_site_id
 _symmetry_equiv_pos_as_xyz
  1  'x, y, z'
loop_
 _atom_site_type_symbol
 _atom_site_label
 _atom_site_symmetry_multiplicity
 _atom_site_fract_x
 _atom_site_fract_y
 _atom_site_fract_z
 _atom_site_occupancy
  Y  Y0  1  0.000000  0.500000  0.525130  1
  Y  Y1  1  0.500000  0.000000  0.478842  1
  Y  Y2  1  0.500000  0.821625  0.207266  1
  Y  Y3  1  0.500000  0.178375  0.207266  1
  Y  Y4  1  0.000000  0.683090  0.794464  1
  Y  Y5  1  0.000000  0.316910  0.794464  1
  Mg  Mg6  1  0.500000  0.500000  0.153391  1
  Co  Co7  1  0.000000  0.000000  0.839683  1
  Co  Co8  1  0.500000  0.500000  0.703839  1
  Co  Co9  1  0.000000  0.000000  0.296383  1
  Co  Co10  1  0.000000  0.500000  0.985747  1
  Co  Co11  1  0.500000  0.000000  0.012413  1
  Co  Co12  1  0.500000  0.329211  0.992739  1
  Co  Co13  1  0.500000  0.670789  0.992739  1
  Co  Co14  1  0.000000  0.162740  0.001945  1
  Co  Co15  1  0.000000  0.837260  0.001945  1
  Co  Co16  1  0.500000  0.295821  0.432754  1
  Co  Co17  1  0.500000  0.704179  0.432754  1
  Co  Co18  1  0.000000  0.202120  0.570449  1
  Co  Co19  1  0.000000  0.797880  0.570449  1
  Co  Co20  1  0.500000  0.880395  0.709161  1
  Co  Co21  1  0.500000  0.119605  0.709161  1
  Co  Co22  1  0.000000  0.622590  0.293016  1
  Co  Co23  1  0.000000  0.377410  0.293016  1
  P  P24  1  0.500000  0.500000  0.882964  1
  P  P25  1  0.000000  0.000000  0.116673  1
  P  P26  1  0.500000  0.500000  0.353175  1
  P  P27  1  0.000000  0.000000  0.656152  1
  P  P28  1  0.500000  0.309043  0.617055  1
  P  P29  1  0.500000  0.690957  0.617055  1
  P  P30  1  0.000000  0.189502  0.385750  1
  P  P31  1  0.000000  0.810498  0.385750  1
  P  P32  1  0.500000  0.849710  0.890441  1
  P  P33  1  0.500000  0.150290  0.890441  1
  P  P34  1  0.000000  0.662777  0.102764  1
  P  P35  1  0.000000  0.337223  0.102764  1
