# generated using pymatgen
data_Nd2Er14Cd4Ir3Pd
_symmetry_space_group_name_H-M   'P 1'
_cell_length_a   9.60193387
_cell_length_b   9.60193284
_cell_length_c   9.59803779
_cell_angle_alpha   60.21360708
_cell_angle_beta   60.21360257
_cell_angle_gamma   59.92911345
_symmetry_Int_Tables_number   1
_chemical_formula_structural   Nd2Er14Cd4Ir3Pd
_chemical_formula_sum   'Nd2 Er14 Cd4 Ir3 Pd1'
_cell_volume   627.40041471
_cell_formula_units_Z   1
loop_
 _symmetry_equiv_pos_site_id
 _symmetry_equiv_pos_as_xyz
  1  'x, y, z'
loop_
 _atom_site_type_symbol
 _atom_site_label
 _atom_site_symmetry_multiplicity
 _atom_site_fract_x
 _atom_site_fract_y
 _atom_site_fract_z
 _atom_site_occupancy
  Nd  Nd0  1  0.570192  0.570192  0.932034  1
  Nd  Nd1  1  0.933074  0.933074  0.566892  1
  Er  Er2  1  0.348763  0.348763  0.342977  1
  Er  Er3  1  0.355279  0.355279  0.949500  1
  Er  Er4  1  0.350415  0.946719  0.356150  1
  Er  Er5  1  0.946719  0.350415  0.356150  1
  Er  Er6  1  0.805311  0.189542  0.188376  1
  Er  Er7  1  0.187175  0.812324  0.811506  1
  Er  Er8  1  0.189542  0.805311  0.188376  1
  Er  Er9  1  0.812324  0.187175  0.811506  1
  Er  Er10  1  0.191199  0.191199  0.805343  1
  Er  Er11  1  0.810159  0.810159  0.187107  1
  Er  Er12  1  0.942764  0.558423  0.558400  1
  Er  Er13  1  0.561010  0.942489  0.941063  1
  Er  Er14  1  0.558423  0.942764  0.558400  1
  Er  Er15  1  0.942489  0.561010  0.941063  1
  Cd  Cd16  1  0.581293  0.581293  0.578240  1
  Cd  Cd17  1  0.581069  0.581069  0.257881  1
  Cd  Cd18  1  0.576596  0.258053  0.582376  1
  Cd  Cd19  1  0.258053  0.576596  0.582376  1
  Ir  Ir20  1  0.144276  0.144276  0.574776  1
  Ir  Ir21  1  0.135472  0.573528  0.144254  1
  Ir  Ir22  1  0.573528  0.135472  0.144254  1
  Pd  Pd23  1  0.144870  0.144870  0.140996  1
