# generated using pymatgen
data_Sr3Ca6NdV7O28
_symmetry_space_group_name_H-M   'P 1'
_cell_length_a   11.16959593
_cell_length_b   11.16959564
_cell_length_c   14.45451322
_cell_angle_alpha   67.36278365
_cell_angle_beta   67.36278463
_cell_angle_gamma   59.99368177
_symmetry_Int_Tables_number   1
_chemical_formula_structural   Sr3Ca6NdV7O28
_chemical_formula_sum   'Sr6 Ca12 Nd2 V14 O56'
_cell_volume   1398.94422420
_cell_formula_units_Z   2
loop_
 _symmetry_equiv_pos_site_id
 _symmetry_equiv_pos_as_xyz
  1  'x, y, z'
loop_
 _atom_site_type_symbol
 _atom_site_label
 _atom_site_symmetry_multiplicity
 _atom_site_fract_x
 _atom_site_fract_y
 _atom_site_fract_z
 _atom_site_occupancy
  Sr  Sr0  1  0.554123  0.468153  0.021743  1
  Sr  Sr1  1  0.954118  0.055128  0.020314  1
  Sr  Sr2  1  0.969830  0.453338  0.018080  1
  Sr  Sr3  1  0.055128  0.954118  0.520314  1
  Sr  Sr4  1  0.453338  0.969830  0.518080  1
  Sr  Sr5  1  0.468153  0.554123  0.521743  1
  Ca  Ca6  1  0.502922  0.005344  0.999338  1
  Ca  Ca7  1  0.566906  0.075752  0.201794  1
  Ca  Ca8  1  0.570006  0.660319  0.200421  1
  Ca  Ca9  1  0.157496  0.065198  0.200930  1
  Ca  Ca10  1  0.660319  0.570006  0.700421  1
  Ca  Ca11  1  0.065198  0.157496  0.700930  1
  Ca  Ca12  1  0.075752  0.566906  0.701794  1
  Ca  Ca13  1  0.005344  0.502922  0.499338  1
  Ca  Ca14  1  0.944787  0.850565  0.295879  1
  Ca  Ca15  1  0.350536  0.413898  0.295888  1
  Ca  Ca16  1  0.850565  0.944787  0.795879  1
  Ca  Ca17  1  0.413898  0.350536  0.795888  1
  Nd  Nd18  1  0.910401  0.442227  0.297915  1
  Nd  Nd19  1  0.442227  0.910401  0.797915  1
  V  V20  1  0.768703  0.267970  0.194559  1
  V  V21  1  0.691961  0.221476  0.896350  1
  V  V22  1  0.720161  0.692605  0.896441  1
  V  V23  1  0.192319  0.189439  0.896995  1
  V  V24  1  0.779242  0.307690  0.596189  1
  V  V25  1  0.808900  0.815396  0.597390  1
  V  V26  1  0.692605  0.720161  0.396441  1
  V  V27  1  0.315766  0.279043  0.597140  1
  V  V28  1  0.189439  0.192319  0.396995  1
  V  V29  1  0.221476  0.691961  0.396350  1
  V  V30  1  0.815396  0.808900  0.097390  1
  V  V31  1  0.279043  0.315766  0.097140  1
  V  V32  1  0.307690  0.779242  0.096189  1
  V  V33  1  0.267970  0.768703  0.694559  1
  O  O34  1  0.600197  0.268835  0.229653  1
  O  O35  1  0.770256  0.402513  0.229570  1
  O  O36  1  0.902126  0.100281  0.229308  1
  O  O37  1  0.665504  0.183074  0.029292  1
  O  O38  1  0.683702  0.619620  0.028317  1
  O  O39  1  0.813019  0.313105  0.059907  1
  O  O40  1  0.617964  0.141778  0.864418  1
  O  O41  1  0.636104  0.878934  0.867016  1
  O  O42  1  0.642694  0.645926  0.839526  1
  O  O43  1  0.604860  0.404973  0.855397  1
  O  O44  1  0.120321  0.166382  0.028935  1
  O  O45  1  0.874060  0.151835  0.843129  1
  O  O46  1  0.902532  0.637920  0.854303  1
  O  O47  1  0.603513  0.398549  0.660577  1
  O  O48  1  0.131927  0.370121  0.842514  1
  O  O49  1  0.622656  0.886315  0.639996  1
  O  O50  1  0.149122  0.092539  0.854644  1
  O  O51  1  0.378837  0.114567  0.866397  1
  O  O52  1  0.853904  0.124459  0.639658  1
  O  O53  1  0.898748  0.840072  0.660107  1
  O  O54  1  0.619620  0.683702  0.528317  1
  O  O55  1  0.875978  0.371715  0.620894  1
  O  O56  1  0.869649  0.629548  0.627008  1
  O  O57  1  0.129811  0.372673  0.627819  1
  O  O58  1  0.785122  0.359917  0.465727  1
  O  O59  1  0.863499  0.877700  0.467335  1
  O  O60  1  0.645926  0.642694  0.339526  1
  O  O61  1  0.341082  0.099383  0.659688  1
  O  O62  1  0.637920  0.902532  0.354303  1
  O  O63  1  0.384764  0.351562  0.639631  1
  O  O64  1  0.166382  0.120321  0.528935  1
  O  O65  1  0.183074  0.665504  0.529292  1
  O  O66  1  0.878934  0.636104  0.367016  1
  O  O67  1  0.114567  0.378837  0.366397  1
  O  O68  1  0.141778  0.617964  0.364418  1
  O  O69  1  0.376597  0.292034  0.466967  1
  O  O70  1  0.151835  0.874060  0.343129  1
  O  O71  1  0.092539  0.149122  0.354644  1
  O  O72  1  0.629548  0.869649  0.127008  1
  O  O73  1  0.840072  0.898748  0.160107  1
  O  O74  1  0.370121  0.131927  0.342514  1
  O  O75  1  0.886315  0.622656  0.139996  1
  O  O76  1  0.404973  0.604860  0.355397  1
  O  O77  1  0.099383  0.341082  0.159688  1
  O  O78  1  0.124459  0.853904  0.139658  1
  O  O79  1  0.877700  0.863499  0.967335  1
  O  O80  1  0.351562  0.384764  0.139631  1
  O  O81  1  0.398549  0.603513  0.160577  1
  O  O82  1  0.372673  0.129811  0.127819  1
  O  O83  1  0.371715  0.875978  0.120894  1
  O  O84  1  0.292034  0.376597  0.966967  1
  O  O85  1  0.359917  0.785122  0.965727  1
  O  O86  1  0.100281  0.902126  0.729308  1
  O  O87  1  0.268835  0.600197  0.729653  1
  O  O88  1  0.402513  0.770256  0.729570  1
  O  O89  1  0.313105  0.813019  0.559907  1
