# generated using pymatgen
data_La7Lu(Sc3Sn4)4
_symmetry_space_group_name_H-M   'P 1'
_cell_length_a   7.90312361
_cell_length_b   8.10116947
_cell_length_c   15.11412800
_cell_angle_alpha   89.95326470
_cell_angle_beta   89.95344926
_cell_angle_gamma   90.11997587
_symmetry_Int_Tables_number   1
_chemical_formula_structural   La7Lu(Sc3Sn4)4
_chemical_formula_sum   'La7 Lu1 Sc12 Sn16'
_cell_volume   967.67238404
_cell_formula_units_Z   1
loop_
 _symmetry_equiv_pos_site_id
 _symmetry_equiv_pos_as_xyz
  1  'x, y, z'
loop_
 _atom_site_type_symbol
 _atom_site_label
 _atom_site_symmetry_multiplicity
 _atom_site_fract_x
 _atom_site_fract_y
 _atom_site_fract_z
 _atom_site_occupancy
  La  La0  1  0.994485  0.172891  0.094160  1
  La  La1  1  0.005541  0.825730  0.903631  1
  La  La2  1  0.504418  0.673131  0.906249  1
  La  La3  1  0.005160  0.825410  0.594112  1
  La  La4  1  0.494974  0.326996  0.093952  1
  La  La5  1  0.996387  0.173771  0.407616  1
  La  La6  1  0.494162  0.326947  0.407432  1
  Lu  Lu7  1  0.508989  0.677928  0.596695  1
  Sc  Sc8  1  0.167199  0.495422  0.748657  1
  Sc  Sc9  1  0.832635  0.506377  0.250563  1
  Sc  Sc10  1  0.333580  0.993135  0.250532  1
  Sc  Sc11  1  0.665746  0.005894  0.748867  1
  Sc  Sc12  1  0.337236  0.161198  0.628179  1
  Sc  Sc13  1  0.661711  0.836793  0.372898  1
  Sc  Sc14  1  0.162680  0.660710  0.373297  1
  Sc  Sc15  1  0.663193  0.839171  0.127917  1
  Sc  Sc16  1  0.836207  0.340742  0.626932  1
  Sc  Sc17  1  0.337313  0.160422  0.870164  1
  Sc  Sc18  1  0.836298  0.338994  0.871231  1
  Sc  Sc19  1  0.162665  0.661664  0.127893  1
  Sn  Sn20  1  0.028253  0.132794  0.748850  1
  Sn  Sn21  1  0.970941  0.867616  0.251102  1
  Sn  Sn22  1  0.470102  0.632136  0.250112  1
  Sn  Sn23  1  0.529360  0.371414  0.748656  1
  Sn  Sn24  1  0.313850  0.852967  0.746378  1
  Sn  Sn25  1  0.689997  0.142162  0.250630  1
  Sn  Sn26  1  0.189544  0.357740  0.250434  1
  Sn  Sn27  1  0.804912  0.642830  0.747512  1
  Sn  Sn28  1  0.183985  0.460255  0.546150  1
  Sn  Sn29  1  0.819401  0.547084  0.458244  1
  Sn  Sn30  1  0.329200  0.950445  0.457954  1
  Sn  Sn31  1  0.827073  0.545889  0.044120  1
  Sn  Sn32  1  0.670883  0.039526  0.545183  1
  Sn  Sn33  1  0.172010  0.453474  0.954880  1
  Sn  Sn34  1  0.673425  0.045333  0.955026  1
  Sn  Sn35  1  0.326485  0.955006  0.043791  1
