# generated using pymatgen
data_CeSmNi2Hg
_symmetry_space_group_name_H-M   'P 1'
_cell_length_a   7.51013216
_cell_length_b   7.46999015
_cell_length_c   3.67225900
_cell_angle_alpha   90.00000000
_cell_angle_beta   90.00000000
_cell_angle_gamma   90.02316980
_symmetry_Int_Tables_number   1
_chemical_formula_structural   CeSmNi2Hg
_chemical_formula_sum   'Ce2 Sm2 Ni4 Hg2'
_cell_volume   206.01596500
_cell_formula_units_Z   2
loop_
 _symmetry_equiv_pos_site_id
 _symmetry_equiv_pos_as_xyz
  1  'x, y, z'
loop_
 _atom_site_type_symbol
 _atom_site_label
 _atom_site_symmetry_multiplicity
 _atom_site_fract_x
 _atom_site_fract_y
 _atom_site_fract_z
 _atom_site_occupancy
  Ce  Ce0  1  0.323051  0.173998  0.500000  1
  Ce  Ce1  1  0.823042  0.325988  0.500000  1
  Sm  Sm2  1  0.175512  0.673983  0.500000  1
  Sm  Sm3  1  0.675583  0.825929  0.500000  1
  Ni  Ni4  1  0.623003  0.136382  0.000000  1
  Ni  Ni5  1  0.122399  0.363730  0.000000  1
  Ni  Ni6  1  0.880153  0.600948  0.000000  1
  Ni  Ni7  1  0.380259  0.899032  0.000000  1
  Hg  Hg8  1  0.998483  0.995602  0.000000  1
  Hg  Hg9  1  0.498514  0.504407  0.000000  1
