# generated using pymatgen
data_Tb6Sn6Rh5Au
_symmetry_space_group_name_H-M   'P 1'
_cell_length_a   7.61074600
_cell_length_b   7.61074654
_cell_length_c   7.74418700
_cell_angle_alpha   90.00000000
_cell_angle_beta   90.00000000
_cell_angle_gamma   119.99999766
_symmetry_Int_Tables_number   1
_chemical_formula_structural   Tb6Sn6Rh5Au
_chemical_formula_sum   'Tb6 Sn6 Rh5 Au1'
_cell_volume   388.47310808
_cell_formula_units_Z   1
loop_
 _symmetry_equiv_pos_site_id
 _symmetry_equiv_pos_as_xyz
  1  'x, y, z'
loop_
 _atom_site_type_symbol
 _atom_site_label
 _atom_site_symmetry_multiplicity
 _atom_site_fract_x
 _atom_site_fract_y
 _atom_site_fract_z
 _atom_site_occupancy
  Tb  Tb0  1  0.589308  0.989426  0.744194  1
  Tb  Tb1  1  0.400120  0.410692  0.744194  1
  Tb  Tb2  1  0.010574  0.599880  0.744194  1
  Tb  Tb3  1  0.591298  0.993972  0.255660  1
  Tb  Tb4  1  0.402673  0.408702  0.255660  1
  Tb  Tb5  1  0.006028  0.597327  0.255660  1
  Sn  Sn6  1  0.251785  0.991474  0.000385  1
  Sn  Sn7  1  0.741847  0.737262  0.500269  1
  Sn  Sn8  1  0.995416  0.258153  0.500269  1
  Sn  Sn9  1  0.008526  0.260311  0.000385  1
  Sn  Sn10  1  0.739689  0.748215  0.000385  1
  Sn  Sn11  1  0.262738  0.004584  0.500269  1
  Rh  Rh12  1  0.666667  0.333333  0.502966  1
  Rh  Rh13  1  0.333333  0.666667  0.003117  1
  Rh  Rh14  1  0.333333  0.666667  0.496800  1
  Rh  Rh15  1  0.000000  0.000000  0.749012  1
  Rh  Rh16  1  0.000000  0.000000  0.251910  1
  Au  Au17  1  0.666667  0.333333  0.994670  1
