# generated using pymatgen
data_Dy15Y5Cd6TcRu
_symmetry_space_group_name_H-M   'P 1'
_cell_length_a   9.58751408
_cell_length_b   9.58751409
_cell_length_c   9.91938500
_cell_angle_alpha   90.00000000
_cell_angle_beta   90.00000000
_cell_angle_gamma   120.01493651
_symmetry_Int_Tables_number   1
_chemical_formula_structural   Dy15Y5Cd6TcRu
_chemical_formula_sum   'Dy15 Y5 Cd6 Tc1 Ru1'
_cell_volume   789.51797692
_cell_formula_units_Z   1
loop_
 _symmetry_equiv_pos_site_id
 _symmetry_equiv_pos_as_xyz
  1  'x, y, z'
loop_
 _atom_site_type_symbol
 _atom_site_label
 _atom_site_symmetry_multiplicity
 _atom_site_fract_x
 _atom_site_fract_y
 _atom_site_fract_z
 _atom_site_occupancy
  Dy  Dy0  1  0.999985  0.000015  0.500195  1
  Dy  Dy1  1  0.999985  0.000015  0.999805  1
  Dy  Dy2  1  0.209914  0.790086  0.441035  1
  Dy  Dy3  1  0.209965  0.419883  0.441072  1
  Dy  Dy4  1  0.580117  0.790035  0.441072  1
  Dy  Dy5  1  0.789884  0.210116  0.559374  1
  Dy  Dy6  1  0.789831  0.579726  0.559383  1
  Dy  Dy7  1  0.420274  0.210169  0.559383  1
  Dy  Dy8  1  0.789884  0.210116  0.940626  1
  Dy  Dy9  1  0.789831  0.579726  0.940617  1
  Dy  Dy10  1  0.420274  0.210169  0.940617  1
  Dy  Dy11  1  0.209914  0.790086  0.058965  1
  Dy  Dy12  1  0.209965  0.419883  0.058928  1
  Dy  Dy13  1  0.580117  0.790035  0.058928  1
  Dy  Dy14  1  0.458699  0.541301  0.750000  1
  Y  Y15  1  0.540194  0.459806  0.250000  1
  Y  Y16  1  0.540212  0.080421  0.250000  1
  Y  Y17  1  0.919579  0.459788  0.250000  1
  Y  Y18  1  0.458663  0.917281  0.750000  1
  Y  Y19  1  0.082719  0.541337  0.750000  1
  Cd  Cd20  1  0.885344  0.114656  0.250000  1
  Cd  Cd21  1  0.885378  0.770711  0.250000  1
  Cd  Cd22  1  0.229289  0.114622  0.250000  1
  Cd  Cd23  1  0.114473  0.885527  0.750000  1
  Cd  Cd24  1  0.114484  0.228959  0.750000  1
  Cd  Cd25  1  0.771041  0.885516  0.750000  1
  Tc  Tc26  1  0.333364  0.666636  0.250000  1
  Ru  Ru27  1  0.666625  0.333375  0.750000  1
