# generated using pymatgen
data_Li2TbErSnSb
_symmetry_space_group_name_H-M   'P 1'
_cell_length_a   9.41178282
_cell_length_b   9.40864366
_cell_length_c   7.13378500
_cell_angle_alpha   90.00027773
_cell_angle_beta   89.99748182
_cell_angle_gamma   120.05895120
_symmetry_Int_Tables_number   1
_chemical_formula_structural   Li2TbErSnSb
_chemical_formula_sum   'Li8 Tb4 Er4 Sn4 Sb4'
_cell_volume   546.75312504
_cell_formula_units_Z   4
loop_
 _symmetry_equiv_pos_site_id
 _symmetry_equiv_pos_as_xyz
  1  'x, y, z'
loop_
 _atom_site_type_symbol
 _atom_site_label
 _atom_site_symmetry_multiplicity
 _atom_site_fract_x
 _atom_site_fract_y
 _atom_site_fract_z
 _atom_site_occupancy
  Li  Li0  1  0.166590  0.333355  0.219381  1
  Li  Li1  1  0.166605  0.833359  0.219306  1
  Li  Li2  1  0.666651  0.833397  0.219417  1
  Li  Li3  1  0.666631  0.333382  0.322534  1
  Li  Li4  1  0.833304  0.666635  0.715186  1
  Li  Li5  1  0.333422  0.166754  0.715185  1
  Li  Li6  1  0.833276  0.166790  0.715154  1
  Li  Li7  1  0.333326  0.666695  0.818736  1
  Tb  Tb8  1  0.999922  0.000165  0.994890  1
  Tb  Tb9  1  0.510845  0.022125  0.003485  1
  Tb  Tb10  1  0.510763  0.489305  0.003439  1
  Tb  Tb11  1  0.978038  0.489265  0.003480  1
  Er  Er12  1  0.999847  0.000197  0.501963  1
  Er  Er13  1  0.489262  0.978935  0.510381  1
  Er  Er14  1  0.021096  0.510824  0.510390  1
  Er  Er15  1  0.489348  0.510801  0.510346  1
  Sn  Sn16  1  0.666735  0.333138  0.737636  1
  Sn  Sn17  1  0.166937  0.333447  0.762714  1
  Sn  Sn18  1  0.166965  0.832933  0.762805  1
  Sn  Sn19  1  0.666463  0.832992  0.762664  1
  Sb  Sb20  1  0.333505  0.666387  0.244497  1
  Sb  Sb21  1  0.833256  0.665940  0.268182  1
  Sb  Sb22  1  0.333909  0.166600  0.268148  1
  Sb  Sb23  1  0.833304  0.166579  0.268068  1
