# generated using pymatgen
data_PrHoTmTaO7
_symmetry_space_group_name_H-M   'P 1'
_cell_length_a   6.48804807
_cell_length_b   6.48081357
_cell_length_c   7.58888000
_cell_angle_alpha   90.00000000
_cell_angle_beta   90.00000000
_cell_angle_gamma   109.14343672
_symmetry_Int_Tables_number   1
_chemical_formula_structural   PrHoTmTaO7
_chemical_formula_sum   'Pr2 Ho2 Tm2 Ta2 O14'
_cell_volume   301.45011314
_cell_formula_units_Z   2
loop_
 _symmetry_equiv_pos_site_id
 _symmetry_equiv_pos_as_xyz
  1  'x, y, z'
loop_
 _atom_site_type_symbol
 _atom_site_label
 _atom_site_symmetry_multiplicity
 _atom_site_fract_x
 _atom_site_fract_y
 _atom_site_fract_z
 _atom_site_occupancy
  Pr  Pr0  1  0.509472  0.508742  0.500075  1
  Pr  Pr1  1  0.490528  0.491258  0.000075  1
  Ho  Ho2  1  0.533699  0.001088  0.753357  1
  Ho  Ho3  1  0.466301  0.998912  0.253357  1
  Tm  Tm4  1  0.001542  0.531906  0.246791  1
  Tm  Tm5  1  0.998458  0.468094  0.746791  1
  Ta  Ta6  1  0.000841  0.000918  0.500107  1
  Ta  Ta7  1  0.999159  0.999082  0.000107  1
  O  O8  1  0.935804  0.067181  0.750102  1
  O  O9  1  0.064196  0.932819  0.250102  1
  O  O10  1  0.352748  0.643903  0.250206  1
  O  O11  1  0.647252  0.356097  0.750206  1
  O  O12  1  0.358133  0.636580  0.749667  1
  O  O13  1  0.641867  0.363420  0.249667  1
  O  O14  1  0.323624  0.073145  0.970999  1
  O  O15  1  0.676376  0.926855  0.470999  1
  O  O16  1  0.318016  0.066312  0.536587  1
  O  O17  1  0.681984  0.933688  0.036587  1
  O  O18  1  0.061234  0.317008  0.461544  1
  O  O19  1  0.938766  0.682992  0.961544  1
  O  O20  1  0.930756  0.676754  0.530565  1
  O  O21  1  0.069244  0.323246  0.030565  1
