# generated using pymatgen
data_Pr2ErSn6Ru
_symmetry_space_group_name_H-M   'P 1'
_cell_length_a   8.59785668
_cell_length_b   8.59785699
_cell_length_c   13.48419100
_cell_angle_alpha   90.00000000
_cell_angle_beta   90.00000000
_cell_angle_gamma   148.26762742
_symmetry_Int_Tables_number   1
_chemical_formula_structural   Pr2ErSn6Ru
_chemical_formula_sum   'Pr4 Er2 Sn12 Ru2'
_cell_volume   524.26595766
_cell_formula_units_Z   2
loop_
 _symmetry_equiv_pos_site_id
 _symmetry_equiv_pos_as_xyz
  1  'x, y, z'
loop_
 _atom_site_type_symbol
 _atom_site_label
 _atom_site_symmetry_multiplicity
 _atom_site_fract_x
 _atom_site_fract_y
 _atom_site_fract_z
 _atom_site_occupancy
  Pr  Pr0  1  0.400681  0.599319  0.404639  1
  Pr  Pr1  1  0.599319  0.400681  0.595361  1
  Pr  Pr2  1  0.400681  0.599319  0.095361  1
  Pr  Pr3  1  0.599319  0.400681  0.904639  1
  Er  Er4  1  0.603595  0.396405  0.250000  1
  Er  Er5  1  0.396405  0.603595  0.750000  1
  Sn  Sn6  1  0.925270  0.074730  0.921237  1
  Sn  Sn7  1  0.074730  0.925270  0.078763  1
  Sn  Sn8  1  0.925270  0.074730  0.578763  1
  Sn  Sn9  1  0.074730  0.925270  0.421237  1
  Sn  Sn10  1  0.960958  0.039042  0.250000  1
  Sn  Sn11  1  0.039042  0.960958  0.750000  1
  Sn  Sn12  1  0.744242  0.255759  0.432076  1
  Sn  Sn13  1  0.255759  0.744241  0.567924  1
  Sn  Sn14  1  0.744242  0.255759  0.067924  1
  Sn  Sn15  1  0.255759  0.744241  0.932076  1
  Sn  Sn16  1  0.230296  0.769704  0.250000  1
  Sn  Sn17  1  0.769704  0.230296  0.750000  1
  Ru  Ru18  1  0.799780  0.200220  0.250000  1
  Ru  Ru19  1  0.200220  0.799780  0.750000  1
