# generated using pymatgen
data_Er2Ga2NiRh
_symmetry_space_group_name_H-M   'P 1'
_cell_length_a   4.26332500
_cell_length_b   6.73938400
_cell_length_c   7.62715800
_cell_angle_alpha   90.00000000
_cell_angle_beta   90.00000000
_cell_angle_gamma   90.00000000
_symmetry_Int_Tables_number   1
_chemical_formula_structural   Er2Ga2NiRh
_chemical_formula_sum   'Er4 Ga4 Ni2 Rh2'
_cell_volume   219.14490928
_cell_formula_units_Z   2
loop_
 _symmetry_equiv_pos_site_id
 _symmetry_equiv_pos_as_xyz
  1  'x, y, z'
loop_
 _atom_site_type_symbol
 _atom_site_label
 _atom_site_symmetry_multiplicity
 _atom_site_fract_x
 _atom_site_fract_y
 _atom_site_fract_z
 _atom_site_occupancy
  Er  Er0  1  0.250000  0.975271  0.312016  1
  Er  Er1  1  0.250000  0.475271  0.187984  1
  Er  Er2  1  0.750000  0.026364  0.685693  1
  Er  Er3  1  0.750000  0.526364  0.814307  1
  Ga  Ga4  1  0.250000  0.346498  0.577084  1
  Ga  Ga5  1  0.250000  0.846498  0.922916  1
  Ga  Ga6  1  0.750000  0.659865  0.440887  1
  Ga  Ga7  1  0.750000  0.159865  0.059113  1
  Ni  Ni8  1  0.250000  0.221709  0.886926  1
  Ni  Ni9  1  0.250000  0.721709  0.613074  1
  Rh  Rh10  1  0.750000  0.770293  0.111882  1
  Rh  Rh11  1  0.750000  0.270293  0.388118  1
