# generated using pymatgen
data_Nd3Sm(RuO6)2
_symmetry_space_group_name_H-M   'P 1'
_cell_length_a   10.16183725
_cell_length_b   10.16183666
_cell_length_c   5.58818239
_cell_angle_alpha   74.86356570
_cell_angle_beta   74.86356760
_cell_angle_gamma   69.25474024
_symmetry_Int_Tables_number   1
_chemical_formula_structural   Nd3Sm(RuO6)2
_chemical_formula_sum   'Nd6 Sm2 Ru4 O24'
_cell_volume   511.74781146
_cell_formula_units_Z   2
loop_
 _symmetry_equiv_pos_site_id
 _symmetry_equiv_pos_as_xyz
  1  'x, y, z'
loop_
 _atom_site_type_symbol
 _atom_site_label
 _atom_site_symmetry_multiplicity
 _atom_site_fract_x
 _atom_site_fract_y
 _atom_site_fract_z
 _atom_site_occupancy
  Nd  Nd0  1  0.065089  0.286908  0.625392  1
  Nd  Nd1  1  0.713092  0.934911  0.874608  1
  Nd  Nd2  1  0.934911  0.713092  0.374608  1
  Nd  Nd3  1  0.286908  0.065089  0.125392  1
  Nd  Nd4  1  0.633810  0.366190  0.750000  1
  Nd  Nd5  1  0.366190  0.633810  0.250000  1
  Sm  Sm6  1  0.106052  0.893948  0.750000  1
  Sm  Sm7  1  0.893948  0.106052  0.250000  1
  Ru  Ru8  1  0.501568  0.798348  0.552106  1
  Ru  Ru9  1  0.201652  0.498432  0.947894  1
  Ru  Ru10  1  0.498432  0.201652  0.447894  1
  Ru  Ru11  1  0.798348  0.501568  0.052106  1
  O  O12  1  0.613722  0.171387  0.143600  1
  O  O13  1  0.828613  0.386278  0.356400  1
  O  O14  1  0.386278  0.828613  0.856400  1
  O  O15  1  0.171387  0.613722  0.643600  1
  O  O16  1  0.473665  0.070158  0.735719  1
  O  O17  1  0.929842  0.526335  0.764281  1
  O  O18  1  0.526335  0.929842  0.264281  1
  O  O19  1  0.070158  0.473665  0.235719  1
  O  O20  1  0.324187  0.214953  0.370022  1
  O  O21  1  0.785047  0.675813  0.129978  1
  O  O22  1  0.675813  0.785047  0.629978  1
  O  O23  1  0.214953  0.324187  0.870022  1
  O  O24  1  0.890529  0.926301  0.071333  1
  O  O25  1  0.073699  0.109471  0.428667  1
  O  O26  1  0.109471  0.073699  0.928667  1
  O  O27  1  0.926301  0.890529  0.571333  1
  O  O28  1  0.162060  0.691346  0.080962  1
  O  O29  1  0.308654  0.837940  0.419038  1
  O  O30  1  0.837940  0.308654  0.919038  1
  O  O31  1  0.691346  0.162060  0.580962  1
  O  O32  1  0.384695  0.458336  0.982283  1
  O  O33  1  0.541664  0.615305  0.517717  1
  O  O34  1  0.615305  0.541664  0.017717  1
  O  O35  1  0.458336  0.384695  0.482283  1
