# generated using pymatgen
data_Ca2Y6SbPd24
_symmetry_space_group_name_H-M   'P 1'
_cell_length_a   8.41924700
_cell_length_b   8.42364955
_cell_length_c   8.42364955
_cell_angle_alpha   89.83671650
_cell_angle_beta   90.00000000
_cell_angle_gamma   90.00000000
_symmetry_Int_Tables_number   1
_chemical_formula_structural   Ca2Y6SbPd24
_chemical_formula_sum   'Ca2 Y6 Sb1 Pd24'
_cell_volume   597.40942306
_cell_formula_units_Z   1
loop_
 _symmetry_equiv_pos_site_id
 _symmetry_equiv_pos_as_xyz
  1  'x, y, z'
loop_
 _atom_site_type_symbol
 _atom_site_label
 _atom_site_symmetry_multiplicity
 _atom_site_fract_x
 _atom_site_fract_y
 _atom_site_fract_z
 _atom_site_occupancy
  Ca  Ca0  1  0.747968  0.747894  0.252106  1
  Ca  Ca1  1  0.747968  0.252106  0.747894  1
  Y  Y2  1  0.253785  0.746341  0.746341  1
  Y  Y3  1  0.746484  0.746261  0.746261  1
  Y  Y4  1  0.746484  0.253739  0.253739  1
  Y  Y5  1  0.253578  0.253377  0.746623  1
  Y  Y6  1  0.253578  0.746623  0.253377  1
  Y  Y7  1  0.253785  0.253659  0.253659  1
  Sb  Sb8  1  0.998331  0.000000  0.000000  1
  Pd  Pd9  1  0.000868  0.001029  0.307495  1
  Pd  Pd10  1  0.734486  0.000000  0.500000  1
  Pd  Pd11  1  0.734486  0.500000  0.000000  1
  Pd  Pd12  1  0.498548  0.998550  0.734709  1
  Pd  Pd13  1  0.002088  0.734774  0.500611  1
  Pd  Pd14  1  0.498548  0.001450  0.265291  1
  Pd  Pd15  1  0.002088  0.265226  0.499389  1
  Pd  Pd16  1  0.498548  0.734709  0.998550  1
  Pd  Pd17  1  0.255366  0.500000  0.500000  1
  Pd  Pd18  1  0.498525  0.500889  0.745040  1
  Pd  Pd19  1  0.498525  0.499111  0.254960  1
  Pd  Pd20  1  0.498525  0.254960  0.499111  1
  Pd  Pd21  1  0.498525  0.745040  0.500889  1
  Pd  Pd22  1  0.745325  0.500000  0.500000  1
  Pd  Pd23  1  0.306701  0.000000  0.000000  1
  Pd  Pd24  1  0.000868  0.998971  0.692505  1
  Pd  Pd25  1  0.002088  0.499389  0.265226  1
  Pd  Pd26  1  0.000868  0.307495  0.001029  1
  Pd  Pd27  1  0.000868  0.692505  0.998971  1
  Pd  Pd28  1  0.691281  0.000000  0.000000  1
  Pd  Pd29  1  0.265137  0.500000  0.000000  1
  Pd  Pd30  1  0.265137  0.000000  0.500000  1
  Pd  Pd31  1  0.002088  0.500611  0.734774  1
  Pd  Pd32  1  0.498548  0.265291  0.001450  1
