# generated using pymatgen
data_Tb3Y5(PSe)8
_symmetry_space_group_name_H-M   'P 1'
_cell_length_a   5.43261700
_cell_length_b   5.48948004
_cell_length_c   17.11315400
_cell_angle_alpha   89.92233544
_cell_angle_beta   90.00000000
_cell_angle_gamma   90.00000000
_symmetry_Int_Tables_number   1
_chemical_formula_structural   Tb3Y5(PSe)8
_chemical_formula_sum   'Tb3 Y5 P8 Se8'
_cell_volume   510.35216144
_cell_formula_units_Z   1
loop_
 _symmetry_equiv_pos_site_id
 _symmetry_equiv_pos_as_xyz
  1  'x, y, z'
loop_
 _atom_site_type_symbol
 _atom_site_label
 _atom_site_symmetry_multiplicity
 _atom_site_fract_x
 _atom_site_fract_y
 _atom_site_fract_z
 _atom_site_occupancy
  Tb  Tb0  1  0.250000  0.515241  0.860256  1
  Tb  Tb1  1  0.750000  0.984620  0.359852  1
  Tb  Tb2  1  0.750000  0.484887  0.139985  1
  Y  Y3  1  0.250000  0.483825  0.368767  1
  Y  Y4  1  0.250000  0.984104  0.130986  1
  Y  Y5  1  0.750000  0.516210  0.631010  1
  Y  Y6  1  0.750000  0.015983  0.869301  1
  Y  Y7  1  0.250000  0.015088  0.639960  1
  P  P8  1  0.038376  0.298502  0.997752  1
  P  P9  1  0.461627  0.798391  0.502388  1
  P  P10  1  0.538330  0.701570  0.002598  1
  P  P11  1  0.961535  0.201547  0.497282  1
  P  P12  1  0.961670  0.701570  0.002598  1
  P  P13  1  0.538465  0.201547  0.497282  1
  P  P14  1  0.461624  0.298502  0.997752  1
  P  P15  1  0.038373  0.798391  0.502388  1
  Se  Se16  1  0.250000  0.485405  0.190227  1
  Se  Se17  1  0.250000  0.985294  0.309532  1
  Se  Se18  1  0.750000  0.514686  0.809931  1
  Se  Se19  1  0.750000  0.014882  0.690351  1
  Se  Se20  1  0.250000  0.011882  0.815419  1
  Se  Se21  1  0.250000  0.511301  0.684707  1
  Se  Se22  1  0.750000  0.988275  0.184490  1
  Se  Se23  1  0.750000  0.488297  0.315187  1
