# generated using pymatgen
data_PuPa2Mn3
_symmetry_space_group_name_H-M   'P 1'
_cell_length_a   5.13200907
_cell_length_b   5.13200852
_cell_length_c   5.13200785
_cell_angle_alpha   63.20705751
_cell_angle_beta   63.20706283
_cell_angle_gamma   63.20707410
_symmetry_Int_Tables_number   1
_chemical_formula_structural   PuPa2Mn3
_chemical_formula_sum   'Pu1 Pa2 Mn3'
_cell_volume   102.36948017
_cell_formula_units_Z   1
loop_
 _symmetry_equiv_pos_site_id
 _symmetry_equiv_pos_as_xyz
  1  'x, y, z'
loop_
 _atom_site_type_symbol
 _atom_site_label
 _atom_site_symmetry_multiplicity
 _atom_site_fract_x
 _atom_site_fract_y
 _atom_site_fract_z
 _atom_site_occupancy
  Pu  Pu0  1  0.000000  0.000000  0.000000  1
  Pa  Pa1  1  0.619505  0.619505  0.619505  1
  Pa  Pa2  1  0.380495  0.380495  0.380495  1
  Mn  Mn3  1  0.000000  0.500000  0.000000  1
  Mn  Mn4  1  0.500000  0.000000  0.000000  1
  Mn  Mn5  1  0.000000  0.000000  0.500000  1
