# generated using pymatgen
data_Hf3TaMn2N
_symmetry_space_group_name_H-M   'P 1'
_cell_length_a   8.44904063
_cell_length_b   8.44903985
_cell_length_c   8.44904100
_cell_angle_alpha   59.99999940
_cell_angle_beta   60.00000245
_cell_angle_gamma   59.99999859
_symmetry_Int_Tables_number   1
_chemical_formula_structural   Hf3TaMn2N
_chemical_formula_sum   'Hf12 Ta4 Mn8 N4'
_cell_volume   426.48835533
_cell_formula_units_Z   4
loop_
 _symmetry_equiv_pos_site_id
 _symmetry_equiv_pos_as_xyz
  1  'x, y, z'
loop_
 _atom_site_type_symbol
 _atom_site_label
 _atom_site_symmetry_multiplicity
 _atom_site_fract_x
 _atom_site_fract_y
 _atom_site_fract_z
 _atom_site_occupancy
  Hf  Hf0  1  0.812343  0.812343  0.187657  1
  Hf  Hf1  1  0.187657  0.187657  0.812343  1
  Hf  Hf2  1  0.812343  0.187657  0.812343  1
  Hf  Hf3  1  0.187657  0.812343  0.187657  1
  Hf  Hf4  1  0.187657  0.812343  0.812343  1
  Hf  Hf5  1  0.812343  0.187657  0.187657  1
  Hf  Hf6  1  0.437657  0.437657  0.062343  1
  Hf  Hf7  1  0.062343  0.062343  0.437657  1
  Hf  Hf8  1  0.437657  0.062343  0.437657  1
  Hf  Hf9  1  0.062343  0.437657  0.062343  1
  Hf  Hf10  1  0.062343  0.437657  0.437657  1
  Hf  Hf11  1  0.437657  0.062343  0.062343  1
  Ta  Ta12  1  0.125000  0.625000  0.625000  1
  Ta  Ta13  1  0.625000  0.125000  0.625000  1
  Ta  Ta14  1  0.625000  0.625000  0.125000  1
  Ta  Ta15  1  0.625000  0.625000  0.625000  1
  Mn  Mn16  1  0.742160  0.419280  0.419280  1
  Mn  Mn17  1  0.419280  0.742160  0.419280  1
  Mn  Mn18  1  0.419280  0.419280  0.742160  1
  Mn  Mn19  1  0.419280  0.419280  0.419280  1
  Mn  Mn20  1  0.507840  0.830720  0.830720  1
  Mn  Mn21  1  0.830720  0.507840  0.830720  1
  Mn  Mn22  1  0.830720  0.830720  0.507840  1
  Mn  Mn23  1  0.830720  0.830720  0.830720  1
  N  N24  1  0.625000  0.125000  0.125000  1
  N  N25  1  0.125000  0.625000  0.125000  1
  N  N26  1  0.125000  0.125000  0.625000  1
  N  N27  1  0.125000  0.125000  0.125000  1
