# generated using pymatgen
data_NaMoAsO5
_symmetry_space_group_name_H-M   'P 1'
_cell_length_a   9.02349500
_cell_length_b   6.98716638
_cell_length_c   7.46303413
_cell_angle_alpha   65.67413023
_cell_angle_beta   90.00000000
_cell_angle_gamma   90.00000000
_symmetry_Int_Tables_number   1
_chemical_formula_structural   NaMoAsO5
_chemical_formula_sum   'Na4 Mo4 As4 O20'
_cell_volume   428.75903905
_cell_formula_units_Z   4
loop_
 _symmetry_equiv_pos_site_id
 _symmetry_equiv_pos_as_xyz
  1  'x, y, z'
loop_
 _atom_site_type_symbol
 _atom_site_label
 _atom_site_symmetry_multiplicity
 _atom_site_fract_x
 _atom_site_fract_y
 _atom_site_fract_z
 _atom_site_occupancy
  Na  Na0  1  0.576830  0.242539  0.766206  1
  Na  Na1  1  0.076830  0.757461  0.733794  1
  Na  Na2  1  0.423170  0.757461  0.233794  1
  Na  Na3  1  0.923170  0.242539  0.266206  1
  Mo  Mo4  1  0.746562  0.744208  0.501209  1
  Mo  Mo5  1  0.246562  0.255792  0.998791  1
  Mo  Mo6  1  0.253438  0.255792  0.498791  1
  Mo  Mo7  1  0.753438  0.744208  0.001209  1
  As  As8  1  0.569231  0.248324  0.250922  1
  As  As9  1  0.069231  0.751676  0.249078  1
  As  As10  1  0.430769  0.751676  0.749078  1
  As  As11  1  0.930769  0.248324  0.750922  1
  O  O12  1  0.691953  0.424366  0.090812  1
  O  O13  1  0.191953  0.575634  0.409188  1
  O  O14  1  0.308047  0.575634  0.909188  1
  O  O15  1  0.808047  0.424366  0.590812  1
  O  O16  1  0.537052  0.634385  0.628835  1
  O  O17  1  0.037052  0.365615  0.871165  1
  O  O18  1  0.462948  0.365615  0.371165  1
  O  O19  1  0.962948  0.634385  0.128835  1
  O  O20  1  0.684664  0.749168  0.248607  1
  O  O21  1  0.184664  0.250832  0.251393  1
  O  O22  1  0.315336  0.250832  0.751393  1
  O  O23  1  0.815336  0.749168  0.748607  1
  O  O24  1  0.961719  0.853796  0.381355  1
  O  O25  1  0.461719  0.146204  0.118645  1
  O  O26  1  0.038281  0.146204  0.618645  1
  O  O27  1  0.538281  0.853796  0.881355  1
  O  O28  1  0.818654  0.062542  0.919884  1
  O  O29  1  0.318654  0.937458  0.580116  1
  O  O30  1  0.181346  0.937458  0.080116  1
  O  O31  1  0.681346  0.062542  0.419884  1
