# generated using pymatgen
data_V2CoNiTe4
_symmetry_space_group_name_H-M   'P 1'
_cell_length_a   8.46487664
_cell_length_b   8.46487651
_cell_length_c   6.15557900
_cell_angle_alpha   90.00000000
_cell_angle_beta   90.00000000
_cell_angle_gamma   125.71226416
_symmetry_Int_Tables_number   1
_chemical_formula_structural   V2CoNiTe4
_chemical_formula_sum   'V4 Co2 Ni2 Te8'
_cell_volume   358.13276551
_cell_formula_units_Z   2
loop_
 _symmetry_equiv_pos_site_id
 _symmetry_equiv_pos_as_xyz
  1  'x, y, z'
loop_
 _atom_site_type_symbol
 _atom_site_label
 _atom_site_symmetry_multiplicity
 _atom_site_fract_x
 _atom_site_fract_y
 _atom_site_fract_z
 _atom_site_occupancy
  V  V0  1  0.711092  0.709785  0.501471  1
  V  V1  1  0.788908  0.790215  0.001471  1
  V  V2  1  0.290215  0.288908  0.501471  1
  V  V3  1  0.209785  0.211092  0.001471  1
  Co  Co4  1  0.948169  0.051831  0.367221  1
  Co  Co5  1  0.551831  0.448169  0.867221  1
  Ni  Ni6  1  0.059302  0.940698  0.650141  1
  Ni  Ni7  1  0.440698  0.559302  0.150141  1
  Te  Te8  1  0.409430  0.107581  0.743315  1
  Te  Te9  1  0.090570  0.392419  0.243315  1
  Te  Te10  1  0.607581  0.909430  0.243315  1
  Te  Te11  1  0.892419  0.590570  0.743315  1
  Te  Te12  1  0.894942  0.105058  0.760258  1
  Te  Te13  1  0.605058  0.394942  0.260258  1
  Te  Te14  1  0.105277  0.894723  0.232806  1
  Te  Te15  1  0.394723  0.605277  0.732806  1
