# generated using pymatgen
data_CaYNbIr3
_symmetry_space_group_name_H-M   'P 1'
_cell_length_a   5.27871148
_cell_length_b   5.66109361
_cell_length_c   5.66109400
_cell_angle_alpha   59.99999775
_cell_angle_beta   57.57336047
_cell_angle_gamma   57.57336221
_symmetry_Int_Tables_number   1
_chemical_formula_structural   CaYNbIr3
_chemical_formula_sum   'Ca1 Y1 Nb1 Ir3'
_cell_volume   115.04556292
_cell_formula_units_Z   1
loop_
 _symmetry_equiv_pos_site_id
 _symmetry_equiv_pos_as_xyz
  1  'x, y, z'
loop_
 _atom_site_type_symbol
 _atom_site_label
 _atom_site_symmetry_multiplicity
 _atom_site_fract_x
 _atom_site_fract_y
 _atom_site_fract_z
 _atom_site_occupancy
  Ca  Ca0  1  0.501817  0.499394  0.499394  1
  Y  Y1  1  0.748293  0.750569  0.750569  1
  Nb  Nb2  1  0.626906  0.124365  0.124365  1
  Ir  Ir3  1  0.124328  0.125705  0.125705  1
  Ir  Ir4  1  0.124328  0.125705  0.624262  1
  Ir  Ir5  1  0.124328  0.624262  0.125705  1
