# generated using pymatgen
data_RbEr(NbCl3)6
_symmetry_space_group_name_H-M   'P 1'
_cell_length_a   10.24247775
_cell_length_b   10.24247700
_cell_length_c   10.24247753
_cell_angle_alpha   55.39913789
_cell_angle_beta   55.39914008
_cell_angle_gamma   55.39914183
_symmetry_Int_Tables_number   1
_chemical_formula_structural   RbEr(NbCl3)6
_chemical_formula_sum   'Rb1 Er1 Nb6 Cl18'
_cell_volume   678.60147092
_cell_formula_units_Z   1
loop_
 _symmetry_equiv_pos_site_id
 _symmetry_equiv_pos_as_xyz
  1  'x, y, z'
loop_
 _atom_site_type_symbol
 _atom_site_label
 _atom_site_symmetry_multiplicity
 _atom_site_fract_x
 _atom_site_fract_y
 _atom_site_fract_z
 _atom_site_occupancy
  Rb  Rb0  1  0.222041  0.222041  0.222041  1
  Er  Er1  1  0.498434  0.498434  0.498434  1
  Nb  Nb2  1  0.801438  0.149119  0.911490  1
  Nb  Nb3  1  0.911490  0.801438  0.149119  1
  Nb  Nb4  1  0.149119  0.911490  0.801438  1
  Nb  Nb5  1  0.199707  0.851188  0.087421  1
  Nb  Nb6  1  0.087421  0.199707  0.851188  1
  Nb  Nb7  1  0.851188  0.087421  0.199707  1
  Cl  Cl8  1  0.865046  0.412012  0.726089  1
  Cl  Cl9  1  0.726089  0.865046  0.412012  1
  Cl  Cl10  1  0.412012  0.726089  0.865046  1
  Cl  Cl11  1  0.134380  0.587665  0.275593  1
  Cl  Cl12  1  0.275593  0.134380  0.587665  1
  Cl  Cl13  1  0.587665  0.275593  0.134380  1
  Cl  Cl14  1  0.536278  0.342610  0.798443  1
  Cl  Cl15  1  0.798443  0.536278  0.342610  1
  Cl  Cl16  1  0.342610  0.798443  0.536278  1
  Cl  Cl17  1  0.460025  0.659135  0.204173  1
  Cl  Cl18  1  0.204173  0.460025  0.659135  1
  Cl  Cl19  1  0.659135  0.204173  0.460025  1
  Cl  Cl20  1  0.662091  0.940210  0.070801  1
  Cl  Cl21  1  0.070801  0.662091  0.940210  1
  Cl  Cl22  1  0.940210  0.070801  0.662091  1
  Cl  Cl23  1  0.339699  0.059464  0.926585  1
  Cl  Cl24  1  0.926585  0.339699  0.059464  1
  Cl  Cl25  1  0.059464  0.926585  0.339699  1
