# generated using pymatgen
data_Lu12Sn2Os2Ru
_symmetry_space_group_name_H-M   'P 1'
_cell_length_a   8.26811447
_cell_length_b   8.26811497
_cell_length_c   8.26811400
_cell_angle_alpha   109.36000545
_cell_angle_beta   109.36000667
_cell_angle_gamma   109.69388122
_symmetry_Int_Tables_number   1
_chemical_formula_structural   Lu12Sn2Os2Ru
_chemical_formula_sum   'Lu12 Sn2 Os2 Ru1'
_cell_volume   435.10354589
_cell_formula_units_Z   1
loop_
 _symmetry_equiv_pos_site_id
 _symmetry_equiv_pos_as_xyz
  1  'x, y, z'
loop_
 _atom_site_type_symbol
 _atom_site_label
 _atom_site_symmetry_multiplicity
 _atom_site_fract_x
 _atom_site_fract_y
 _atom_site_fract_z
 _atom_site_occupancy
  Lu  Lu0  1  0.316538  0.316538  0.635164  1
  Lu  Lu1  1  0.681373  0.681373  0.364836  1
  Lu  Lu2  1  0.681373  0.316538  0.000000  1
  Lu  Lu3  1  0.316538  0.681373  0.000000  1
  Lu  Lu4  1  0.185462  0.426243  0.240783  1
  Lu  Lu5  1  0.814992  0.574536  0.759544  1
  Lu  Lu6  1  0.185462  0.944678  0.759217  1
  Lu  Lu7  1  0.944678  0.185462  0.759217  1
  Lu  Lu8  1  0.814992  0.055449  0.240456  1
  Lu  Lu9  1  0.055449  0.814992  0.240456  1
  Lu  Lu10  1  0.426243  0.185462  0.240783  1
  Lu  Lu11  1  0.574536  0.814992  0.759544  1
  Sn  Sn12  1  0.999457  0.499457  0.500000  1
  Sn  Sn13  1  0.499457  0.999457  0.500000  1
  Os  Os14  1  0.347194  0.347194  0.000000  1
  Os  Os15  1  0.999919  0.999919  0.000000  1
  Ru  Ru16  1  0.656337  0.656337  0.000000  1
