# generated using pymatgen
data_Lu12InGa(NiOs)2
_symmetry_space_group_name_H-M   'P 1'
_cell_length_a   8.23079296
_cell_length_b   8.23079215
_cell_length_c   8.23079220
_cell_angle_alpha   113.18607574
_cell_angle_beta   110.90284251
_cell_angle_gamma   104.44775483
_symmetry_Int_Tables_number   1
_chemical_formula_structural   Lu12InGa(NiOs)2
_chemical_formula_sum   'Lu12 In1 Ga1 Ni2 Os2'
_cell_volume   426.61054679
_cell_formula_units_Z   1
loop_
 _symmetry_equiv_pos_site_id
 _symmetry_equiv_pos_as_xyz
  1  'x, y, z'
loop_
 _atom_site_type_symbol
 _atom_site_label
 _atom_site_symmetry_multiplicity
 _atom_site_fract_x
 _atom_site_fract_y
 _atom_site_fract_z
 _atom_site_occupancy
  Lu  Lu0  1  0.434914  0.240474  0.194440  1
  Lu  Lu1  1  0.565086  0.759526  0.805560  1
  Lu  Lu2  1  0.046034  0.240474  0.805560  1
  Lu  Lu3  1  0.953966  0.759526  0.194440  1
  Lu  Lu4  1  0.179508  0.278708  0.458217  1
  Lu  Lu5  1  0.820492  0.721292  0.541783  1
  Lu  Lu6  1  0.179508  0.721292  0.900801  1
  Lu  Lu7  1  0.820492  0.278708  0.099199  1
  Lu  Lu8  1  0.330110  0.644714  0.314604  1
  Lu  Lu9  1  0.669890  0.355286  0.685396  1
  Lu  Lu10  1  0.330110  0.015504  0.685396  1
  Lu  Lu11  1  0.669890  0.984496  0.314604  1
  In  In12  1  0.500000  0.500000  0.000000  1
  Ga  Ga13  1  0.000000  0.000000  0.000000  1
  Ni  Ni14  1  0.118554  0.618554  0.500000  1
  Ni  Ni15  1  0.881446  0.381446  0.500000  1
  Os  Os16  1  0.328170  0.000000  0.328170  1
  Os  Os17  1  0.671830  0.000000  0.671830  1
