# generated using pymatgen
data_Yb20Si11P
_symmetry_space_group_name_H-M   'P 1'
_cell_length_a   7.57829600
_cell_length_b   7.57829600
_cell_length_c   14.58798900
_cell_angle_alpha   90.00000000
_cell_angle_beta   90.00000000
_cell_angle_gamma   90.00000000
_symmetry_Int_Tables_number   1
_chemical_formula_structural   Yb20Si11P
_chemical_formula_sum   'Yb20 Si11 P1'
_cell_volume   837.79652727
_cell_formula_units_Z   1
loop_
 _symmetry_equiv_pos_site_id
 _symmetry_equiv_pos_as_xyz
  1  'x, y, z'
loop_
 _atom_site_type_symbol
 _atom_site_label
 _atom_site_symmetry_multiplicity
 _atom_site_fract_x
 _atom_site_fract_y
 _atom_site_fract_z
 _atom_site_occupancy
  Yb  Yb0  1  0.312237  0.670579  0.106507  1
  Yb  Yb1  1  0.170579  0.187763  0.106507  1
  Yb  Yb2  1  0.500000  0.000000  0.742423  1
  Yb  Yb3  1  0.328785  0.687280  0.390407  1
  Yb  Yb4  1  0.675106  0.682787  0.893115  1
  Yb  Yb5  1  0.187280  0.171215  0.390407  1
  Yb  Yb6  1  0.671215  0.312720  0.390407  1
  Yb  Yb7  1  0.174810  0.814862  0.609552  1
  Yb  Yb8  1  0.324894  0.317213  0.893115  1
  Yb  Yb9  1  0.182787  0.824894  0.893115  1
  Yb  Yb10  1  0.500000  0.000000  0.233085  1
  Yb  Yb11  1  0.825190  0.185138  0.609552  1
  Yb  Yb12  1  0.314862  0.325190  0.609552  1
  Yb  Yb13  1  0.812720  0.828785  0.390407  1
  Yb  Yb14  1  0.817213  0.175106  0.893115  1
  Yb  Yb15  1  0.829421  0.812237  0.106507  1
  Yb  Yb16  1  0.000000  0.500000  0.268751  1
  Yb  Yb17  1  0.000000  0.500000  0.761400  1
  Yb  Yb18  1  0.687763  0.329421  0.106507  1
  Yb  Yb19  1  0.685138  0.674810  0.609552  1
  Si  Si20  1  0.112609  0.113875  0.752421  1
  Si  Si21  1  0.386125  0.612609  0.752421  1
  Si  Si22  1  0.614423  0.612419  0.247295  1
  Si  Si23  1  0.500000  0.000000  0.004162  1
  Si  Si24  1  0.112419  0.885577  0.247295  1
  Si  Si25  1  0.613875  0.387391  0.752421  1
  Si  Si26  1  0.887391  0.886125  0.752421  1
  Si  Si27  1  0.385577  0.387581  0.247295  1
  Si  Si28  1  0.887581  0.114423  0.247295  1
  Si  Si29  1  0.500000  0.000000  0.505612  1
  Si  Si30  1  0.000000  0.500000  0.494998  1
  P  P31  1  0.000000  0.500000  0.992394  1
