# generated using pymatgen
data_K6Ba6AlInP8
_symmetry_space_group_name_H-M   'P 1'
_cell_length_a   10.34979000
_cell_length_b   10.34978994
_cell_length_c   7.87593400
_cell_angle_alpha   90.00000000
_cell_angle_beta   90.00000000
_cell_angle_gamma   120.00000018
_symmetry_Int_Tables_number   1
_chemical_formula_structural   K6Ba6AlInP8
_chemical_formula_sum   'K6 Ba6 Al1 In1 P8'
_cell_volume   730.62709294
_cell_formula_units_Z   1
loop_
 _symmetry_equiv_pos_site_id
 _symmetry_equiv_pos_as_xyz
  1  'x, y, z'
loop_
 _atom_site_type_symbol
 _atom_site_label
 _atom_site_symmetry_multiplicity
 _atom_site_fract_x
 _atom_site_fract_y
 _atom_site_fract_z
 _atom_site_occupancy
  K  K0  1  0.731161  0.865581  0.173165  1
  K  K1  1  0.864914  0.135086  0.670108  1
  K  K2  1  0.864914  0.729826  0.670108  1
  K  K3  1  0.134419  0.268839  0.173165  1
  K  K4  1  0.134419  0.865581  0.173165  1
  K  K5  1  0.270174  0.135086  0.670108  1
  Ba  Ba6  1  0.048715  0.524358  0.499303  1
  Ba  Ba7  1  0.475642  0.951285  0.499303  1
  Ba  Ba8  1  0.475642  0.524358  0.499303  1
  Ba  Ba9  1  0.527120  0.472880  0.998049  1
  Ba  Ba10  1  0.527120  0.054239  0.998049  1
  Ba  Ba11  1  0.945761  0.472880  0.998049  1
  Al  Al12  1  0.666667  0.333333  0.378105  1
  In  In13  1  0.333333  0.666667  0.877323  1
  P  P14  1  0.666667  0.333333  0.701203  1
  P  P15  1  0.611984  0.805992  0.774451  1
  P  P16  1  0.797199  0.202801  0.278784  1
  P  P17  1  0.797199  0.594396  0.278784  1
  P  P18  1  0.333333  0.666667  0.220185  1
  P  P19  1  0.194008  0.388016  0.774451  1
  P  P20  1  0.194008  0.805992  0.774451  1
  P  P21  1  0.405604  0.202801  0.278784  1
