# generated using pymatgen
data_Yb2HoGa8Ag3
_symmetry_space_group_name_H-M   'P 1'
_cell_length_a   4.37267517
_cell_length_b   8.34809861
_cell_length_c   8.34809866
_cell_angle_alpha   70.73932428
_cell_angle_beta   74.81737470
_cell_angle_gamma   74.81737944
_symmetry_Int_Tables_number   1
_chemical_formula_structural   Yb2HoGa8Ag3
_chemical_formula_sum   'Yb2 Ho1 Ga8 Ag3'
_cell_volume   272.43710191
_cell_formula_units_Z   1
loop_
 _symmetry_equiv_pos_site_id
 _symmetry_equiv_pos_as_xyz
  1  'x, y, z'
loop_
 _atom_site_type_symbol
 _atom_site_label
 _atom_site_symmetry_multiplicity
 _atom_site_fract_x
 _atom_site_fract_y
 _atom_site_fract_z
 _atom_site_occupancy
  Yb  Yb0  1  0.499639  0.500361  0.500361  1
  Yb  Yb1  1  0.200734  0.799266  0.799266  1
  Ho  Ho2  1  0.796442  0.203558  0.203558  1
  Ga  Ga3  1  0.357985  0.361336  0.922694  1
  Ga  Ga4  1  0.644496  0.635671  0.075337  1
  Ga  Ga5  1  0.357985  0.922694  0.361336  1
  Ga  Ga6  1  0.644496  0.075337  0.635671  1
  Ga  Ga7  1  0.159195  0.471590  0.210019  1
  Ga  Ga8  1  0.839217  0.528194  0.793373  1
  Ga  Ga9  1  0.159195  0.210019  0.471590  1
  Ga  Ga10  1  0.839217  0.793373  0.528194  1
  Ag  Ag11  1  0.500073  0.999927  0.999927  1
  Ag  Ag12  1  0.000663  0.807857  0.190818  1
  Ag  Ag13  1  0.000663  0.190818  0.807857  1
