# generated using pymatgen
data_Y8Al(Si4Pt)3
_symmetry_space_group_name_H-M   'P 1'
_cell_length_a   8.15319900
_cell_length_b   8.15319785
_cell_length_c   8.18883900
_cell_angle_alpha   90.00000000
_cell_angle_beta   90.00000000
_cell_angle_gamma   119.99999247
_symmetry_Int_Tables_number   1
_chemical_formula_structural   Y8Al(Si4Pt)3
_chemical_formula_sum   'Y8 Al1 Si12 Pt3'
_cell_volume   471.42110477
_cell_formula_units_Z   1
loop_
 _symmetry_equiv_pos_site_id
 _symmetry_equiv_pos_as_xyz
  1  'x, y, z'
loop_
 _atom_site_type_symbol
 _atom_site_label
 _atom_site_symmetry_multiplicity
 _atom_site_fract_x
 _atom_site_fract_y
 _atom_site_fract_z
 _atom_site_occupancy
  Y  Y0  1  0.501453  0.002907  0.250835  1
  Y  Y1  1  0.500043  0.000086  0.749620  1
  Y  Y2  1  0.997093  0.498547  0.250835  1
  Y  Y3  1  0.999914  0.499957  0.749620  1
  Y  Y4  1  0.501453  0.498547  0.250835  1
  Y  Y5  1  0.500043  0.499957  0.749620  1
  Y  Y6  1  0.000000  0.000000  0.249940  1
  Y  Y7  1  0.000000  0.000000  0.749538  1
  Al  Al8  1  0.333333  0.666667  0.003782  1
  Si  Si9  1  0.163378  0.326757  0.997997  1
  Si  Si10  1  0.832660  0.665320  0.001629  1
  Si  Si11  1  0.673243  0.836622  0.997997  1
  Si  Si12  1  0.834005  0.668008  0.500926  1
  Si  Si13  1  0.334680  0.167340  0.001629  1
  Si  Si14  1  0.165747  0.331494  0.499125  1
  Si  Si15  1  0.163378  0.836622  0.997997  1
  Si  Si16  1  0.331992  0.165995  0.500926  1
  Si  Si17  1  0.832660  0.167340  0.001629  1
  Si  Si18  1  0.668506  0.834253  0.499125  1
  Si  Si19  1  0.834005  0.165995  0.500926  1
  Si  Si20  1  0.165747  0.834253  0.499125  1
  Pt  Pt21  1  0.666667  0.333333  0.997104  1
  Pt  Pt22  1  0.666667  0.333333  0.501324  1
  Pt  Pt23  1  0.333333  0.666667  0.497914  1
