# generated using pymatgen
data_Nd3YMg2Ir3
_symmetry_space_group_name_H-M   'P 1'
_cell_length_a   7.59168600
_cell_length_b   7.57557454
_cell_length_c   4.19828100
_cell_angle_alpha   90.00000000
_cell_angle_beta   90.00000000
_cell_angle_gamma   120.07036903
_symmetry_Int_Tables_number   1
_chemical_formula_structural   Nd3YMg2Ir3
_chemical_formula_sum   'Nd3 Y1 Mg2 Ir3'
_cell_volume   208.95249401
_cell_formula_units_Z   1
loop_
 _symmetry_equiv_pos_site_id
 _symmetry_equiv_pos_as_xyz
  1  'x, y, z'
loop_
 _atom_site_type_symbol
 _atom_site_label
 _atom_site_symmetry_multiplicity
 _atom_site_fract_x
 _atom_site_fract_y
 _atom_site_fract_z
 _atom_site_occupancy
  Nd  Nd0  1  0.392762  0.000000  0.500000  1
  Nd  Nd1  1  0.017727  0.433469  0.500000  1
  Nd  Nd2  1  0.584257  0.566531  0.500000  1
  Y  Y3  1  0.753961  0.000000  0.000000  1
  Mg  Mg4  1  0.243833  0.245413  0.000000  1
  Mg  Mg5  1  0.998419  0.754587  0.000000  1
  Ir  Ir6  1  0.668975  0.331514  0.000000  1
  Ir  Ir7  1  0.337462  0.668486  0.000000  1
  Ir  Ir8  1  0.002604  0.000000  0.500000  1
