# generated using pymatgen
data_TbTm2Ga5Rh
_symmetry_space_group_name_H-M   'P 1'
_cell_length_a   6.87502000
_cell_length_b   6.90479940
_cell_length_c   4.29162600
_cell_angle_alpha   90.00000000
_cell_angle_beta   90.00000000
_cell_angle_gamma   119.85744374
_symmetry_Int_Tables_number   1
_chemical_formula_structural   TbTm2Ga5Rh
_chemical_formula_sum   'Tb1 Tm2 Ga5 Rh1'
_cell_volume   176.68496734
_cell_formula_units_Z   1
loop_
 _symmetry_equiv_pos_site_id
 _symmetry_equiv_pos_as_xyz
  1  'x, y, z'
loop_
 _atom_site_type_symbol
 _atom_site_label
 _atom_site_symmetry_multiplicity
 _atom_site_fract_x
 _atom_site_fract_y
 _atom_site_fract_z
 _atom_site_occupancy
  Tb  Tb0  1  0.588221  0.000000  0.000000  1
  Tm  Tm1  1  0.998995  0.591091  0.000000  1
  Tm  Tm2  1  0.407903  0.408909  0.000000  1
  Ga  Ga3  1  0.238786  0.000000  0.500000  1
  Ga  Ga4  1  0.999816  0.238361  0.500000  1
  Ga  Ga5  1  0.761455  0.761639  0.500000  1
  Ga  Ga6  1  0.331674  0.663856  0.500000  1
  Ga  Ga7  1  0.667819  0.336144  0.500000  1
  Rh  Rh8  1  0.005333  0.000000  0.000000  1
