# generated using pymatgen
data_Tc(S2Br3)2
_symmetry_space_group_name_H-M   'P 1'
_cell_length_a   7.42534960
_cell_length_b   7.47903380
_cell_length_c   8.15763839
_cell_angle_alpha   63.84141200
_cell_angle_beta   63.87104960
_cell_angle_gamma   61.90672809
_symmetry_Int_Tables_number   1
_chemical_formula_structural   Tc(S2Br3)2
_chemical_formula_sum   'Tc1 S4 Br6'
_cell_volume   342.86864503
_cell_formula_units_Z   1
loop_
 _symmetry_equiv_pos_site_id
 _symmetry_equiv_pos_as_xyz
  1  'x, y, z'
loop_
 _atom_site_type_symbol
 _atom_site_label
 _atom_site_symmetry_multiplicity
 _atom_site_fract_x
 _atom_site_fract_y
 _atom_site_fract_z
 _atom_site_occupancy
  Tc  Tc0  1  0.000000  0.000000  0.000000  1
  S  S1  1  0.558473  0.666383  0.328173  1
  S  S2  1  0.280864  0.602015  0.494527  1
  S  S3  1  0.719136  0.397986  0.505472  1
  S  S4  1  0.441527  0.333619  0.671827  1
  Br  Br5  1  0.038759  0.613718  0.186963  1
  Br  Br6  1  0.157463  0.023850  0.209122  1
  Br  Br7  1  0.633190  0.124541  0.217570  1
  Br  Br8  1  0.366810  0.875459  0.782429  1
  Br  Br9  1  0.842536  0.976150  0.790878  1
  Br  Br10  1  0.961241  0.386283  0.813037  1
