# generated using pymatgen
data_Y8SiAsBr12
_symmetry_space_group_name_H-M   'P 1'
_cell_length_a   4.06713900
_cell_length_b   13.26119179
_cell_length_c   14.03645532
_cell_angle_alpha   89.89400069
_cell_angle_beta   90.00000000
_cell_angle_gamma   90.00000000
_symmetry_Int_Tables_number   1
_chemical_formula_structural   Y8SiAsBr12
_chemical_formula_sum   'Y8 Si1 As1 Br12'
_cell_volume   757.05647042
_cell_formula_units_Z   1
loop_
 _symmetry_equiv_pos_site_id
 _symmetry_equiv_pos_as_xyz
  1  'x, y, z'
loop_
 _atom_site_type_symbol
 _atom_site_label
 _atom_site_symmetry_multiplicity
 _atom_site_fract_x
 _atom_site_fract_y
 _atom_site_fract_z
 _atom_site_occupancy
  Y  Y0  1  0.500000  0.118502  0.340795  1
  Y  Y1  1  0.500000  0.881498  0.659205  1
  Y  Y2  1  0.500000  0.618158  0.158768  1
  Y  Y3  1  0.500000  0.381842  0.841232  1
  Y  Y4  1  0.000000  0.117643  0.577982  1
  Y  Y5  1  0.000000  0.882357  0.422018  1
  Y  Y6  1  0.000000  0.617926  0.921769  1
  Y  Y7  1  0.000000  0.382074  0.078231  1
  Si  Si8  1  0.500000  0.500000  0.000000  1
  As  As9  1  0.500000  0.000000  0.500000  1
  Br  Br10  1  0.500000  0.243727  0.162588  1
  Br  Br11  1  0.500000  0.756273  0.837412  1
  Br  Br12  1  0.500000  0.743961  0.337667  1
  Br  Br13  1  0.500000  0.256039  0.662333  1
  Br  Br14  1  0.000000  0.254828  0.411529  1
  Br  Br15  1  0.000000  0.745172  0.588471  1
  Br  Br16  1  0.000000  0.755093  0.088671  1
  Br  Br17  1  0.000000  0.244907  0.911329  1
  Br  Br18  1  0.000000  0.001542  0.243743  1
  Br  Br19  1  0.000000  0.998458  0.756257  1
  Br  Br20  1  0.000000  0.501665  0.256593  1
  Br  Br21  1  0.000000  0.498335  0.743407  1
