# generated using pymatgen
data_LaSnHg3Bi3O14
_symmetry_space_group_name_H-M   'P 1'
_cell_length_a   7.84328842
_cell_length_b   7.74967534
_cell_length_c   7.84328768
_cell_angle_alpha   58.74039123
_cell_angle_beta   59.07869085
_cell_angle_gamma   58.74038829
_symmetry_Int_Tables_number   1
_chemical_formula_structural   LaSnHg3Bi3O14
_chemical_formula_sum   'La1 Sn1 Hg3 Bi3 O14'
_cell_volume   328.27061416
_cell_formula_units_Z   1
loop_
 _symmetry_equiv_pos_site_id
 _symmetry_equiv_pos_as_xyz
  1  'x, y, z'
loop_
 _atom_site_type_symbol
 _atom_site_label
 _atom_site_symmetry_multiplicity
 _atom_site_fract_x
 _atom_site_fract_y
 _atom_site_fract_z
 _atom_site_occupancy
  La  La0  1  0.125000  0.125000  0.125000  1
  Sn  Sn1  1  0.625000  0.125000  0.625000  1
  Hg  Hg2  1  0.625000  0.125000  0.125000  1
  Hg  Hg3  1  0.125000  0.625000  0.125000  1
  Hg  Hg4  1  0.125000  0.125000  0.625000  1
  Bi  Bi5  1  0.625000  0.625000  0.125000  1
  Bi  Bi6  1  0.625000  0.625000  0.625000  1
  Bi  Bi7  1  0.125000  0.625000  0.625000  1
  O  O8  1  0.717497  0.293110  0.302026  1
  O  O9  1  0.703220  0.708085  0.291250  1
  O  O10  1  0.294388  0.721100  0.294388  1
  O  O11  1  0.996553  0.993264  0.996553  1
  O  O12  1  0.702338  0.291772  0.702338  1
  O  O13  1  0.958750  0.541915  0.546780  1
  O  O14  1  0.291250  0.708085  0.703220  1
  O  O15  1  0.547662  0.958228  0.547662  1
  O  O16  1  0.253447  0.256736  0.253447  1
  O  O17  1  0.955612  0.528900  0.955612  1
  O  O18  1  0.546780  0.541915  0.958750  1
  O  O19  1  0.947974  0.956890  0.532503  1
  O  O20  1  0.532503  0.956890  0.947974  1
  O  O21  1  0.302026  0.293110  0.717497  1
