# generated using pymatgen
data_TaCoSe4
_symmetry_space_group_name_H-M   'P 1'
_cell_length_a   3.46699900
_cell_length_b   11.68953400
_cell_length_c   13.82422904
_cell_angle_alpha   89.99436108
_cell_angle_beta   90.00000000
_cell_angle_gamma   90.00000000
_symmetry_Int_Tables_number   1
_chemical_formula_structural   TaCoSe4
_chemical_formula_sum   'Ta4 Co4 Se16'
_cell_volume   560.26285951
_cell_formula_units_Z   4
loop_
 _symmetry_equiv_pos_site_id
 _symmetry_equiv_pos_as_xyz
  1  'x, y, z'
loop_
 _atom_site_type_symbol
 _atom_site_label
 _atom_site_symmetry_multiplicity
 _atom_site_fract_x
 _atom_site_fract_y
 _atom_site_fract_z
 _atom_site_occupancy
  Ta  Ta0  1  0.000000  0.045624  0.999301  1
  Ta  Ta1  1  0.000000  0.262933  0.495019  1
  Ta  Ta2  1  0.500000  0.954374  0.499298  1
  Ta  Ta3  1  0.500000  0.737066  0.995022  1
  Co  Co4  1  0.000000  0.745830  0.494999  1
  Co  Co5  1  0.500000  0.472184  0.498425  1
  Co  Co6  1  0.500000  0.254159  0.994992  1
  Co  Co7  1  0.000000  0.527824  0.998432  1
  Se  Se8  1  0.000000  0.348406  0.082110  1
  Se  Se9  1  0.000000  0.846654  0.103821  1
  Se  Se10  1  0.500000  0.579963  0.114532  1
  Se  Se11  1  0.500000  0.113846  0.124506  1
  Se  Se12  1  0.500000  0.330879  0.369698  1
  Se  Se13  1  0.500000  0.798175  0.378965  1
  Se  Se14  1  0.000000  0.064157  0.390550  1
  Se  Se15  1  0.000000  0.566406  0.411128  1
  Se  Se16  1  0.500000  0.651572  0.582122  1
  Se  Se17  1  0.500000  0.153326  0.603813  1
  Se  Se18  1  0.000000  0.420033  0.614528  1
  Se  Se19  1  0.000000  0.886130  0.624501  1
  Se  Se20  1  0.000000  0.669167  0.869703  1
  Se  Se21  1  0.000000  0.201822  0.878969  1
  Se  Se22  1  0.500000  0.935863  0.890540  1
  Se  Se23  1  0.500000  0.433609  0.911140  1
