# generated using pymatgen
data_Nb3Si3MoOs2
_symmetry_space_group_name_H-M   'P 1'
_cell_length_a   7.54695142
_cell_length_b   7.54695056
_cell_length_c   7.54695148
_cell_angle_alpha   126.95586544
_cell_angle_beta   124.14462548
_cell_angle_gamma   80.64892403
_symmetry_Int_Tables_number   1
_chemical_formula_structural   Nb3Si3MoOs2
_chemical_formula_sum   'Nb6 Si6 Mo2 Os4'
_cell_volume   274.15275936
_cell_formula_units_Z   2
loop_
 _symmetry_equiv_pos_site_id
 _symmetry_equiv_pos_as_xyz
  1  'x, y, z'
loop_
 _atom_site_type_symbol
 _atom_site_label
 _atom_site_symmetry_multiplicity
 _atom_site_fract_x
 _atom_site_fract_y
 _atom_site_fract_z
 _atom_site_occupancy
  Nb  Nb0  1  0.558602  0.094048  0.035448  1
  Nb  Nb1  1  0.441398  0.476846  0.535448  1
  Nb  Nb2  1  0.961515  0.491852  0.030337  1
  Nb  Nb3  1  0.038485  0.068822  0.530337  1
  Nb  Nb4  1  0.752772  0.919698  0.666926  1
  Nb  Nb5  1  0.247228  0.914154  0.166926  1
  Si  Si6  1  0.780737  0.549888  0.269151  1
  Si  Si7  1  0.219263  0.488414  0.769151  1
  Si  Si8  1  0.334513  0.819064  0.493208  1
  Si  Si9  1  0.665487  0.158694  0.484550  1
  Si  Si10  1  0.825856  0.819064  0.984550  1
  Si  Si11  1  0.174144  0.158694  0.993208  1
  Mo  Mo12  1  0.500000  0.249166  0.749166  1
  Mo  Mo13  1  0.000000  0.249166  0.249166  1
  Os  Os14  1  0.163582  0.748101  0.657796  1
  Os  Os15  1  0.836418  0.494214  0.584519  1
  Os  Os16  1  0.590304  0.748101  0.084519  1
  Os  Os17  1  0.409696  0.494214  0.157796  1
