# generated using pymatgen
data_Dy2MgCo8TcP6
_symmetry_space_group_name_H-M   'P 1'
_cell_length_a   3.70113800
_cell_length_b   10.40577400
_cell_length_c   11.87916700
_cell_angle_alpha   90.00000000
_cell_angle_beta   90.00000000
_cell_angle_gamma   90.00000000
_symmetry_Int_Tables_number   1
_chemical_formula_structural   Dy2MgCo8TcP6
_chemical_formula_sum   'Dy4 Mg2 Co16 Tc2 P12'
_cell_volume   457.50480068
_cell_formula_units_Z   2
loop_
 _symmetry_equiv_pos_site_id
 _symmetry_equiv_pos_as_xyz
  1  'x, y, z'
loop_
 _atom_site_type_symbol
 _atom_site_label
 _atom_site_symmetry_multiplicity
 _atom_site_fract_x
 _atom_site_fract_y
 _atom_site_fract_z
 _atom_site_occupancy
  Dy  Dy0  1  0.250000  0.583520  0.704829  1
  Dy  Dy1  1  0.250000  0.916480  0.204829  1
  Dy  Dy2  1  0.750000  0.418841  0.296464  1
  Dy  Dy3  1  0.750000  0.081159  0.796464  1
  Mg  Mg4  1  0.750000  0.295784  0.010209  1
  Mg  Mg5  1  0.750000  0.204216  0.510209  1
  Co  Co6  1  0.250000  0.411003  0.486992  1
  Co  Co7  1  0.250000  0.088997  0.986992  1
  Co  Co8  1  0.750000  0.596220  0.510283  1
  Co  Co9  1  0.750000  0.903780  0.010283  1
  Co  Co10  1  0.250000  0.219190  0.173616  1
  Co  Co11  1  0.250000  0.280810  0.673616  1
  Co  Co12  1  0.750000  0.776794  0.823208  1
  Co  Co13  1  0.750000  0.723206  0.323208  1
  Co  Co14  1  0.250000  0.883239  0.702246  1
  Co  Co15  1  0.250000  0.616761  0.202246  1
  Co  Co16  1  0.750000  0.113773  0.299657  1
  Co  Co17  1  0.750000  0.386227  0.799657  1
  Co  Co18  1  0.250000  0.465116  0.934362  1
  Co  Co19  1  0.250000  0.034884  0.434362  1
  Co  Co20  1  0.750000  0.537272  0.069914  1
  Co  Co21  1  0.750000  0.962728  0.569914  1
  Tc  Tc22  1  0.250000  0.708751  0.990058  1
  Tc  Tc23  1  0.250000  0.791249  0.490058  1
  P  P24  1  0.250000  0.423188  0.118122  1
  P  P25  1  0.250000  0.076812  0.618122  1
  P  P26  1  0.750000  0.578749  0.887867  1
  P  P27  1  0.750000  0.921251  0.387867  1
  P  P28  1  0.250000  0.272045  0.857777  1
  P  P29  1  0.250000  0.227955  0.357777  1
  P  P30  1  0.750000  0.731926  0.133642  1
  P  P31  1  0.750000  0.768074  0.633642  1
  P  P32  1  0.250000  0.598793  0.391632  1
  P  P33  1  0.250000  0.901207  0.891632  1
  P  P34  1  0.750000  0.408265  0.609121  1
  P  P35  1  0.750000  0.091735  0.109121  1
