# generated using pymatgen
data_Sm4Al5Tc3
_symmetry_space_group_name_H-M   'P 1'
_cell_length_a   5.56889732
_cell_length_b   5.67435457
_cell_length_c   8.85185600
_cell_angle_alpha   90.00000000
_cell_angle_beta   90.00000000
_cell_angle_gamma   120.62841810
_symmetry_Int_Tables_number   1
_chemical_formula_structural   Sm4Al5Tc3
_chemical_formula_sum   'Sm4 Al5 Tc3'
_cell_volume   240.69416748
_cell_formula_units_Z   1
loop_
 _symmetry_equiv_pos_site_id
 _symmetry_equiv_pos_as_xyz
  1  'x, y, z'
loop_
 _atom_site_type_symbol
 _atom_site_label
 _atom_site_symmetry_multiplicity
 _atom_site_fract_x
 _atom_site_fract_y
 _atom_site_fract_z
 _atom_site_occupancy
  Sm  Sm0  1  0.338097  0.669049  0.443888  1
  Sm  Sm1  1  0.664261  0.332129  0.555175  1
  Sm  Sm2  1  0.664261  0.332129  0.944825  1
  Sm  Sm3  1  0.338097  0.669049  0.056112  1
  Al  Al4  1  0.839228  0.160348  0.250000  1
  Al  Al5  1  0.839228  0.678880  0.250000  1
  Al  Al6  1  0.320482  0.160241  0.250000  1
  Al  Al7  1  0.181315  0.842292  0.750000  1
  Al  Al8  1  0.181315  0.339023  0.750000  1
  Tc  Tc9  1  0.976749  0.988375  0.510654  1
  Tc  Tc10  1  0.976749  0.988375  0.989346  1
  Tc  Tc11  1  0.680218  0.840109  0.750000  1
