# generated using pymatgen
data_CaGaSiRh3
_symmetry_space_group_name_H-M   'P 1'
_cell_length_a   6.74641904
_cell_length_b   6.74641841
_cell_length_c   6.74641969
_cell_angle_alpha   129.95771203
_cell_angle_beta   115.27294872
_cell_angle_gamma   86.03465286
_symmetry_Int_Tables_number   1
_chemical_formula_structural   CaGaSiRh3
_chemical_formula_sum   'Ca2 Ga2 Si2 Rh6'
_cell_volume   203.31300178
_cell_formula_units_Z   2
loop_
 _symmetry_equiv_pos_site_id
 _symmetry_equiv_pos_as_xyz
  1  'x, y, z'
loop_
 _atom_site_type_symbol
 _atom_site_label
 _atom_site_symmetry_multiplicity
 _atom_site_fract_x
 _atom_site_fract_y
 _atom_site_fract_z
 _atom_site_occupancy
  Ca  Ca0  1  0.750000  0.042474  0.292474  1
  Ca  Ca1  1  0.250000  0.982076  0.732076  1
  Ga  Ga2  1  0.602410  0.392483  0.790073  1
  Ga  Ga3  1  0.897590  0.687662  0.790073  1
  Si  Si4  1  0.434866  0.638971  0.204106  1
  Si  Si5  1  0.065134  0.269240  0.204106  1
  Rh  Rh6  1  0.225477  0.501540  0.723775  1
  Rh  Rh7  1  0.777765  0.501540  0.276063  1
  Rh  Rh8  1  0.460235  0.493709  0.453944  1
  Rh  Rh9  1  0.039765  0.493709  0.033474  1
  Rh  Rh10  1  0.722235  0.998297  0.723775  1
  Rh  Rh11  1  0.274523  0.998297  0.276063  1
