# generated using pymatgen
data_Eu6PdRh
_symmetry_space_group_name_H-M   'P 1'
_cell_length_a   6.64535500
_cell_length_b   7.73993700
_cell_length_c   9.90163600
_cell_angle_alpha   90.00000000
_cell_angle_beta   90.00000000
_cell_angle_gamma   90.00000000
_symmetry_Int_Tables_number   1
_chemical_formula_structural   Eu6PdRh
_chemical_formula_sum   'Eu12 Pd2 Rh2'
_cell_volume   509.28697458
_cell_formula_units_Z   2
loop_
 _symmetry_equiv_pos_site_id
 _symmetry_equiv_pos_as_xyz
  1  'x, y, z'
loop_
 _atom_site_type_symbol
 _atom_site_label
 _atom_site_symmetry_multiplicity
 _atom_site_fract_x
 _atom_site_fract_y
 _atom_site_fract_z
 _atom_site_occupancy
  Eu  Eu0  1  0.665227  0.180719  0.063766  1
  Eu  Eu1  1  0.165227  0.319281  0.936234  1
  Eu  Eu2  1  0.839354  0.668040  0.434536  1
  Eu  Eu3  1  0.339354  0.831960  0.565464  1
  Eu  Eu4  1  0.339354  0.831960  0.934536  1
  Eu  Eu5  1  0.839354  0.668040  0.065464  1
  Eu  Eu6  1  0.165227  0.319281  0.563766  1
  Eu  Eu7  1  0.665227  0.180719  0.436234  1
  Eu  Eu8  1  0.853623  0.963874  0.750000  1
  Eu  Eu9  1  0.353623  0.536126  0.250000  1
  Eu  Eu10  1  0.632911  0.459220  0.750000  1
  Eu  Eu11  1  0.132911  0.040780  0.250000  1
  Pd  Pd12  1  0.052931  0.617053  0.750000  1
  Pd  Pd13  1  0.552931  0.882947  0.250000  1
  Rh  Rh14  1  0.451372  0.119643  0.750000  1
  Rh  Rh15  1  0.951372  0.380357  0.250000  1
