# generated using pymatgen
data_Th2Ga7Co2Au
_symmetry_space_group_name_H-M   'P 1'
_cell_length_a   8.13439758
_cell_length_b   8.13439757
_cell_length_c   6.53507395
_cell_angle_alpha   91.05672460
_cell_angle_beta   88.94327671
_cell_angle_gamma   149.88590272
_symmetry_Int_Tables_number   1
_chemical_formula_structural   Th2Ga7Co2Au
_chemical_formula_sum   'Th2 Ga7 Co2 Au1'
_cell_volume   216.91350905
_cell_formula_units_Z   1
loop_
 _symmetry_equiv_pos_site_id
 _symmetry_equiv_pos_as_xyz
  1  'x, y, z'
loop_
 _atom_site_type_symbol
 _atom_site_label
 _atom_site_symmetry_multiplicity
 _atom_site_fract_x
 _atom_site_fract_y
 _atom_site_fract_z
 _atom_site_occupancy
  Th  Th0  1  0.378719  0.621281  0.737741  1
  Th  Th1  1  0.621281  0.378719  0.262259  1
  Ga  Ga2  1  0.000000  0.000000  0.500000  1
  Ga  Ga3  1  0.813541  0.186459  0.050210  1
  Ga  Ga4  1  0.186459  0.813541  0.949790  1
  Ga  Ga5  1  0.189250  0.810750  0.559206  1
  Ga  Ga6  1  0.810750  0.189250  0.440794  1
  Ga  Ga7  1  0.424878  0.575122  0.240626  1
  Ga  Ga8  1  0.575122  0.424878  0.759374  1
  Co  Co9  1  0.725396  0.274604  0.750901  1
  Co  Co10  1  0.274604  0.725396  0.249099  1
  Au  Au11  1  0.000000  0.000000  0.000000  1
