# generated using pymatgen
data_Ba3Sr5(CoO4)4
_symmetry_space_group_name_H-M   'P 1'
_cell_length_a   7.48445645
_cell_length_b   5.96652557
_cell_length_c   11.32168431
_cell_angle_alpha   62.31264853
_cell_angle_beta   89.92993948
_cell_angle_gamma   90.24037956
_symmetry_Int_Tables_number   1
_chemical_formula_structural   Ba3Sr5(CoO4)4
_chemical_formula_sum   'Ba3 Sr5 Co4 O16'
_cell_volume   447.68538517
_cell_formula_units_Z   1
loop_
 _symmetry_equiv_pos_site_id
 _symmetry_equiv_pos_as_xyz
  1  'x, y, z'
loop_
 _atom_site_type_symbol
 _atom_site_label
 _atom_site_symmetry_multiplicity
 _atom_site_fract_x
 _atom_site_fract_y
 _atom_site_fract_z
 _atom_site_occupancy
  Ba  Ba0  1  0.149732  0.682250  0.080063  1
  Ba  Ba1  1  0.349422  0.683846  0.577144  1
  Ba  Ba2  1  0.850340  0.316388  0.919758  1
  Sr  Sr3  1  0.996766  0.974135  0.305617  1
  Sr  Sr4  1  0.500241  0.024853  0.196319  1
  Sr  Sr5  1  0.000585  0.025429  0.692949  1
  Sr  Sr6  1  0.500709  0.973332  0.804775  1
  Sr  Sr7  1  0.660041  0.309591  0.426581  1
  Co  Co8  1  0.223249  0.339556  0.418638  1
  Co  Co9  1  0.718313  0.662033  0.084212  1
  Co  Co10  1  0.777393  0.660235  0.578132  1
  Co  Co11  1  0.278940  0.337153  0.919058  1
  O  O12  1  0.323730  0.224955  0.582168  1
  O  O13  1  0.818666  0.768924  0.919545  1
  O  O14  1  0.679235  0.747238  0.416199  1
  O  O15  1  0.177864  0.221591  0.083394  1
  O  O16  1  0.338953  0.162692  0.349627  1
  O  O17  1  0.825726  0.855557  0.147601  1
  O  O18  1  0.671920  0.862740  0.637474  1
  O  O19  1  0.173931  0.155281  0.847694  1
  O  O20  1  0.262620  0.675867  0.324311  1
  O  O21  1  0.758870  0.328989  0.189990  1
  O  O22  1  0.734053  0.326728  0.679227  1
  O  O23  1  0.232357  0.671029  0.823459  1
  O  O24  1  0.510779  0.276231  0.932606  1
  O  O25  1  0.008868  0.727832  0.565371  1
  O  O26  1  0.487920  0.732186  0.065653  1
  O  O27  1  0.988773  0.273362  0.432434  1
