# generated using pymatgen
data_AcGa2(SnIr)4
_symmetry_space_group_name_H-M   'P 1'
_cell_length_a   6.87759088
_cell_length_b   6.87759068
_cell_length_c   6.79819000
_cell_angle_alpha   118.93946580
_cell_angle_beta   118.93946488
_cell_angle_gamma   92.48754511
_symmetry_Int_Tables_number   1
_chemical_formula_structural   AcGa2(SnIr)4
_chemical_formula_sum   'Ac1 Ga2 Sn4 Ir4'
_cell_volume   229.52959343
_cell_formula_units_Z   1
loop_
 _symmetry_equiv_pos_site_id
 _symmetry_equiv_pos_as_xyz
  1  'x, y, z'
loop_
 _atom_site_type_symbol
 _atom_site_label
 _atom_site_symmetry_multiplicity
 _atom_site_fract_x
 _atom_site_fract_y
 _atom_site_fract_z
 _atom_site_occupancy
  Ac  Ac0  1  0.978312  0.978312  0.000000  1
  Ga  Ga1  1  0.880470  0.518087  0.000000  1
  Ga  Ga2  1  0.518087  0.880470  0.000000  1
  Sn  Sn3  1  0.464093  0.464093  0.335321  1
  Sn  Sn4  1  0.508991  0.008990  0.500001  1
  Sn  Sn5  1  0.008990  0.508991  0.500001  1
  Sn  Sn6  1  0.128772  0.128772  0.664681  1
  Ir  Ir7  1  0.607092  0.232311  0.000000  1
  Ir  Ir8  1  0.232311  0.607092  0.000000  1
  Ir  Ir9  1  0.745377  0.745377  0.317868  1
  Ir  Ir10  1  0.427510  0.427510  0.682133  1
