# generated using pymatgen
data_Sr11Ca3Nb2(Ge2N9)2
_symmetry_space_group_name_H-M   'P 1'
_cell_length_a   10.53791979
_cell_length_b   6.38568436
_cell_length_c   9.52941056
_cell_angle_alpha   89.60044059
_cell_angle_beta   90.44455896
_cell_angle_gamma   90.22127987
_symmetry_Int_Tables_number   1
_chemical_formula_structural   Sr11Ca3Nb2(Ge2N9)2
_chemical_formula_sum   'Sr11 Ca3 Nb2 Ge4 N18'
_cell_volume   641.21192745
_cell_formula_units_Z   1
loop_
 _symmetry_equiv_pos_site_id
 _symmetry_equiv_pos_as_xyz
  1  'x, y, z'
loop_
 _atom_site_type_symbol
 _atom_site_label
 _atom_site_symmetry_multiplicity
 _atom_site_fract_x
 _atom_site_fract_y
 _atom_site_fract_z
 _atom_site_occupancy
  Sr  Sr0  1  0.942237  0.425737  0.163725  1
  Sr  Sr1  1  0.078451  0.246964  0.492762  1
  Sr  Sr2  1  0.442258  0.573120  0.838836  1
  Sr  Sr3  1  0.578575  0.754489  0.508352  1
  Sr  Sr4  1  0.581099  0.070720  0.833886  1
  Sr  Sr5  1  0.920127  0.069085  0.831035  1
  Sr  Sr6  1  0.421588  0.930874  0.169222  1
  Sr  Sr7  1  0.419810  0.247921  0.489578  1
  Sr  Sr8  1  0.081055  0.929689  0.168467  1
  Sr  Sr9  1  0.921432  0.753247  0.506624  1
  Sr  Sr10  1  0.060450  0.573211  0.836541  1
  Ca  Ca11  1  0.251424  0.099527  0.792198  1
  Ca  Ca12  1  0.748793  0.901647  0.206772  1
  Ca  Ca13  1  0.567683  0.432233  0.169098  1
  Nb  Nb14  1  0.747522  0.282079  0.427919  1
  Nb  Nb15  1  0.249621  0.720479  0.569653  1
  Ge  Ge16  1  0.250916  0.319075  0.055389  1
  Ge  Ge17  1  0.750679  0.454768  0.717366  1
  Ge  Ge18  1  0.749040  0.676023  0.947132  1
  Ge  Ge19  1  0.249728  0.544749  0.281476  1
  N  N20  1  0.402788  0.226845  0.974911  1
  N  N21  1  0.245408  0.242879  0.255870  1
  N  N22  1  0.889892  0.118906  0.341479  1
  N  N23  1  0.611276  0.355678  0.619138  1
  N  N24  1  0.747353  0.547962  0.329368  1
  N  N25  1  0.245296  0.622102  0.081632  1
  N  N26  1  0.890061  0.361957  0.620332  1
  N  N27  1  0.390943  0.639859  0.377426  1
  N  N28  1  0.752737  0.374110  0.917390  1
  N  N29  1  0.107768  0.881161  0.659390  1
  N  N30  1  0.747343  0.755953  0.746557  1
  N  N31  1  0.111223  0.642736  0.379447  1
  N  N32  1  0.598080  0.761647  0.033029  1
  N  N33  1  0.250020  0.453719  0.667126  1
  N  N34  1  0.393274  0.882816  0.659308  1
  N  N35  1  0.603936  0.128082  0.332281  1
  N  N36  1  0.102222  0.220347  0.968305  1
  N  N37  1  0.897896  0.777606  0.030978  1
