# generated using pymatgen
data_DyScMnB6
_symmetry_space_group_name_H-M   'P 1'
_cell_length_a   3.43415600
_cell_length_b   8.90288400
_cell_length_c   11.27188100
_cell_angle_alpha   90.00000000
_cell_angle_beta   90.00000000
_cell_angle_gamma   90.00000000
_symmetry_Int_Tables_number   1
_chemical_formula_structural   DyScMnB6
_chemical_formula_sum   'Dy4 Sc4 Mn4 B24'
_cell_volume   344.62527803
_cell_formula_units_Z   4
loop_
 _symmetry_equiv_pos_site_id
 _symmetry_equiv_pos_as_xyz
  1  'x, y, z'
loop_
 _atom_site_type_symbol
 _atom_site_label
 _atom_site_symmetry_multiplicity
 _atom_site_fract_x
 _atom_site_fract_y
 _atom_site_fract_z
 _atom_site_occupancy
  Dy  Dy0  1  0.000000  0.822659  0.085319  1
  Dy  Dy1  1  0.000000  0.177341  0.914681  1
  Dy  Dy2  1  0.000000  0.322659  0.414681  1
  Dy  Dy3  1  0.000000  0.677341  0.585319  1
  Sc  Sc4  1  0.000000  0.443707  0.130556  1
  Sc  Sc5  1  0.000000  0.556293  0.869444  1
  Sc  Sc6  1  0.000000  0.943707  0.369444  1
  Sc  Sc7  1  0.000000  0.056293  0.630556  1
  Mn  Mn8  1  0.000000  0.141313  0.182173  1
  Mn  Mn9  1  0.000000  0.858687  0.817827  1
  Mn  Mn10  1  0.000000  0.641313  0.317827  1
  Mn  Mn11  1  0.000000  0.358687  0.682173  1
  B  B12  1  0.500000  0.055399  0.068770  1
  B  B13  1  0.500000  0.944601  0.931230  1
  B  B14  1  0.500000  0.555399  0.431230  1
  B  B15  1  0.500000  0.444601  0.568770  1
  B  B16  1  0.500000  0.252070  0.083164  1
  B  B17  1  0.500000  0.747930  0.916836  1
  B  B18  1  0.500000  0.752070  0.416836  1
  B  B19  1  0.500000  0.247930  0.583164  1
  B  B20  1  0.500000  0.293575  0.234842  1
  B  B21  1  0.500000  0.706425  0.765158  1
  B  B22  1  0.500000  0.793575  0.265158  1
  B  B23  1  0.500000  0.206425  0.734842  1
  B  B24  1  0.500000  0.129807  0.315825  1
  B  B25  1  0.500000  0.870193  0.684175  1
  B  B26  1  0.500000  0.629807  0.184175  1
  B  B27  1  0.500000  0.370193  0.815825  1
  B  B28  1  0.500000  0.483811  0.286419  1
  B  B29  1  0.500000  0.516189  0.713581  1
  B  B30  1  0.500000  0.983811  0.213581  1
  B  B31  1  0.500000  0.016189  0.786419  1
  B  B32  1  0.500000  0.097079  0.473781  1
  B  B33  1  0.500000  0.902921  0.526219  1
  B  B34  1  0.500000  0.597079  0.026219  1
  B  B35  1  0.500000  0.402921  0.973781  1
