# generated using pymatgen
data_Pr7Lu(Si3Ir)4
_symmetry_space_group_name_H-M   'P 1'
_cell_length_a   8.24494993
_cell_length_b   8.24495144
_cell_length_c   8.47781300
_cell_angle_alpha   90.00000000
_cell_angle_beta   90.00000000
_cell_angle_gamma   119.82211848
_symmetry_Int_Tables_number   1
_chemical_formula_structural   Pr7Lu(Si3Ir)4
_chemical_formula_sum   'Pr7 Lu1 Si12 Ir4'
_cell_volume   499.99568226
_cell_formula_units_Z   1
loop_
 _symmetry_equiv_pos_site_id
 _symmetry_equiv_pos_as_xyz
  1  'x, y, z'
loop_
 _atom_site_type_symbol
 _atom_site_label
 _atom_site_symmetry_multiplicity
 _atom_site_fract_x
 _atom_site_fract_y
 _atom_site_fract_z
 _atom_site_occupancy
  Pr  Pr0  1  0.500361  0.499639  0.250000  1
  Pr  Pr1  1  0.001395  0.500678  0.750000  1
  Pr  Pr2  1  0.998870  0.499518  0.250000  1
  Pr  Pr3  1  0.499322  0.998605  0.750000  1
  Pr  Pr4  1  0.500482  0.001130  0.250000  1
  Pr  Pr5  1  0.999863  0.000137  0.750000  1
  Pr  Pr6  1  0.000104  0.999896  0.250000  1
  Lu  Lu7  1  0.499843  0.500157  0.750000  1
  Si  Si8  1  0.832649  0.167351  0.000792  1
  Si  Si9  1  0.167294  0.832706  0.000201  1
  Si  Si10  1  0.334022  0.167862  0.996882  1
  Si  Si11  1  0.167294  0.832706  0.499799  1
  Si  Si12  1  0.665949  0.832072  0.995661  1
  Si  Si13  1  0.832649  0.167351  0.499208  1
  Si  Si14  1  0.832138  0.665978  0.996882  1
  Si  Si15  1  0.665949  0.832072  0.504339  1
  Si  Si16  1  0.167928  0.334051  0.995661  1
  Si  Si17  1  0.334022  0.167862  0.503118  1
  Si  Si18  1  0.167928  0.334051  0.504339  1
  Si  Si19  1  0.832138  0.665978  0.503118  1
  Ir  Ir20  1  0.664876  0.335124  0.992024  1
  Ir  Ir21  1  0.335024  0.664976  0.996857  1
  Ir  Ir22  1  0.335024  0.664976  0.503143  1
  Ir  Ir23  1  0.664876  0.335124  0.507976  1
