# generated using pymatgen
data_CeTh3(ZnRu)4
_symmetry_space_group_name_H-M   'P 1'
_cell_length_a   3.99073100
_cell_length_b   7.03949759
_cell_length_c   8.51612239
_cell_angle_alpha   90.75128152
_cell_angle_beta   90.00000000
_cell_angle_gamma   90.00000000
_symmetry_Int_Tables_number   1
_chemical_formula_structural   CeTh3(ZnRu)4
_chemical_formula_sum   'Ce1 Th3 Zn4 Ru4'
_cell_volume   239.22065629
_cell_formula_units_Z   1
loop_
 _symmetry_equiv_pos_site_id
 _symmetry_equiv_pos_as_xyz
  1  'x, y, z'
loop_
 _atom_site_type_symbol
 _atom_site_label
 _atom_site_symmetry_multiplicity
 _atom_site_fract_x
 _atom_site_fract_y
 _atom_site_fract_z
 _atom_site_occupancy
  Ce  Ce0  1  0.250000  0.535509  0.188400  1
  Th  Th1  1  0.750000  0.462417  0.815544  1
  Th  Th2  1  0.250000  0.037348  0.312484  1
  Th  Th3  1  0.750000  0.959750  0.685294  1
  Zn  Zn4  1  0.250000  0.626630  0.553044  1
  Zn  Zn5  1  0.250000  0.132108  0.946530  1
  Zn  Zn6  1  0.750000  0.372550  0.445413  1
  Zn  Zn7  1  0.750000  0.867070  0.055993  1
  Ru  Ru8  1  0.250000  0.746310  0.865159  1
  Ru  Ru9  1  0.250000  0.242498  0.632928  1
  Ru  Ru10  1  0.750000  0.752668  0.362422  1
  Ru  Ru11  1  0.750000  0.265142  0.136788  1
