# generated using pymatgen
data_La2PrSm3OsI10
_symmetry_space_group_name_H-M   'P 1'
_cell_length_a   8.02740968
_cell_length_b   10.14188913
_cell_length_c   9.95808480
_cell_angle_alpha   107.20685854
_cell_angle_beta   95.98687246
_cell_angle_gamma   105.59179745
_symmetry_Int_Tables_number   1
_chemical_formula_structural   La2PrSm3OsI10
_chemical_formula_sum   'La2 Pr1 Sm3 Os1 I10'
_cell_volume   730.89796443
_cell_formula_units_Z   1
loop_
 _symmetry_equiv_pos_site_id
 _symmetry_equiv_pos_as_xyz
  1  'x, y, z'
loop_
 _atom_site_type_symbol
 _atom_site_label
 _atom_site_symmetry_multiplicity
 _atom_site_fract_x
 _atom_site_fract_y
 _atom_site_fract_z
 _atom_site_occupancy
  La  La0  1  0.385697  0.957880  0.728863  1
  La  La1  1  0.613458  0.041237  0.270552  1
  Pr  Pr2  1  0.470515  0.295169  0.590929  1
  Sm  Sm3  1  0.529390  0.709547  0.410118  1
  Sm  Sm4  1  0.855337  0.129028  0.671577  1
  Sm  Sm5  1  0.144724  0.868817  0.328208  1
  Os  Os6  1  0.499753  0.999459  0.499627  1
  I  I7  1  0.417121  0.630877  0.676482  1
  I  I8  1  0.584620  0.373010  0.319704  1
  I  I9  1  0.280152  0.259404  0.849836  1
  I  I10  1  0.715969  0.738134  0.153399  1
  I  I11  1  0.858830  0.449556  0.771182  1
  I  I12  1  0.148790  0.550655  0.231227  1
  I  I13  1  0.046231  0.176862  0.411176  1
  I  I14  1  0.235675  0.911803  0.043682  1
  I  I15  1  0.763162  0.087579  0.956351  1
  I  I16  1  0.950579  0.820984  0.587088  1
