# generated using pymatgen
data_Tm6P5Cl
_symmetry_space_group_name_H-M   'P 1'
_cell_length_a   6.86399947
_cell_length_b   6.86187972
_cell_length_c   6.84436100
_cell_angle_alpha   80.37385754
_cell_angle_beta   80.36860372
_cell_angle_gamma   119.86031879
_symmetry_Int_Tables_number   1
_chemical_formula_structural   Tm6P5Cl
_chemical_formula_sum   'Tm6 P5 Cl1'
_cell_volume   263.53441950
_cell_formula_units_Z   1
loop_
 _symmetry_equiv_pos_site_id
 _symmetry_equiv_pos_as_xyz
  1  'x, y, z'
loop_
 _atom_site_type_symbol
 _atom_site_label
 _atom_site_symmetry_multiplicity
 _atom_site_fract_x
 _atom_site_fract_y
 _atom_site_fract_z
 _atom_site_occupancy
  Tm  Tm0  1  0.167523  0.881114  0.471185  1
  Tm  Tm1  1  0.871231  0.233467  0.469862  1
  Tm  Tm2  1  0.344734  0.706655  0.989941  1
  Tm  Tm3  1  0.697789  0.411257  0.989499  1
  Tm  Tm4  1  0.992778  0.058078  0.989834  1
  Tm  Tm5  1  0.519840  0.584480  0.469708  1
  P  P6  1  0.099996  0.478235  0.729937  1
  P  P7  1  0.933020  0.646374  0.230052  1
  P  P8  1  0.271015  0.306422  0.229727  1
  P  P9  1  0.592985  0.984794  0.230150  1
  P  P10  1  0.764367  0.813215  0.729840  1
  Cl  Cl11  1  0.433052  0.148179  0.729813  1
