# generated using pymatgen
data_Li8Tb7HoSn5Sb3
_symmetry_space_group_name_H-M   'P 1'
_cell_length_a   9.41692000
_cell_length_b   9.41691955
_cell_length_c   7.25225200
_cell_angle_alpha   90.00000000
_cell_angle_beta   90.00000000
_cell_angle_gamma   119.99999456
_symmetry_Int_Tables_number   1
_chemical_formula_structural   Li8Tb7HoSn5Sb3
_chemical_formula_sum   'Li8 Tb7 Ho1 Sn5 Sb3'
_cell_volume   556.95650796
_cell_formula_units_Z   1
loop_
 _symmetry_equiv_pos_site_id
 _symmetry_equiv_pos_as_xyz
  1  'x, y, z'
loop_
 _atom_site_type_symbol
 _atom_site_label
 _atom_site_symmetry_multiplicity
 _atom_site_fract_x
 _atom_site_fract_y
 _atom_site_fract_z
 _atom_site_occupancy
  Li  Li0  1  0.166618  0.333235  0.282812  1
  Li  Li1  1  0.166618  0.833382  0.282812  1
  Li  Li2  1  0.666765  0.833382  0.282812  1
  Li  Li3  1  0.833371  0.666742  0.785558  1
  Li  Li4  1  0.833371  0.166629  0.785558  1
  Li  Li5  1  0.333258  0.166629  0.785558  1
  Li  Li6  1  0.333333  0.666667  0.678777  1
  Li  Li7  1  0.666667  0.333333  0.182949  1
  Tb  Tb8  1  0.511639  0.023275  0.490778  1
  Tb  Tb9  1  0.511639  0.488361  0.490778  1
  Tb  Tb10  1  0.976725  0.488361  0.490778  1
  Tb  Tb11  1  0.490340  0.980681  0.995609  1
  Tb  Tb12  1  0.490340  0.509660  0.995609  1
  Tb  Tb13  1  0.019319  0.509660  0.995609  1
  Tb  Tb14  1  0.000000  0.000000  0.497430  1
  Ho  Ho15  1  0.000000  0.000000  0.004262  1
  Sn  Sn16  1  0.833755  0.667509  0.231823  1
  Sn  Sn17  1  0.833755  0.166245  0.231823  1
  Sn  Sn18  1  0.332491  0.166245  0.231823  1
  Sn  Sn19  1  0.333333  0.666667  0.258211  1
  Sn  Sn20  1  0.666667  0.333333  0.758285  1
  Sb  Sb21  1  0.166521  0.333040  0.734116  1
  Sb  Sb22  1  0.166521  0.833479  0.734116  1
  Sb  Sb23  1  0.666960  0.833479  0.734116  1
