# generated using pymatgen
data_Tl2Ag(PS3)3
_symmetry_space_group_name_H-M   'P 1'
_cell_length_a   24.34122500
_cell_length_b   6.90597437
_cell_length_c   10.99058600
_cell_angle_alpha   61.12564802
_cell_angle_beta   90.00000000
_cell_angle_gamma   90.00000000
_symmetry_Int_Tables_number   1
_chemical_formula_structural   Tl2Ag(PS3)3
_chemical_formula_sum   'Tl8 Ag4 P12 S36'
_cell_volume   1617.83437154
_cell_formula_units_Z   4
loop_
 _symmetry_equiv_pos_site_id
 _symmetry_equiv_pos_as_xyz
  1  'x, y, z'
loop_
 _atom_site_type_symbol
 _atom_site_label
 _atom_site_symmetry_multiplicity
 _atom_site_fract_x
 _atom_site_fract_y
 _atom_site_fract_z
 _atom_site_occupancy
  Tl  Tl0  1  0.541453  0.495155  0.738921  1
  Tl  Tl1  1  0.807779  0.796864  0.375663  1
  Tl  Tl2  1  0.192221  0.203136  0.624337  1
  Tl  Tl3  1  0.692221  0.796864  0.875663  1
  Tl  Tl4  1  0.307779  0.203136  0.124337  1
  Tl  Tl5  1  0.958547  0.495155  0.238921  1
  Tl  Tl6  1  0.041453  0.504845  0.761079  1
  Tl  Tl7  1  0.458547  0.504845  0.261079  1
  Ag  Ag8  1  0.887769  0.747750  0.697420  1
  Ag  Ag9  1  0.387769  0.252250  0.802580  1
  Ag  Ag10  1  0.112231  0.252250  0.302580  1
  Ag  Ag11  1  0.612231  0.747750  0.197420  1
  P  P12  1  0.596594  0.295384  0.152775  1
  P  P13  1  0.903406  0.295384  0.652775  1
  P  P14  1  0.898596  0.240682  0.992305  1
  P  P15  1  0.277681  0.603768  0.718621  1
  P  P16  1  0.403406  0.704616  0.847225  1
  P  P17  1  0.777681  0.396232  0.781379  1
  P  P18  1  0.222319  0.603768  0.218621  1
  P  P19  1  0.101404  0.759318  0.007695  1
  P  P20  1  0.096594  0.704616  0.347225  1
  P  P21  1  0.398596  0.759318  0.507695  1
  P  P22  1  0.722319  0.396232  0.281379  1
  P  P23  1  0.601404  0.240682  0.492305  1
  S  S24  1  0.417552  0.989862  0.316013  1
  S  S25  1  0.286015  0.273893  0.810204  1
  S  S26  1  0.927295  0.543080  0.937203  1
  S  S27  1  0.569907  0.119198  0.065160  1
  S  S28  1  0.815611  0.259214  0.662642  1
  S  S29  1  0.188464  0.785226  0.014925  1
  S  S30  1  0.069907  0.880802  0.434840  1
  S  S31  1  0.684389  0.259214  0.162642  1
  S  S32  1  0.431478  0.887273  0.636562  1
  S  S33  1  0.572705  0.543080  0.437203  1
  S  S34  1  0.568520  0.604177  0.046165  1
  S  S35  1  0.811536  0.214774  0.985075  1
  S  S36  1  0.184389  0.740786  0.337358  1
  S  S37  1  0.427295  0.456920  0.562797  1
  S  S38  1  0.311536  0.785226  0.514925  1
  S  S39  1  0.582448  0.010138  0.683987  1
  S  S40  1  0.568522  0.112727  0.363438  1
  S  S41  1  0.930093  0.119198  0.565160  1
  S  S42  1  0.213985  0.273893  0.310204  1
  S  S43  1  0.431480  0.395823  0.953835  1
  S  S44  1  0.700685  0.295383  0.809157  1
  S  S45  1  0.931480  0.604177  0.546165  1
  S  S46  1  0.082448  0.989862  0.816013  1
  S  S47  1  0.200685  0.704617  0.690843  1
  S  S48  1  0.799315  0.295383  0.309157  1
  S  S49  1  0.068520  0.395823  0.453835  1
  S  S50  1  0.299315  0.704617  0.190843  1
  S  S51  1  0.917552  0.010138  0.183987  1
  S  S52  1  0.931478  0.112727  0.863438  1
  S  S53  1  0.430093  0.880802  0.934840  1
  S  S54  1  0.688464  0.214774  0.485075  1
  S  S55  1  0.068522  0.887273  0.136562  1
  S  S56  1  0.315611  0.740786  0.837358  1
  S  S57  1  0.786015  0.726107  0.689796  1
  S  S58  1  0.072705  0.456920  0.062797  1
  S  S59  1  0.713985  0.726107  0.189796  1
