# generated using pymatgen
data_Dy5OsRu
_symmetry_space_group_name_H-M   'P 1'
_cell_length_a   6.39530711
_cell_length_b   7.28691139
_cell_length_c   8.45726974
_cell_angle_alpha   96.62017969
_cell_angle_beta   112.21575543
_cell_angle_gamma   89.99998716
_symmetry_Int_Tables_number   1
_chemical_formula_structural   Dy5OsRu
_chemical_formula_sum   'Dy10 Os2 Ru2'
_cell_volume   362.02844294
_cell_formula_units_Z   2
loop_
 _symmetry_equiv_pos_site_id
 _symmetry_equiv_pos_as_xyz
  1  'x, y, z'
loop_
 _atom_site_type_symbol
 _atom_site_label
 _atom_site_symmetry_multiplicity
 _atom_site_fract_x
 _atom_site_fract_y
 _atom_site_fract_z
 _atom_site_occupancy
  Dy  Dy0  1  0.793802  0.083154  0.817352  1
  Dy  Dy1  1  0.976450  0.416846  0.182648  1
  Dy  Dy2  1  0.208035  0.915647  0.185370  1
  Dy  Dy3  1  0.022665  0.584353  0.814630  1
  Dy  Dy4  1  0.209120  0.184231  0.563580  1
  Dy  Dy5  1  0.645540  0.315769  0.436420  1
  Dy  Dy6  1  0.791464  0.816308  0.435857  1
  Dy  Dy7  1  0.355607  0.683692  0.564143  1
  Dy  Dy8  1  0.423531  0.250000  0.000000  1
  Dy  Dy9  1  0.576456  0.750000  0.000000  1
  Os  Os10  1  0.605517  0.424912  0.781233  1
  Os  Os11  1  0.824284  0.075088  0.218767  1
  Ru  Ru12  1  0.394286  0.575523  0.221041  1
  Ru  Ru13  1  0.173245  0.924477  0.778959  1
