# generated using pymatgen
data_La3Pr2In3Cl
_symmetry_space_group_name_H-M   'P 1'
_cell_length_a   9.72174424
_cell_length_b   9.72541388
_cell_length_c   6.83185400
_cell_angle_alpha   90.00000000
_cell_angle_beta   90.00000000
_cell_angle_gamma   120.01247658
_symmetry_Int_Tables_number   1
_chemical_formula_structural   La3Pr2In3Cl
_chemical_formula_sum   'La6 Pr4 In6 Cl2'
_cell_volume   559.32840879
_cell_formula_units_Z   2
loop_
 _symmetry_equiv_pos_site_id
 _symmetry_equiv_pos_as_xyz
  1  'x, y, z'
loop_
 _atom_site_type_symbol
 _atom_site_label
 _atom_site_symmetry_multiplicity
 _atom_site_fract_x
 _atom_site_fract_y
 _atom_site_fract_z
 _atom_site_occupancy
  La  La0  1  0.740618  0.000103  0.750000  1
  La  La1  1  0.740618  0.740515  0.250000  1
  La  La2  1  0.000000  0.259000  0.250000  1
  La  La3  1  0.000000  0.741000  0.750000  1
  La  La4  1  0.259382  0.259485  0.750000  1
  La  La5  1  0.259382  0.999897  0.250000  1
  Pr  Pr6  1  0.666762  0.333380  0.000000  1
  Pr  Pr7  1  0.333238  0.666620  0.500000  1
  Pr  Pr8  1  0.666762  0.333380  0.500000  1
  Pr  Pr9  1  0.333238  0.666620  0.000000  1
  In  In10  1  0.605694  0.605748  0.750000  1
  In  In11  1  0.000000  0.606197  0.250000  1
  In  In12  1  0.605694  0.999946  0.250000  1
  In  In13  1  0.394306  0.000054  0.750000  1
  In  In14  1  0.000000  0.393803  0.750000  1
  In  In15  1  0.394306  0.394252  0.250000  1
  Cl  Cl16  1  0.000000  0.000000  0.500000  1
  Cl  Cl17  1  0.000000  0.000000  0.000000  1
