# generated using pymatgen
data_Y2Si14Ir5Ru
_symmetry_space_group_name_H-M   'P 1'
_cell_length_a   8.01256282
_cell_length_b   8.01256326
_cell_length_c   8.04139451
_cell_angle_alpha   56.78611180
_cell_angle_beta   56.78610584
_cell_angle_gamma   56.84614702
_symmetry_Int_Tables_number   1
_chemical_formula_structural   Y2Si14Ir5Ru
_chemical_formula_sum   'Y2 Si14 Ir5 Ru1'
_cell_volume   338.14598332
_cell_formula_units_Z   1
loop_
 _symmetry_equiv_pos_site_id
 _symmetry_equiv_pos_as_xyz
  1  'x, y, z'
loop_
 _atom_site_type_symbol
 _atom_site_label
 _atom_site_symmetry_multiplicity
 _atom_site_fract_x
 _atom_site_fract_y
 _atom_site_fract_z
 _atom_site_occupancy
  Y  Y0  1  0.000842  0.001713  0.998150  1
  Y  Y1  1  0.498287  0.499158  0.501850  1
  Si  Si2  1  0.753746  0.746254  0.750000  1
  Si  Si3  1  0.249496  0.250504  0.250000  1
  Si  Si4  1  0.850518  0.065126  0.671926  1
  Si  Si5  1  0.671427  0.852033  0.064251  1
  Si  Si6  1  0.064193  0.669493  0.850676  1
  Si  Si7  1  0.647967  0.828573  0.435749  1
  Si  Si8  1  0.434874  0.649482  0.828074  1
  Si  Si9  1  0.830507  0.435807  0.649324  1
  Si  Si10  1  0.171150  0.563157  0.355297  1
  Si  Si11  1  0.565805  0.351223  0.171192  1
  Si  Si12  1  0.349274  0.174366  0.565997  1
  Si  Si13  1  0.936843  0.328850  0.144703  1
  Si  Si14  1  0.325634  0.150726  0.934003  1
  Si  Si15  1  0.148777  0.934195  0.328808  1
  Ir  Ir16  1  0.250196  0.928763  0.571060  1
  Ir  Ir17  1  0.571237  0.249804  0.928940  1
  Ir  Ir18  1  0.927245  0.572755  0.250000  1
  Ir  Ir19  1  0.428678  0.750140  0.071291  1
  Ir  Ir20  1  0.749860  0.071322  0.428709  1
  Ru  Ru21  1  0.073445  0.426555  0.750000  1
