# generated using pymatgen
data_PuPd8
_symmetry_space_group_name_H-M   'P 1'
_cell_length_a   6.32942640
_cell_length_b   6.32950993
_cell_length_c   6.36066208
_cell_angle_alpha   96.08997200
_cell_angle_beta   96.09007011
_cell_angle_gamma   141.88005446
_symmetry_Int_Tables_number   1
_chemical_formula_structural   PuPd8
_chemical_formula_sum   'Pu1 Pd8'
_cell_volume   148.77132957
_cell_formula_units_Z   1
loop_
 _symmetry_equiv_pos_site_id
 _symmetry_equiv_pos_as_xyz
  1  'x, y, z'
loop_
 _atom_site_type_symbol
 _atom_site_label
 _atom_site_symmetry_multiplicity
 _atom_site_fract_x
 _atom_site_fract_y
 _atom_site_fract_z
 _atom_site_occupancy
  Pu  Pu0  1  0.000030  0.000019  0.000048  1
  Pd  Pd1  1  0.668713  0.331322  0.000034  1
  Pd  Pd2  1  0.331306  0.668733  0.000034  1
  Pd  Pd3  1  0.333923  0.000044  0.333891  1
  Pd  Pd4  1  0.000051  0.333932  0.333901  1
  Pd  Pd5  1  0.668763  0.668747  0.337484  1
  Pd  Pd6  1  0.331247  0.331229  0.662503  1
  Pd  Pd7  1  0.666032  0.999936  0.666044  1
  Pd  Pd8  1  0.999938  0.666041  0.666061  1
