# generated using pymatgen
data_ErTm3CCl6
_symmetry_space_group_name_H-M   'P 1'
_cell_length_a   3.71602400
_cell_length_b   12.37850858
_cell_length_c   12.81553300
_cell_angle_alpha   89.95070488
_cell_angle_beta   90.00000000
_cell_angle_gamma   90.00000000
_symmetry_Int_Tables_number   1
_chemical_formula_structural   ErTm3CCl6
_chemical_formula_sum   'Er2 Tm6 C2 Cl12'
_cell_volume   589.49936937
_cell_formula_units_Z   2
loop_
 _symmetry_equiv_pos_site_id
 _symmetry_equiv_pos_as_xyz
  1  'x, y, z'
loop_
 _atom_site_type_symbol
 _atom_site_label
 _atom_site_symmetry_multiplicity
 _atom_site_fract_x
 _atom_site_fract_y
 _atom_site_fract_z
 _atom_site_occupancy
  Er  Er0  1  0.500000  0.623900  0.645697  1
  Er  Er1  1  0.500000  0.376100  0.354303  1
  Tm  Tm2  1  0.000000  0.101972  0.080925  1
  Tm  Tm3  1  0.000000  0.898028  0.919075  1
  Tm  Tm4  1  0.000000  0.602002  0.419001  1
  Tm  Tm5  1  0.000000  0.397998  0.580999  1
  Tm  Tm6  1  0.500000  0.123673  0.854558  1
  Tm  Tm7  1  0.500000  0.876327  0.145442  1
  C  C8  1  0.500000  0.000000  0.000000  1
  C  C9  1  0.500000  0.500000  0.500000  1
  Cl  Cl10  1  0.500000  0.268635  0.682394  1
  Cl  Cl11  1  0.500000  0.731365  0.317606  1
  Cl  Cl12  1  0.500000  0.769282  0.818374  1
  Cl  Cl13  1  0.500000  0.230718  0.181626  1
  Cl  Cl14  1  0.000000  0.257876  0.931085  1
  Cl  Cl15  1  0.000000  0.742124  0.068915  1
  Cl  Cl16  1  0.000000  0.481209  0.241313  1
  Cl  Cl17  1  0.000000  0.518791  0.758687  1
  Cl  Cl18  1  0.000000  0.979940  0.257845  1
  Cl  Cl19  1  0.000000  0.020060  0.742155  1
  Cl  Cl20  1  0.000000  0.241033  0.432166  1
  Cl  Cl21  1  0.000000  0.758967  0.567834  1
