# generated using pymatgen
data_Pu6TaMnSb10
_symmetry_space_group_name_H-M   'P 1'
_cell_length_a   9.17169100
_cell_length_b   9.17169040
_cell_length_c   6.17681500
_cell_angle_alpha   90.00000000
_cell_angle_beta   90.00000000
_cell_angle_gamma   119.99999855
_symmetry_Int_Tables_number   1
_chemical_formula_structural   Pu6TaMnSb10
_chemical_formula_sum   'Pu6 Ta1 Mn1 Sb10'
_cell_volume   449.98085145
_cell_formula_units_Z   1
loop_
 _symmetry_equiv_pos_site_id
 _symmetry_equiv_pos_as_xyz
  1  'x, y, z'
loop_
 _atom_site_type_symbol
 _atom_site_label
 _atom_site_symmetry_multiplicity
 _atom_site_fract_x
 _atom_site_fract_y
 _atom_site_fract_z
 _atom_site_occupancy
  Pu  Pu0  1  0.384886  0.000000  0.749301  1
  Pu  Pu1  1  0.384886  0.384886  0.250699  1
  Pu  Pu2  1  0.000000  0.615114  0.250699  1
  Pu  Pu3  1  0.000000  0.384886  0.749301  1
  Pu  Pu4  1  0.615114  0.615114  0.749301  1
  Pu  Pu5  1  0.615114  0.000000  0.250699  1
  Ta  Ta6  1  0.000000  0.000000  0.000000  1
  Mn  Mn7  1  0.000000  0.000000  0.500000  1
  Sb  Sb8  1  0.666667  0.333333  0.500000  1
  Sb  Sb9  1  0.333333  0.666667  0.000000  1
  Sb  Sb10  1  0.739410  0.000000  0.748732  1
  Sb  Sb11  1  0.739410  0.739410  0.251268  1
  Sb  Sb12  1  0.333333  0.666667  0.500000  1
  Sb  Sb13  1  0.666667  0.333333  0.000000  1
  Sb  Sb14  1  0.260590  0.000000  0.251268  1
  Sb  Sb15  1  0.260590  0.260590  0.748732  1
  Sb  Sb16  1  0.000000  0.739410  0.748732  1
  Sb  Sb17  1  0.000000  0.260590  0.251268  1
