# generated using pymatgen
data_Li4Mn3AsPd8
_symmetry_space_group_name_H-M   'P 1'
_cell_length_a   5.94391200
_cell_length_b   5.94896400
_cell_length_c   6.49533100
_cell_angle_alpha   89.99988929
_cell_angle_beta   89.99992616
_cell_angle_gamma   89.99973021
_symmetry_Int_Tables_number   1
_chemical_formula_structural   Li4Mn3AsPd8
_chemical_formula_sum   'Li4 Mn3 As1 Pd8'
_cell_volume   229.67567390
_cell_formula_units_Z   1
loop_
 _symmetry_equiv_pos_site_id
 _symmetry_equiv_pos_as_xyz
  1  'x, y, z'
loop_
 _atom_site_type_symbol
 _atom_site_label
 _atom_site_symmetry_multiplicity
 _atom_site_fract_x
 _atom_site_fract_y
 _atom_site_fract_z
 _atom_site_occupancy
  Li  Li0  1  0.750003  0.250000  0.999997  1
  Li  Li1  1  0.249997  0.750001  0.999996  1
  Li  Li2  1  0.250000  0.750001  0.500000  1
  Li  Li3  1  0.749998  0.250000  0.500000  1
  Mn  Mn4  1  0.749988  0.750000  0.000013  1
  Mn  Mn5  1  0.750017  0.749997  0.499996  1
  Mn  Mn6  1  0.250005  0.250002  0.500014  1
  As  As7  1  0.249999  0.250000  0.999997  1
  Pd  Pd8  1  0.498295  0.001708  0.246029  1
  Pd  Pd9  1  0.498294  0.498295  0.246030  1
  Pd  Pd10  1  0.001702  0.001706  0.246033  1
  Pd  Pd11  1  0.001701  0.498297  0.246032  1
  Pd  Pd12  1  0.001700  0.001704  0.753966  1
  Pd  Pd13  1  0.001701  0.498297  0.753964  1
  Pd  Pd14  1  0.498299  0.001702  0.753967  1
  Pd  Pd15  1  0.498298  0.498299  0.753967  1
