# generated using pymatgen
data_Pr3Ho2Bi3O14
_symmetry_space_group_name_H-M   'P 1'
_cell_length_a   6.69643992
_cell_length_b   6.76202835
_cell_length_c   7.87614102
_cell_angle_alpha   106.69469896
_cell_angle_beta   89.69684651
_cell_angle_gamma   98.71540970
_symmetry_Int_Tables_number   1
_chemical_formula_structural   Pr3Ho2Bi3O14
_chemical_formula_sum   'Pr3 Ho2 Bi3 O14'
_cell_volume   337.39072830
_cell_formula_units_Z   1
loop_
 _symmetry_equiv_pos_site_id
 _symmetry_equiv_pos_as_xyz
  1  'x, y, z'
loop_
 _atom_site_type_symbol
 _atom_site_label
 _atom_site_symmetry_multiplicity
 _atom_site_fract_x
 _atom_site_fract_y
 _atom_site_fract_z
 _atom_site_occupancy
  Pr  Pr0  1  0.269093  0.537771  0.883034  1
  Pr  Pr1  1  0.738883  0.457664  0.114565  1
  Pr  Pr2  1  0.749104  0.478232  0.616486  1
  Ho  Ho3  1  0.460152  0.008242  0.255585  1
  Ho  Ho4  1  0.537050  0.998414  0.747261  1
  Bi  Bi5  1  0.995984  0.998340  0.499621  1
  Bi  Bi6  1  0.999596  0.997938  0.998592  1
  Bi  Bi7  1  0.284978  0.539940  0.389440  1
  O  O8  1  0.448057  0.661342  0.176389  1
  O  O9  1  0.553980  0.343003  0.831597  1
  O  O10  1  0.302901  0.933634  0.951061  1
  O  O11  1  0.696854  0.063031  0.050603  1
  O  O12  1  0.298556  0.933954  0.516865  1
  O  O13  1  0.699150  0.074918  0.485218  1
  O  O14  1  0.536133  0.353895  0.341567  1
  O  O15  1  0.461305  0.650157  0.653316  1
  O  O16  1  0.925502  0.666358  0.941408  1
  O  O17  1  0.069813  0.323843  0.040444  1
  O  O18  1  0.071836  0.330190  0.620490  1
  O  O19  1  0.909269  0.667987  0.390637  1
  O  O20  1  0.872457  0.924475  0.731537  1
  O  O21  1  0.119346  0.056671  0.264283  1
