# generated using pymatgen
data_YEr5NiBr10
_symmetry_space_group_name_H-M   'P 1'
_cell_length_a   7.27316895
_cell_length_b   9.06290095
_cell_length_c   9.13125966
_cell_angle_alpha   107.59928964
_cell_angle_beta   97.10100903
_cell_angle_gamma   104.80903639
_symmetry_Int_Tables_number   1
_chemical_formula_structural   YEr5NiBr10
_chemical_formula_sum   'Y1 Er5 Ni1 Br10'
_cell_volume   541.32538137
_cell_formula_units_Z   1
loop_
 _symmetry_equiv_pos_site_id
 _symmetry_equiv_pos_as_xyz
  1  'x, y, z'
loop_
 _atom_site_type_symbol
 _atom_site_label
 _atom_site_symmetry_multiplicity
 _atom_site_fract_x
 _atom_site_fract_y
 _atom_site_fract_z
 _atom_site_occupancy
  Y  Y0  1  0.354623  0.130917  0.175358  1
  Er  Er1  1  0.878074  0.954215  0.241462  1
  Er  Er2  1  0.119914  0.044282  0.758375  1
  Er  Er3  1  0.031965  0.708272  0.909726  1
  Er  Er4  1  0.967422  0.291133  0.089375  1
  Er  Er5  1  0.649515  0.870453  0.826565  1
  Ni  Ni6  1  0.998916  0.999067  0.000493  1
  Br  Br7  1  0.652431  0.548651  0.726717  1
  Br  Br8  1  0.345813  0.454474  0.272189  1
  Br  Br9  1  0.748347  0.916375  0.540234  1
  Br  Br10  1  0.248291  0.082836  0.461345  1
  Br  Br11  1  0.913698  0.627259  0.173461  1
  Br  Br12  1  0.085125  0.372022  0.825409  1
  Br  Br13  1  0.545875  0.180150  0.910514  1
  Br  Br14  1  0.454983  0.817812  0.086168  1
  Br  Br15  1  0.223468  0.745713  0.656643  1
  Br  Br16  1  0.781540  0.256370  0.345965  1
