# generated using pymatgen
data_Yb5Th3Tl3Pt8Pb
_symmetry_space_group_name_H-M   'P 1'
_cell_length_a   7.90213155
_cell_length_b   7.89368982
_cell_length_c   7.48261966
_cell_angle_alpha   89.87739230
_cell_angle_beta   90.04459769
_cell_angle_gamma   90.65461241
_symmetry_Int_Tables_number   1
_chemical_formula_structural   Yb5Th3Tl3Pt8Pb
_chemical_formula_sum   'Yb5 Th3 Tl3 Pt8 Pb1'
_cell_volume   466.71151859
_cell_formula_units_Z   1
loop_
 _symmetry_equiv_pos_site_id
 _symmetry_equiv_pos_as_xyz
  1  'x, y, z'
loop_
 _atom_site_type_symbol
 _atom_site_label
 _atom_site_symmetry_multiplicity
 _atom_site_fract_x
 _atom_site_fract_y
 _atom_site_fract_z
 _atom_site_occupancy
  Yb  Yb0  1  0.339932  0.342201  0.499821  1
  Yb  Yb1  1  0.657095  0.660859  0.499757  1
  Yb  Yb2  1  0.175545  0.825642  0.499540  1
  Yb  Yb3  1  0.840638  0.158887  0.000266  1
  Yb  Yb4  1  0.160812  0.839818  0.000315  1
  Th  Th5  1  0.675965  0.677169  0.000640  1
  Th  Th6  1  0.826100  0.172667  0.499202  1
  Th  Th7  1  0.324234  0.322288  0.000609  1
  Tl  Tl8  1  0.493904  0.998050  0.744333  1
  Tl  Tl9  1  0.494284  0.997608  0.255307  1
  Tl  Tl10  1  0.002310  0.506330  0.743740  1
  Pt  Pt11  1  0.867976  0.870754  0.738060  1
  Pt  Pt12  1  0.128875  0.132729  0.737677  1
  Pt  Pt13  1  0.633406  0.366756  0.763145  1
  Pt  Pt14  1  0.631685  0.367255  0.236450  1
  Pt  Pt15  1  0.375063  0.625537  0.228960  1
  Pt  Pt16  1  0.128387  0.130708  0.262091  1
  Pt  Pt17  1  0.868649  0.871907  0.262365  1
  Pt  Pt18  1  0.373044  0.626806  0.771167  1
  Pb  Pb19  1  0.002095  0.506028  0.256553  1
