# generated using pymatgen
data_Ta6Ir5Rh13
_symmetry_space_group_name_H-M   'P 1'
_cell_length_a   5.54690823
_cell_length_b   5.54922423
_cell_length_c   13.46075303
_cell_angle_alpha   89.99999899
_cell_angle_beta   89.99703155
_cell_angle_gamma   120.01381446
_symmetry_Int_Tables_number   1
_chemical_formula_structural   Ta6Ir5Rh13
_chemical_formula_sum   'Ta6 Ir5 Rh13'
_cell_volume   358.77549276
_cell_formula_units_Z   1
loop_
 _symmetry_equiv_pos_site_id
 _symmetry_equiv_pos_as_xyz
  1  'x, y, z'
loop_
 _atom_site_type_symbol
 _atom_site_label
 _atom_site_symmetry_multiplicity
 _atom_site_fract_x
 _atom_site_fract_y
 _atom_site_fract_z
 _atom_site_occupancy
  Ta  Ta0  1  0.997990  0.998996  0.250888  1
  Ta  Ta1  1  0.000691  0.000346  0.749418  1
  Ta  Ta2  1  0.334283  0.667143  0.410848  1
  Ta  Ta3  1  0.666853  0.333426  0.588988  1
  Ta  Ta4  1  0.666858  0.333429  0.910538  1
  Ta  Ta5  1  0.334160  0.667080  0.089340  1
  Ir  Ir6  1  0.503633  0.496449  0.250050  1
  Ir  Ir7  1  0.503633  0.007184  0.250050  1
  Ir  Ir8  1  0.165404  0.330988  0.917131  1
  Ir  Ir9  1  0.668844  0.834422  0.917419  1
  Ir  Ir10  1  0.165404  0.834415  0.917131  1
  Rh  Rh11  1  0.994263  0.497131  0.250002  1
  Rh  Rh12  1  0.497290  0.503531  0.749581  1
  Rh  Rh13  1  0.497290  0.993759  0.749581  1
  Rh  Rh14  1  0.006966  0.503484  0.749604  1
  Rh  Rh15  1  0.833937  0.668720  0.082599  1
  Rh  Rh16  1  0.330235  0.165118  0.083002  1
  Rh  Rh17  1  0.833937  0.165218  0.082599  1
  Rh  Rh18  1  0.834054  0.668768  0.417883  1
  Rh  Rh19  1  0.330231  0.165116  0.417415  1
  Rh  Rh20  1  0.834054  0.165286  0.417883  1
  Rh  Rh21  1  0.165652  0.331217  0.582745  1
  Rh  Rh22  1  0.668686  0.834343  0.582565  1
  Rh  Rh23  1  0.165652  0.834434  0.582745  1
