# generated using pymatgen
data_Tb4Nd16Ir11Rh
_symmetry_space_group_name_H-M   'P 1'
_cell_length_a   11.19654100
_cell_length_b   11.19654100
_cell_length_c   6.53782100
_cell_angle_alpha   90.00000000
_cell_angle_beta   90.00000000
_cell_angle_gamma   90.00000000
_symmetry_Int_Tables_number   1
_chemical_formula_structural   Tb4Nd16Ir11Rh
_chemical_formula_sum   'Tb4 Nd16 Ir11 Rh1'
_cell_volume   819.59778363
_cell_formula_units_Z   1
loop_
 _symmetry_equiv_pos_site_id
 _symmetry_equiv_pos_as_xyz
  1  'x, y, z'
loop_
 _atom_site_type_symbol
 _atom_site_label
 _atom_site_symmetry_multiplicity
 _atom_site_fract_x
 _atom_site_fract_y
 _atom_site_fract_z
 _atom_site_occupancy
  Tb  Tb0  1  0.000000  0.000000  0.500025  1
  Tb  Tb1  1  0.000000  0.000000  0.000026  1
  Tb  Tb2  1  0.500000  0.500000  0.000026  1
  Tb  Tb3  1  0.500000  0.500000  0.500025  1
  Nd  Nd4  1  0.289678  0.088317  0.381593  1
  Nd  Nd5  1  0.289496  0.911589  0.880235  1
  Nd  Nd6  1  0.710504  0.088411  0.880235  1
  Nd  Nd7  1  0.710322  0.911683  0.381593  1
  Nd  Nd8  1  0.588411  0.789496  0.880235  1
  Nd  Nd9  1  0.588317  0.210322  0.381593  1
  Nd  Nd10  1  0.411683  0.789678  0.381593  1
  Nd  Nd11  1  0.411589  0.210504  0.880235  1
  Nd  Nd12  1  0.210167  0.411715  0.619326  1
  Nd  Nd13  1  0.210195  0.588388  0.119258  1
  Nd  Nd14  1  0.789805  0.411612  0.119258  1
  Nd  Nd15  1  0.789833  0.588285  0.619326  1
  Nd  Nd16  1  0.911612  0.710195  0.119258  1
  Nd  Nd17  1  0.911715  0.289833  0.619326  1
  Nd  Nd18  1  0.088285  0.710167  0.619326  1
  Nd  Nd19  1  0.088388  0.289805  0.119258  1
  Ir  Ir20  1  0.849818  0.149703  0.249816  1
  Ir  Ir21  1  0.849933  0.850205  0.749733  1
  Ir  Ir22  1  0.150067  0.149795  0.749733  1
  Ir  Ir23  1  0.150182  0.850297  0.249816  1
  Ir  Ir24  1  0.649795  0.349933  0.749733  1
  Ir  Ir25  1  0.649703  0.650182  0.249816  1
  Ir  Ir26  1  0.350297  0.349818  0.249816  1
  Ir  Ir27  1  0.350205  0.650067  0.749733  1
  Ir  Ir28  1  0.500000  0.000000  0.619987  1
  Ir  Ir29  1  0.000000  0.500000  0.880314  1
  Ir  Ir30  1  0.000000  0.500000  0.380329  1
  Rh  Rh31  1  0.500000  0.000000  0.119423  1
