# generated using pymatgen
data_Nb4B2MoAs
_symmetry_space_group_name_H-M   'P 1'
_cell_length_a   7.32802496
_cell_length_b   7.32802451
_cell_length_c   7.32802332
_cell_angle_alpha   129.69751280
_cell_angle_beta   129.69750976
_cell_angle_gamma   73.89080387
_symmetry_Int_Tables_number   1
_chemical_formula_structural   Nb4B2MoAs
_chemical_formula_sum   'Nb8 B4 Mo2 As2'
_cell_volume   227.23617352
_cell_formula_units_Z   2
loop_
 _symmetry_equiv_pos_site_id
 _symmetry_equiv_pos_as_xyz
  1  'x, y, z'
loop_
 _atom_site_type_symbol
 _atom_site_label
 _atom_site_symmetry_multiplicity
 _atom_site_fract_x
 _atom_site_fract_y
 _atom_site_fract_z
 _atom_site_occupancy
  Nb  Nb0  1  0.803949  0.969530  0.500000  1
  Nb  Nb1  1  0.303949  0.803949  0.834420  1
  Nb  Nb2  1  0.196051  0.030470  0.500000  1
  Nb  Nb3  1  0.530470  0.696051  0.500000  1
  Nb  Nb4  1  0.030470  0.530470  0.834420  1
  Nb  Nb5  1  0.696051  0.196051  0.165580  1
  Nb  Nb6  1  0.969530  0.469530  0.165580  1
  Nb  Nb7  1  0.469530  0.303949  0.500000  1
  B  B8  1  0.381806  0.881806  0.263612  1
  B  B9  1  0.881806  0.618194  0.500000  1
  B  B10  1  0.618194  0.118194  0.736388  1
  B  B11  1  0.118194  0.381806  0.500000  1
  Mo  Mo12  1  0.000000  0.000000  0.000000  1
  Mo  Mo13  1  0.500000  0.500000  0.000000  1
  As  As14  1  0.750000  0.750000  0.000000  1
  As  As15  1  0.250000  0.250000  0.000000  1
