# generated using pymatgen
data_Y2Ho2Mg3ZnIr4
_symmetry_space_group_name_H-M   'P 1'
_cell_length_a   4.08820800
_cell_length_b   7.04774364
_cell_length_c   8.44602543
_cell_angle_alpha   89.74808467
_cell_angle_beta   90.00000000
_cell_angle_gamma   90.00000000
_symmetry_Int_Tables_number   1
_chemical_formula_structural   Y2Ho2Mg3ZnIr4
_chemical_formula_sum   'Y2 Ho2 Mg3 Zn1 Ir4'
_cell_volume   243.34995431
_cell_formula_units_Z   1
loop_
 _symmetry_equiv_pos_site_id
 _symmetry_equiv_pos_as_xyz
  1  'x, y, z'
loop_
 _atom_site_type_symbol
 _atom_site_label
 _atom_site_symmetry_multiplicity
 _atom_site_fract_x
 _atom_site_fract_y
 _atom_site_fract_z
 _atom_site_occupancy
  Y  Y0  1  0.250000  0.536131  0.180992  1
  Y  Y1  1  0.750000  0.458301  0.821986  1
  Ho  Ho2  1  0.250000  0.046746  0.328976  1
  Ho  Ho3  1  0.750000  0.962558  0.673046  1
  Mg  Mg4  1  0.250000  0.135380  0.939095  1
  Mg  Mg5  1  0.750000  0.864299  0.060579  1
  Mg  Mg6  1  0.250000  0.631217  0.556677  1
  Zn  Zn7  1  0.750000  0.365846  0.438521  1
  Ir  Ir8  1  0.750000  0.748710  0.372895  1
  Ir  Ir9  1  0.250000  0.253232  0.625043  1
  Ir  Ir10  1  0.750000  0.246056  0.133606  1
  Ir  Ir11  1  0.250000  0.751523  0.868584  1
