# generated using pymatgen
data_Er3TmC7
_symmetry_space_group_name_H-M   'P 1'
_cell_length_a   13.65099920
_cell_length_b   3.66492696
_cell_length_c   6.38298922
_cell_angle_alpha   74.97911440
_cell_angle_beta   90.02171933
_cell_angle_gamma   90.08978969
_symmetry_Int_Tables_number   1
_chemical_formula_structural   Er3TmC7
_chemical_formula_sum   'Er6 Tm2 C14'
_cell_volume   308.42861997
_cell_formula_units_Z   2
loop_
 _symmetry_equiv_pos_site_id
 _symmetry_equiv_pos_as_xyz
  1  'x, y, z'
loop_
 _atom_site_type_symbol
 _atom_site_label
 _atom_site_symmetry_multiplicity
 _atom_site_fract_x
 _atom_site_fract_y
 _atom_site_fract_z
 _atom_site_occupancy
  Er  Er0  1  0.838053  0.054109  0.839275  1
  Er  Er1  1  0.161947  0.945891  0.160725  1
  Er  Er2  1  0.054722  0.632870  0.739789  1
  Er  Er3  1  0.945278  0.367130  0.260211  1
  Er  Er4  1  0.554690  0.367480  0.759918  1
  Er  Er5  1  0.445310  0.632520  0.240082  1
  Tm  Tm6  1  0.338716  0.945410  0.660392  1
  Tm  Tm7  1  0.661284  0.054590  0.339608  1
  C  C8  1  0.895641  0.737020  0.548376  1
  C  C9  1  0.104359  0.262980  0.451624  1
  C  C10  1  0.395517  0.262154  0.950659  1
  C  C11  1  0.604483  0.737846  0.049341  1
  C  C12  1  0.215544  0.539195  0.924075  1
  C  C13  1  0.784456  0.460805  0.075925  1
  C  C14  1  0.715046  0.464260  0.573500  1
  C  C15  1  0.284954  0.535740  0.426500  1
  C  C16  1  0.803068  0.622575  0.544028  1
  C  C17  1  0.196932  0.377425  0.455972  1
  C  C18  1  0.303142  0.379584  0.953927  1
  C  C19  1  0.696858  0.620416  0.046073  1
  C  C20  1  0.500000  0.000000  0.500000  1
  C  C21  1  0.000000  0.000000  0.000000  1
