# generated using pymatgen
data_DyY5Al16Os6Rh
_symmetry_space_group_name_H-M   'P 1'
_cell_length_a   8.95492067
_cell_length_b   8.95492112
_cell_length_c   8.95570500
_cell_angle_alpha   59.99710799
_cell_angle_beta   59.99710631
_cell_angle_gamma   60.00578788
_symmetry_Int_Tables_number   1
_chemical_formula_structural   DyY5Al16Os6Rh
_chemical_formula_sum   'Dy1 Y5 Al16 Os6 Rh1'
_cell_volume   507.81823272
_cell_formula_units_Z   1
loop_
 _symmetry_equiv_pos_site_id
 _symmetry_equiv_pos_as_xyz
  1  'x, y, z'
loop_
 _atom_site_type_symbol
 _atom_site_label
 _atom_site_symmetry_multiplicity
 _atom_site_fract_x
 _atom_site_fract_y
 _atom_site_fract_z
 _atom_site_occupancy
  Dy  Dy0  1  0.288294  0.288294  0.711706  1
  Y  Y1  1  0.711949  0.288491  0.288051  1
  Y  Y2  1  0.711949  0.288491  0.711509  1
  Y  Y3  1  0.712097  0.712097  0.287903  1
  Y  Y4  1  0.288491  0.711949  0.711509  1
  Y  Y5  1  0.288491  0.711949  0.288051  1
  Al  Al6  1  0.631071  0.123269  0.122829  1
  Al  Al7  1  0.123269  0.631071  0.122829  1
  Al  Al8  1  0.122461  0.122461  0.632731  1
  Al  Al9  1  0.122461  0.122461  0.122345  1
  Al  Al10  1  0.367269  0.877655  0.877539  1
  Al  Al11  1  0.877655  0.367269  0.877539  1
  Al  Al12  1  0.877171  0.877171  0.368929  1
  Al  Al13  1  0.877171  0.877171  0.876731  1
  Al  Al14  1  0.001349  0.332560  0.333047  1
  Al  Al15  1  0.332560  0.001349  0.333047  1
  Al  Al16  1  0.333248  0.333248  0.000187  1
  Al  Al17  1  0.333248  0.333248  0.333317  1
  Al  Al18  1  0.999813  0.666683  0.666752  1
  Al  Al19  1  0.666683  0.999813  0.666752  1
  Al  Al20  1  0.666953  0.666953  0.998651  1
  Al  Al21  1  0.666953  0.666953  0.667440  1
  Os  Os22  1  0.499770  0.000224  0.999776  1
  Os  Os23  1  0.499770  0.000224  0.500230  1
  Os  Os24  1  0.500000  0.500000  0.000000  1
  Os  Os25  1  0.000224  0.499770  0.500230  1
  Os  Os26  1  0.000224  0.499770  0.999776  1
  Os  Os27  1  0.000000  0.000000  0.500000  1
  Rh  Rh28  1  0.999406  0.999406  0.000594  1
