# generated using pymatgen
data_Nb2B(Ru2Rh)2
_symmetry_space_group_name_H-M   'P 1'
_cell_length_a   5.64814924
_cell_length_b   5.64815009
_cell_length_c   5.61673100
_cell_angle_alpha   60.18384922
_cell_angle_beta   60.18384428
_cell_angle_gamma   59.75712563
_symmetry_Int_Tables_number   1
_chemical_formula_structural   Nb2B(Ru2Rh)2
_chemical_formula_sum   'Nb2 B1 Ru4 Rh2'
_cell_volume   126.81610290
_cell_formula_units_Z   1
loop_
 _symmetry_equiv_pos_site_id
 _symmetry_equiv_pos_as_xyz
  1  'x, y, z'
loop_
 _atom_site_type_symbol
 _atom_site_label
 _atom_site_symmetry_multiplicity
 _atom_site_fract_x
 _atom_site_fract_y
 _atom_site_fract_z
 _atom_site_occupancy
  Nb  Nb0  1  0.250106  0.250106  0.249724  1
  Nb  Nb1  1  0.749894  0.749894  0.749937  1
  B  B2  1  0.500000  0.500000  0.501826  1
  Ru  Ru3  1  0.757930  0.757930  0.241650  1
  Ru  Ru4  1  0.242070  0.242070  0.757509  1
  Ru  Ru5  1  0.758525  0.241475  0.758359  1
  Ru  Ru6  1  0.241475  0.758525  0.758359  1
  Rh  Rh7  1  0.758931  0.241069  0.241318  1
  Rh  Rh8  1  0.241069  0.758931  0.241318  1
