# generated using pymatgen
data_AcLaZnIr6
_symmetry_space_group_name_H-M   'P 1'
_cell_length_a   13.32525444
_cell_length_b   13.32525508
_cell_length_c   13.32525439
_cell_angle_alpha   23.80206469
_cell_angle_beta   23.80207173
_cell_angle_gamma   23.80206539
_symmetry_Int_Tables_number   1
_chemical_formula_structural   AcLaZnIr6
_chemical_formula_sum   'Ac2 La2 Zn2 Ir12'
_cell_volume   338.54051183
_cell_formula_units_Z   2
loop_
 _symmetry_equiv_pos_site_id
 _symmetry_equiv_pos_as_xyz
  1  'x, y, z'
loop_
 _atom_site_type_symbol
 _atom_site_label
 _atom_site_symmetry_multiplicity
 _atom_site_fract_x
 _atom_site_fract_y
 _atom_site_fract_z
 _atom_site_occupancy
  Ac  Ac0  1  0.948928  0.948928  0.948928  1
  Ac  Ac1  1  0.051072  0.051072  0.051072  1
  La  La2  1  0.853053  0.853053  0.853053  1
  La  La3  1  0.146947  0.146947  0.146947  1
  Zn  Zn4  1  0.721076  0.721076  0.721076  1
  Zn  Zn5  1  0.278924  0.278924  0.278924  1
  Ir  Ir6  1  0.500000  0.500000  0.500000  1
  Ir  Ir7  1  0.611733  0.611733  0.611733  1
  Ir  Ir8  1  0.388267  0.388267  0.388267  1
  Ir  Ir9  1  0.500000  0.500000  0.000000  1
  Ir  Ir10  1  0.000000  0.500000  0.500000  1
  Ir  Ir11  1  0.500000  0.000000  0.500000  1
  Ir  Ir12  1  0.388064  0.893554  0.388064  1
  Ir  Ir13  1  0.388064  0.388064  0.893554  1
  Ir  Ir14  1  0.893554  0.388064  0.388064  1
  Ir  Ir15  1  0.611936  0.106446  0.611936  1
  Ir  Ir16  1  0.611936  0.611936  0.106446  1
  Ir  Ir17  1  0.106446  0.611936  0.611936  1
