# generated using pymatgen
data_Tb6Nd4Co2Br15
_symmetry_space_group_name_H-M   'P 1'
_cell_length_a   9.44161923
_cell_length_b   10.23585048
_cell_length_c   10.99203682
_cell_angle_alpha   92.29878385
_cell_angle_beta   113.92674605
_cell_angle_gamma   110.70474873
_symmetry_Int_Tables_number   1
_chemical_formula_structural   Tb6Nd4Co2Br15
_chemical_formula_sum   'Tb6 Nd4 Co2 Br15'
_cell_volume   887.13679513
_cell_formula_units_Z   1
loop_
 _symmetry_equiv_pos_site_id
 _symmetry_equiv_pos_as_xyz
  1  'x, y, z'
loop_
 _atom_site_type_symbol
 _atom_site_label
 _atom_site_symmetry_multiplicity
 _atom_site_fract_x
 _atom_site_fract_y
 _atom_site_fract_z
 _atom_site_occupancy
  Tb  Tb0  1  0.527852  0.708516  0.101049  1
  Tb  Tb1  1  0.472148  0.291484  0.898951  1
  Tb  Tb2  1  0.591436  0.045025  0.333742  1
  Tb  Tb3  1  0.408564  0.954975  0.666258  1
  Tb  Tb4  1  0.726710  0.077542  0.048297  1
  Tb  Tb5  1  0.273290  0.922458  0.951703  1
  Nd  Nd6  1  0.802929  0.404631  0.272603  1
  Nd  Nd7  1  0.197071  0.595369  0.727397  1
  Nd  Nd8  1  0.668905  0.750231  0.819992  1
  Nd  Nd9  1  0.331095  0.249769  0.180008  1
  Co  Co10  1  0.466882  0.829678  0.882974  1
  Co  Co11  1  0.533118  0.170322  0.117026  1
  Br  Br12  1  0.000000  0.000000  0.000000  1
  Br  Br13  1  0.633591  0.891424  0.581164  1
  Br  Br14  1  0.366409  0.108576  0.418836  1
  Br  Br15  1  0.881671  0.295309  0.527559  1
  Br  Br16  1  0.118329  0.704691  0.472441  1
  Br  Br17  1  0.303925  0.766955  0.188128  1
  Br  Br18  1  0.696075  0.233045  0.811872  1
  Br  Br19  1  0.057898  0.336304  0.220588  1
  Br  Br20  1  0.172541  0.059045  0.700170  1
  Br  Br21  1  0.827459  0.940955  0.299830  1
  Br  Br22  1  0.250787  0.416001  0.949498  1
  Br  Br23  1  0.749213  0.583999  0.050502  1
  Br  Br24  1  0.405682  0.458763  0.667580  1
  Br  Br25  1  0.594318  0.541237  0.332420  1
  Br  Br26  1  0.942102  0.663696  0.779412  1
