# generated using pymatgen
data_SmEr19Sn16
_symmetry_space_group_name_H-M   'P 1'
_cell_length_a   8.00014071
_cell_length_b   8.10112349
_cell_length_c   15.34468900
_cell_angle_alpha   90.03822725
_cell_angle_beta   89.75572300
_cell_angle_gamma   89.87385496
_symmetry_Int_Tables_number   1
_chemical_formula_structural   SmEr19Sn16
_chemical_formula_sum   'Sm1 Er19 Sn16'
_cell_volume   994.47957898
_cell_formula_units_Z   1
loop_
 _symmetry_equiv_pos_site_id
 _symmetry_equiv_pos_as_xyz
  1  'x, y, z'
loop_
 _atom_site_type_symbol
 _atom_site_label
 _atom_site_symmetry_multiplicity
 _atom_site_fract_x
 _atom_site_fract_y
 _atom_site_fract_z
 _atom_site_occupancy
  Sm  Sm0  1  0.020963  0.178683  0.903904  1
  Er  Er1  1  0.368324  0.837324  0.876881  1
  Er  Er2  1  0.869386  0.662197  0.621931  1
  Er  Er3  1  0.630092  0.162037  0.377429  1
  Er  Er4  1  0.132150  0.338100  0.123025  1
  Er  Er5  1  0.631888  0.162383  0.123128  1
  Er  Er6  1  0.130402  0.338034  0.377650  1
  Er  Er7  1  0.370030  0.837704  0.622427  1
  Er  Er8  1  0.868547  0.662314  0.877268  1
  Er  Er9  1  0.522162  0.322155  0.903120  1
  Er  Er10  1  0.022915  0.178823  0.597303  1
  Er  Er11  1  0.476984  0.678405  0.402804  1
  Er  Er12  1  0.978602  0.820776  0.096881  1
  Er  Er13  1  0.478233  0.678639  0.096963  1
  Er  Er14  1  0.977380  0.821633  0.402985  1
  Er  Er15  1  0.522768  0.321826  0.596683  1
  Er  Er16  1  0.200122  0.504213  0.749426  1
  Er  Er17  1  0.699550  0.995798  0.749361  1
  Er  Er18  1  0.800014  0.496052  0.250282  1
  Er  Er19  1  0.300130  0.003832  0.250283  1
  Sn  Sn20  1  0.295066  0.035642  0.042620  1
  Sn  Sn21  1  0.790842  0.462809  0.458532  1
  Sn  Sn22  1  0.709050  0.963825  0.541406  1
  Sn  Sn23  1  0.208615  0.539099  0.958789  1
  Sn  Sn24  1  0.703780  0.960050  0.959174  1
  Sn  Sn25  1  0.208883  0.537423  0.541539  1
  Sn  Sn26  1  0.291543  0.036928  0.458605  1
  Sn  Sn27  1  0.792168  0.462541  0.041531  1
  Sn  Sn28  1  0.566570  0.617995  0.749790  1
  Sn  Sn29  1  0.066274  0.880787  0.749429  1
  Sn  Sn30  1  0.433744  0.382088  0.250143  1
  Sn  Sn31  1  0.933626  0.118087  0.250296  1
  Sn  Sn32  1  0.334085  0.149708  0.749599  1
  Sn  Sn33  1  0.831397  0.351878  0.748905  1
  Sn  Sn34  1  0.666901  0.850093  0.249865  1
  Sn  Sn35  1  0.166816  0.650118  0.250041  1
