# generated using pymatgen
data_K6S2O9
_symmetry_space_group_name_H-M   'P 1'
_cell_length_a   7.70848413
_cell_length_b   7.70848391
_cell_length_c   7.70848306
_cell_angle_alpha   60.01623134
_cell_angle_beta   60.01623196
_cell_angle_gamma   60.01623434
_symmetry_Int_Tables_number   1
_chemical_formula_structural   K6S2O9
_chemical_formula_sum   'K6 S2 O9'
_cell_volume   324.00496530
_cell_formula_units_Z   1
loop_
 _symmetry_equiv_pos_site_id
 _symmetry_equiv_pos_as_xyz
  1  'x, y, z'
loop_
 _atom_site_type_symbol
 _atom_site_label
 _atom_site_symmetry_multiplicity
 _atom_site_fract_x
 _atom_site_fract_y
 _atom_site_fract_z
 _atom_site_occupancy
  K  K0  1  0.761728  0.761728  0.238229  1
  K  K1  1  0.761772  0.238272  0.238271  1
  K  K2  1  0.238272  0.761772  0.238271  1
  K  K3  1  0.761728  0.238228  0.761729  1
  K  K4  1  0.238228  0.761728  0.761729  1
  K  K5  1  0.238272  0.238272  0.761771  1
  S  S6  1  0.250003  0.250003  0.250003  1
  S  S7  1  0.749997  0.749997  0.749997  1
  O  O8  1  0.000000  0.000000  0.000000  1
  O  O9  1  0.329360  0.329360  0.011871  1
  O  O10  1  0.329360  0.011872  0.329360  1
  O  O11  1  0.011872  0.329360  0.329360  1
  O  O12  1  0.329406  0.329406  0.329406  1
  O  O13  1  0.670594  0.670594  0.670594  1
  O  O14  1  0.988128  0.670640  0.670640  1
  O  O15  1  0.670640  0.988128  0.670640  1
  O  O16  1  0.670640  0.670640  0.988129  1
