# generated using pymatgen
data_NdTh4Si12Ir19
_symmetry_space_group_name_H-M   'P 1'
_cell_length_a   12.98019800
_cell_length_b   12.98019918
_cell_length_c   4.02305200
_cell_angle_alpha   90.00000000
_cell_angle_beta   90.00000000
_cell_angle_gamma   120.00000209
_symmetry_Int_Tables_number   1
_chemical_formula_structural   NdTh4Si12Ir19
_chemical_formula_sum   'Nd1 Th4 Si12 Ir19'
_cell_volume   587.01465359
_cell_formula_units_Z   1
loop_
 _symmetry_equiv_pos_site_id
 _symmetry_equiv_pos_as_xyz
  1  'x, y, z'
loop_
 _atom_site_type_symbol
 _atom_site_label
 _atom_site_symmetry_multiplicity
 _atom_site_fract_x
 _atom_site_fract_y
 _atom_site_fract_z
 _atom_site_occupancy
  Nd  Nd0  1  0.666667  0.333333  0.000000  1
  Th  Th1  1  0.000085  0.813462  0.500000  1
  Th  Th2  1  0.186538  0.186623  0.500000  1
  Th  Th3  1  0.813377  0.999915  0.500000  1
  Th  Th4  1  0.333333  0.666667  0.000000  1
  Si  Si5  1  0.999799  0.183207  0.000000  1
  Si  Si6  1  0.816793  0.816592  0.000000  1
  Si  Si7  1  0.183408  0.000201  0.000000  1
  Si  Si8  1  0.521340  0.688156  0.500000  1
  Si  Si9  1  0.311844  0.833184  0.500000  1
  Si  Si10  1  0.166816  0.478660  0.500000  1
  Si  Si11  1  0.481209  0.169306  0.500000  1
  Si  Si12  1  0.688097  0.518791  0.500000  1
  Si  Si13  1  0.830694  0.311903  0.500000  1
  Si  Si14  1  0.999195  0.628501  0.000000  1
  Si  Si15  1  0.371499  0.370694  0.000000  1
  Si  Si16  1  0.629306  0.000805  0.000000  1
  Ir  Ir17  1  0.999427  0.284130  0.500000  1
  Ir  Ir18  1  0.715870  0.715297  0.500000  1
  Ir  Ir19  1  0.284703  0.000573  0.500000  1
  Ir  Ir20  1  0.623279  0.805306  0.000000  1
  Ir  Ir21  1  0.194694  0.817973  0.000000  1
  Ir  Ir22  1  0.182027  0.376721  0.000000  1
  Ir  Ir23  1  0.375893  0.181593  0.000000  1
  Ir  Ir24  1  0.805700  0.624107  0.000000  1
  Ir  Ir25  1  0.818407  0.194300  0.000000  1
  Ir  Ir26  1  0.510919  0.872871  0.500000  1
  Ir  Ir27  1  0.127129  0.638049  0.500000  1
  Ir  Ir28  1  0.361951  0.489081  0.500000  1
  Ir  Ir29  1  0.486413  0.361983  0.500000  1
  Ir  Ir30  1  0.875572  0.513587  0.500000  1
  Ir  Ir31  1  0.638017  0.124428  0.500000  1
  Ir  Ir32  1  0.000000  0.000000  0.000000  1
  Ir  Ir33  1  0.000322  0.446648  0.000000  1
  Ir  Ir34  1  0.553352  0.553674  0.000000  1
  Ir  Ir35  1  0.446326  0.999678  0.000000  1
