# generated using pymatgen
data_Nd3Y2P12Ru19
_symmetry_space_group_name_H-M   'P 1'
_cell_length_a   12.60052200
_cell_length_b   12.60052223
_cell_length_c   4.00689600
_cell_angle_alpha   90.00000000
_cell_angle_beta   90.00000000
_cell_angle_gamma   119.99999414
_symmetry_Int_Tables_number   1
_chemical_formula_structural   Nd3Y2P12Ru19
_chemical_formula_sum   'Nd3 Y2 P12 Ru19'
_cell_volume   550.95459524
_cell_formula_units_Z   1
loop_
 _symmetry_equiv_pos_site_id
 _symmetry_equiv_pos_as_xyz
  1  'x, y, z'
loop_
 _atom_site_type_symbol
 _atom_site_label
 _atom_site_symmetry_multiplicity
 _atom_site_fract_x
 _atom_site_fract_y
 _atom_site_fract_z
 _atom_site_occupancy
  Nd  Nd0  1  0.000000  0.184153  0.500000  1
  Nd  Nd1  1  0.815847  0.815847  0.500000  1
  Nd  Nd2  1  0.184153  0.000000  0.500000  1
  Y  Y3  1  0.666667  0.333333  0.000000  1
  Y  Y4  1  0.333333  0.666667  0.000000  1
  P  P5  1  0.000000  0.812283  0.000000  1
  P  P6  1  0.187717  0.187717  0.000000  1
  P  P7  1  0.812283  0.000000  0.000000  1
  P  P8  1  0.694368  0.172885  0.500000  1
  P  P9  1  0.827115  0.521483  0.500000  1
  P  P10  1  0.478517  0.305632  0.500000  1
  P  P11  1  0.172885  0.694368  0.500000  1
  P  P12  1  0.521483  0.827115  0.500000  1
  P  P13  1  0.305632  0.478517  0.500000  1
  P  P14  1  0.000000  0.374101  0.000000  1
  P  P15  1  0.625899  0.625899  0.000000  1
  P  P16  1  0.374101  0.000000  0.000000  1
  Ru  Ru17  1  0.000000  0.554249  0.000000  1
  Ru  Ru18  1  0.445751  0.445751  0.000000  1
  Ru  Ru19  1  0.554249  0.000000  0.000000  1
  Ru  Ru20  1  0.000000  0.713757  0.500000  1
  Ru  Ru21  1  0.286243  0.286243  0.500000  1
  Ru  Ru22  1  0.713757  0.000000  0.500000  1
  Ru  Ru23  1  0.804777  0.185247  0.000000  1
  Ru  Ru24  1  0.814753  0.619531  0.000000  1
  Ru  Ru25  1  0.380469  0.195223  0.000000  1
  Ru  Ru26  1  0.185247  0.804777  0.000000  1
  Ru  Ru27  1  0.619531  0.814753  0.000000  1
  Ru  Ru28  1  0.195223  0.380469  0.000000  1
  Ru  Ru29  1  0.874315  0.367206  0.500000  1
  Ru  Ru30  1  0.632794  0.507108  0.500000  1
  Ru  Ru31  1  0.492892  0.125685  0.500000  1
  Ru  Ru32  1  0.367206  0.874315  0.500000  1
  Ru  Ru33  1  0.507108  0.632794  0.500000  1
  Ru  Ru34  1  0.125685  0.492892  0.500000  1
  Ru  Ru35  1  0.000000  0.000000  0.000000  1
