# generated using pymatgen
data_Ca2Zn12Ir5
_symmetry_space_group_name_H-M   'P 1'
_cell_length_a   6.90761882
_cell_length_b   6.90761725
_cell_length_c   6.72612995
_cell_angle_alpha   82.95786763
_cell_angle_beta   82.95787213
_cell_angle_gamma   84.90483941
_symmetry_Int_Tables_number   1
_chemical_formula_structural   Ca2Zn12Ir5
_chemical_formula_sum   'Ca2 Zn12 Ir5'
_cell_volume   315.22658488
_cell_formula_units_Z   1
loop_
 _symmetry_equiv_pos_site_id
 _symmetry_equiv_pos_as_xyz
  1  'x, y, z'
loop_
 _atom_site_type_symbol
 _atom_site_label
 _atom_site_symmetry_multiplicity
 _atom_site_fract_x
 _atom_site_fract_y
 _atom_site_fract_z
 _atom_site_occupancy
  Ca  Ca0  1  0.646474  0.646474  0.643607  1
  Ca  Ca1  1  0.353526  0.353526  0.356393  1
  Zn  Zn2  1  0.675246  0.324754  0.000000  1
  Zn  Zn3  1  0.995841  0.713447  0.285750  1
  Zn  Zn4  1  0.286553  0.004159  0.714250  1
  Zn  Zn5  1  0.004159  0.286553  0.714250  1
  Zn  Zn6  1  0.713447  0.995841  0.285750  1
  Zn  Zn7  1  0.324754  0.675246  0.000000  1
  Zn  Zn8  1  0.846039  0.341272  0.346011  1
  Zn  Zn9  1  0.341272  0.846039  0.346011  1
  Zn  Zn10  1  0.153961  0.658728  0.653989  1
  Zn  Zn11  1  0.658728  0.153961  0.653989  1
  Zn  Zn12  1  0.868977  0.868977  0.882828  1
  Zn  Zn13  1  0.131023  0.131023  0.117172  1
  Ir  Ir14  1  0.000000  0.000000  0.500000  1
  Ir  Ir15  1  0.500000  0.000000  0.000000  1
  Ir  Ir16  1  0.000000  0.500000  0.000000  1
  Ir  Ir17  1  0.347495  0.347495  0.827904  1
  Ir  Ir18  1  0.652505  0.652505  0.172096  1
