# generated using pymatgen
data_Ho2Ni9P7Ir3
_symmetry_space_group_name_H-M   'P 1'
_cell_length_a   9.13059000
_cell_length_b   9.13059009
_cell_length_c   3.80180600
_cell_angle_alpha   90.00000000
_cell_angle_beta   90.00000000
_cell_angle_gamma   119.99999966
_symmetry_Int_Tables_number   1
_chemical_formula_structural   Ho2Ni9P7Ir3
_chemical_formula_sum   'Ho2 Ni9 P7 Ir3'
_cell_volume   274.48478292
_cell_formula_units_Z   1
loop_
 _symmetry_equiv_pos_site_id
 _symmetry_equiv_pos_as_xyz
  1  'x, y, z'
loop_
 _atom_site_type_symbol
 _atom_site_label
 _atom_site_symmetry_multiplicity
 _atom_site_fract_x
 _atom_site_fract_y
 _atom_site_fract_z
 _atom_site_occupancy
  Ho  Ho0  1  0.666667  0.333333  0.500000  1
  Ho  Ho1  1  0.333333  0.666667  0.000000  1
  Ni  Ni2  1  0.432340  0.063173  0.000000  1
  Ni  Ni3  1  0.630832  0.567660  0.000000  1
  Ni  Ni4  1  0.936827  0.369168  0.000000  1
  Ni  Ni5  1  0.154647  0.273484  0.000000  1
  Ni  Ni6  1  0.118837  0.845353  0.000000  1
  Ni  Ni7  1  0.726516  0.881163  0.000000  1
  Ni  Ni8  1  0.195295  0.075418  0.500000  1
  Ni  Ni9  1  0.880123  0.804705  0.500000  1
  Ni  Ni10  1  0.924582  0.119877  0.500000  1
  P  P11  1  0.000000  0.000000  0.000000  1
  P  P12  1  0.412924  0.293269  0.000000  1
  P  P13  1  0.880347  0.587076  0.000000  1
  P  P14  1  0.706731  0.119653  0.000000  1
  P  P15  1  0.107577  0.398147  0.500000  1
  P  P16  1  0.290570  0.892423  0.500000  1
  P  P17  1  0.601853  0.709430  0.500000  1
  Ir  Ir18  1  0.384158  0.428931  0.500000  1
  Ir  Ir19  1  0.044773  0.615842  0.500000  1
  Ir  Ir20  1  0.571069  0.955227  0.500000  1
