# generated using pymatgen
data_Er2Pa(Ni3P2)3
_symmetry_space_group_name_H-M   'P 1'
_cell_length_a   3.76511800
_cell_length_b   10.48723000
_cell_length_c   12.26742500
_cell_angle_alpha   90.00000000
_cell_angle_beta   90.00000000
_cell_angle_gamma   90.00000000
_symmetry_Int_Tables_number   1
_chemical_formula_structural   Er2Pa(Ni3P2)3
_chemical_formula_sum   'Er4 Pa2 Ni18 P12'
_cell_volume   484.38735353
_cell_formula_units_Z   2
loop_
 _symmetry_equiv_pos_site_id
 _symmetry_equiv_pos_as_xyz
  1  'x, y, z'
loop_
 _atom_site_type_symbol
 _atom_site_label
 _atom_site_symmetry_multiplicity
 _atom_site_fract_x
 _atom_site_fract_y
 _atom_site_fract_z
 _atom_site_occupancy
  Er  Er0  1  0.500000  0.815179  0.205633  1
  Er  Er1  1  0.500000  0.184821  0.205633  1
  Er  Er2  1  0.000000  0.684821  0.794367  1
  Er  Er3  1  0.000000  0.315179  0.794367  1
  Pa  Pa4  1  0.000000  0.500000  0.522987  1
  Pa  Pa5  1  0.500000  0.000000  0.477013  1
  Ni  Ni6  1  0.500000  0.500000  0.154495  1
  Ni  Ni7  1  0.000000  0.000000  0.845505  1
  Ni  Ni8  1  0.500000  0.500000  0.696018  1
  Ni  Ni9  1  0.000000  0.000000  0.303982  1
  Ni  Ni10  1  0.000000  0.500000  0.982321  1
  Ni  Ni11  1  0.500000  0.000000  0.017679  1
  Ni  Ni12  1  0.500000  0.332604  0.993781  1
  Ni  Ni13  1  0.500000  0.667396  0.993781  1
  Ni  Ni14  1  0.000000  0.167396  0.006219  1
  Ni  Ni15  1  0.000000  0.832604  0.006219  1
  Ni  Ni16  1  0.500000  0.304319  0.428626  1
  Ni  Ni17  1  0.500000  0.695681  0.428626  1
  Ni  Ni18  1  0.000000  0.195681  0.571374  1
  Ni  Ni19  1  0.000000  0.804319  0.571374  1
  Ni  Ni20  1  0.500000  0.879080  0.712264  1
  Ni  Ni21  1  0.500000  0.120920  0.712264  1
  Ni  Ni22  1  0.000000  0.620920  0.287736  1
  Ni  Ni23  1  0.000000  0.379080  0.287736  1
  P  P24  1  0.500000  0.500000  0.874699  1
  P  P25  1  0.000000  0.000000  0.125301  1
  P  P26  1  0.500000  0.500000  0.339610  1
  P  P27  1  0.000000  0.000000  0.660390  1
  P  P28  1  0.500000  0.309206  0.614932  1
  P  P29  1  0.500000  0.690794  0.614932  1
  P  P30  1  0.000000  0.190794  0.385068  1
  P  P31  1  0.000000  0.809206  0.385068  1
  P  P32  1  0.500000  0.847846  0.893643  1
  P  P33  1  0.500000  0.152154  0.893643  1
  P  P34  1  0.000000  0.652154  0.106357  1
  P  P35  1  0.000000  0.347846  0.106357  1
