# generated using pymatgen
data_Ca7TiFe2N9
_symmetry_space_group_name_H-M   'P 1'
_cell_length_a   9.91405200
_cell_length_b   6.05777677
_cell_length_c   9.01336592
_cell_angle_alpha   88.26937338
_cell_angle_beta   90.00000000
_cell_angle_gamma   90.00000000
_symmetry_Int_Tables_number   1
_chemical_formula_structural   Ca7TiFe2N9
_chemical_formula_sum   'Ca14 Ti2 Fe4 N18'
_cell_volume   541.06982738
_cell_formula_units_Z   2
loop_
 _symmetry_equiv_pos_site_id
 _symmetry_equiv_pos_as_xyz
  1  'x, y, z'
loop_
 _atom_site_type_symbol
 _atom_site_label
 _atom_site_symmetry_multiplicity
 _atom_site_fract_x
 _atom_site_fract_y
 _atom_site_fract_z
 _atom_site_occupancy
  Ca  Ca0  1  0.934530  0.430991  0.170154  1
  Ca  Ca1  1  0.080614  0.246114  0.495730  1
  Ca  Ca2  1  0.250000  0.085740  0.797842  1
  Ca  Ca3  1  0.434530  0.569009  0.829846  1
  Ca  Ca4  1  0.580614  0.753886  0.504270  1
  Ca  Ca5  1  0.579187  0.062733  0.825092  1
  Ca  Ca6  1  0.920813  0.062733  0.825092  1
  Ca  Ca7  1  0.420813  0.937267  0.174908  1
  Ca  Ca8  1  0.419386  0.246114  0.495730  1
  Ca  Ca9  1  0.079187  0.937267  0.174908  1
  Ca  Ca10  1  0.919386  0.753886  0.504270  1
  Ca  Ca11  1  0.065470  0.569009  0.829846  1
  Ca  Ca12  1  0.750000  0.914260  0.202158  1
  Ca  Ca13  1  0.565470  0.430991  0.170154  1
  Ti  Ti14  1  0.750000  0.282100  0.436939  1
  Ti  Ti15  1  0.250000  0.717900  0.563061  1
  Fe  Fe16  1  0.250000  0.326548  0.065959  1
  Fe  Fe17  1  0.750000  0.459365  0.724394  1
  Fe  Fe18  1  0.750000  0.673452  0.934041  1
  Fe  Fe19  1  0.250000  0.540635  0.275606  1
  N  N20  1  0.401870  0.228510  0.981384  1
  N  N21  1  0.250000  0.234226  0.265552  1
  N  N22  1  0.902854  0.118161  0.341157  1
  N  N23  1  0.608904  0.362563  0.629124  1
  N  N24  1  0.750000  0.555379  0.334418  1
  N  N25  1  0.250000  0.632103  0.076580  1
  N  N26  1  0.891096  0.362563  0.629124  1
  N  N27  1  0.391096  0.637437  0.370876  1
  N  N28  1  0.750000  0.367897  0.923420  1
  N  N29  1  0.097146  0.881839  0.658843  1
  N  N30  1  0.750000  0.765774  0.734448  1
  N  N31  1  0.108904  0.637437  0.370876  1
  N  N32  1  0.598130  0.771490  0.018616  1
  N  N33  1  0.250000  0.444621  0.665582  1
  N  N34  1  0.402854  0.881839  0.658843  1
  N  N35  1  0.597146  0.118161  0.341157  1
  N  N36  1  0.098130  0.228510  0.981384  1
  N  N37  1  0.901870  0.771490  0.018616  1
