# generated using pymatgen
data_Y7Er9Cd4NiIr3
_symmetry_space_group_name_H-M   'P 1'
_cell_length_a   9.55707842
_cell_length_b   9.59879732
_cell_length_c   9.60342400
_cell_angle_alpha   59.98405409
_cell_angle_beta   59.83945487
_cell_angle_gamma   59.86913190
_symmetry_Int_Tables_number   1
_chemical_formula_structural   Y7Er9Cd4NiIr3
_chemical_formula_sum   'Y7 Er9 Cd4 Ni1 Ir3'
_cell_volume   621.49966173
_cell_formula_units_Z   1
loop_
 _symmetry_equiv_pos_site_id
 _symmetry_equiv_pos_as_xyz
  1  'x, y, z'
loop_
 _atom_site_type_symbol
 _atom_site_label
 _atom_site_symmetry_multiplicity
 _atom_site_fract_x
 _atom_site_fract_y
 _atom_site_fract_z
 _atom_site_occupancy
  Y  Y0  1  0.059458  0.062619  0.438961  1
  Y  Y1  1  0.189687  0.810530  0.811770  1
  Y  Y2  1  0.809773  0.188286  0.186464  1
  Y  Y3  1  0.809773  0.188286  0.815477  1
  Y  Y4  1  0.189687  0.810530  0.188013  1
  Y  Y5  1  0.810361  0.814900  0.187369  1
  Y  Y6  1  0.189365  0.188899  0.810868  1
  Er  Er7  1  0.601589  0.597143  0.596510  1
  Er  Er8  1  0.601589  0.597143  0.204758  1
  Er  Er9  1  0.601216  0.204092  0.597346  1
  Er  Er10  1  0.203205  0.598999  0.598897  1
  Er  Er11  1  0.059674  0.438782  0.439084  1
  Er  Er12  1  0.437955  0.060805  0.061242  1
  Er  Er13  1  0.437955  0.060805  0.439998  1
  Er  Er14  1  0.059674  0.438782  0.062459  1
  Er  Er15  1  0.438133  0.439699  0.061084  1
  Cd  Cd16  1  0.829673  0.830960  0.831174  1
  Cd  Cd17  1  0.829673  0.830960  0.508191  1
  Cd  Cd18  1  0.830117  0.507582  0.831150  1
  Cd  Cd19  1  0.506908  0.831017  0.831038  1
  Ni  Ni20  1  0.824983  0.391974  0.391523  1
  Ir  Ir21  1  0.392483  0.391985  0.391400  1
  Ir  Ir22  1  0.392483  0.391985  0.824133  1
  Ir  Ir23  1  0.394588  0.823236  0.391088  1
