# generated using pymatgen
data_Cs6MgTe4
_symmetry_space_group_name_H-M   'P 1'
_cell_length_a   11.91629300
_cell_length_b   11.91629235
_cell_length_c   9.27902100
_cell_angle_alpha   90.00000000
_cell_angle_beta   90.00000000
_cell_angle_gamma   119.99999902
_symmetry_Int_Tables_number   1
_chemical_formula_structural   Cs6MgTe4
_chemical_formula_sum   'Cs12 Mg2 Te8'
_cell_volume   1141.07743300
_cell_formula_units_Z   2
loop_
 _symmetry_equiv_pos_site_id
 _symmetry_equiv_pos_as_xyz
  1  'x, y, z'
loop_
 _atom_site_type_symbol
 _atom_site_label
 _atom_site_symmetry_multiplicity
 _atom_site_fract_x
 _atom_site_fract_y
 _atom_site_fract_z
 _atom_site_occupancy
  Cs  Cs0  1  0.147735  0.852265  0.545217  1
  Cs  Cs1  1  0.295469  0.147735  0.045217  1
  Cs  Cs2  1  0.852265  0.704531  0.045217  1
  Cs  Cs3  1  0.147735  0.295469  0.545217  1
  Cs  Cs4  1  0.704531  0.852265  0.545217  1
  Cs  Cs5  1  0.852265  0.147735  0.045217  1
  Cs  Cs6  1  0.526655  0.473345  0.364336  1
  Cs  Cs7  1  0.053309  0.526655  0.864336  1
  Cs  Cs8  1  0.473345  0.946691  0.864336  1
  Cs  Cs9  1  0.526655  0.053309  0.364336  1
  Cs  Cs10  1  0.946691  0.473345  0.364336  1
  Cs  Cs11  1  0.473345  0.526655  0.864336  1
  Mg  Mg12  1  0.333333  0.666667  0.250118  1
  Mg  Mg13  1  0.666667  0.333333  0.750118  1
  Te  Te14  1  0.333333  0.666667  0.563031  1
  Te  Te15  1  0.666667  0.333333  0.063031  1
  Te  Te16  1  0.199838  0.800162  0.153231  1
  Te  Te17  1  0.399676  0.199838  0.653231  1
  Te  Te18  1  0.800162  0.600324  0.653231  1
  Te  Te19  1  0.199838  0.399676  0.153231  1
  Te  Te20  1  0.600324  0.800162  0.153231  1
  Te  Te21  1  0.800162  0.199838  0.653231  1
