# generated using pymatgen
data_Hf4Ta4GeAs3
_symmetry_space_group_name_H-M   'P 1'
_cell_length_a   3.60040000
_cell_length_b   7.04291265
_cell_length_c   8.57550355
_cell_angle_alpha   89.91830599
_cell_angle_beta   90.00000000
_cell_angle_gamma   90.00000000
_symmetry_Int_Tables_number   1
_chemical_formula_structural   Hf4Ta4GeAs3
_chemical_formula_sum   'Hf4 Ta4 Ge1 As3'
_cell_volume   217.45141818
_cell_formula_units_Z   1
loop_
 _symmetry_equiv_pos_site_id
 _symmetry_equiv_pos_as_xyz
  1  'x, y, z'
loop_
 _atom_site_type_symbol
 _atom_site_label
 _atom_site_symmetry_multiplicity
 _atom_site_fract_x
 _atom_site_fract_y
 _atom_site_fract_z
 _atom_site_occupancy
  Hf  Hf0  1  0.250000  0.040400  0.663927  1
  Hf  Hf1  1  0.250000  0.537593  0.833578  1
  Hf  Hf2  1  0.750000  0.460355  0.165090  1
  Hf  Hf3  1  0.750000  0.962318  0.335004  1
  Ta  Ta4  1  0.750000  0.859908  0.939860  1
  Ta  Ta5  1  0.250000  0.637449  0.440679  1
  Ta  Ta6  1  0.750000  0.364049  0.561187  1
  Ta  Ta7  1  0.250000  0.136693  0.059245  1
  Ge  Ge8  1  0.250000  0.258488  0.355791  1
  As  As9  1  0.250000  0.758775  0.146449  1
  As  As10  1  0.750000  0.743994  0.644437  1
  As  As11  1  0.750000  0.239979  0.854752  1
