# generated using pymatgen
data_Dy16Y4Cd6OsRu
_symmetry_space_group_name_H-M   'P 1'
_cell_length_a   9.61116800
_cell_length_b   9.61140671
_cell_length_c   9.87275200
_cell_angle_alpha   90.00000000
_cell_angle_beta   90.00000000
_cell_angle_gamma   120.00082712
_symmetry_Int_Tables_number   1
_chemical_formula_structural   Dy16Y4Cd6OsRu
_chemical_formula_sum   'Dy16 Y4 Cd6 Os1 Ru1'
_cell_volume   789.82042992
_cell_formula_units_Z   1
loop_
 _symmetry_equiv_pos_site_id
 _symmetry_equiv_pos_as_xyz
  1  'x, y, z'
loop_
 _atom_site_type_symbol
 _atom_site_label
 _atom_site_symmetry_multiplicity
 _atom_site_fract_x
 _atom_site_fract_y
 _atom_site_fract_z
 _atom_site_occupancy
  Dy  Dy0  1  0.999983  0.999991  0.499688  1
  Dy  Dy1  1  0.999983  0.999991  0.000312  1
  Dy  Dy2  1  0.209873  0.790180  0.440521  1
  Dy  Dy3  1  0.209873  0.419695  0.440521  1
  Dy  Dy4  1  0.580276  0.790138  0.440560  1
  Dy  Dy5  1  0.790032  0.209888  0.559958  1
  Dy  Dy6  1  0.790032  0.580142  0.559958  1
  Dy  Dy7  1  0.419859  0.209929  0.559991  1
  Dy  Dy8  1  0.790032  0.209888  0.940042  1
  Dy  Dy9  1  0.790032  0.580142  0.940042  1
  Dy  Dy10  1  0.419859  0.209929  0.940009  1
  Dy  Dy11  1  0.209873  0.790180  0.059479  1
  Dy  Dy12  1  0.209873  0.419695  0.059479  1
  Dy  Dy13  1  0.580276  0.790138  0.059440  1
  Dy  Dy14  1  0.458710  0.541308  0.750000  1
  Dy  Dy15  1  0.458710  0.917402  0.750000  1
  Y  Y16  1  0.540062  0.459937  0.250000  1
  Y  Y17  1  0.540062  0.080125  0.250000  1
  Y  Y18  1  0.919869  0.459934  0.250000  1
  Y  Y19  1  0.082716  0.541358  0.750000  1
  Cd  Cd20  1  0.885303  0.114717  0.250000  1
  Cd  Cd21  1  0.885303  0.770587  0.250000  1
  Cd  Cd22  1  0.229419  0.114710  0.250000  1
  Cd  Cd23  1  0.114770  0.885281  0.750000  1
  Cd  Cd24  1  0.114770  0.229488  0.750000  1
  Cd  Cd25  1  0.770481  0.885240  0.750000  1
  Os  Os26  1  0.333346  0.666673  0.250000  1
  Ru  Ru27  1  0.666625  0.333312  0.750000  1
