# generated using pymatgen
data_Na4ScP12Ir16Rh3
_symmetry_space_group_name_H-M   'P 1'
_cell_length_a   12.61248400
_cell_length_b   12.61248352
_cell_length_c   3.95228700
_cell_angle_alpha   90.00000000
_cell_angle_beta   90.00000000
_cell_angle_gamma   120.00000125
_symmetry_Int_Tables_number   1
_chemical_formula_structural   Na4ScP12Ir16Rh3
_chemical_formula_sum   'Na4 Sc1 P12 Ir16 Rh3'
_cell_volume   544.47800485
_cell_formula_units_Z   1
loop_
 _symmetry_equiv_pos_site_id
 _symmetry_equiv_pos_as_xyz
  1  'x, y, z'
loop_
 _atom_site_type_symbol
 _atom_site_label
 _atom_site_symmetry_multiplicity
 _atom_site_fract_x
 _atom_site_fract_y
 _atom_site_fract_z
 _atom_site_occupancy
  Na  Na0  1  0.333333  0.666667  0.000000  1
  Na  Na1  1  0.821760  0.000236  0.500000  1
  Na  Na2  1  0.999764  0.821524  0.500000  1
  Na  Na3  1  0.178476  0.178240  0.500000  1
  Sc  Sc4  1  0.666667  0.333333  0.000000  1
  P  P5  1  0.179440  0.000000  0.000000  1
  P  P6  1  0.000000  0.179440  0.000000  1
  P  P7  1  0.820560  0.820560  0.000000  1
  P  P8  1  0.172560  0.485782  0.500000  1
  P  P9  1  0.514218  0.686778  0.500000  1
  P  P10  1  0.313222  0.827440  0.500000  1
  P  P11  1  0.691206  0.517363  0.500000  1
  P  P12  1  0.826156  0.308794  0.500000  1
  P  P13  1  0.482637  0.173844  0.500000  1
  P  P14  1  0.638215  0.997036  0.000000  1
  P  P15  1  0.002964  0.641178  0.000000  1
  P  P16  1  0.358822  0.361785  0.000000  1
  Ir  Ir17  1  0.359421  0.487191  0.500000  1
  Ir  Ir18  1  0.512809  0.872230  0.500000  1
  Ir  Ir19  1  0.127770  0.640579  0.500000  1
  Ir  Ir20  1  0.865233  0.502276  0.500000  1
  Ir  Ir21  1  0.637042  0.134767  0.500000  1
  Ir  Ir22  1  0.497724  0.362958  0.500000  1
  Ir  Ir23  1  0.180354  0.378719  0.000000  1
  Ir  Ir24  1  0.621281  0.801636  0.000000  1
  Ir  Ir25  1  0.198364  0.819646  0.000000  1
  Ir  Ir26  1  0.804778  0.620400  0.000000  1
  Ir  Ir27  1  0.815623  0.195222  0.000000  1
  Ir  Ir28  1  0.379600  0.184377  0.000000  1
  Ir  Ir29  1  0.288101  0.000659  0.500000  1
  Ir  Ir30  1  0.999341  0.287442  0.500000  1
  Ir  Ir31  1  0.712558  0.711899  0.500000  1
  Ir  Ir32  1  0.000000  0.000000  0.000000  1
  Rh  Rh33  1  0.459540  0.001191  0.000000  1
  Rh  Rh34  1  0.998809  0.458348  0.000000  1
  Rh  Rh35  1  0.541652  0.540460  0.000000  1
