# generated using pymatgen
data_Dy10IrOs2Rh3
_symmetry_space_group_name_H-M   'P 1'
_cell_length_a   10.88720217
_cell_length_b   10.88725000
_cell_length_c   6.41144510
_cell_angle_alpha   90.00000000
_cell_angle_beta   90.02057124
_cell_angle_gamma   90.00000000
_symmetry_Int_Tables_number   1
_chemical_formula_structural   Dy10IrOs2Rh3
_chemical_formula_sum   'Dy20 Ir2 Os4 Rh6'
_cell_volume   759.95938654
_cell_formula_units_Z   2
loop_
 _symmetry_equiv_pos_site_id
 _symmetry_equiv_pos_as_xyz
  1  'x, y, z'
loop_
 _atom_site_type_symbol
 _atom_site_label
 _atom_site_symmetry_multiplicity
 _atom_site_fract_x
 _atom_site_fract_y
 _atom_site_fract_z
 _atom_site_occupancy
  Dy  Dy0  1  0.294556  0.087356  0.377224  1
  Dy  Dy1  1  0.294556  0.912644  0.877224  1
  Dy  Dy2  1  0.705431  0.086308  0.877244  1
  Dy  Dy3  1  0.705431  0.913692  0.377244  1
  Dy  Dy4  1  0.585195  0.794101  0.877204  1
  Dy  Dy5  1  0.585195  0.205899  0.377204  1
  Dy  Dy6  1  0.413032  0.794004  0.378343  1
  Dy  Dy7  1  0.413032  0.205996  0.878343  1
  Dy  Dy8  1  0.206659  0.414340  0.621968  1
  Dy  Dy9  1  0.206659  0.585660  0.121968  1
  Dy  Dy10  1  0.794775  0.413457  0.122533  1
  Dy  Dy11  1  0.794775  0.586543  0.622533  1
  Dy  Dy12  1  0.913750  0.705498  0.122503  1
  Dy  Dy13  1  0.913750  0.294502  0.622503  1
  Dy  Dy14  1  0.087459  0.705368  0.623013  1
  Dy  Dy15  1  0.087459  0.294632  0.123013  1
  Dy  Dy16  1  0.999969  0.000000  0.500007  1
  Dy  Dy17  1  0.999969  0.000000  0.000007  1
  Dy  Dy18  1  0.499586  0.500080  0.999982  1
  Dy  Dy19  1  0.499586  0.499920  0.499982  1
  Ir  Ir20  1  0.348097  0.347687  0.249921  1
  Ir  Ir21  1  0.348097  0.652313  0.749921  1
  Os  Os22  1  0.500618  0.999928  0.123953  1
  Os  Os23  1  0.500618  0.000072  0.623953  1
  Os  Os24  1  0.999055  0.499981  0.876028  1
  Os  Os25  1  0.999055  0.500019  0.376028  1
  Rh  Rh26  1  0.848379  0.151590  0.249920  1
  Rh  Rh27  1  0.848379  0.848410  0.749920  1
  Rh  Rh28  1  0.151270  0.151298  0.750069  1
  Rh  Rh29  1  0.151270  0.848702  0.250069  1
  Rh  Rh30  1  0.652170  0.348225  0.750088  1
  Rh  Rh31  1  0.652170  0.651775  0.250088  1
