# generated using pymatgen
data_DyY3(Ga8Pt3)3
_symmetry_space_group_name_H-M   'P 1'
_cell_length_a   7.52481348
_cell_length_b   7.59481174
_cell_length_c   13.40122266
_cell_angle_alpha   84.76746315
_cell_angle_beta   79.53719726
_cell_angle_gamma   60.21316231
_symmetry_Int_Tables_number   1
_chemical_formula_structural   DyY3(Ga8Pt3)3
_chemical_formula_sum   'Dy1 Y3 Ga24 Pt9'
_cell_volume   653.63402212
_cell_formula_units_Z   1
loop_
 _symmetry_equiv_pos_site_id
 _symmetry_equiv_pos_as_xyz
  1  'x, y, z'
loop_
 _atom_site_type_symbol
 _atom_site_label
 _atom_site_symmetry_multiplicity
 _atom_site_fract_x
 _atom_site_fract_y
 _atom_site_fract_z
 _atom_site_occupancy
  Dy  Dy0  1  0.267842  0.502517  0.188484  1
  Y  Y1  1  0.392995  0.168623  0.811471  1
  Y  Y2  1  0.607120  0.831234  0.188600  1
  Y  Y3  1  0.732165  0.497358  0.811733  1
  Ga  Ga4  1  0.685518  0.833836  0.938711  1
  Ga  Ga5  1  0.314524  0.166401  0.061712  1
  Ga  Ga6  1  0.146203  0.832862  0.558819  1
  Ga  Ga7  1  0.853941  0.167089  0.441038  1
  Ga  Ga8  1  0.478485  0.166941  0.555810  1
  Ga  Ga9  1  0.521598  0.832970  0.443960  1
  Ga  Ga10  1  0.220869  0.165411  0.323924  1
  Ga  Ga11  1  0.779375  0.834527  0.675734  1
  Ga  Ga12  1  0.437662  0.503536  0.674879  1
  Ga  Ga13  1  0.562331  0.496665  0.324781  1
  Ga  Ga14  1  0.106624  0.163832  0.674462  1
  Ga  Ga15  1  0.893526  0.836059  0.325185  1
  Ga  Ga16  1  0.357172  0.498110  0.939034  1
  Ga  Ga17  1  0.642087  0.502108  0.061591  1
  Ga  Ga18  1  0.019578  0.169443  0.943769  1
  Ga  Ga19  1  0.980443  0.830239  0.056728  1
  Ga  Ga20  1  0.186869  0.499121  0.442970  1
  Ga  Ga21  1  0.813209  0.500924  0.556805  1
  Ga  Ga22  1  0.734169  0.164110  0.182198  1
  Ga  Ga23  1  0.265433  0.836432  0.817802  1
  Ga  Ga24  1  0.061009  0.631024  0.817189  1
  Ga  Ga25  1  0.939638  0.368686  0.182803  1
  Ga  Ga26  1  0.855876  0.040192  0.816974  1
  Ga  Ga27  1  0.143851  0.959334  0.183037  1
  Pt  Pt28  1  0.117647  0.496117  0.638775  1
  Pt  Pt29  1  0.882636  0.503774  0.361054  1
  Pt  Pt30  1  0.660108  0.169880  0.999452  1
  Pt  Pt31  1  0.339793  0.830332  0.000696  1
  Pt  Pt32  1  0.540881  0.166760  0.360206  1
  Pt  Pt33  1  0.459099  0.833435  0.639634  1
  Pt  Pt34  1  0.779735  0.171661  0.636972  1
  Pt  Pt35  1  0.220214  0.828371  0.362895  1
  Pt  Pt36  1  0.999776  0.500088  0.000115  1
