# generated using pymatgen
data_Ce5Nd15Si15Pd
_symmetry_space_group_name_H-M   'P 1'
_cell_length_a   7.66591018
_cell_length_b   7.89628489
_cell_length_c   15.12095900
_cell_angle_alpha   90.42421389
_cell_angle_beta   90.42427864
_cell_angle_gamma   90.30669197
_symmetry_Int_Tables_number   1
_chemical_formula_structural   Ce5Nd15Si15Pd
_chemical_formula_sum   'Ce5 Nd15 Si15 Pd1'
_cell_volume   915.24151087
_cell_formula_units_Z   1
loop_
 _symmetry_equiv_pos_site_id
 _symmetry_equiv_pos_as_xyz
  1  'x, y, z'
loop_
 _atom_site_type_symbol
 _atom_site_label
 _atom_site_symmetry_multiplicity
 _atom_site_fract_x
 _atom_site_fract_y
 _atom_site_fract_z
 _atom_site_occupancy
  Ce  Ce0  1  0.038955  0.809322  0.607845  1
  Ce  Ce1  1  0.861982  0.503786  0.746716  1
  Ce  Ce2  1  0.358353  0.991256  0.746596  1
  Ce  Ce3  1  0.141439  0.498515  0.253206  1
  Ce  Ce4  1  0.641646  0.006972  0.255632  1
  Nd  Nd5  1  0.684627  0.171045  0.618404  1
  Nd  Nd6  1  0.186062  0.317495  0.877357  1
  Nd  Nd7  1  0.317492  0.817144  0.123149  1
  Nd  Nd8  1  0.820214  0.682195  0.379982  1
  Nd  Nd9  1  0.314641  0.819526  0.377044  1
  Nd  Nd10  1  0.815515  0.682400  0.122349  1
  Nd  Nd11  1  0.684574  0.181396  0.876582  1
  Nd  Nd12  1  0.180846  0.318253  0.623771  1
  Nd  Nd13  1  0.528877  0.681045  0.602204  1
  Nd  Nd14  1  0.040672  0.808892  0.896238  1
  Nd  Nd15  1  0.461554  0.312489  0.103312  1
  Nd  Nd16  1  0.969296  0.191868  0.395191  1
  Nd  Nd17  1  0.459530  0.318736  0.395881  1
  Nd  Nd18  1  0.960124  0.190114  0.104025  1
  Nd  Nd19  1  0.540781  0.687748  0.896662  1
  Si  Si20  1  0.138045  0.525491  0.041185  1
  Si  Si21  1  0.362193  0.026136  0.960156  1
  Si  Si22  1  0.860232  0.478610  0.542315  1
  Si  Si23  1  0.345600  0.023786  0.540875  1
  Si  Si24  1  0.863510  0.473739  0.959080  1
  Si  Si25  1  0.637731  0.974834  0.039597  1
  Si  Si26  1  0.142203  0.531959  0.463889  1
  Si  Si27  1  0.482003  0.399163  0.749700  1
  Si  Si28  1  0.978657  0.093970  0.750333  1
  Si  Si29  1  0.522654  0.601241  0.248728  1
  Si  Si30  1  0.020684  0.902573  0.247824  1
  Si  Si31  1  0.745405  0.872790  0.749376  1
  Si  Si32  1  0.246806  0.621985  0.751423  1
  Si  Si33  1  0.255099  0.126512  0.248038  1
  Si  Si34  1  0.755829  0.377097  0.249322  1
  Pd  Pd35  1  0.636170  0.979925  0.456013  1
