# generated using pymatgen
data_Rb8Hf5ZrBBr20
_symmetry_space_group_name_H-M   'P 1'
_cell_length_a   12.02510489
_cell_length_b   12.02307833
_cell_length_c   12.02307817
_cell_angle_alpha   60.01115423
_cell_angle_beta   59.99441689
_cell_angle_gamma   59.99442181
_symmetry_Int_Tables_number   1
_chemical_formula_structural   Rb8Hf5ZrBBr20
_chemical_formula_sum   'Rb8 Hf5 Zr1 B1 Br20'
_cell_volume   1229.15081899
_cell_formula_units_Z   1
loop_
 _symmetry_equiv_pos_site_id
 _symmetry_equiv_pos_as_xyz
  1  'x, y, z'
loop_
 _atom_site_type_symbol
 _atom_site_label
 _atom_site_symmetry_multiplicity
 _atom_site_fract_x
 _atom_site_fract_y
 _atom_site_fract_z
 _atom_site_occupancy
  Rb  Rb0  1  0.361137  0.360686  0.360686  1
  Rb  Rb1  1  0.639246  0.639223  0.639223  1
  Rb  Rb2  1  0.360777  0.360754  0.917694  1
  Rb  Rb3  1  0.360777  0.917694  0.360754  1
  Rb  Rb4  1  0.639314  0.638863  0.082507  1
  Rb  Rb5  1  0.639314  0.082507  0.638863  1
  Rb  Rb6  1  0.917493  0.360686  0.360686  1
  Rb  Rb7  1  0.082306  0.639223  0.639223  1
  Hf  Hf8  1  0.135306  0.864694  0.864694  1
  Hf  Hf9  1  0.134450  0.865550  0.135113  1
  Hf  Hf10  1  0.864887  0.135113  0.865550  1
  Hf  Hf11  1  0.134450  0.135113  0.865550  1
  Hf  Hf12  1  0.864887  0.865550  0.135113  1
  Zr  Zr13  1  0.864665  0.135335  0.135335  1
  B  B14  1  0.001473  0.998527  0.998527  1
  Br  Br15  1  0.316295  0.999988  0.999988  1
  Br  Br16  1  0.683729  0.999988  0.999988  1
  Br  Br17  1  0.000012  0.316271  0.683705  1
  Br  Br18  1  0.000012  0.683705  0.316271  1
  Br  Br19  1  0.002224  0.318226  0.997776  1
  Br  Br20  1  0.681774  0.997776  0.318226  1
  Br  Br21  1  0.999963  0.683651  0.000037  1
  Br  Br22  1  0.316349  0.000037  0.683651  1
  Br  Br23  1  0.002224  0.997776  0.318226  1
  Br  Br24  1  0.999963  0.000037  0.683651  1
  Br  Br25  1  0.681774  0.318226  0.997776  1
  Br  Br26  1  0.316349  0.683651  0.000037  1
  Br  Br27  1  0.691017  0.308983  0.308983  1
  Br  Br28  1  0.307372  0.692628  0.692628  1
  Br  Br29  1  0.307536  0.692464  0.307227  1
  Br  Br30  1  0.692773  0.307227  0.692464  1
  Br  Br31  1  0.307536  0.307227  0.692464  1
  Br  Br32  1  0.692773  0.692464  0.307227  1
  Br  Br33  1  0.249922  0.250078  0.250078  1
  Br  Br34  1  0.749922  0.750078  0.750078  1
