# generated using pymatgen
data_Ta9NbGa4(GeB)2
_symmetry_space_group_name_H-M   'P 1'
_cell_length_a   7.77899213
_cell_length_b   7.77898774
_cell_length_c   5.34096901
_cell_angle_alpha   89.99827632
_cell_angle_beta   89.99487248
_cell_angle_gamma   120.02615659
_symmetry_Int_Tables_number   1
_chemical_formula_structural   Ta9NbGa4(GeB)2
_chemical_formula_sum   'Ta9 Nb1 Ga4 Ge2 B2'
_cell_volume   279.82246485
_cell_formula_units_Z   1
loop_
 _symmetry_equiv_pos_site_id
 _symmetry_equiv_pos_as_xyz
  1  'x, y, z'
loop_
 _atom_site_type_symbol
 _atom_site_label
 _atom_site_symmetry_multiplicity
 _atom_site_fract_x
 _atom_site_fract_y
 _atom_site_fract_z
 _atom_site_occupancy
  Ta  Ta0  1  0.332647  0.666691  0.498787  1
  Ta  Ta1  1  0.332784  0.666678  0.001219  1
  Ta  Ta2  1  0.666741  0.332802  0.001445  1
  Ta  Ta3  1  0.756266  0.756601  0.249805  1
  Ta  Ta4  1  0.243092  0.999095  0.249817  1
  Ta  Ta5  1  0.999774  0.243420  0.249767  1
  Ta  Ta6  1  0.242169  0.242550  0.750107  1
  Ta  Ta7  1  0.757952  0.000585  0.750051  1
  Ta  Ta8  1  0.001189  0.758272  0.750091  1
  Nb  Nb9  1  0.666634  0.332558  0.498911  1
  Ga  Ga10  1  0.401272  0.401239  0.249914  1
  Ga  Ga11  1  0.599624  0.999326  0.249915  1
  Ga  Ga12  1  0.999263  0.599590  0.249953  1
  Ga  Ga13  1  0.598476  0.598487  0.750082  1
  Ge  Ge14  1  0.402887  0.000063  0.750079  1
  Ge  Ge15  1  0.000118  0.402939  0.750069  1
  B  B16  1  0.999555  0.999534  0.499544  1
  B  B17  1  0.999555  0.999569  0.000446  1
