# generated using pymatgen
data_Sr3TbSb3
_symmetry_space_group_name_H-M   'P 1'
_cell_length_a   8.48137455
_cell_length_b   8.48137541
_cell_length_c   8.60233669
_cell_angle_alpha   109.69898078
_cell_angle_beta   109.69897808
_cell_angle_gamma   108.97983005
_symmetry_Int_Tables_number   1
_chemical_formula_structural   Sr3TbSb3
_chemical_formula_sum   'Sr6 Tb2 Sb6'
_cell_volume   476.54303225
_cell_formula_units_Z   2
loop_
 _symmetry_equiv_pos_site_id
 _symmetry_equiv_pos_as_xyz
  1  'x, y, z'
loop_
 _atom_site_type_symbol
 _atom_site_label
 _atom_site_symmetry_multiplicity
 _atom_site_fract_x
 _atom_site_fract_y
 _atom_site_fract_z
 _atom_site_occupancy
  Sr  Sr0  1  0.499928  0.003540  0.360854  1
  Sr  Sr1  1  0.503540  0.999928  0.860854  1
  Sr  Sr2  1  0.640992  0.639823  0.644432  1
  Sr  Sr3  1  0.995155  0.360446  0.494401  1
  Sr  Sr4  1  0.139823  0.140992  0.144432  1
  Sr  Sr5  1  0.860446  0.495155  0.994401  1
  Tb  Tb6  1  0.998175  0.861442  0.498107  1
  Tb  Tb7  1  0.361442  0.498175  0.998107  1
  Sb  Sb8  1  0.129101  0.747888  0.870678  1
  Sb  Sb9  1  0.894251  0.123600  0.747261  1
  Sb  Sb10  1  0.623600  0.394251  0.247261  1
  Sb  Sb11  1  0.361234  0.244426  0.634268  1
  Sb  Sb12  1  0.744426  0.861234  0.134268  1
  Sb  Sb13  1  0.247888  0.629101  0.370678  1
