# generated using pymatgen
data_Tb3Y(OsO4)4
_symmetry_space_group_name_H-M   'P 1'
_cell_length_a   5.38044482
_cell_length_b   7.73390573
_cell_length_c   7.46786555
_cell_angle_alpha   79.27910648
_cell_angle_beta   91.21067023
_cell_angle_gamma   94.11926322
_symmetry_Int_Tables_number   1
_chemical_formula_structural   Tb3Y(OsO4)4
_chemical_formula_sum   'Tb3 Y1 Os4 O16'
_cell_volume   304.52924271
_cell_formula_units_Z   1
loop_
 _symmetry_equiv_pos_site_id
 _symmetry_equiv_pos_as_xyz
  1  'x, y, z'
loop_
 _atom_site_type_symbol
 _atom_site_label
 _atom_site_symmetry_multiplicity
 _atom_site_fract_x
 _atom_site_fract_y
 _atom_site_fract_z
 _atom_site_occupancy
  Tb  Tb0  1  0.262231  0.113881  0.610586  1
  Tb  Tb1  1  0.737818  0.885795  0.389306  1
  Tb  Tb2  1  0.194518  0.170860  0.100088  1
  Y  Y3  1  0.804997  0.829388  0.899218  1
  Os  Os4  1  0.246289  0.662274  0.207903  1
  Os  Os5  1  0.754030  0.337732  0.792021  1
  Os  Os6  1  0.716015  0.336509  0.299561  1
  Os  Os7  1  0.284172  0.663552  0.700516  1
  O  O8  1  0.049560  0.471818  0.715897  1
  O  O9  1  0.950715  0.528039  0.284314  1
  O  O10  1  0.617867  0.328793  0.548748  1
  O  O11  1  0.382370  0.671361  0.451244  1
  O  O12  1  0.843665  0.319737  0.053780  1
  O  O13  1  0.154768  0.680737  0.946226  1
  O  O14  1  0.412263  0.442729  0.197063  1
  O  O15  1  0.587805  0.557363  0.803286  1
  O  O16  1  0.050950  0.885700  0.178628  1
  O  O17  1  0.949443  0.114322  0.821670  1
  O  O18  1  0.491539  0.112104  0.322719  1
  O  O19  1  0.508622  0.887718  0.677788  1
  O  O20  1  0.452265  0.197878  0.867113  1
  O  O21  1  0.548314  0.801803  0.132020  1
  O  O22  1  0.976671  0.163985  0.381344  1
  O  O23  1  0.023113  0.835921  0.618958  1
