# generated using pymatgen
data_Zr4Ti3TcP4
_symmetry_space_group_name_H-M   'P 1'
_cell_length_a   3.57005400
_cell_length_b   6.75069224
_cell_length_c   8.11658305
_cell_angle_alpha   90.04964117
_cell_angle_beta   90.00000000
_cell_angle_gamma   90.00000000
_symmetry_Int_Tables_number   1
_chemical_formula_structural   Zr4Ti3TcP4
_chemical_formula_sum   'Zr4 Ti3 Tc1 P4'
_cell_volume   195.61230381
_cell_formula_units_Z   1
loop_
 _symmetry_equiv_pos_site_id
 _symmetry_equiv_pos_as_xyz
  1  'x, y, z'
loop_
 _atom_site_type_symbol
 _atom_site_label
 _atom_site_symmetry_multiplicity
 _atom_site_fract_x
 _atom_site_fract_y
 _atom_site_fract_z
 _atom_site_occupancy
  Zr  Zr0  1  0.250000  0.533489  0.167914  1
  Zr  Zr1  1  0.750000  0.460428  0.831133  1
  Zr  Zr2  1  0.750000  0.966337  0.671555  1
  Zr  Zr3  1  0.250000  0.037454  0.326237  1
  Ti  Ti4  1  0.250000  0.634356  0.561484  1
  Ti  Ti5  1  0.750000  0.361729  0.440577  1
  Ti  Ti6  1  0.750000  0.870737  0.057005  1
  Tc  Tc7  1  0.250000  0.133717  0.941925  1
  P  P8  1  0.250000  0.761290  0.860898  1
  P  P9  1  0.750000  0.240560  0.140090  1
  P  P10  1  0.750000  0.737674  0.362436  1
  P  P11  1  0.250000  0.262230  0.638745  1
