# generated using pymatgen
data_Nd2HoLu(SeO3)6
_symmetry_space_group_name_H-M   'P 1'
_cell_length_a   7.20979756
_cell_length_b   8.22950167
_cell_length_c   9.14106697
_cell_angle_alpha   70.98513889
_cell_angle_beta   70.31159763
_cell_angle_gamma   66.25645225
_symmetry_Int_Tables_number   1
_chemical_formula_structural   Nd2HoLu(SeO3)6
_chemical_formula_sum   'Nd2 Ho1 Lu1 Se6 O18'
_cell_volume   455.91571119
_cell_formula_units_Z   1
loop_
 _symmetry_equiv_pos_site_id
 _symmetry_equiv_pos_as_xyz
  1  'x, y, z'
loop_
 _atom_site_type_symbol
 _atom_site_label
 _atom_site_symmetry_multiplicity
 _atom_site_fract_x
 _atom_site_fract_y
 _atom_site_fract_z
 _atom_site_occupancy
  Nd  Nd0  1  0.331167  0.732635  0.590948  1
  Nd  Nd1  1  0.666873  0.270138  0.408568  1
  Ho  Ho2  1  0.741656  0.734166  0.801215  1
  Lu  Lu3  1  0.258272  0.263920  0.198894  1
  Se  Se4  1  0.113634  0.248419  0.578484  1
  Se  Se5  1  0.425634  0.785240  0.191219  1
  Se  Se6  1  0.149806  0.743641  0.971069  1
  Se  Se7  1  0.851539  0.250117  0.032454  1
  Se  Se8  1  0.572732  0.218861  0.809338  1
  Se  Se9  1  0.887025  0.753200  0.417870  1
  O  O10  1  0.148607  0.025470  0.659677  1
  O  O11  1  0.174027  0.555248  0.121900  1
  O  O12  1  0.028562  0.703617  0.558280  1
  O  O13  1  0.341079  0.249251  0.428624  1
  O  O14  1  0.060404  0.696463  0.839516  1
  O  O15  1  0.595526  0.287255  0.147588  1
  O  O16  1  0.353518  0.207465  0.956108  1
  O  O17  1  0.361233  0.954381  0.293263  1
  O  O18  1  0.513006  0.604419  0.344303  1
  O  O19  1  0.483364  0.399321  0.656635  1
  O  O20  1  0.634632  0.051048  0.706660  1
  O  O21  1  0.647336  0.794953  0.047741  1
  O  O22  1  0.404226  0.711470  0.854343  1
  O  O23  1  0.942644  0.300462  0.161532  1
  O  O24  1  0.659216  0.750135  0.566553  1
  O  O25  1  0.973497  0.295981  0.437803  1
  O  O26  1  0.830138  0.436091  0.879174  1
  O  O27  1  0.850649  0.976635  0.340240  1
