# generated using pymatgen
data_Li12La3Gd(BO3)8
_symmetry_space_group_name_H-M   'P 1'
_cell_length_a   6.54152354
_cell_length_b   9.01362368
_cell_length_c   10.12511099
_cell_angle_alpha   115.11561825
_cell_angle_beta   90.25907300
_cell_angle_gamma   90.20560694
_symmetry_Int_Tables_number   1
_chemical_formula_structural   Li12La3Gd(BO3)8
_chemical_formula_sum   'Li12 La3 Gd1 B8 O24'
_cell_volume   540.54471359
_cell_formula_units_Z   1
loop_
 _symmetry_equiv_pos_site_id
 _symmetry_equiv_pos_as_xyz
  1  'x, y, z'
loop_
 _atom_site_type_symbol
 _atom_site_label
 _atom_site_symmetry_multiplicity
 _atom_site_fract_x
 _atom_site_fract_y
 _atom_site_fract_z
 _atom_site_occupancy
  Li  Li0  1  0.434753  0.036508  0.336161  1
  Li  Li1  1  0.739528  0.131676  0.522972  1
  Li  Li2  1  0.758677  0.627794  0.022478  1
  Li  Li3  1  0.242083  0.373013  0.980782  1
  Li  Li4  1  0.216271  0.298216  0.455581  1
  Li  Li5  1  0.935204  0.465227  0.167661  1
  Li  Li6  1  0.565949  0.963423  0.664620  1
  Li  Li7  1  0.780331  0.704682  0.541530  1
  Li  Li8  1  0.261513  0.863816  0.475441  1
  Li  Li9  1  0.715227  0.208289  0.043714  1
  Li  Li10  1  0.285075  0.794448  0.957721  1
  Li  Li11  1  0.067108  0.533688  0.834301  1
  La  La12  1  0.032571  0.985924  0.799144  1
  La  La13  1  0.530129  0.514941  0.699239  1
  La  La14  1  0.968631  0.014716  0.202594  1
  Gd  Gd15  1  0.470840  0.484703  0.298882  1
  B  B16  1  0.335498  0.211956  0.671322  1
  B  B17  1  0.331870  0.158671  0.111362  1
  B  B18  1  0.658863  0.781714  0.326877  1
  B  B19  1  0.169480  0.712600  0.174715  1
  B  B20  1  0.825461  0.346582  0.389819  1
  B  B21  1  0.670583  0.846718  0.892486  1
  B  B22  1  0.835932  0.287607  0.828295  1
  B  B23  1  0.170955  0.653542  0.603820  1
  O  O24  1  0.299336  0.063476  0.677100  1
  O  O25  1  0.560023  0.778345  0.448681  1
  O  O26  1  0.227132  0.020048  0.016285  1
  O  O27  1  0.703004  0.930163  0.322729  1
  O  O28  1  0.180663  0.687158  0.752251  1
  O  O29  1  0.796597  0.434954  0.821513  1
  O  O30  1  0.430500  0.214663  0.547828  1
  O  O31  1  0.286192  0.363200  0.784321  1
  O  O32  1  0.071923  0.709892  0.049282  1
  O  O33  1  0.933490  0.287034  0.952136  1
  O  O34  1  0.714247  0.481642  0.480446  1
  O  O35  1  0.777819  0.983726  0.986979  1
  O  O36  1  0.572244  0.743460  0.940924  1
  O  O37  1  0.209986  0.567431  0.185805  1
  O  O38  1  0.215839  0.866895  0.285564  1
  O  O39  1  0.066639  0.757327  0.559211  1
  O  O40  1  0.677969  0.808669  0.743625  1
  O  O41  1  0.429557  0.264336  0.065102  1
  O  O42  1  0.820498  0.307485  0.241413  1
  O  O43  1  0.705238  0.628913  0.214369  1
  O  O44  1  0.786750  0.135212  0.715169  1
  O  O45  1  0.280573  0.521391  0.506457  1
  O  O46  1  0.925671  0.246521  0.441289  1
  O  O47  1  0.325579  0.197607  0.260003  1
