# generated using pymatgen
data_SmPaSn5Rh3
_symmetry_space_group_name_H-M   'P 1'
_cell_length_a   13.61041746
_cell_length_b   13.61041721
_cell_length_c   7.23722400
_cell_angle_alpha   90.00000000
_cell_angle_beta   90.00000000
_cell_angle_gamma   161.03462239
_symmetry_Int_Tables_number   1
_chemical_formula_structural   SmPaSn5Rh3
_chemical_formula_sum   'Sm2 Pa2 Sn10 Rh6'
_cell_volume   435.70636689
_cell_formula_units_Z   2
loop_
 _symmetry_equiv_pos_site_id
 _symmetry_equiv_pos_as_xyz
  1  'x, y, z'
loop_
 _atom_site_type_symbol
 _atom_site_label
 _atom_site_symmetry_multiplicity
 _atom_site_fract_x
 _atom_site_fract_y
 _atom_site_fract_z
 _atom_site_occupancy
  Sm  Sm0  1  0.172580  0.827420  0.747186  1
  Sm  Sm1  1  0.827420  0.172580  0.247186  1
  Pa  Pa2  1  0.475429  0.524571  0.765373  1
  Pa  Pa3  1  0.524571  0.475429  0.265373  1
  Sn  Sn4  1  0.878423  0.121577  0.764789  1
  Sn  Sn5  1  0.121577  0.878423  0.264789  1
  Sn  Sn6  1  0.703778  0.296222  0.453630  1
  Sn  Sn7  1  0.296222  0.703778  0.953630  1
  Sn  Sn8  1  0.597501  0.402499  0.889157  1
  Sn  Sn9  1  0.402499  0.597501  0.389157  1
  Sn  Sn10  1  0.951424  0.048576  0.103945  1
  Sn  Sn11  1  0.048576  0.951424  0.603945  1
  Sn  Sn12  1  0.289408  0.710592  0.523342  1
  Sn  Sn13  1  0.710592  0.289408  0.023342  1
  Rh  Rh14  1  0.049473  0.950527  0.988331  1
  Rh  Rh15  1  0.950527  0.049473  0.488331  1
  Rh  Rh16  1  0.777255  0.222745  0.733846  1
  Rh  Rh17  1  0.222745  0.777255  0.233846  1
  Rh  Rh18  1  0.398394  0.601606  0.002402  1
  Rh  Rh19  1  0.601606  0.398394  0.502402  1
