# generated using pymatgen
data_Tb12Er4Tl3InRh4
_symmetry_space_group_name_H-M   'P 1'
_cell_length_a   9.68861026
_cell_length_b   9.69710620
_cell_length_c   9.69031098
_cell_angle_alpha   60.08459985
_cell_angle_beta   60.00625732
_cell_angle_gamma   59.99061580
_symmetry_Int_Tables_number   1
_chemical_formula_structural   Tb12Er4Tl3InRh4
_chemical_formula_sum   'Tb12 Er4 Tl3 In1 Rh4'
_cell_volume   644.15883079
_cell_formula_units_Z   1
loop_
 _symmetry_equiv_pos_site_id
 _symmetry_equiv_pos_as_xyz
  1  'x, y, z'
loop_
 _atom_site_type_symbol
 _atom_site_label
 _atom_site_symmetry_multiplicity
 _atom_site_fract_x
 _atom_site_fract_y
 _atom_site_fract_z
 _atom_site_occupancy
  Tb  Tb0  1  0.058824  0.061636  0.439433  1
  Tb  Tb1  1  0.439244  0.437048  0.060799  1
  Tb  Tb2  1  0.652706  0.650554  0.651090  1
  Tb  Tb3  1  0.813600  0.188139  0.187962  1
  Tb  Tb4  1  0.187833  0.813247  0.812065  1
  Tb  Tb5  1  0.051089  0.647906  0.648726  1
  Tb  Tb6  1  0.440821  0.059081  0.058358  1
  Tb  Tb7  1  0.439405  0.060010  0.438982  1
  Tb  Tb8  1  0.059923  0.437493  0.062126  1
  Tb  Tb9  1  0.649418  0.647867  0.051008  1
  Tb  Tb10  1  0.187975  0.813368  0.187381  1
  Tb  Tb11  1  0.059912  0.436812  0.438562  1
  Er  Er12  1  0.812212  0.811546  0.188528  1
  Er  Er13  1  0.812762  0.188560  0.810935  1
  Er  Er14  1  0.188568  0.188206  0.812111  1
  Er  Er15  1  0.648707  0.051306  0.648050  1
  Tl  Tl16  1  0.415520  0.413829  0.414821  1
  Tl  Tl17  1  0.416131  0.414792  0.755765  1
  Tl  Tl18  1  0.416053  0.755779  0.415382  1
  In  In19  1  0.748910  0.417388  0.418386  1
  Rh  Rh20  1  0.859646  0.425856  0.857292  1
  Rh  Rh21  1  0.855173  0.859860  0.857281  1
  Rh  Rh22  1  0.856746  0.858748  0.428334  1
  Rh  Rh23  1  0.428825  0.860970  0.856624  1
