# generated using pymatgen
data_Ho4OsRuC4
_symmetry_space_group_name_H-M   'P 1'
_cell_length_a   5.10096900
_cell_length_b   6.43105752
_cell_length_c   9.75293466
_cell_angle_alpha   89.80209249
_cell_angle_beta   90.00000000
_cell_angle_gamma   90.00000000
_symmetry_Int_Tables_number   1
_chemical_formula_structural   Ho4OsRuC4
_chemical_formula_sum   'Ho8 Os2 Ru2 C8'
_cell_volume   319.93945580
_cell_formula_units_Z   2
loop_
 _symmetry_equiv_pos_site_id
 _symmetry_equiv_pos_as_xyz
  1  'x, y, z'
loop_
 _atom_site_type_symbol
 _atom_site_label
 _atom_site_symmetry_multiplicity
 _atom_site_fract_x
 _atom_site_fract_y
 _atom_site_fract_z
 _atom_site_occupancy
  Ho  Ho0  1  0.250000  0.683268  0.553441  1
  Ho  Ho1  1  0.750000  0.316732  0.446559  1
  Ho  Ho2  1  0.750000  0.821225  0.053708  1
  Ho  Ho3  1  0.250000  0.178775  0.946292  1
  Ho  Ho4  1  0.250000  0.526629  0.217519  1
  Ho  Ho5  1  0.750000  0.473371  0.782481  1
  Ho  Ho6  1  0.750000  0.974323  0.719656  1
  Ho  Ho7  1  0.250000  0.025677  0.280344  1
  Os  Os8  1  0.750000  0.776783  0.366058  1
  Os  Os9  1  0.250000  0.223217  0.633942  1
  Ru  Ru10  1  0.250000  0.721922  0.866142  1
  Ru  Ru11  1  0.750000  0.278078  0.133858  1
  C  C12  1  0.250000  0.458031  0.755861  1
  C  C13  1  0.750000  0.541969  0.244139  1
  C  C14  1  0.750000  0.040791  0.259288  1
  C  C15  1  0.250000  0.959209  0.740712  1
  C  C16  1  0.250000  0.827290  0.054722  1
  C  C17  1  0.750000  0.172710  0.945278  1
  C  C18  1  0.750000  0.674905  0.554536  1
  C  C19  1  0.250000  0.325095  0.445464  1
