# generated using pymatgen
data_Tm4Sn5AsIr7
_symmetry_space_group_name_H-M   'P 1'
_cell_length_a   7.50766065
_cell_length_b   7.50766022
_cell_length_c   7.50766107
_cell_angle_alpha   109.50484397
_cell_angle_beta   109.45442169
_cell_angle_gamma   109.45440562
_symmetry_Int_Tables_number   1
_chemical_formula_structural   Tm4Sn5AsIr7
_chemical_formula_sum   'Tm4 Sn5 As1 Ir7'
_cell_volume   325.75559005
_cell_formula_units_Z   1
loop_
 _symmetry_equiv_pos_site_id
 _symmetry_equiv_pos_as_xyz
  1  'x, y, z'
loop_
 _atom_site_type_symbol
 _atom_site_label
 _atom_site_symmetry_multiplicity
 _atom_site_fract_x
 _atom_site_fract_y
 _atom_site_fract_z
 _atom_site_occupancy
  Tm  Tm0  1  0.000000  0.991888  0.525599  1
  Tm  Tm1  1  0.000000  0.525599  0.991888  1
  Tm  Tm2  1  0.466289  0.991888  0.991888  1
  Tm  Tm3  1  0.533711  0.525599  0.525599  1
  Sn  Sn4  1  0.687366  0.699758  0.012392  1
  Sn  Sn5  1  0.312634  0.012392  0.325025  1
  Sn  Sn6  1  0.000000  0.291410  0.291410  1
  Sn  Sn7  1  0.312634  0.325025  0.012392  1
  Sn  Sn8  1  0.687366  0.012392  0.699758  1
  As  As9  1  0.000000  0.658672  0.658672  1
  Ir  Ir10  1  0.754386  0.250127  0.495741  1
  Ir  Ir11  1  0.754386  0.495741  0.250127  1
  Ir  Ir12  1  0.500000  0.258428  0.758428  1
  Ir  Ir13  1  0.245614  0.495741  0.741355  1
  Ir  Ir14  1  0.245614  0.741355  0.495741  1
  Ir  Ir15  1  0.500000  0.758428  0.258428  1
  Ir  Ir16  1  0.000000  0.965559  0.965559  1
