# generated using pymatgen
data_Dy3Ho2Ta3(P3Ir4)4
_symmetry_space_group_name_H-M   'P 1'
_cell_length_a   12.75905600
_cell_length_b   12.75905633
_cell_length_c   3.99014200
_cell_angle_alpha   90.00000000
_cell_angle_beta   90.00000000
_cell_angle_gamma   119.99999916
_symmetry_Int_Tables_number   1
_chemical_formula_structural   Dy3Ho2Ta3(P3Ir4)4
_chemical_formula_sum   'Dy3 Ho2 Ta3 P12 Ir16'
_cell_volume   562.54346657
_cell_formula_units_Z   1
loop_
 _symmetry_equiv_pos_site_id
 _symmetry_equiv_pos_as_xyz
  1  'x, y, z'
loop_
 _atom_site_type_symbol
 _atom_site_label
 _atom_site_symmetry_multiplicity
 _atom_site_fract_x
 _atom_site_fract_y
 _atom_site_fract_z
 _atom_site_occupancy
  Dy  Dy0  1  0.000000  0.813715  0.000000  1
  Dy  Dy1  1  0.186285  0.186285  0.000000  1
  Dy  Dy2  1  0.813715  0.000000  0.000000  1
  Ho  Ho3  1  0.333333  0.666667  0.500000  1
  Ho  Ho4  1  0.666667  0.333333  0.500000  1
  Ta  Ta5  1  0.000000  0.452984  0.500000  1
  Ta  Ta6  1  0.547016  0.547016  0.500000  1
  Ta  Ta7  1  0.452984  0.000000  0.500000  1
  P  P8  1  0.000000  0.643305  0.500000  1
  P  P9  1  0.356695  0.356695  0.500000  1
  P  P10  1  0.643305  0.000000  0.500000  1
  P  P11  1  0.517148  0.684951  0.000000  1
  P  P12  1  0.315049  0.832197  0.000000  1
  P  P13  1  0.167803  0.482852  0.000000  1
  P  P14  1  0.482852  0.167803  0.000000  1
  P  P15  1  0.684951  0.517148  0.000000  1
  P  P16  1  0.832197  0.315049  0.000000  1
  P  P17  1  0.000000  0.176278  0.500000  1
  P  P18  1  0.823722  0.823722  0.500000  1
  P  P19  1  0.176278  0.000000  0.500000  1
  Ir  Ir20  1  0.506652  0.863656  0.000000  1
  Ir  Ir21  1  0.136344  0.642998  0.000000  1
  Ir  Ir22  1  0.357002  0.493348  0.000000  1
  Ir  Ir23  1  0.493348  0.357002  0.000000  1
  Ir  Ir24  1  0.863656  0.506652  0.000000  1
  Ir  Ir25  1  0.642998  0.136344  0.000000  1
  Ir  Ir26  1  0.000000  0.283739  0.000000  1
  Ir  Ir27  1  0.716261  0.716261  0.000000  1
  Ir  Ir28  1  0.283739  0.000000  0.000000  1
  Ir  Ir29  1  0.626831  0.804529  0.500000  1
  Ir  Ir30  1  0.195471  0.822302  0.500000  1
  Ir  Ir31  1  0.177698  0.373169  0.500000  1
  Ir  Ir32  1  0.373169  0.177698  0.500000  1
  Ir  Ir33  1  0.804529  0.626831  0.500000  1
  Ir  Ir34  1  0.822302  0.195471  0.500000  1
  Ir  Ir35  1  0.000000  0.000000  0.500000  1
