# generated using pymatgen
data_Tm3Fe6Co(P3Rh)2
_symmetry_space_group_name_H-M   'P 1'
_cell_length_a   3.71474000
_cell_length_b   10.69229600
_cell_length_c   12.15054200
_cell_angle_alpha   90.00000000
_cell_angle_beta   90.00000000
_cell_angle_gamma   90.00000000
_symmetry_Int_Tables_number   1
_chemical_formula_structural   Tm3Fe6Co(P3Rh)2
_chemical_formula_sum   'Tm6 Fe12 Co2 P12 Rh4'
_cell_volume   482.60858841
_cell_formula_units_Z   2
loop_
 _symmetry_equiv_pos_site_id
 _symmetry_equiv_pos_as_xyz
  1  'x, y, z'
loop_
 _atom_site_type_symbol
 _atom_site_label
 _atom_site_symmetry_multiplicity
 _atom_site_fract_x
 _atom_site_fract_y
 _atom_site_fract_z
 _atom_site_occupancy
  Tm  Tm0  1  0.000000  0.500000  0.523159  1
  Tm  Tm1  1  0.500000  0.000000  0.476847  1
  Tm  Tm2  1  0.500000  0.817391  0.203743  1
  Tm  Tm3  1  0.500000  0.182609  0.203743  1
  Tm  Tm4  1  0.000000  0.682870  0.796303  1
  Tm  Tm5  1  0.000000  0.317130  0.796303  1
  Fe  Fe6  1  0.000000  0.500000  0.991963  1
  Fe  Fe7  1  0.500000  0.000000  0.009277  1
  Fe  Fe8  1  0.500000  0.331869  0.995337  1
  Fe  Fe9  1  0.500000  0.668131  0.995337  1
  Fe  Fe10  1  0.000000  0.168457  0.005172  1
  Fe  Fe11  1  0.000000  0.831543  0.005172  1
  Fe  Fe12  1  0.500000  0.300885  0.429604  1
  Fe  Fe13  1  0.500000  0.699115  0.429604  1
  Fe  Fe14  1  0.000000  0.199021  0.568575  1
  Fe  Fe15  1  0.000000  0.800979  0.568575  1
  Fe  Fe16  1  0.500000  0.882167  0.710518  1
  Fe  Fe17  1  0.500000  0.117833  0.710518  1
  Co  Co18  1  0.000000  0.618977  0.288817  1
  Co  Co19  1  0.000000  0.381023  0.288817  1
  P  P20  1  0.500000  0.500000  0.891401  1
  P  P21  1  0.000000  0.000000  0.108461  1
  P  P22  1  0.500000  0.500000  0.350823  1
  P  P23  1  0.000000  0.000000  0.651725  1
  P  P24  1  0.500000  0.297802  0.614503  1
  P  P25  1  0.500000  0.702198  0.614503  1
  P  P26  1  0.000000  0.200816  0.385532  1
  P  P27  1  0.000000  0.799184  0.385532  1
  P  P28  1  0.500000  0.841998  0.895842  1
  P  P29  1  0.500000  0.158002  0.895842  1
  P  P30  1  0.000000  0.658609  0.103188  1
  P  P31  1  0.000000  0.341391  0.103188  1
  Rh  Rh32  1  0.500000  0.500000  0.159131  1
  Rh  Rh33  1  0.000000  0.000000  0.843258  1
  Rh  Rh34  1  0.500000  0.500000  0.699273  1
  Rh  Rh35  1  0.000000  0.000000  0.300416  1
