# generated using pymatgen
data_Tb3GaCo2Sn3
_symmetry_space_group_name_H-M   'P 1'
_cell_length_a   7.35581800
_cell_length_b   7.35582038
_cell_length_c   4.00170100
_cell_angle_alpha   90.00000000
_cell_angle_beta   90.00000000
_cell_angle_gamma   119.99998930
_symmetry_Int_Tables_number   1
_chemical_formula_structural   Tb3GaCo2Sn3
_chemical_formula_sum   'Tb3 Ga1 Co2 Sn3'
_cell_volume   187.51560059
_cell_formula_units_Z   1
loop_
 _symmetry_equiv_pos_site_id
 _symmetry_equiv_pos_as_xyz
  1  'x, y, z'
loop_
 _atom_site_type_symbol
 _atom_site_label
 _atom_site_symmetry_multiplicity
 _atom_site_fract_x
 _atom_site_fract_y
 _atom_site_fract_z
 _atom_site_occupancy
  Tb  Tb0  1  0.604718  0.014323  0.000000  1
  Tb  Tb1  1  0.985677  0.590395  0.000000  1
  Tb  Tb2  1  0.409605  0.395282  0.000000  1
  Ga  Ga3  1  0.333333  0.666667  0.500000  1
  Co  Co4  1  0.666667  0.333333  0.500000  1
  Co  Co5  1  0.000000  0.000000  0.000000  1
  Sn  Sn6  1  0.255688  0.009540  0.500000  1
  Sn  Sn7  1  0.990460  0.246148  0.500000  1
  Sn  Sn8  1  0.753852  0.744312  0.500000  1
