# generated using pymatgen
data_TbY2Sc3(SnPt)6
_symmetry_space_group_name_H-M   'P 1'
_cell_length_a   7.55114101
_cell_length_b   7.55138338
_cell_length_c   7.64225300
_cell_angle_alpha   90.00000000
_cell_angle_beta   90.00000000
_cell_angle_gamma   120.00596898
_symmetry_Int_Tables_number   1
_chemical_formula_structural   TbY2Sc3(SnPt)6
_chemical_formula_sum   'Tb1 Y2 Sc3 Sn6 Pt6'
_cell_volume   377.36795513
_cell_formula_units_Z   1
loop_
 _symmetry_equiv_pos_site_id
 _symmetry_equiv_pos_as_xyz
  1  'x, y, z'
loop_
 _atom_site_type_symbol
 _atom_site_label
 _atom_site_symmetry_multiplicity
 _atom_site_fract_x
 _atom_site_fract_y
 _atom_site_fract_z
 _atom_site_occupancy
  Tb  Tb0  1  0.401952  0.997413  0.750000  1
  Y  Y1  1  0.595762  0.598499  0.750000  1
  Y  Y2  1  0.002974  0.404406  0.750000  1
  Sc  Sc3  1  0.392907  0.003278  0.250000  1
  Sc  Sc4  1  0.610129  0.606848  0.250000  1
  Sc  Sc5  1  0.996645  0.389790  0.250000  1
  Sn  Sn6  1  0.267817  0.269702  0.008944  1
  Sn  Sn7  1  0.001537  0.731985  0.008921  1
  Sn  Sn8  1  0.001537  0.731985  0.491079  1
  Sn  Sn9  1  0.730567  0.998310  0.490975  1
  Sn  Sn10  1  0.267817  0.269702  0.491056  1
  Sn  Sn11  1  0.730567  0.998310  0.009025  1
  Pt  Pt12  1  0.000501  0.000042  0.750000  1
  Pt  Pt13  1  0.999947  0.999974  0.250000  1
  Pt  Pt14  1  0.666460  0.333229  0.029216  1
  Pt  Pt15  1  0.333210  0.666650  0.457645  1
  Pt  Pt16  1  0.333210  0.666650  0.042355  1
  Pt  Pt17  1  0.666460  0.333229  0.470784  1
