# generated using pymatgen
data_YTm2Th(Al3Rh)6
_symmetry_space_group_name_H-M   'P 1'
_cell_length_a   7.56217005
_cell_length_b   7.57667371
_cell_length_c   9.45664300
_cell_angle_alpha   90.00000000
_cell_angle_beta   90.00000000
_cell_angle_gamma   119.35512418
_symmetry_Int_Tables_number   1
_chemical_formula_structural   YTm2Th(Al3Rh)6
_chemical_formula_sum   'Y1 Tm2 Th1 Al18 Rh6'
_cell_volume   472.25684379
_cell_formula_units_Z   1
loop_
 _symmetry_equiv_pos_site_id
 _symmetry_equiv_pos_as_xyz
  1  'x, y, z'
loop_
 _atom_site_type_symbol
 _atom_site_label
 _atom_site_symmetry_multiplicity
 _atom_site_fract_x
 _atom_site_fract_y
 _atom_site_fract_z
 _atom_site_occupancy
  Y  Y0  1  0.672454  0.994231  0.250000  1
  Tm  Tm1  1  0.004064  0.327411  0.750000  1
  Tm  Tm2  1  0.327393  0.005200  0.750000  1
  Th  Th3  1  0.994420  0.671515  0.250000  1
  Al  Al4  1  0.131460  0.132872  0.250000  1
  Al  Al5  1  0.872443  0.874949  0.750000  1
  Al  Al6  1  0.001511  0.331359  0.072090  1
  Al  Al7  1  0.999827  0.663960  0.917037  1
  Al  Al8  1  0.999827  0.663960  0.582963  1
  Al  Al9  1  0.340174  0.005165  0.427799  1
  Al  Al10  1  0.001511  0.331359  0.427910  1
  Al  Al11  1  0.664246  0.001183  0.577365  1
  Al  Al12  1  0.664246  0.001183  0.922635  1
  Al  Al13  1  0.340174  0.005165  0.072201  1
  Al  Al14  1  0.331679  0.331837  0.555844  1
  Al  Al15  1  0.663201  0.666463  0.456997  1
  Al  Al16  1  0.663201  0.666463  0.043003  1
  Al  Al17  1  0.331679  0.331837  0.944156  1
  Al  Al18  1  0.344412  0.548959  0.250000  1
  Al  Al19  1  0.658026  0.447297  0.750000  1
  Al  Al20  1  0.545293  0.336452  0.250000  1
  Al  Al21  1  0.448118  0.660971  0.750000  1
  Rh  Rh22  1  0.673072  0.329031  0.999461  1
  Rh  Rh23  1  0.326456  0.671750  0.999631  1
  Rh  Rh24  1  0.326456  0.671750  0.500369  1
  Rh  Rh25  1  0.673072  0.329031  0.500539  1
  Rh  Rh26  1  0.000794  0.999324  0.999515  1
  Rh  Rh27  1  0.000794  0.999324  0.500485  1
