# generated using pymatgen
data_Ce4ReTc4Os3
_symmetry_space_group_name_H-M   'P 1'
_cell_length_a   5.18919750
_cell_length_b   5.11798741
_cell_length_c   9.24149200
_cell_angle_alpha   90.00000000
_cell_angle_beta   90.00000000
_cell_angle_gamma   113.58095776
_symmetry_Int_Tables_number   1
_chemical_formula_structural   Ce4ReTc4Os3
_chemical_formula_sum   'Ce4 Re1 Tc4 Os3'
_cell_volume   224.94272550
_cell_formula_units_Z   1
loop_
 _symmetry_equiv_pos_site_id
 _symmetry_equiv_pos_as_xyz
  1  'x, y, z'
loop_
 _atom_site_type_symbol
 _atom_site_label
 _atom_site_symmetry_multiplicity
 _atom_site_fract_x
 _atom_site_fract_y
 _atom_site_fract_z
 _atom_site_occupancy
  Ce  Ce0  1  0.332378  0.664634  0.434412  1
  Ce  Ce1  1  0.666644  0.336988  0.564385  1
  Ce  Ce2  1  0.666644  0.336988  0.935615  1
  Ce  Ce3  1  0.332378  0.664634  0.065588  1
  Re  Re4  1  0.834193  0.163164  0.250000  1
  Tc  Tc5  1  0.835118  0.655904  0.250000  1
  Tc  Tc6  1  0.169749  0.829573  0.750000  1
  Tc  Tc7  1  0.164258  0.338122  0.750000  1
  Tc  Tc8  1  0.659205  0.832504  0.750000  1
  Os  Os9  1  0.997658  0.007137  0.499188  1
  Os  Os10  1  0.997658  0.007137  0.000812  1
  Os  Os11  1  0.344118  0.163216  0.250000  1
