# generated using pymatgen
data_Ho3Th2Ni19
_symmetry_space_group_name_H-M   'P 1'
_cell_length_a   4.93286947
_cell_length_b   4.93286978
_cell_length_c   16.43287742
_cell_angle_alpha   81.36777695
_cell_angle_beta   81.36777636
_cell_angle_gamma   59.99999344
_symmetry_Int_Tables_number   1
_chemical_formula_structural   Ho3Th2Ni19
_chemical_formula_sum   'Ho3 Th2 Ni19'
_cell_volume   341.05244970
_cell_formula_units_Z   1
loop_
 _symmetry_equiv_pos_site_id
 _symmetry_equiv_pos_as_xyz
  1  'x, y, z'
loop_
 _atom_site_type_symbol
 _atom_site_label
 _atom_site_symmetry_multiplicity
 _atom_site_fract_x
 _atom_site_fract_y
 _atom_site_fract_z
 _atom_site_occupancy
  Ho  Ho0  1  0.000000  0.000000  0.000000  1
  Ho  Ho1  1  0.847473  0.847473  0.457582  1
  Ho  Ho2  1  0.152527  0.152527  0.542418  1
  Th  Th3  1  0.921094  0.921094  0.236720  1
  Th  Th4  1  0.078906  0.078906  0.763280  1
  Ni  Ni5  1  0.500000  0.500000  0.500000  1
  Ni  Ni6  1  0.749460  0.749461  0.751619  1
  Ni  Ni7  1  0.250539  0.250539  0.248382  1
  Ni  Ni8  1  0.666713  0.666713  0.999863  1
  Ni  Ni9  1  0.333287  0.333287  0.000137  1
  Ni  Ni10  1  0.583869  0.583869  0.248395  1
  Ni  Ni11  1  0.416131  0.416131  0.751605  1
  Ni  Ni12  1  0.375264  0.375264  0.372842  1
  Ni  Ni13  1  0.876629  0.375264  0.372842  1
  Ni  Ni14  1  0.375264  0.876629  0.372842  1
  Ni  Ni15  1  0.624736  0.624736  0.627158  1
  Ni  Ni16  1  0.123371  0.624736  0.627158  1
  Ni  Ni17  1  0.624736  0.123371  0.627158  1
  Ni  Ni18  1  0.459473  0.459473  0.121344  1
  Ni  Ni19  1  0.959711  0.459473  0.121344  1
  Ni  Ni20  1  0.459473  0.959711  0.121344  1
  Ni  Ni21  1  0.540527  0.540527  0.878656  1
  Ni  Ni22  1  0.040289  0.540527  0.878656  1
  Ni  Ni23  1  0.540527  0.040289  0.878656  1
