# generated using pymatgen
data_SrTb4Y2PtI12
_symmetry_space_group_name_H-M   'P 1'
_cell_length_a   9.84219890
_cell_length_b   9.84399305
_cell_length_c   9.84391913
_cell_angle_alpha   106.46492032
_cell_angle_beta   106.44054733
_cell_angle_gamma   106.45081146
_symmetry_Int_Tables_number   1
_chemical_formula_structural   SrTb4Y2PtI12
_chemical_formula_sum   'Sr1 Tb4 Y2 Pt1 I12'
_cell_volume   805.86345784
_cell_formula_units_Z   1
loop_
 _symmetry_equiv_pos_site_id
 _symmetry_equiv_pos_as_xyz
  1  'x, y, z'
loop_
 _atom_site_type_symbol
 _atom_site_label
 _atom_site_symmetry_multiplicity
 _atom_site_fract_x
 _atom_site_fract_y
 _atom_site_fract_z
 _atom_site_occupancy
  Sr  Sr0  1  0.500004  0.499950  0.500002  1
  Tb  Tb1  1  0.023683  0.299533  0.096231  1
  Tb  Tb2  1  0.903952  0.976618  0.700419  1
  Tb  Tb3  1  0.700467  0.903785  0.976735  1
  Tb  Tb4  1  0.976812  0.700640  0.904083  1
  Y  Y5  1  0.096208  0.023581  0.299522  1
  Y  Y6  1  0.299575  0.096101  0.023803  1
  Pt  Pt7  1  0.999748  0.999987  0.999797  1
  I  I8  1  0.074068  0.677549  0.223303  1
  I  I9  1  0.223174  0.073953  0.676950  1
  I  I10  1  0.676667  0.223089  0.073928  1
  I  I11  1  0.926051  0.322736  0.776876  1
  I  I12  1  0.777317  0.926162  0.322698  1
  I  I13  1  0.322743  0.777291  0.926157  1
  I  I14  1  0.451505  0.137353  0.371958  1
  I  I15  1  0.372263  0.451567  0.137430  1
  I  I16  1  0.137580  0.372017  0.451936  1
  I  I17  1  0.548017  0.862417  0.627765  1
  I  I18  1  0.627722  0.547952  0.862391  1
  I  I19  1  0.862445  0.627719  0.548019  1
