# generated using pymatgen
data_Ca20PtRh3
_symmetry_space_group_name_H-M   'P 1'
_cell_length_a   6.81759800
_cell_length_b   7.53003401
_cell_length_c   16.14051200
_cell_angle_alpha   90.00000000
_cell_angle_beta   90.00000000
_cell_angle_gamma   90.00406584
_symmetry_Int_Tables_number   1
_chemical_formula_structural   Ca20PtRh3
_chemical_formula_sum   'Ca20 Pt1 Rh3'
_cell_volume   828.60134345
_cell_formula_units_Z   1
loop_
 _symmetry_equiv_pos_site_id
 _symmetry_equiv_pos_as_xyz
  1  'x, y, z'
loop_
 _atom_site_type_symbol
 _atom_site_label
 _atom_site_symmetry_multiplicity
 _atom_site_fract_x
 _atom_site_fract_y
 _atom_site_fract_z
 _atom_site_occupancy
  Ca  Ca0  1  0.353359  0.309218  0.063188  1
  Ca  Ca1  1  0.645070  0.690861  0.935806  1
  Ca  Ca2  1  0.854814  0.191261  0.935941  1
  Ca  Ca3  1  0.645070  0.690861  0.564194  1
  Ca  Ca4  1  0.146559  0.809354  0.063700  1
  Ca  Ca5  1  0.353359  0.309218  0.436812  1
  Ca  Ca6  1  0.146559  0.809354  0.436300  1
  Ca  Ca7  1  0.854814  0.191261  0.564059  1
  Ca  Ca8  1  0.153143  0.092904  0.250000  1
  Ca  Ca9  1  0.844029  0.905988  0.750000  1
  Ca  Ca10  1  0.656006  0.405812  0.750000  1
  Ca  Ca11  1  0.342075  0.597662  0.250000  1
  Ca  Ca12  1  0.323136  0.035884  0.645333  1
  Ca  Ca13  1  0.677054  0.960902  0.355960  1
  Ca  Ca14  1  0.825290  0.465152  0.355695  1
  Ca  Ca15  1  0.677054  0.960902  0.144040  1
  Ca  Ca16  1  0.176765  0.535939  0.645352  1
  Ca  Ca17  1  0.323136  0.035884  0.854667  1
  Ca  Ca18  1  0.176765  0.535939  0.854648  1
  Ca  Ca19  1  0.825290  0.465152  0.144305  1
  Pt  Pt20  1  0.539019  0.260112  0.250000  1
  Rh  Rh21  1  0.464228  0.740388  0.750000  1
  Rh  Rh22  1  0.036197  0.240058  0.750000  1
  Rh  Rh23  1  0.961209  0.759933  0.250000  1
