# generated using pymatgen
data_YHo4Lu5Pb6
_symmetry_space_group_name_H-M   'P 1'
_cell_length_a   6.51582602
_cell_length_b   8.97751324
_cell_length_c   8.98442104
_cell_angle_alpha   120.03899314
_cell_angle_beta   90.00471261
_cell_angle_gamma   90.00150108
_symmetry_Int_Tables_number   1
_chemical_formula_structural   YHo4Lu5Pb6
_chemical_formula_sum   'Y1 Ho4 Lu5 Pb6'
_cell_volume   454.96237425
_cell_formula_units_Z   1
loop_
 _symmetry_equiv_pos_site_id
 _symmetry_equiv_pos_as_xyz
  1  'x, y, z'
loop_
 _atom_site_type_symbol
 _atom_site_label
 _atom_site_symmetry_multiplicity
 _atom_site_fract_x
 _atom_site_fract_y
 _atom_site_fract_z
 _atom_site_occupancy
  Y  Y0  1  0.249996  0.762501  0.999869  1
  Ho  Ho1  1  0.750012  0.237221  0.999600  1
  Ho  Ho2  1  0.750019  0.762806  0.762230  1
  Ho  Ho3  1  0.750016  0.000188  0.238602  1
  Ho  Ho4  1  0.250000  0.237750  0.237452  1
  Lu  Lu5  1  0.250009  0.000154  0.762424  1
  Lu  Lu6  1  0.499830  0.333236  0.666646  1
  Lu  Lu7  1  0.499816  0.666472  0.333332  1
  Lu  Lu8  1  0.000165  0.666500  0.333322  1
  Lu  Lu9  1  0.000151  0.333270  0.666638  1
  Pb  Pb10  1  0.750049  0.603968  0.999992  1
  Pb  Pb11  1  0.750060  0.395740  0.395688  1
  Pb  Pb12  1  0.750117  0.000060  0.603902  1
  Pb  Pb13  1  0.249856  0.394158  0.998978  1
  Pb  Pb14  1  0.249991  0.605739  0.604369  1
  Pb  Pb15  1  0.249917  0.000238  0.396954  1
