# generated using pymatgen
data_Hf6Re5Ge6Mo
_symmetry_space_group_name_H-M   'P 1'
_cell_length_a   7.90359191
_cell_length_b   7.88841812
_cell_length_c   7.90306830
_cell_angle_alpha   126.66113761
_cell_angle_beta   128.08730156
_cell_angle_gamma   77.69420381
_symmetry_Int_Tables_number   1
_chemical_formula_structural   Hf6Re5Ge6Mo
_chemical_formula_sum   'Hf6 Re5 Ge6 Mo1'
_cell_volume   301.55394279
_cell_formula_units_Z   1
loop_
 _symmetry_equiv_pos_site_id
 _symmetry_equiv_pos_as_xyz
  1  'x, y, z'
loop_
 _atom_site_type_symbol
 _atom_site_label
 _atom_site_symmetry_multiplicity
 _atom_site_fract_x
 _atom_site_fract_y
 _atom_site_fract_z
 _atom_site_occupancy
  Hf  Hf0  1  0.450903  0.656365  0.704804  1
  Hf  Hf1  1  0.549725  0.253349  0.203038  1
  Hf  Hf2  1  0.749848  0.850484  0.601401  1
  Hf  Hf3  1  0.249406  0.850906  0.100522  1
  Hf  Hf4  1  0.050493  0.253007  0.702445  1
  Hf  Hf5  1  0.950780  0.655121  0.204563  1
  Re  Re6  1  0.499023  0.511729  0.012562  1
  Re  Re7  1  0.000350  0.512896  0.512936  1
  Re  Re8  1  0.129087  0.253419  0.123542  1
  Re  Re9  1  0.871068  0.994374  0.124317  1
  Re  Re10  1  0.369564  0.994840  0.624679  1
  Ge  Ge11  1  0.251080  0.253723  0.502245  1
  Ge  Ge12  1  0.750852  0.253123  0.003270  1
  Ge  Ge13  1  0.332261  0.585744  0.252639  1
  Ge  Ge14  1  0.666411  0.920020  0.253977  1
  Ge  Ge15  1  0.166076  0.921380  0.754636  1
  Ge  Ge16  1  0.832856  0.585664  0.753508  1
  Mo  Mo17  1  0.630217  0.253459  0.624521  1
