# generated using pymatgen
data_Er8Ta2Ti9Si16Os
_symmetry_space_group_name_H-M   'P 1'
_cell_length_a   6.98672657
_cell_length_b   6.98672734
_cell_length_c   12.83359317
_cell_angle_alpha   90.07570650
_cell_angle_beta   89.92429191
_cell_angle_gamma   89.88062129
_symmetry_Int_Tables_number   1
_chemical_formula_structural   Er8Ta2Ti9Si16Os
_chemical_formula_sum   'Er8 Ta2 Ti9 Si16 Os1'
_cell_volume   626.46109889
_cell_formula_units_Z   1
loop_
 _symmetry_equiv_pos_site_id
 _symmetry_equiv_pos_as_xyz
  1  'x, y, z'
loop_
 _atom_site_type_symbol
 _atom_site_label
 _atom_site_symmetry_multiplicity
 _atom_site_fract_x
 _atom_site_fract_y
 _atom_site_fract_z
 _atom_site_occupancy
  Er  Er0  1  0.341422  0.003686  0.467104  1
  Er  Er1  1  0.497257  0.841476  0.718352  1
  Er  Er2  1  0.500434  0.158805  0.215450  1
  Er  Er3  1  0.841476  0.497257  0.281648  1
  Er  Er4  1  0.158805  0.500434  0.784550  1
  Er  Er5  1  0.658294  0.999170  0.968898  1
  Er  Er6  1  0.003686  0.341422  0.532896  1
  Er  Er7  1  0.999170  0.658294  0.031102  1
  Ta  Ta8  1  0.173876  0.827445  0.248105  1
  Ta  Ta9  1  0.827445  0.173876  0.751895  1
  Ti  Ti10  1  0.673505  0.673505  0.500000  1
  Ti  Ti11  1  0.149666  0.002794  0.874623  1
  Ti  Ti12  1  0.492182  0.656678  0.124786  1
  Ti  Ti13  1  0.507489  0.348091  0.628666  1
  Ti  Ti14  1  0.656678  0.492182  0.875214  1
  Ti  Ti15  1  0.348091  0.507489  0.371334  1
  Ti  Ti16  1  0.848778  0.994002  0.374018  1
  Ti  Ti17  1  0.002794  0.149666  0.125377  1
  Ti  Ti18  1  0.994002  0.848778  0.625982  1
  Si  Si19  1  0.203746  0.132484  0.684169  1
  Si  Si20  1  0.371567  0.699587  0.932841  1
  Si  Si21  1  0.631656  0.296926  0.433909  1
  Si  Si22  1  0.699587  0.371567  0.067159  1
  Si  Si23  1  0.296926  0.631656  0.566091  1
  Si  Si24  1  0.796091  0.867446  0.183416  1
  Si  Si25  1  0.132484  0.203746  0.315831  1
  Si  Si26  1  0.867446  0.796091  0.816584  1
  Si  Si27  1  0.289026  0.956152  0.062995  1
  Si  Si28  1  0.547392  0.792609  0.315475  1
  Si  Si29  1  0.450059  0.208128  0.818287  1
  Si  Si30  1  0.792609  0.547392  0.684525  1
  Si  Si31  1  0.208128  0.450059  0.181713  1
  Si  Si32  1  0.706905  0.047278  0.564980  1
  Si  Si33  1  0.956152  0.289026  0.937005  1
  Si  Si34  1  0.047278  0.706905  0.435020  1
  Os  Os35  1  0.327901  0.327901  0.000000  1
