# generated using pymatgen
data_Dy3Tm5Sc12(GaSi3)4
_symmetry_space_group_name_H-M   'P 1'
_cell_length_a   7.10189856
_cell_length_b   7.38567991
_cell_length_c   14.09284919
_cell_angle_alpha   90.05528630
_cell_angle_beta   89.88299459
_cell_angle_gamma   90.16902703
_symmetry_Int_Tables_number   1
_chemical_formula_structural   Dy3Tm5Sc12(GaSi3)4
_chemical_formula_sum   'Dy3 Tm5 Sc12 Ga4 Si12'
_cell_volume   739.19795412
_cell_formula_units_Z   1
loop_
 _symmetry_equiv_pos_site_id
 _symmetry_equiv_pos_as_xyz
  1  'x, y, z'
loop_
 _atom_site_type_symbol
 _atom_site_label
 _atom_site_symmetry_multiplicity
 _atom_site_fract_x
 _atom_site_fract_y
 _atom_site_fract_z
 _atom_site_occupancy
  Dy  Dy0  1  0.013381  0.175056  0.096906  1
  Dy  Dy1  1  0.988236  0.824966  0.902204  1
  Dy  Dy2  1  0.487326  0.677042  0.901980  1
  Tm  Tm3  1  0.987973  0.826896  0.600174  1
  Tm  Tm4  1  0.510648  0.320728  0.097449  1
  Tm  Tm5  1  0.009578  0.175476  0.400453  1
  Tm  Tm6  1  0.510947  0.323934  0.400651  1
  Tm  Tm7  1  0.490503  0.676372  0.600510  1
  Sc  Sc8  1  0.162742  0.501162  0.751142  1
  Sc  Sc9  1  0.836436  0.497890  0.250204  1
  Sc  Sc10  1  0.336415  0.002529  0.248505  1
  Sc  Sc11  1  0.663458  0.998026  0.749727  1
  Sc  Sc12  1  0.333756  0.174549  0.627771  1
  Sc  Sc13  1  0.668891  0.826358  0.373638  1
  Sc  Sc14  1  0.169979  0.673394  0.372952  1
  Sc  Sc15  1  0.668459  0.826329  0.125877  1
  Sc  Sc16  1  0.829187  0.324786  0.626625  1
  Sc  Sc17  1  0.330818  0.175684  0.874440  1
  Sc  Sc18  1  0.829215  0.323595  0.874087  1
  Sc  Sc19  1  0.173271  0.675031  0.124698  1
  Ga  Ga20  1  0.162795  0.461807  0.539700  1
  Ga  Ga21  1  0.838202  0.537654  0.461372  1
  Ga  Ga22  1  0.338245  0.962183  0.461435  1
  Ga  Ga23  1  0.838590  0.537830  0.038787  1
  Si  Si24  1  0.033069  0.115256  0.750870  1
  Si  Si25  1  0.967328  0.884734  0.249461  1
  Si  Si26  1  0.467646  0.612917  0.248558  1
  Si  Si27  1  0.533096  0.386246  0.750881  1
  Si  Si28  1  0.285960  0.870922  0.750304  1
  Si  Si29  1  0.714050  0.129469  0.249049  1
  Si  Si30  1  0.214525  0.370799  0.249079  1
  Si  Si31  1  0.786661  0.629761  0.750699  1
  Si  Si32  1  0.659117  0.035737  0.539289  1
  Si  Si33  1  0.158361  0.463212  0.961015  1
  Si  Si34  1  0.656637  0.036856  0.961612  1
  Si  Si35  1  0.344502  0.964813  0.037898  1
