# generated using pymatgen
data_La7Tb3(Nd5Sn8)2
_symmetry_space_group_name_H-M   'P 1'
_cell_length_a   8.31707612
_cell_length_b   8.47035266
_cell_length_c   16.02361400
_cell_angle_alpha   90.00503938
_cell_angle_beta   90.00970651
_cell_angle_gamma   89.97801526
_symmetry_Int_Tables_number   1
_chemical_formula_structural   La7Tb3(Nd5Sn8)2
_chemical_formula_sum   'La7 Tb3 Nd10 Sn16'
_cell_volume   1128.84055362
_cell_formula_units_Z   1
loop_
 _symmetry_equiv_pos_site_id
 _symmetry_equiv_pos_as_xyz
  1  'x, y, z'
loop_
 _atom_site_type_symbol
 _atom_site_label
 _atom_site_symmetry_multiplicity
 _atom_site_fract_x
 _atom_site_fract_y
 _atom_site_fract_z
 _atom_site_occupancy
  La  La0  1  0.017334  0.180720  0.598220  1
  La  La1  1  0.482402  0.680966  0.401587  1
  La  La2  1  0.982697  0.819029  0.097879  1
  La  La3  1  0.482321  0.680241  0.098175  1
  La  La4  1  0.982719  0.818860  0.401977  1
  La  La5  1  0.517700  0.318746  0.597741  1
  La  La6  1  0.016816  0.181183  0.902339  1
  Tb  Tb7  1  0.697931  0.997488  0.750384  1
  Tb  Tb8  1  0.801861  0.497362  0.249905  1
  Tb  Tb9  1  0.301376  0.002103  0.250024  1
  Nd  Nd10  1  0.367036  0.836497  0.879618  1
  Nd  Nd11  1  0.866038  0.663856  0.620858  1
  Nd  Nd12  1  0.633747  0.163083  0.379327  1
  Nd  Nd13  1  0.133868  0.336635  0.121085  1
  Nd  Nd14  1  0.633329  0.163277  0.120539  1
  Nd  Nd15  1  0.133928  0.336564  0.378543  1
  Nd  Nd16  1  0.366453  0.836725  0.620676  1
  Nd  Nd17  1  0.865526  0.663760  0.879746  1
  Nd  Nd18  1  0.518760  0.319110  0.901034  1
  Nd  Nd19  1  0.197146  0.501940  0.750408  1
  Sn  Sn20  1  0.295156  0.036201  0.043859  1
  Sn  Sn21  1  0.794755  0.464312  0.455998  1
  Sn  Sn22  1  0.705230  0.964403  0.544166  1
  Sn  Sn23  1  0.207407  0.535455  0.957409  1
  Sn  Sn24  1  0.704299  0.965874  0.955749  1
  Sn  Sn25  1  0.205254  0.537180  0.542104  1
  Sn  Sn26  1  0.294448  0.035829  0.455992  1
  Sn  Sn27  1  0.792774  0.463079  0.043013  1
  Sn  Sn28  1  0.567588  0.618337  0.750361  1
  Sn  Sn29  1  0.063936  0.884096  0.750270  1
  Sn  Sn30  1  0.435701  0.381572  0.249957  1
  Sn  Sn31  1  0.935119  0.118288  0.249805  1
  Sn  Sn32  1  0.324888  0.140655  0.750939  1
  Sn  Sn33  1  0.820163  0.355860  0.750536  1
  Sn  Sn34  1  0.677468  0.857161  0.249959  1
  Sn  Sn35  1  0.176828  0.643551  0.249820  1
