# generated using pymatgen
data_Er5Tm7Tc3Ir
_symmetry_space_group_name_H-M   'P 1'
_cell_length_a   6.22887028
_cell_length_b   7.35439078
_cell_length_c   9.00589729
_cell_angle_alpha   89.99115474
_cell_angle_beta   89.97210531
_cell_angle_gamma   89.96376214
_symmetry_Int_Tables_number   1
_chemical_formula_structural   Er5Tm7Tc3Ir
_chemical_formula_sum   'Er5 Tm7 Tc3 Ir1'
_cell_volume   412.55593164
_cell_formula_units_Z   1
loop_
 _symmetry_equiv_pos_site_id
 _symmetry_equiv_pos_as_xyz
  1  'x, y, z'
loop_
 _atom_site_type_symbol
 _atom_site_label
 _atom_site_symmetry_multiplicity
 _atom_site_fract_x
 _atom_site_fract_y
 _atom_site_fract_z
 _atom_site_occupancy
  Er  Er0  1  0.161694  0.175677  0.062884  1
  Er  Er1  1  0.875499  0.540132  0.250116  1
  Er  Er2  1  0.623628  0.037883  0.250128  1
  Er  Er3  1  0.129850  0.458436  0.749953  1
  Er  Er4  1  0.373148  0.960488  0.749885  1
  Tm  Tm5  1  0.334674  0.676151  0.063750  1
  Tm  Tm6  1  0.161685  0.175539  0.437254  1
  Tm  Tm7  1  0.663204  0.322783  0.561275  1
  Tm  Tm8  1  0.836795  0.825345  0.938351  1
  Tm  Tm9  1  0.663213  0.322848  0.938635  1
  Tm  Tm10  1  0.836952  0.825472  0.561574  1
  Tm  Tm11  1  0.334588  0.676190  0.436258  1
  Tc  Tc12  1  0.039564  0.883489  0.250079  1
  Tc  Tc13  1  0.462630  0.386110  0.250118  1
  Tc  Tc14  1  0.959985  0.116758  0.749743  1
  Ir  Ir15  1  0.542890  0.616700  0.749997  1
