# generated using pymatgen
data_Cd2Ni3BiO8
_symmetry_space_group_name_H-M   'P 1'
_cell_length_a   6.37939673
_cell_length_b   6.26359704
_cell_length_c   6.26536138
_cell_angle_alpha   60.16505827
_cell_angle_beta   89.87581755
_cell_angle_gamma   119.31709178
_symmetry_Int_Tables_number   1
_chemical_formula_structural   Cd2Ni3BiO8
_chemical_formula_sum   'Cd2 Ni3 Bi1 O8'
_cell_volume   179.08072808
_cell_formula_units_Z   1
loop_
 _symmetry_equiv_pos_site_id
 _symmetry_equiv_pos_as_xyz
  1  'x, y, z'
loop_
 _atom_site_type_symbol
 _atom_site_label
 _atom_site_symmetry_multiplicity
 _atom_site_fract_x
 _atom_site_fract_y
 _atom_site_fract_z
 _atom_site_occupancy
  Cd  Cd0  1  0.968952  0.979549  0.010274  1
  Cd  Cd1  1  0.780838  0.520399  0.739635  1
  Ni  Ni2  1  0.375390  0.250032  0.375165  1
  Ni  Ni3  1  0.375263  0.749709  0.375271  1
  Ni  Ni4  1  0.375231  0.750453  0.874584  1
  Bi  Bi5  1  0.874906  0.249978  0.375094  1
  O  O6  1  0.143467  0.279890  0.135575  1
  O  O7  1  0.607670  0.220661  0.164694  1
  O  O8  1  0.555813  0.704243  0.149889  1
  O  O9  1  0.143586  0.727774  0.136868  1
  O  O10  1  0.606340  0.220016  0.614450  1
  O  O11  1  0.142276  0.279402  0.585210  1
  O  O12  1  0.194008  0.795722  0.600121  1
  O  O13  1  0.606264  0.772173  0.613171  1
