# generated using pymatgen
data_Ta3Nb3Ir2
_symmetry_space_group_name_H-M   'P 1'
_cell_length_a   5.18134341
_cell_length_b   5.18134352
_cell_length_c   5.18134431
_cell_angle_alpha   90.00967961
_cell_angle_beta   89.99031643
_cell_angle_gamma   89.99032999
_symmetry_Int_Tables_number   1
_chemical_formula_structural   Ta3Nb3Ir2
_chemical_formula_sum   'Ta3 Nb3 Ir2'
_cell_volume   139.10002205
_cell_formula_units_Z   1
loop_
 _symmetry_equiv_pos_site_id
 _symmetry_equiv_pos_as_xyz
  1  'x, y, z'
loop_
 _atom_site_type_symbol
 _atom_site_label
 _atom_site_symmetry_multiplicity
 _atom_site_fract_x
 _atom_site_fract_y
 _atom_site_fract_z
 _atom_site_occupancy
  Ta  Ta0  1  0.500296  0.250000  0.000296  1
  Ta  Ta1  1  0.750000  0.000296  0.499704  1
  Ta  Ta2  1  0.999704  0.499704  0.250000  1
  Nb  Nb3  1  0.500443  0.750000  0.000443  1
  Nb  Nb4  1  0.250000  0.000443  0.499557  1
  Nb  Nb5  1  0.999557  0.499557  0.750000  1
  Ir  Ir6  1  0.501979  0.498021  0.498021  1
  Ir  Ir7  1  0.998021  0.001979  0.001979  1
