# generated using pymatgen
data_Cs8Li4TmIn3As8
_symmetry_space_group_name_H-M   'P 1'
_cell_length_a   11.03311341
_cell_length_b   11.03313241
_cell_length_c   6.71430524
_cell_angle_alpha   90.06787930
_cell_angle_beta   89.93210282
_cell_angle_gamma   105.40420100
_symmetry_Int_Tables_number   1
_chemical_formula_structural   Cs8Li4TmIn3As8
_chemical_formula_sum   'Cs8 Li4 Tm1 In3 As8'
_cell_volume   787.96831095
_cell_formula_units_Z   1
loop_
 _symmetry_equiv_pos_site_id
 _symmetry_equiv_pos_as_xyz
  1  'x, y, z'
loop_
 _atom_site_type_symbol
 _atom_site_label
 _atom_site_symmetry_multiplicity
 _atom_site_fract_x
 _atom_site_fract_y
 _atom_site_fract_z
 _atom_site_occupancy
  Cs  Cs0  1  0.079268  0.428596  0.744383  1
  Cs  Cs1  1  0.670200  0.329163  0.776774  1
  Cs  Cs2  1  0.329162  0.670200  0.223227  1
  Cs  Cs3  1  0.575187  0.922814  0.749874  1
  Cs  Cs4  1  0.428597  0.079270  0.255618  1
  Cs  Cs5  1  0.922814  0.575188  0.250124  1
  Cs  Cs6  1  0.822955  0.171418  0.283318  1
  Cs  Cs7  1  0.171419  0.822956  0.716683  1
  Li  Li8  1  0.121579  0.121579  0.500000  1
  Li  Li9  1  0.878049  0.878049  0.500000  1
  Li  Li10  1  0.380545  0.380545  0.000000  1
  Li  Li11  1  0.621567  0.621568  0.999999  1
  Tm  Tm12  1  0.126394  0.126394  0.000000  1
  In  In13  1  0.870072  0.870072  0.000000  1
  In  In14  1  0.369344  0.369344  0.500000  1
  In  In15  1  0.632944  0.632944  0.500000  1
  As  As16  1  0.837899  0.663657  0.752125  1
  As  As17  1  0.084813  0.911328  0.232006  1
  As  As18  1  0.416542  0.585787  0.726340  1
  As  As19  1  0.585790  0.416541  0.273659  1
  As  As20  1  0.663657  0.837899  0.247875  1
  As  As21  1  0.164642  0.335234  0.250965  1
  As  As22  1  0.335234  0.164642  0.749035  1
  As  As23  1  0.911328  0.084813  0.767994  1
