# generated using pymatgen
data_Y2Mn3Co7Ni2As7
_symmetry_space_group_name_H-M   'P 1'
_cell_length_a   3.77669400
_cell_length_b   9.46436231
_cell_length_c   9.47308511
_cell_angle_alpha   120.01313391
_cell_angle_beta   90.00000000
_cell_angle_gamma   90.00000000
_symmetry_Int_Tables_number   1
_chemical_formula_structural   Y2Mn3Co7Ni2As7
_chemical_formula_sum   'Y2 Mn3 Co7 Ni2 As7'
_cell_volume   293.20254399
_cell_formula_units_Z   1
loop_
 _symmetry_equiv_pos_site_id
 _symmetry_equiv_pos_as_xyz
  1  'x, y, z'
loop_
 _atom_site_type_symbol
 _atom_site_label
 _atom_site_symmetry_multiplicity
 _atom_site_fract_x
 _atom_site_fract_y
 _atom_site_fract_z
 _atom_site_occupancy
  Y  Y0  1  0.000000  0.669076  0.335546  1
  Y  Y1  1  0.500000  0.331734  0.666078  1
  Mn  Mn2  1  0.500000  0.782276  0.896905  1
  Mn  Mn3  1  0.500000  0.114746  0.217962  1
  Mn  Mn4  1  0.500000  0.103744  0.885206  1
  Co  Co5  1  0.000000  0.060456  0.631981  1
  Co  Co6  1  0.000000  0.879013  0.157309  1
  Co  Co7  1  0.000000  0.278688  0.120991  1
  Co  Co8  1  0.000000  0.842148  0.722927  1
  Co  Co9  1  0.500000  0.950421  0.384688  1
  Co  Co10  1  0.500000  0.434716  0.048008  1
  Co  Co11  1  0.500000  0.615119  0.564633  1
  Ni  Ni12  1  0.000000  0.569303  0.938594  1
  Ni  Ni13  1  0.000000  0.367589  0.428745  1
  As  As14  1  0.000000  0.000458  0.000259  1
  As  As15  1  0.500000  0.711613  0.121807  1
  As  As16  1  0.500000  0.410784  0.287399  1
  As  As17  1  0.500000  0.882959  0.592099  1
  As  As18  1  0.000000  0.586832  0.697328  1
  As  As19  1  0.000000  0.109957  0.414856  1
  As  As20  1  0.000000  0.298367  0.886677  1
