# generated using pymatgen
data_Ho3ScIn2(B2Rh5)2
_symmetry_space_group_name_H-M   'P 1'
_cell_length_a   9.61698031
_cell_length_b   9.61698031
_cell_length_c   3.21817100
_cell_angle_alpha   90.00000000
_cell_angle_beta   90.00000000
_cell_angle_gamma   90.67594894
_symmetry_Int_Tables_number   1
_chemical_formula_structural   Ho3ScIn2(B2Rh5)2
_chemical_formula_sum   'Ho3 Sc1 In2 B4 Rh10'
_cell_volume   297.61604927
_cell_formula_units_Z   1
loop_
 _symmetry_equiv_pos_site_id
 _symmetry_equiv_pos_as_xyz
  1  'x, y, z'
loop_
 _atom_site_type_symbol
 _atom_site_label
 _atom_site_symmetry_multiplicity
 _atom_site_fract_x
 _atom_site_fract_y
 _atom_site_fract_z
 _atom_site_occupancy
  Ho  Ho0  1  0.826197  0.326197  0.000000  1
  Ho  Ho1  1  0.322524  0.174267  0.000000  1
  Ho  Ho2  1  0.674267  0.822524  0.000000  1
  Sc  Sc3  1  0.174008  0.674008  0.000000  1
  In  In4  1  0.999259  0.003589  0.000000  1
  In  In5  1  0.503589  0.499259  0.000000  1
  B  B6  1  0.619271  0.119271  0.000000  1
  B  B7  1  0.124486  0.385101  0.000000  1
  B  B8  1  0.885101  0.624486  0.000000  1
  B  B9  1  0.372733  0.872733  0.000000  1
  Rh  Rh10  1  0.071331  0.229881  0.500000  1
  Rh  Rh11  1  0.221208  0.921345  0.500000  1
  Rh  Rh12  1  0.772143  0.070334  0.500000  1
  Rh  Rh13  1  0.934698  0.775747  0.500000  1
  Rh  Rh14  1  0.421345  0.721208  0.500000  1
  Rh  Rh15  1  0.570334  0.272143  0.500000  1
  Rh  Rh16  1  0.729881  0.571331  0.500000  1
  Rh  Rh17  1  0.275747  0.434698  0.500000  1
  Rh  Rh18  1  0.496721  0.996721  0.500000  1
  Rh  Rh19  1  0.005158  0.505158  0.500000  1
