# generated using pymatgen
data_Tm20Ir7Ru5
_symmetry_space_group_name_H-M   'P 1'
_cell_length_a   10.67350107
_cell_length_b   10.67350107
_cell_length_c   6.33881414
_cell_angle_alpha   89.98289841
_cell_angle_beta   89.98289841
_cell_angle_gamma   90.04841843
_symmetry_Int_Tables_number   1
_chemical_formula_structural   Tm20Ir7Ru5
_chemical_formula_sum   'Tm20 Ir7 Ru5'
_cell_volume   722.14036375
_cell_formula_units_Z   1
loop_
 _symmetry_equiv_pos_site_id
 _symmetry_equiv_pos_as_xyz
  1  'x, y, z'
loop_
 _atom_site_type_symbol
 _atom_site_label
 _atom_site_symmetry_multiplicity
 _atom_site_fract_x
 _atom_site_fract_y
 _atom_site_fract_z
 _atom_site_occupancy
  Tm  Tm0  1  0.293603  0.086082  0.376656  1
  Tm  Tm1  1  0.293175  0.913759  0.876745  1
  Tm  Tm2  1  0.707163  0.086435  0.877132  1
  Tm  Tm3  1  0.706874  0.914092  0.375898  1
  Tm  Tm4  1  0.586261  0.793646  0.876791  1
  Tm  Tm5  1  0.587024  0.206582  0.376648  1
  Tm  Tm6  1  0.413697  0.793606  0.376621  1
  Tm  Tm7  1  0.413571  0.206277  0.876217  1
  Tm  Tm8  1  0.206354  0.413739  0.623209  1
  Tm  Tm9  1  0.206394  0.586303  0.123379  1
  Tm  Tm10  1  0.793418  0.412976  0.123352  1
  Tm  Tm11  1  0.793723  0.586429  0.623783  1
  Tm  Tm12  1  0.913918  0.706397  0.123344  1
  Tm  Tm13  1  0.913565  0.292837  0.622868  1
  Tm  Tm14  1  0.086241  0.706825  0.623255  1
  Tm  Tm15  1  0.085908  0.293126  0.124102  1
  Tm  Tm16  1  0.999472  0.000870  0.499242  1
  Tm  Tm17  1  0.999130  0.000528  0.000758  1
  Tm  Tm18  1  0.500141  0.500070  0.000027  1
  Tm  Tm19  1  0.499930  0.499859  0.499973  1
  Ir  Ir20  1  0.846821  0.846486  0.749909  1
  Ir  Ir21  1  0.153514  0.153179  0.750091  1
  Ir  Ir22  1  0.153206  0.846794  0.250000  1
  Ir  Ir23  1  0.652270  0.347730  0.750000  1
  Ir  Ir24  1  0.652955  0.652742  0.249772  1
  Ir  Ir25  1  0.347258  0.347045  0.250228  1
  Ir  Ir26  1  0.347257  0.652743  0.750000  1
  Ru  Ru27  1  0.847338  0.152662  0.250000  1
  Ru  Ru28  1  0.500114  0.000175  0.122385  1
  Ru  Ru29  1  0.499861  0.999980  0.622483  1
  Ru  Ru30  1  0.000020  0.500139  0.877517  1
  Ru  Ru31  1  0.999825  0.499886  0.377615  1
