# generated using pymatgen
data_SbI31
_symmetry_space_group_name_H-M   'P 1'
_cell_length_a   9.06740700
_cell_length_b   10.57322472
_cell_length_c   20.69655400
_cell_angle_alpha   84.98879561
_cell_angle_beta   90.00000000
_cell_angle_gamma   90.00000000
_symmetry_Int_Tables_number   1
_chemical_formula_structural   SbI31
_chemical_formula_sum   'Sb1 I31'
_cell_volume   1976.63008388
_cell_formula_units_Z   1
loop_
 _symmetry_equiv_pos_site_id
 _symmetry_equiv_pos_as_xyz
  1  'x, y, z'
loop_
 _atom_site_type_symbol
 _atom_site_label
 _atom_site_symmetry_multiplicity
 _atom_site_fract_x
 _atom_site_fract_y
 _atom_site_fract_z
 _atom_site_occupancy
  Sb  Sb0  1  0.750000  0.845452  0.150082  1
  I  I1  1  0.750000  0.387131  0.349305  1
  I  I2  1  0.250000  0.682169  0.663010  1
  I  I3  1  0.250000  0.162469  0.821558  1
  I  I4  1  0.250000  0.278595  0.165522  1
  I  I5  1  0.750000  0.971487  0.752611  1
  I  I6  1  0.750000  0.880042  0.279402  1
  I  I7  1  0.501638  0.709264  0.117910  1
  I  I8  1  0.250000  0.541821  0.301284  1
  I  I9  1  0.500196  0.809067  0.592179  1
  I  I10  1  0.250000  0.769336  0.809507  1
  I  I11  1  0.250000  0.049348  0.434729  1
  I  I12  1  0.750000  0.512218  0.469701  1
  I  I13  1  0.499083  0.265175  0.891209  1
  I  I14  1  0.250000  0.826782  0.936779  1
  I  I15  1  0.750000  0.311405  0.217990  1
  I  I16  1  0.496111  0.208986  0.392182  1
  I  I17  1  0.750000  0.229601  0.681186  1
  I  I18  1  0.250000  0.772234  0.352358  1
  I  I19  1  0.003889  0.208986  0.392182  1
  I  I20  1  0.750000  0.933329  0.524013  1
  I  I21  1  0.998362  0.709264  0.117910  1
  I  I22  1  0.250000  0.036569  0.231341  1
  I  I23  1  0.750000  0.078346  0.080340  1
  I  I24  1  0.750000  0.708051  0.806461  1
  I  I25  1  0.750000  0.474381  0.734759  1
  I  I26  1  0.250000  0.529387  0.073515  1
  I  I27  1  0.999804  0.809067  0.592179  1
  I  I28  1  0.750000  0.365814  0.959809  1
  I  I29  1  0.250000  0.381872  0.544916  1
  I  I30  1  0.250000  0.287174  0.672859  1
  I  I31  1  0.000917  0.265175  0.891209  1
