# generated using pymatgen
data_Sc4AlB12Ir
_symmetry_space_group_name_H-M   'P 1'
_cell_length_a   3.45068800
_cell_length_b   8.93659928
_cell_length_c   11.22240060
_cell_angle_alpha   90.06124716
_cell_angle_beta   90.00000000
_cell_angle_gamma   90.00000000
_symmetry_Int_Tables_number   1
_chemical_formula_structural   Sc4AlB12Ir
_chemical_formula_sum   'Sc8 Al2 B24 Ir2'
_cell_volume   346.06963689
_cell_formula_units_Z   2
loop_
 _symmetry_equiv_pos_site_id
 _symmetry_equiv_pos_as_xyz
  1  'x, y, z'
loop_
 _atom_site_type_symbol
 _atom_site_label
 _atom_site_symmetry_multiplicity
 _atom_site_fract_x
 _atom_site_fract_y
 _atom_site_fract_z
 _atom_site_occupancy
  Sc  Sc0  1  0.500000  0.315391  0.410739  1
  Sc  Sc1  1  0.500000  0.684609  0.589261  1
  Sc  Sc2  1  0.500000  0.180708  0.913126  1
  Sc  Sc3  1  0.500000  0.819292  0.086874  1
  Sc  Sc4  1  0.500000  0.442725  0.126526  1
  Sc  Sc5  1  0.500000  0.557275  0.873474  1
  Sc  Sc6  1  0.500000  0.053663  0.627705  1
  Sc  Sc7  1  0.500000  0.946337  0.372295  1
  Al  Al8  1  0.500000  0.140322  0.180957  1
  Al  Al9  1  0.500000  0.859678  0.819043  1
  B  B10  1  0.000000  0.100634  0.472457  1
  B  B11  1  0.000000  0.899366  0.527543  1
  B  B12  1  0.000000  0.398143  0.971822  1
  B  B13  1  0.000000  0.601857  0.028178  1
  B  B14  1  0.000000  0.130895  0.319574  1
  B  B15  1  0.000000  0.869105  0.680426  1
  B  B16  1  0.000000  0.369399  0.818059  1
  B  B17  1  0.000000  0.630601  0.181941  1
  B  B18  1  0.000000  0.051650  0.062920  1
  B  B19  1  0.000000  0.948350  0.937080  1
  B  B20  1  0.000000  0.447010  0.564459  1
  B  B21  1  0.000000  0.552990  0.435541  1
  B  B22  1  0.000000  0.478953  0.287234  1
  B  B23  1  0.000000  0.521047  0.712766  1
  B  B24  1  0.000000  0.021687  0.788499  1
  B  B25  1  0.000000  0.978313  0.211501  1
  B  B26  1  0.000000  0.251432  0.076522  1
  B  B27  1  0.000000  0.748568  0.923478  1
  B  B28  1  0.000000  0.245597  0.578353  1
  B  B29  1  0.000000  0.754403  0.421647  1
  B  B30  1  0.000000  0.297358  0.237299  1
  B  B31  1  0.000000  0.702642  0.762701  1
  B  B32  1  0.000000  0.203804  0.736738  1
  B  B33  1  0.000000  0.796196  0.263262  1
  Ir  Ir34  1  0.500000  0.359522  0.678766  1
  Ir  Ir35  1  0.500000  0.640478  0.321234  1
