# generated using pymatgen
data_Yb8AlCuPd23
_symmetry_space_group_name_H-M   'P 1'
_cell_length_a   8.35681700
_cell_length_b   8.31702500
_cell_length_c   8.26843500
_cell_angle_alpha   90.00000000
_cell_angle_beta   90.00000000
_cell_angle_gamma   90.00000000
_symmetry_Int_Tables_number   1
_chemical_formula_structural   Yb8AlCuPd23
_chemical_formula_sum   'Yb8 Al1 Cu1 Pd23'
_cell_volume   574.68811484
_cell_formula_units_Z   1
loop_
 _symmetry_equiv_pos_site_id
 _symmetry_equiv_pos_as_xyz
  1  'x, y, z'
loop_
 _atom_site_type_symbol
 _atom_site_label
 _atom_site_symmetry_multiplicity
 _atom_site_fract_x
 _atom_site_fract_y
 _atom_site_fract_z
 _atom_site_occupancy
  Yb  Yb0  1  0.255096  0.249652  0.748565  1
  Yb  Yb1  1  0.250165  0.746979  0.251515  1
  Yb  Yb2  1  0.749835  0.253021  0.251515  1
  Yb  Yb3  1  0.744904  0.750348  0.748565  1
  Yb  Yb4  1  0.749835  0.746979  0.251515  1
  Yb  Yb5  1  0.744904  0.249652  0.748565  1
  Yb  Yb6  1  0.255096  0.750348  0.748565  1
  Yb  Yb7  1  0.250165  0.253021  0.251515  1
  Al  Al8  1  0.000000  0.000000  0.002380  1
  Cu  Cu9  1  0.000000  0.500000  0.733600  1
  Pd  Pd10  1  0.500000  0.500000  0.745899  1
  Pd  Pd11  1  0.500000  0.254698  0.499083  1
  Pd  Pd12  1  0.250955  0.500000  0.504689  1
  Pd  Pd13  1  0.500000  0.500000  0.254843  1
  Pd  Pd14  1  0.500000  0.745302  0.499083  1
  Pd  Pd15  1  0.749045  0.500000  0.504689  1
  Pd  Pd16  1  0.000000  0.000000  0.707774  1
  Pd  Pd17  1  0.000000  0.297001  0.988570  1
  Pd  Pd18  1  0.291206  0.000000  0.001155  1
  Pd  Pd19  1  0.000000  0.000000  0.296754  1
  Pd  Pd20  1  0.000000  0.702999  0.988570  1
  Pd  Pd21  1  0.708794  0.000000  0.001155  1
  Pd  Pd22  1  0.500000  0.261023  0.001413  1
  Pd  Pd23  1  0.261680  0.000000  0.499758  1
  Pd  Pd24  1  0.000000  0.266457  0.507093  1
  Pd  Pd25  1  0.500000  0.000000  0.739214  1
  Pd  Pd26  1  0.261245  0.500000  0.997435  1
  Pd  Pd27  1  0.000000  0.500000  0.259135  1
  Pd  Pd28  1  0.500000  0.738977  0.001413  1
  Pd  Pd29  1  0.000000  0.733543  0.507093  1
  Pd  Pd30  1  0.500000  0.000000  0.261686  1
  Pd  Pd31  1  0.738320  0.000000  0.499758  1
  Pd  Pd32  1  0.738755  0.500000  0.997435  1
