# generated using pymatgen
data_LaPr3Nd4(ReC2)4
_symmetry_space_group_name_H-M   'P 1'
_cell_length_a   5.39283400
_cell_length_b   6.76222842
_cell_length_c   10.24872273
_cell_angle_alpha   90.13121843
_cell_angle_beta   90.00000000
_cell_angle_gamma   90.00000000
_symmetry_Int_Tables_number   1
_chemical_formula_structural   LaPr3Nd4(ReC2)4
_chemical_formula_sum   'La1 Pr3 Nd4 Re4 C8'
_cell_volume   373.74508850
_cell_formula_units_Z   1
loop_
 _symmetry_equiv_pos_site_id
 _symmetry_equiv_pos_as_xyz
  1  'x, y, z'
loop_
 _atom_site_type_symbol
 _atom_site_label
 _atom_site_symmetry_multiplicity
 _atom_site_fract_x
 _atom_site_fract_y
 _atom_site_fract_z
 _atom_site_occupancy
  La  La0  1  0.750000  0.526839  0.211068  1
  Pr  Pr1  1  0.250000  0.472854  0.788406  1
  Pr  Pr2  1  0.750000  0.027590  0.288149  1
  Pr  Pr3  1  0.250000  0.972724  0.711732  1
  Nd  Nd4  1  0.250000  0.815537  0.051026  1
  Nd  Nd5  1  0.750000  0.684874  0.550972  1
  Nd  Nd6  1  0.250000  0.314497  0.449481  1
  Nd  Nd7  1  0.750000  0.185410  0.948634  1
  Re  Re8  1  0.250000  0.269399  0.143823  1
  Re  Re9  1  0.750000  0.230336  0.643494  1
  Re  Re10  1  0.250000  0.769183  0.356875  1
  Re  Re11  1  0.750000  0.731062  0.856202  1
  C  C12  1  0.250000  0.685260  0.535590  1
  C  C13  1  0.750000  0.815851  0.034763  1
  C  C14  1  0.250000  0.185807  0.964701  1
  C  C15  1  0.750000  0.313330  0.464437  1
  C  C16  1  0.250000  0.033661  0.259072  1
  C  C17  1  0.750000  0.465983  0.758563  1
  C  C18  1  0.250000  0.533454  0.242031  1
  C  C19  1  0.750000  0.966348  0.740981  1
