# generated using pymatgen
data_YEr2As4Pd7
_symmetry_space_group_name_H-M   'P 1'
_cell_length_a   8.09868766
_cell_length_b   8.09868778
_cell_length_c   9.66158704
_cell_angle_alpha   55.54466751
_cell_angle_beta   55.54466886
_cell_angle_gamma   29.42231931
_symmetry_Int_Tables_number   1
_chemical_formula_structural   YEr2As4Pd7
_chemical_formula_sum   'Y1 Er2 As4 Pd7'
_cell_volume   252.48555183
_cell_formula_units_Z   1
loop_
 _symmetry_equiv_pos_site_id
 _symmetry_equiv_pos_as_xyz
  1  'x, y, z'
loop_
 _atom_site_type_symbol
 _atom_site_label
 _atom_site_symmetry_multiplicity
 _atom_site_fract_x
 _atom_site_fract_y
 _atom_site_fract_z
 _atom_site_occupancy
  Y  Y0  1  0.500000  0.500000  0.500000  1
  Er  Er1  1  0.823220  0.823220  0.170512  1
  Er  Er2  1  0.176780  0.176780  0.829488  1
  As  As3  1  0.393728  0.393728  0.321926  1
  As  As4  1  0.606272  0.606272  0.678074  1
  As  As5  1  0.840173  0.840173  0.751241  1
  As  As6  1  0.159827  0.159827  0.248759  1
  Pd  Pd7  1  0.668324  0.668324  0.070657  1
  Pd  Pd8  1  0.013104  0.013104  0.204005  1
  Pd  Pd9  1  0.986896  0.986896  0.795995  1
  Pd  Pd10  1  0.500000  0.500000  0.000000  1
  Pd  Pd11  1  0.194023  0.194023  0.474094  1
  Pd  Pd12  1  0.805977  0.805977  0.525906  1
  Pd  Pd13  1  0.331676  0.331676  0.929343  1
