# generated using pymatgen
data_Ti3Ga2AsRu6
_symmetry_space_group_name_H-M   'P 1'
_cell_length_a   4.31292800
_cell_length_b   6.10293300
_cell_length_c   12.91845800
_cell_angle_alpha   90.00000000
_cell_angle_beta   89.99763347
_cell_angle_gamma   90.00000000
_symmetry_Int_Tables_number   1
_chemical_formula_structural   Ti3Ga2AsRu6
_chemical_formula_sum   'Ti6 Ga4 As2 Ru12'
_cell_volume   340.03332927
_cell_formula_units_Z   2
loop_
 _symmetry_equiv_pos_site_id
 _symmetry_equiv_pos_as_xyz
  1  'x, y, z'
loop_
 _atom_site_type_symbol
 _atom_site_label
 _atom_site_symmetry_multiplicity
 _atom_site_fract_x
 _atom_site_fract_y
 _atom_site_fract_z
 _atom_site_occupancy
  Ti  Ti0  1  0.000008  0.500000  0.996691  1
  Ti  Ti1  1  0.499795  0.000000  0.170009  1
  Ti  Ti2  1  0.999807  0.500000  0.337610  1
  Ti  Ti3  1  0.500002  0.000000  0.501134  1
  Ti  Ti4  1  0.000193  0.500000  0.665471  1
  Ti  Ti5  1  0.500200  0.000000  0.829072  1
  Ga  Ga6  1  0.999776  0.000000  0.334291  1
  Ga  Ga7  1  0.499998  0.500000  0.500379  1
  Ga  Ga8  1  0.000223  0.000000  0.666253  1
  Ga  Ga9  1  0.500217  0.500000  0.832397  1
  As  As10  1  0.999997  0.000000  0.998226  1
  As  As11  1  0.499788  0.500000  0.168411  1
  Ru  Ru12  1  0.499995  0.249748  0.002589  1
  Ru  Ru13  1  0.499995  0.750252  0.002589  1
  Ru  Ru14  1  0.999823  0.250249  0.164122  1
  Ru  Ru15  1  0.999823  0.749751  0.164122  1
  Ru  Ru16  1  0.499800  0.251270  0.330347  1
  Ru  Ru17  1  0.499800  0.748730  0.330347  1
  Ru  Ru18  1  0.000000  0.250455  0.499218  1
  Ru  Ru19  1  0.000000  0.749545  0.499218  1
  Ru  Ru20  1  0.500189  0.249498  0.667433  1
  Ru  Ru21  1  0.500189  0.750502  0.667433  1
  Ru  Ru22  1  0.000192  0.248768  0.836320  1
  Ru  Ru23  1  0.000192  0.751232  0.836320  1
