# generated using pymatgen
data_Tm3AlGa2Ge2Ir
_symmetry_space_group_name_H-M   'P 1'
_cell_length_a   6.96243719
_cell_length_b   6.89386456
_cell_length_c   4.17426300
_cell_angle_alpha   90.00000000
_cell_angle_beta   90.00000000
_cell_angle_gamma   119.67473365
_symmetry_Int_Tables_number   1
_chemical_formula_structural   Tm3AlGa2Ge2Ir
_chemical_formula_sum   'Tm3 Al1 Ga2 Ge2 Ir1'
_cell_volume   174.07989251
_cell_formula_units_Z   1
loop_
 _symmetry_equiv_pos_site_id
 _symmetry_equiv_pos_as_xyz
  1  'x, y, z'
loop_
 _atom_site_type_symbol
 _atom_site_label
 _atom_site_symmetry_multiplicity
 _atom_site_fract_x
 _atom_site_fract_y
 _atom_site_fract_z
 _atom_site_occupancy
  Tm  Tm0  1  0.412763  0.002153  0.000000  1
  Tm  Tm1  1  0.000000  0.410434  0.000000  1
  Tm  Tm2  1  0.587237  0.589390  0.000000  1
  Al  Al3  1  0.000000  0.770625  0.499999  1
  Ga  Ga4  1  0.764415  0.997884  0.499999  1
  Ga  Ga5  1  0.235584  0.233468  0.499999  1
  Ge  Ge6  1  0.670044  0.336954  0.499999  1
  Ge  Ge7  1  0.329955  0.666908  0.499999  1
  Ir  Ir8  1  0.000000  0.992185  0.000000  1
