# generated using pymatgen
data_Pr12B2Br17
_symmetry_space_group_name_H-M   'P 1'
_cell_length_a   9.42089213
_cell_length_b   11.28465227
_cell_length_c   11.10293700
_cell_angle_alpha   93.57256338
_cell_angle_beta   104.76481436
_cell_angle_gamma   115.76676818
_symmetry_Int_Tables_number   1
_chemical_formula_structural   Pr12B2Br17
_chemical_formula_sum   'Pr12 B2 Br17'
_cell_volume   1007.39500887
_cell_formula_units_Z   1
loop_
 _symmetry_equiv_pos_site_id
 _symmetry_equiv_pos_as_xyz
  1  'x, y, z'
loop_
 _atom_site_type_symbol
 _atom_site_label
 _atom_site_symmetry_multiplicity
 _atom_site_fract_x
 _atom_site_fract_y
 _atom_site_fract_z
 _atom_site_occupancy
  Pr  Pr0  1  0.222269  0.662817  0.004423  1
  Pr  Pr1  1  0.281433  0.996429  0.910448  1
  Pr  Pr2  1  0.371220  0.764068  0.722262  1
  Pr  Pr3  1  0.936533  0.476482  0.672542  1
  Pr  Pr4  1  0.718547  0.003583  0.089492  1
  Pr  Pr5  1  0.154380  0.291926  0.141287  1
  Pr  Pr6  1  0.777831  0.337264  0.995500  1
  Pr  Pr7  1  0.845590  0.708050  0.858735  1
  Pr  Pr8  1  0.063542  0.523609  0.327633  1
  Pr  Pr9  1  0.991329  0.811645  0.576653  1
  Pr  Pr10  1  0.628778  0.235923  0.277690  1
  Pr  Pr11  1  0.008638  0.188280  0.423336  1
  B  B12  1  0.105300  0.736992  0.785585  1
  B  B13  1  0.894767  0.263128  0.214469  1
  Br  Br14  1  0.779169  0.526503  0.415750  1
  Br  Br15  1  0.628250  0.417680  0.739901  1
  Br  Br16  1  0.838800  0.897011  0.318429  1
  Br  Br17  1  0.316474  0.214071  0.366061  1
  Br  Br18  1  0.161214  0.102936  0.681585  1
  Br  Br19  1  0.587781  0.060328  0.826574  1
  Br  Br20  1  0.739257  0.169049  0.530900  1
  Br  Br21  1  0.536381  0.686090  0.953507  1
  Br  Br22  1  0.371678  0.582320  0.259947  1
  Br  Br23  1  0.220724  0.473372  0.584398  1
  Br  Br24  1  0.059616  0.363235  0.887790  1
  Br  Br25  1  0.463664  0.313869  0.046464  1
  Br  Br26  1  0.999971  0.000000  0.999985  1
  Br  Br27  1  0.260815  0.831160  0.469199  1
  Br  Br28  1  0.412127  0.939687  0.173311  1
  Br  Br29  1  0.683492  0.785783  0.633902  1
  Br  Br30  1  0.940432  0.636709  0.112242  1
