# generated using pymatgen
data_NpU3(MoC2)4
_symmetry_space_group_name_H-M   'P 1'
_cell_length_a   3.22607400
_cell_length_b   5.64762646
_cell_length_c   11.06493811
_cell_angle_alpha   89.95126305
_cell_angle_beta   90.00000000
_cell_angle_gamma   90.00000000
_symmetry_Int_Tables_number   1
_chemical_formula_structural   NpU3(MoC2)4
_chemical_formula_sum   'Np1 U3 Mo4 C8'
_cell_volume   201.59934705
_cell_formula_units_Z   1
loop_
 _symmetry_equiv_pos_site_id
 _symmetry_equiv_pos_as_xyz
  1  'x, y, z'
loop_
 _atom_site_type_symbol
 _atom_site_label
 _atom_site_symmetry_multiplicity
 _atom_site_fract_x
 _atom_site_fract_y
 _atom_site_fract_z
 _atom_site_occupancy
  Np  Np0  1  0.250000  0.080207  0.858193  1
  U  U1  1  0.250000  0.580421  0.642546  1
  U  U2  1  0.750000  0.919882  0.140917  1
  U  U3  1  0.750000  0.419527  0.358246  1
  Mo  Mo4  1  0.250000  0.420038  0.101657  1
  Mo  Mo5  1  0.250000  0.920610  0.398495  1
  Mo  Mo6  1  0.750000  0.580094  0.898515  1
  Mo  Mo7  1  0.750000  0.079344  0.602084  1
  C  C8  1  0.250000  0.160959  0.243988  1
  C  C9  1  0.250000  0.661510  0.255796  1
  C  C10  1  0.750000  0.837627  0.755140  1
  C  C11  1  0.750000  0.339809  0.743505  1
  C  C12  1  0.250000  0.748763  0.993166  1
  C  C13  1  0.250000  0.250269  0.507630  1
  C  C14  1  0.750000  0.251566  0.007212  1
  C  C15  1  0.750000  0.749370  0.492911  1
