# generated using pymatgen
data_YTh(ZnIr)2
_symmetry_space_group_name_H-M   'P 1'
_cell_length_a   4.05998300
_cell_length_b   7.08632407
_cell_length_c   8.33239992
_cell_angle_alpha   89.87356189
_cell_angle_beta   90.00000000
_cell_angle_gamma   90.00000000
_symmetry_Int_Tables_number   1
_chemical_formula_structural   YTh(ZnIr)2
_chemical_formula_sum   'Y2 Th2 Zn4 Ir4'
_cell_volume   239.72552218
_cell_formula_units_Z   2
loop_
 _symmetry_equiv_pos_site_id
 _symmetry_equiv_pos_as_xyz
  1  'x, y, z'
loop_
 _atom_site_type_symbol
 _atom_site_label
 _atom_site_symmetry_multiplicity
 _atom_site_fract_x
 _atom_site_fract_y
 _atom_site_fract_z
 _atom_site_occupancy
  Y  Y0  1  0.750000  0.956890  0.683356  1
  Y  Y1  1  0.250000  0.043110  0.316644  1
  Th  Th2  1  0.250000  0.542150  0.190648  1
  Th  Th3  1  0.750000  0.457850  0.809352  1
  Zn  Zn4  1  0.250000  0.648242  0.562096  1
  Zn  Zn5  1  0.750000  0.351758  0.437904  1
  Zn  Zn6  1  0.750000  0.875878  0.063650  1
  Zn  Zn7  1  0.250000  0.124122  0.936350  1
  Ir  Ir8  1  0.250000  0.745613  0.879183  1
  Ir  Ir9  1  0.750000  0.254387  0.120817  1
  Ir  Ir10  1  0.750000  0.746788  0.372327  1
  Ir  Ir11  1  0.250000  0.253212  0.627673  1
