# generated using pymatgen
data_LaBe(Cu2Si)4
_symmetry_space_group_name_H-M   'P 1'
_cell_length_a   8.17373312
_cell_length_b   8.17373312
_cell_length_c   8.17373279
_cell_angle_alpha   120.65668691
_cell_angle_beta   120.65668625
_cell_angle_gamma   88.86630302
_symmetry_Int_Tables_number   1
_chemical_formula_structural   LaBe(Cu2Si)4
_chemical_formula_sum   'La2 Be2 Cu16 Si8'
_cell_volume   382.22744549
_cell_formula_units_Z   2
loop_
 _symmetry_equiv_pos_site_id
 _symmetry_equiv_pos_as_xyz
  1  'x, y, z'
loop_
 _atom_site_type_symbol
 _atom_site_label
 _atom_site_symmetry_multiplicity
 _atom_site_fract_x
 _atom_site_fract_y
 _atom_site_fract_z
 _atom_site_occupancy
  La  La0  1  0.250000  0.250000  0.000000  1
  La  La1  1  0.750000  0.750000  0.000000  1
  Be  Be2  1  0.500000  0.000000  0.500000  1
  Be  Be3  1  0.000000  0.500000  0.500000  1
  Cu  Cu4  1  0.942797  0.209825  0.152621  1
  Cu  Cu5  1  0.209825  0.057203  0.267029  1
  Cu  Cu6  1  0.790175  0.942797  0.732971  1
  Cu  Cu7  1  0.442797  0.290175  0.732971  1
  Cu  Cu8  1  0.057203  0.790175  0.847379  1
  Cu  Cu9  1  0.799717  0.058052  0.500000  1
  Cu  Cu10  1  0.558052  0.299717  0.500000  1
  Cu  Cu11  1  0.200283  0.941948  0.500000  1
  Cu  Cu12  1  0.441948  0.700283  0.500000  1
  Cu  Cu13  1  0.941948  0.441948  0.741665  1
  Cu  Cu14  1  0.700283  0.200283  0.258335  1
  Cu  Cu15  1  0.058052  0.558052  0.258335  1
  Cu  Cu16  1  0.709825  0.442797  0.152621  1
  Cu  Cu17  1  0.557203  0.709825  0.267029  1
  Cu  Cu18  1  0.299717  0.799717  0.741665  1
  Cu  Cu19  1  0.290175  0.557203  0.847379  1
  Si  Si20  1  0.792051  0.292051  0.850140  1
  Si  Si21  1  0.558088  0.058088  0.850140  1
  Si  Si22  1  0.058088  0.207949  0.500000  1
  Si  Si23  1  0.292051  0.441912  0.500000  1
  Si  Si24  1  0.941912  0.792051  0.500000  1
  Si  Si25  1  0.441912  0.941912  0.149860  1
  Si  Si26  1  0.207949  0.707949  0.149860  1
  Si  Si27  1  0.707949  0.558088  0.500000  1
