# generated using pymatgen
data_Ba10SiBi4P
_symmetry_space_group_name_H-M   'P 1'
_cell_length_a   14.27358300
_cell_length_b   10.50538500
_cell_length_c   9.17739000
_cell_angle_alpha   90.00000000
_cell_angle_beta   90.00000000
_cell_angle_gamma   90.00000000
_symmetry_Int_Tables_number   1
_chemical_formula_structural   Ba10SiBi4P
_chemical_formula_sum   'Ba20 Si2 Bi8 P2'
_cell_volume   1376.14490180
_cell_formula_units_Z   2
loop_
 _symmetry_equiv_pos_site_id
 _symmetry_equiv_pos_as_xyz
  1  'x, y, z'
loop_
 _atom_site_type_symbol
 _atom_site_label
 _atom_site_symmetry_multiplicity
 _atom_site_fract_x
 _atom_site_fract_y
 _atom_site_fract_z
 _atom_site_occupancy
  Ba  Ba0  1  0.074195  0.533900  0.818008  1
  Ba  Ba1  1  0.574195  0.966100  0.681992  1
  Ba  Ba2  1  0.926068  0.026021  0.180758  1
  Ba  Ba3  1  0.426068  0.473979  0.319242  1
  Ba  Ba4  1  0.926068  0.473979  0.180758  1
  Ba  Ba5  1  0.426068  0.026021  0.319242  1
  Ba  Ba6  1  0.074195  0.966100  0.818008  1
  Ba  Ba7  1  0.574195  0.533900  0.681992  1
  Ba  Ba8  1  0.000257  0.750000  0.445545  1
  Ba  Ba9  1  0.500257  0.750000  0.054455  1
  Ba  Ba10  1  0.999766  0.250000  0.557529  1
  Ba  Ba11  1  0.499766  0.250000  0.942471  1
  Ba  Ba12  1  0.208352  0.750000  0.163248  1
  Ba  Ba13  1  0.708352  0.750000  0.336752  1
  Ba  Ba14  1  0.786025  0.250000  0.832576  1
  Ba  Ba15  1  0.286025  0.250000  0.667424  1
  Ba  Ba16  1  0.303238  0.750000  0.642187  1
  Ba  Ba17  1  0.803238  0.750000  0.857813  1
  Ba  Ba18  1  0.699311  0.250000  0.355377  1
  Ba  Ba19  1  0.199311  0.250000  0.144623  1
  Si  Si20  1  0.510844  0.250000  0.560674  1
  Si  Si21  1  0.010844  0.250000  0.939326  1
  Bi  Bi22  1  0.330506  0.509131  0.938051  1
  Bi  Bi23  1  0.830506  0.990869  0.561949  1
  Bi  Bi24  1  0.670570  0.004718  0.064451  1
  Bi  Bi25  1  0.170570  0.495282  0.435549  1
  Bi  Bi26  1  0.670570  0.495282  0.064451  1
  Bi  Bi27  1  0.170570  0.004718  0.435549  1
  Bi  Bi28  1  0.330506  0.990869  0.938051  1
  Bi  Bi29  1  0.830506  0.509131  0.561949  1
  P  P30  1  0.489527  0.750000  0.436791  1
  P  P31  1  0.989527  0.750000  0.063209  1
