# generated using pymatgen
data_Ca10TaTc3N14
_symmetry_space_group_name_H-M   'P 1'
_cell_length_a   6.14358541
_cell_length_b   8.99990583
_cell_length_c   8.98789300
_cell_angle_alpha   115.99247062
_cell_angle_beta   96.62223019
_cell_angle_gamma   88.77135449
_symmetry_Int_Tables_number   1
_chemical_formula_structural   Ca10TaTc3N14
_chemical_formula_sum   'Ca10 Ta1 Tc3 N14'
_cell_volume   443.47356715
_cell_formula_units_Z   1
loop_
 _symmetry_equiv_pos_site_id
 _symmetry_equiv_pos_as_xyz
  1  'x, y, z'
loop_
 _atom_site_type_symbol
 _atom_site_label
 _atom_site_symmetry_multiplicity
 _atom_site_fract_x
 _atom_site_fract_y
 _atom_site_fract_z
 _atom_site_occupancy
  Ca  Ca0  1  0.829285  0.611282  0.318756  1
  Ca  Ca1  1  0.262591  0.981281  0.547045  1
  Ca  Ca2  1  0.707746  0.417450  0.856493  1
  Ca  Ca3  1  0.294480  0.583649  0.140257  1
  Ca  Ca4  1  0.394563  0.786726  0.921223  1
  Ca  Ca5  1  0.602486  0.206640  0.078608  1
  Ca  Ca6  1  0.167836  0.395851  0.682058  1
  Ca  Ca7  1  0.888029  0.856057  0.753897  1
  Ca  Ca8  1  0.106389  0.141994  0.250201  1
  Ca  Ca9  1  0.741344  0.019125  0.450727  1
  Ta  Ta10  1  0.874948  0.784465  0.074538  1
  Tc  Tc11  1  0.582410  0.355069  0.474703  1
  Tc  Tc12  1  0.418034  0.646043  0.524712  1
  Tc  Tc13  1  0.125212  0.215106  0.925054  1
  N  N14  1  0.510266  0.547184  0.677399  1
  N  N15  1  0.491948  0.453905  0.321140  1
  N  N16  1  0.139944  0.717862  0.544568  1
  N  N17  1  0.863056  0.284006  0.456987  1
  N  N18  1  0.413107  0.184288  0.472766  1
  N  N19  1  0.591216  0.818253  0.530969  1
  N  N20  1  0.955494  0.133305  0.722173  1
  N  N21  1  0.044175  0.882073  0.293640  1
  N  N22  1  0.231532  0.050786  0.975923  1
  N  N23  1  0.749464  0.952870  0.013911  1
  N  N24  1  0.368017  0.319308  0.905747  1
  N  N25  1  0.965525  0.359245  0.088754  1
  N  N26  1  0.054496  0.632784  0.906471  1
  N  N27  1  0.626407  0.663397  0.091281  1
