# generated using pymatgen
data_Tb3Ho5Ti7Ge16Mo5
_symmetry_space_group_name_H-M   'P 1'
_cell_length_a   6.93138237
_cell_length_b   7.09409426
_cell_length_c   13.39301424
_cell_angle_alpha   89.95926729
_cell_angle_beta   89.95676624
_cell_angle_gamma   90.03474085
_symmetry_Int_Tables_number   1
_chemical_formula_structural   Tb3Ho5Ti7Ge16Mo5
_chemical_formula_sum   'Tb3 Ho5 Ti7 Ge16 Mo5'
_cell_volume   658.55921245
_cell_formula_units_Z   1
loop_
 _symmetry_equiv_pos_site_id
 _symmetry_equiv_pos_as_xyz
  1  'x, y, z'
loop_
 _atom_site_type_symbol
 _atom_site_label
 _atom_site_symmetry_multiplicity
 _atom_site_fract_x
 _atom_site_fract_y
 _atom_site_fract_z
 _atom_site_occupancy
  Tb  Tb0  1  0.496076  0.673249  0.905926  1
  Tb  Tb1  1  0.502666  0.328442  0.403172  1
  Tb  Tb2  1  0.005625  0.169873  0.095530  1
  Ho  Ho3  1  0.003433  0.172143  0.404114  1
  Ho  Ho4  1  0.503934  0.325663  0.095938  1
  Ho  Ho5  1  0.496839  0.672428  0.596313  1
  Ho  Ho6  1  0.995817  0.827157  0.903665  1
  Ho  Ho7  1  0.996392  0.827023  0.596594  1
  Ti  Ti8  1  0.837674  0.670154  0.371264  1
  Ti  Ti9  1  0.662453  0.168116  0.627555  1
  Ti  Ti10  1  0.162200  0.331181  0.873582  1
  Ti  Ti11  1  0.162501  0.331657  0.627324  1
  Ti  Ti12  1  0.661891  0.167687  0.872768  1
  Ti  Ti13  1  0.841431  0.669418  0.127304  1
  Ti  Ti14  1  0.335427  0.831131  0.371939  1
  Ge  Ge15  1  0.328549  0.043205  0.544166  1
  Ge  Ge16  1  0.828626  0.456980  0.956054  1
  Ge  Ge17  1  0.668646  0.956881  0.044692  1
  Ge  Ge18  1  0.170547  0.544255  0.455897  1
  Ge  Ge19  1  0.172990  0.543128  0.044017  1
  Ge  Ge20  1  0.669932  0.956556  0.455574  1
  Ge  Ge21  1  0.829793  0.456429  0.544708  1
  Ge  Ge22  1  0.327228  0.044577  0.956614  1
  Ge  Ge23  1  0.807665  0.366454  0.249179  1
  Ge  Ge24  1  0.308979  0.133105  0.250423  1
  Ge  Ge25  1  0.692909  0.865782  0.749928  1
  Ge  Ge26  1  0.193755  0.634119  0.750262  1
  Ge  Ge27  1  0.037416  0.872721  0.250682  1
  Ge  Ge28  1  0.536197  0.629696  0.248978  1
  Ge  Ge29  1  0.462704  0.370909  0.750278  1
  Ge  Ge30  1  0.963457  0.128881  0.750165  1
  Mo  Mo31  1  0.335217  0.832371  0.127135  1
  Mo  Mo32  1  0.333625  0.009550  0.750149  1
  Mo  Mo33  1  0.666840  0.987355  0.249092  1
  Mo  Mo34  1  0.165349  0.513261  0.248840  1
  Mo  Mo35  1  0.835219  0.488463  0.750184  1
