# generated using pymatgen
data_K3CaNpO6
_symmetry_space_group_name_H-M   'P 1'
_cell_length_a   7.37184832
_cell_length_b   7.37118299
_cell_length_c   7.37169300
_cell_angle_alpha   93.29457346
_cell_angle_beta   93.29587173
_cell_angle_gamma   93.29424795
_symmetry_Int_Tables_number   1
_chemical_formula_structural   K3CaNpO6
_chemical_formula_sum   'K6 Ca2 Np2 O12'
_cell_volume   398.50596464
_cell_formula_units_Z   2
loop_
 _symmetry_equiv_pos_site_id
 _symmetry_equiv_pos_as_xyz
  1  'x, y, z'
loop_
 _atom_site_type_symbol
 _atom_site_label
 _atom_site_symmetry_multiplicity
 _atom_site_fract_x
 _atom_site_fract_y
 _atom_site_fract_z
 _atom_site_occupancy
  K  K0  1  0.749979  0.396125  0.103865  1
  K  K1  1  0.603862  0.896111  0.249984  1
  K  K2  1  0.103865  0.749980  0.396120  1
  K  K3  1  0.896135  0.250020  0.603881  1
  K  K4  1  0.396138  0.103890  0.750016  1
  K  K5  1  0.250021  0.603875  0.896135  1
  Ca  Ca6  1  0.250048  0.250042  0.250041  1
  Ca  Ca7  1  0.749952  0.749958  0.749959  1
  Np  Np8  1  0.000000  0.000000  0.000000  1
  Np  Np9  1  0.500000  0.500000  0.500000  1
  O  O10  1  0.913129  0.738287  0.035795  1
  O  O11  1  0.261703  0.964202  0.086877  1
  O  O12  1  0.413070  0.535805  0.238097  1
  O  O13  1  0.964205  0.086880  0.261696  1
  O  O14  1  0.535809  0.238093  0.413070  1
  O  O15  1  0.761896  0.586944  0.464201  1
  O  O16  1  0.238104  0.413056  0.535799  1
  O  O17  1  0.464191  0.761907  0.586931  1
  O  O18  1  0.035795  0.913121  0.738304  1
  O  O19  1  0.586930  0.464194  0.761905  1
  O  O20  1  0.738298  0.035798  0.913123  1
  O  O21  1  0.086871  0.261713  0.964205  1
