# generated using pymatgen
data_Ho3Fe8Os
_symmetry_space_group_name_H-M   'P 1'
_cell_length_a   8.73726905
_cell_length_b   8.73726946
_cell_length_c   8.73726962
_cell_angle_alpha   33.86019672
_cell_angle_beta   33.86018903
_cell_angle_gamma   33.86019404
_symmetry_Int_Tables_number   1
_chemical_formula_structural   Ho3Fe8Os
_chemical_formula_sum   'Ho3 Fe8 Os1'
_cell_volume   184.52709291
_cell_formula_units_Z   1
loop_
 _symmetry_equiv_pos_site_id
 _symmetry_equiv_pos_as_xyz
  1  'x, y, z'
loop_
 _atom_site_type_symbol
 _atom_site_label
 _atom_site_symmetry_multiplicity
 _atom_site_fract_x
 _atom_site_fract_y
 _atom_site_fract_z
 _atom_site_occupancy
  Ho  Ho0  1  0.000000  0.000000  0.000000  1
  Ho  Ho1  1  0.141905  0.141905  0.141905  1
  Ho  Ho2  1  0.858095  0.858095  0.858095  1
  Fe  Fe3  1  0.332759  0.332759  0.332759  1
  Fe  Fe4  1  0.667241  0.667241  0.667241  1
  Fe  Fe5  1  0.078108  0.581472  0.581472  1
  Fe  Fe6  1  0.581472  0.581472  0.078108  1
  Fe  Fe7  1  0.581472  0.078108  0.581472  1
  Fe  Fe8  1  0.418528  0.921892  0.418528  1
  Fe  Fe9  1  0.921892  0.418528  0.418528  1
  Fe  Fe10  1  0.418528  0.418528  0.921892  1
  Os  Os11  1  0.500000  0.500000  0.500000  1
