# generated using pymatgen
data_Tm16MgIn3Ru4
_symmetry_space_group_name_H-M   'P 1'
_cell_length_a   9.57442429
_cell_length_b   9.54304479
_cell_length_c   9.54160585
_cell_angle_alpha   59.37997878
_cell_angle_beta   59.69832914
_cell_angle_gamma   59.65195891
_symmetry_Int_Tables_number   1
_chemical_formula_structural   Tm16MgIn3Ru4
_chemical_formula_sum   'Tm16 Mg1 In3 Ru4'
_cell_volume   610.51947313
_cell_formula_units_Z   1
loop_
 _symmetry_equiv_pos_site_id
 _symmetry_equiv_pos_as_xyz
  1  'x, y, z'
loop_
 _atom_site_type_symbol
 _atom_site_label
 _atom_site_symmetry_multiplicity
 _atom_site_fract_x
 _atom_site_fract_y
 _atom_site_fract_z
 _atom_site_occupancy
  Tm  Tm0  1  0.597400  0.597253  0.597308  1
  Tm  Tm1  1  0.600070  0.596468  0.210426  1
  Tm  Tm2  1  0.600060  0.210495  0.596478  1
  Tm  Tm3  1  0.203032  0.599037  0.599035  1
  Tm  Tm4  1  0.057566  0.441176  0.441247  1
  Tm  Tm5  1  0.436576  0.061535  0.061510  1
  Tm  Tm6  1  0.439180  0.061182  0.437775  1
  Tm  Tm7  1  0.058067  0.439279  0.058434  1
  Tm  Tm8  1  0.439277  0.437682  0.061134  1
  Tm  Tm9  1  0.058112  0.058431  0.439201  1
  Tm  Tm10  1  0.189294  0.808377  0.808356  1
  Tm  Tm11  1  0.812517  0.189518  0.189524  1
  Tm  Tm12  1  0.808789  0.189983  0.809716  1
  Tm  Tm13  1  0.192871  0.808024  0.191733  1
  Tm  Tm14  1  0.808542  0.809739  0.190098  1
  Tm  Tm15  1  0.192891  0.191682  0.808167  1
  Mg  Mg16  1  0.519725  0.826004  0.826057  1
  In  In17  1  0.830731  0.833856  0.833941  1
  In  In18  1  0.831172  0.832391  0.502007  1
  In  In19  1  0.831274  0.502084  0.832327  1
  Ru  Ru20  1  0.384621  0.392101  0.391922  1
  Ru  Ru21  1  0.388561  0.393344  0.829133  1
  Ru  Ru22  1  0.388726  0.829110  0.393240  1
  Ru  Ru23  1  0.830944  0.391249  0.391230  1
