# generated using pymatgen
data_Cs2Ac4Te7
_symmetry_space_group_name_H-M   'P 1'
_cell_length_a   4.87562800
_cell_length_b   15.20448424
_cell_length_c   16.95603237
_cell_angle_alpha   87.60709022
_cell_angle_beta   90.00000000
_cell_angle_gamma   90.00000000
_symmetry_Int_Tables_number   1
_chemical_formula_structural   Cs2Ac4Te7
_chemical_formula_sum   'Cs4 Ac8 Te14'
_cell_volume   1255.87849608
_cell_formula_units_Z   2
loop_
 _symmetry_equiv_pos_site_id
 _symmetry_equiv_pos_as_xyz
  1  'x, y, z'
loop_
 _atom_site_type_symbol
 _atom_site_label
 _atom_site_symmetry_multiplicity
 _atom_site_fract_x
 _atom_site_fract_y
 _atom_site_fract_z
 _atom_site_occupancy
  Cs  Cs0  1  0.250000  0.553132  0.824948  1
  Cs  Cs1  1  0.750000  0.446868  0.175052  1
  Cs  Cs2  1  0.750000  0.821037  0.624929  1
  Cs  Cs3  1  0.250000  0.178963  0.375071  1
  Ac  Ac4  1  0.250000  0.941379  0.880233  1
  Ac  Ac5  1  0.750000  0.058621  0.119767  1
  Ac  Ac6  1  0.250000  0.844851  0.291876  1
  Ac  Ac7  1  0.750000  0.155149  0.708124  1
  Ac  Ac8  1  0.750000  0.734475  0.055225  1
  Ac  Ac9  1  0.250000  0.265525  0.944775  1
  Ac  Ac10  1  0.750000  0.605178  0.427643  1
  Ac  Ac11  1  0.250000  0.394822  0.572357  1
  Te  Te12  1  0.250000  0.463220  0.383287  1
  Te  Te13  1  0.750000  0.536780  0.616713  1
  Te  Te14  1  0.250000  0.602418  0.048920  1
  Te  Te15  1  0.750000  0.397582  0.951080  1
  Te  Te16  1  0.750000  0.994325  0.304292  1
  Te  Te17  1  0.250000  0.005675  0.695708  1
  Te  Te18  1  0.750000  0.799494  0.863757  1
  Te  Te19  1  0.250000  0.200506  0.136243  1
  Te  Te20  1  0.250000  0.751207  0.465274  1
  Te  Te21  1  0.750000  0.248793  0.534726  1
  Te  Te22  1  0.750000  0.707204  0.248608  1
  Te  Te23  1  0.250000  0.292796  0.751392  1
  Te  Te24  1  0.250000  0.903780  0.083239  1
  Te  Te25  1  0.750000  0.096220  0.916761  1
