# generated using pymatgen
data_Pa4TiZnRh10
_symmetry_space_group_name_H-M   'P 1'
_cell_length_a   4.18328200
_cell_length_b   5.77896281
_cell_length_c   11.42076440
_cell_angle_alpha   91.56422588
_cell_angle_beta   90.00000000
_cell_angle_gamma   90.00000000
_symmetry_Int_Tables_number   1
_chemical_formula_structural   Pa4TiZnRh10
_chemical_formula_sum   'Pa4 Ti1 Zn1 Rh10'
_cell_volume   275.99444776
_cell_formula_units_Z   1
loop_
 _symmetry_equiv_pos_site_id
 _symmetry_equiv_pos_as_xyz
  1  'x, y, z'
loop_
 _atom_site_type_symbol
 _atom_site_label
 _atom_site_symmetry_multiplicity
 _atom_site_fract_x
 _atom_site_fract_y
 _atom_site_fract_z
 _atom_site_occupancy
  Pa  Pa0  1  0.500000  0.307934  0.135654  1
  Pa  Pa1  1  0.500000  0.692066  0.864346  1
  Pa  Pa2  1  0.500000  0.825811  0.355514  1
  Pa  Pa3  1  0.500000  0.174189  0.644486  1
  Ti  Ti4  1  0.000000  0.500000  0.500000  1
  Zn  Zn5  1  0.000000  0.000000  0.000000  1
  Rh  Rh6  1  0.000000  0.000000  0.500000  1
  Rh  Rh7  1  0.000000  0.500000  0.000000  1
  Rh  Rh8  1  0.000000  0.068338  0.244314  1
  Rh  Rh9  1  0.000000  0.931662  0.755686  1
  Rh  Rh10  1  0.000000  0.567199  0.255035  1
  Rh  Rh11  1  0.000000  0.432801  0.744965  1
  Rh  Rh12  1  0.500000  0.320844  0.398160  1
  Rh  Rh13  1  0.500000  0.679156  0.601840  1
  Rh  Rh14  1  0.500000  0.798484  0.111603  1
  Rh  Rh15  1  0.500000  0.201516  0.888397  1
