# generated using pymatgen
data_Y5Sc2CdC4
_symmetry_space_group_name_H-M   'P 1'
_cell_length_a   11.46810200
_cell_length_b   11.46810200
_cell_length_c   3.62425000
_cell_angle_alpha   90.00000000
_cell_angle_beta   90.00000000
_cell_angle_gamma   90.00000000
_symmetry_Int_Tables_number   1
_chemical_formula_structural   Y5Sc2CdC4
_chemical_formula_sum   'Y10 Sc4 Cd2 C8'
_cell_volume   476.65180460
_cell_formula_units_Z   2
loop_
 _symmetry_equiv_pos_site_id
 _symmetry_equiv_pos_as_xyz
  1  'x, y, z'
loop_
 _atom_site_type_symbol
 _atom_site_label
 _atom_site_symmetry_multiplicity
 _atom_site_fract_x
 _atom_site_fract_y
 _atom_site_fract_z
 _atom_site_occupancy
  Y  Y0  1  0.546844  0.742714  0.500000  1
  Y  Y1  1  0.453156  0.257286  0.500000  1
  Y  Y2  1  0.046844  0.757286  0.500000  1
  Y  Y3  1  0.953156  0.242714  0.500000  1
  Y  Y4  1  0.257286  0.546844  0.500000  1
  Y  Y5  1  0.742714  0.453156  0.500000  1
  Y  Y6  1  0.242714  0.046844  0.500000  1
  Y  Y7  1  0.757286  0.953156  0.500000  1
  Y  Y8  1  0.500000  0.000000  0.000000  1
  Y  Y9  1  0.000000  0.500000  0.000000  1
  Sc  Sc10  1  0.703494  0.203494  0.000000  1
  Sc  Sc11  1  0.296506  0.796506  0.000000  1
  Sc  Sc12  1  0.203494  0.296506  0.000000  1
  Sc  Sc13  1  0.796506  0.703494  0.000000  1
  Cd  Cd14  1  0.500000  0.500000  0.000000  1
  Cd  Cd15  1  0.000000  0.000000  0.000000  1
  C  C16  1  0.621869  0.121869  0.500000  1
  C  C17  1  0.378131  0.878131  0.500000  1
  C  C18  1  0.121869  0.378131  0.500000  1
  C  C19  1  0.878131  0.621869  0.500000  1
  C  C20  1  0.157446  0.657446  0.000000  1
  C  C21  1  0.842554  0.342554  0.000000  1
  C  C22  1  0.657446  0.842554  0.000000  1
  C  C23  1  0.342554  0.157446  0.000000  1
