# generated using pymatgen
data_Hf4Ti2Pt3Rh7
_symmetry_space_group_name_H-M   'P 1'
_cell_length_a   4.23151000
_cell_length_b   5.56425472
_cell_length_c   10.97793572
_cell_angle_alpha   88.19515380
_cell_angle_beta   90.00000000
_cell_angle_gamma   90.00000000
_symmetry_Int_Tables_number   1
_chemical_formula_structural   Hf4Ti2Pt3Rh7
_chemical_formula_sum   'Hf4 Ti2 Pt3 Rh7'
_cell_volume   258.34945576
_cell_formula_units_Z   1
loop_
 _symmetry_equiv_pos_site_id
 _symmetry_equiv_pos_as_xyz
  1  'x, y, z'
loop_
 _atom_site_type_symbol
 _atom_site_label
 _atom_site_symmetry_multiplicity
 _atom_site_fract_x
 _atom_site_fract_y
 _atom_site_fract_z
 _atom_site_occupancy
  Hf  Hf0  1  0.500000  0.162386  0.646692  1
  Hf  Hf1  1  0.500000  0.837614  0.353308  1
  Hf  Hf2  1  0.500000  0.668965  0.858744  1
  Hf  Hf3  1  0.500000  0.331035  0.141256  1
  Ti  Ti4  1  0.000000  0.500000  0.500000  1
  Ti  Ti5  1  0.000000  0.000000  0.000000  1
  Pt  Pt6  1  0.000000  0.415109  0.743350  1
  Pt  Pt7  1  0.000000  0.584891  0.256650  1
  Pt  Pt8  1  0.000000  0.000000  0.500000  1
  Rh  Rh9  1  0.500000  0.180128  0.896055  1
  Rh  Rh10  1  0.500000  0.819872  0.103945  1
  Rh  Rh11  1  0.500000  0.675641  0.602587  1
  Rh  Rh12  1  0.500000  0.324359  0.397413  1
  Rh  Rh13  1  0.000000  0.500000  0.000000  1
  Rh  Rh14  1  0.000000  0.086983  0.239197  1
  Rh  Rh15  1  0.000000  0.913017  0.760803  1
