# generated using pymatgen
data_Nd15Y5Si15Pd
_symmetry_space_group_name_H-M   'P 1'
_cell_length_a   7.66591008
_cell_length_b   7.89628496
_cell_length_c   15.12095878
_cell_angle_alpha   90.42421738
_cell_angle_beta   90.42427570
_cell_angle_gamma   90.30668924
_symmetry_Int_Tables_number   1
_chemical_formula_structural   Nd15Y5Si15Pd
_chemical_formula_sum   'Nd15 Y5 Si15 Pd1'
_cell_volume   915.24149382
_cell_formula_units_Z   1
loop_
 _symmetry_equiv_pos_site_id
 _symmetry_equiv_pos_as_xyz
  1  'x, y, z'
loop_
 _atom_site_type_symbol
 _atom_site_label
 _atom_site_symmetry_multiplicity
 _atom_site_fract_x
 _atom_site_fract_y
 _atom_site_fract_z
 _atom_site_occupancy
  Nd  Nd0  1  0.682468  0.168852  0.618594  1
  Nd  Nd1  1  0.186543  0.320976  0.876862  1
  Nd  Nd2  1  0.317176  0.818684  0.121502  1
  Nd  Nd3  1  0.817678  0.685220  0.381022  1
  Nd  Nd4  1  0.319672  0.825406  0.379823  1
  Nd  Nd5  1  0.814840  0.680742  0.121985  1
  Nd  Nd6  1  0.685397  0.179731  0.876769  1
  Nd  Nd7  1  0.179602  0.319426  0.623359  1
  Nd  Nd8  1  0.525710  0.681760  0.600774  1
  Nd  Nd9  1  0.030737  0.815930  0.900614  1
  Nd  Nd10  1  0.468349  0.316106  0.099710  1
  Nd  Nd11  1  0.973232  0.182640  0.399176  1
  Nd  Nd12  1  0.467435  0.315958  0.399648  1
  Nd  Nd13  1  0.969019  0.185024  0.099354  1
  Nd  Nd14  1  0.533296  0.684967  0.897884  1
  Y  Y15  1  0.031692  0.812219  0.603565  1
  Y  Y16  1  0.852143  0.510233  0.748442  1
  Y  Y17  1  0.352837  0.987549  0.748478  1
  Y  Y18  1  0.146085  0.488465  0.251169  1
  Y  Y19  1  0.651763  0.015316  0.251021  1
  Si  Si20  1  0.139085  0.526007  0.040305  1
  Si  Si21  1  0.360169  0.027579  0.959666  1
  Si  Si22  1  0.859480  0.477177  0.542919  1
  Si  Si23  1  0.343632  0.021696  0.545548  1
  Si  Si24  1  0.861216  0.473475  0.958843  1
  Si  Si25  1  0.639267  0.973426  0.039044  1
  Si  Si26  1  0.141391  0.531531  0.462779  1
  Si  Si27  1  0.480961  0.398334  0.748572  1
  Si  Si28  1  0.979355  0.094119  0.749911  1
  Si  Si29  1  0.522147  0.599058  0.249678  1
  Si  Si30  1  0.024579  0.900889  0.248486  1
  Si  Si31  1  0.739938  0.871303  0.749480  1
  Si  Si32  1  0.236032  0.627937  0.750157  1
  Si  Si33  1  0.262547  0.126339  0.248122  1
  Si  Si34  1  0.762432  0.376520  0.249419  1
  Pd  Pd35  1  0.642097  0.979411  0.457323  1
