# generated using pymatgen
data_Dy2YPa(ReB6)2
_symmetry_space_group_name_H-M   'P 1'
_cell_length_a   3.70676600
_cell_length_b   9.18762498
_cell_length_c   11.55371205
_cell_angle_alpha   90.37655862
_cell_angle_beta   90.00000000
_cell_angle_gamma   90.00000000
_symmetry_Int_Tables_number   1
_chemical_formula_structural   Dy2YPa(ReB6)2
_chemical_formula_sum   'Dy4 Y2 Pa2 Re4 B24'
_cell_volume   393.46906281
_cell_formula_units_Z   2
loop_
 _symmetry_equiv_pos_site_id
 _symmetry_equiv_pos_as_xyz
  1  'x, y, z'
loop_
 _atom_site_type_symbol
 _atom_site_label
 _atom_site_symmetry_multiplicity
 _atom_site_fract_x
 _atom_site_fract_y
 _atom_site_fract_z
 _atom_site_occupancy
  Dy  Dy0  1  0.000000  0.944812  0.373004  1
  Dy  Dy1  1  0.000000  0.055188  0.626996  1
  Dy  Dy2  1  0.000000  0.443812  0.126651  1
  Dy  Dy3  1  0.000000  0.556188  0.873349  1
  Y  Y4  1  0.000000  0.824250  0.085861  1
  Y  Y5  1  0.000000  0.175750  0.914139  1
  Pa  Pa6  1  0.000000  0.322256  0.412842  1
  Pa  Pa7  1  0.000000  0.677744  0.587158  1
  Re  Re8  1  0.000000  0.635193  0.325344  1
  Re  Re9  1  0.000000  0.364807  0.674656  1
  Re  Re10  1  0.000000  0.140531  0.181861  1
  Re  Re11  1  0.000000  0.859469  0.818139  1
  B  B12  1  0.500000  0.553197  0.433068  1
  B  B13  1  0.500000  0.446803  0.566932  1
  B  B14  1  0.500000  0.053343  0.067626  1
  B  B15  1  0.500000  0.946657  0.932374  1
  B  B16  1  0.500000  0.747455  0.419977  1
  B  B17  1  0.500000  0.252545  0.580023  1
  B  B18  1  0.500000  0.247557  0.080519  1
  B  B19  1  0.500000  0.752443  0.919481  1
  B  B20  1  0.500000  0.791246  0.266406  1
  B  B21  1  0.500000  0.208754  0.733594  1
  B  B22  1  0.500000  0.292219  0.233778  1
  B  B23  1  0.500000  0.707781  0.766222  1
  B  B24  1  0.500000  0.631586  0.186090  1
  B  B25  1  0.500000  0.368414  0.813910  1
  B  B26  1  0.500000  0.132893  0.313941  1
  B  B27  1  0.500000  0.867107  0.686059  1
  B  B28  1  0.500000  0.982723  0.212610  1
  B  B29  1  0.500000  0.017277  0.787390  1
  B  B30  1  0.500000  0.483141  0.286923  1
  B  B31  1  0.500000  0.516859  0.713077  1
  B  B32  1  0.500000  0.605745  0.029707  1
  B  B33  1  0.500000  0.394255  0.970293  1
  B  B34  1  0.500000  0.113375  0.468640  1
  B  B35  1  0.500000  0.886625  0.531360  1
