# generated using pymatgen
data_Dy4LuCo2Au
_symmetry_space_group_name_H-M   'P 1'
_cell_length_a   8.53214509
_cell_length_b   8.53214585
_cell_length_c   8.53214577
_cell_angle_alpha   128.28941147
_cell_angle_beta   128.28940198
_cell_angle_gamma   76.15666605
_symmetry_Int_Tables_number   1
_chemical_formula_structural   Dy4LuCo2Au
_chemical_formula_sum   'Dy8 Lu2 Co4 Au2'
_cell_volume   371.94107144
_cell_formula_units_Z   2
loop_
 _symmetry_equiv_pos_site_id
 _symmetry_equiv_pos_as_xyz
  1  'x, y, z'
loop_
 _atom_site_type_symbol
 _atom_site_label
 _atom_site_symmetry_multiplicity
 _atom_site_fract_x
 _atom_site_fract_y
 _atom_site_fract_z
 _atom_site_occupancy
  Dy  Dy0  1  0.802607  0.302607  0.835649  1
  Dy  Dy1  1  0.197393  0.697393  0.164352  1
  Dy  Dy2  1  0.466959  0.966959  0.164352  1
  Dy  Dy3  1  0.302607  0.466959  0.500000  1
  Dy  Dy4  1  0.033041  0.197393  0.500000  1
  Dy  Dy5  1  0.533041  0.033041  0.835648  1
  Dy  Dy6  1  0.697393  0.533041  0.500000  1
  Dy  Dy7  1  0.966959  0.802607  0.500000  1
  Lu  Lu8  1  0.000000  0.000000  0.000000  1
  Lu  Lu9  1  0.500000  0.500000  0.000000  1
  Co  Co10  1  0.126436  0.626436  0.752873  1
  Co  Co11  1  0.873564  0.373564  0.247127  1
  Co  Co12  1  0.626436  0.873564  0.500000  1
  Co  Co13  1  0.373564  0.126436  0.500000  1
  Au  Au14  1  0.250000  0.250000  0.000000  1
  Au  Au15  1  0.750000  0.750000  0.000000  1
