# generated using pymatgen
data_Cu4Se8ClF3
_symmetry_space_group_name_H-M   'P 1'
_cell_length_a   4.98527024
_cell_length_b   7.57361023
_cell_length_c   11.26624228
_cell_angle_alpha   63.03668853
_cell_angle_beta   92.17309613
_cell_angle_gamma   89.19728224
_symmetry_Int_Tables_number   1
_chemical_formula_structural   Cu4Se8ClF3
_chemical_formula_sum   'Cu4 Se8 Cl1 F3'
_cell_volume   378.62918900
_cell_formula_units_Z   1
loop_
 _symmetry_equiv_pos_site_id
 _symmetry_equiv_pos_as_xyz
  1  'x, y, z'
loop_
 _atom_site_type_symbol
 _atom_site_label
 _atom_site_symmetry_multiplicity
 _atom_site_fract_x
 _atom_site_fract_y
 _atom_site_fract_z
 _atom_site_occupancy
  Cu  Cu0  1  0.361214  0.169011  0.754831  1
  Cu  Cu1  1  0.859953  0.825575  0.749057  1
  Cu  Cu2  1  0.629578  0.835204  0.238584  1
  Cu  Cu3  1  0.147607  0.181829  0.241245  1
  Se  Se4  1  0.477988  0.299633  0.341100  1
  Se  Se5  1  0.947353  0.718373  0.139373  1
  Se  Se6  1  0.528087  0.704486  0.654173  1
  Se  Se7  1  0.051876  0.284064  0.857621  1
  Se  Se8  1  0.312507  0.584704  0.338725  1
  Se  Se9  1  0.804281  0.430471  0.142124  1
  Se  Se10  1  0.675899  0.416621  0.657003  1
  Se  Se11  1  0.192309  0.571849  0.853174  1
  Cl  Cl12  1  0.903303  0.915548  0.376723  1
  F  F13  1  0.621294  0.936878  0.840381  1
  F  F14  1  0.105717  0.052722  0.669522  1
  F  F15  1  0.381033  0.073032  0.146363  1
