# generated using pymatgen
data_U2Pa2B12MoW
_symmetry_space_group_name_H-M   'P 1'
_cell_length_a   3.73939600
_cell_length_b   9.31357046
_cell_length_c   11.40719356
_cell_angle_alpha   90.03586398
_cell_angle_beta   90.00000000
_cell_angle_gamma   90.00000000
_symmetry_Int_Tables_number   1
_chemical_formula_structural   U2Pa2B12MoW
_chemical_formula_sum   'U4 Pa4 B24 Mo2 W2'
_cell_volume   397.27971361
_cell_formula_units_Z   2
loop_
 _symmetry_equiv_pos_site_id
 _symmetry_equiv_pos_as_xyz
  1  'x, y, z'
loop_
 _atom_site_type_symbol
 _atom_site_label
 _atom_site_symmetry_multiplicity
 _atom_site_fract_x
 _atom_site_fract_y
 _atom_site_fract_z
 _atom_site_occupancy
  U  U0  1  0.000000  0.956237  0.395096  1
  U  U1  1  0.000000  0.043763  0.604904  1
  U  U2  1  0.000000  0.456635  0.104964  1
  U  U3  1  0.000000  0.543365  0.895036  1
  Pa  Pa4  1  0.000000  0.334241  0.407615  1
  Pa  Pa5  1  0.000000  0.665759  0.592385  1
  Pa  Pa6  1  0.000000  0.834018  0.092334  1
  Pa  Pa7  1  0.000000  0.165982  0.907666  1
  B  B8  1  0.500000  0.551003  0.432094  1
  B  B9  1  0.500000  0.448997  0.567906  1
  B  B10  1  0.500000  0.050921  0.067869  1
  B  B11  1  0.500000  0.949079  0.932131  1
  B  B12  1  0.500000  0.744114  0.423467  1
  B  B13  1  0.500000  0.255886  0.576533  1
  B  B14  1  0.500000  0.244300  0.076477  1
  B  B15  1  0.500000  0.755700  0.923523  1
  B  B16  1  0.500000  0.803232  0.273732  1
  B  B17  1  0.500000  0.196768  0.726268  1
  B  B18  1  0.500000  0.303317  0.226274  1
  B  B19  1  0.500000  0.696683  0.773726  1
  B  B20  1  0.500000  0.643870  0.187802  1
  B  B21  1  0.500000  0.356130  0.812198  1
  B  B22  1  0.500000  0.143865  0.312316  1
  B  B23  1  0.500000  0.856135  0.687684  1
  B  B24  1  0.500000  0.986912  0.219356  1
  B  B25  1  0.500000  0.013088  0.780644  1
  B  B26  1  0.500000  0.487050  0.280658  1
  B  B27  1  0.500000  0.512950  0.719342  1
  B  B28  1  0.500000  0.639482  0.038656  1
  B  B29  1  0.500000  0.360518  0.961344  1
  B  B30  1  0.500000  0.139541  0.461428  1
  B  B31  1  0.500000  0.860459  0.538572  1
  Mo  Mo32  1  0.000000  0.645744  0.319413  1
  Mo  Mo33  1  0.000000  0.354256  0.680587  1
  W  W34  1  0.000000  0.145811  0.180554  1
  W  W35  1  0.000000  0.854189  0.819446  1
