# generated using pymatgen
data_Ce2DyEr2CoBi2
_symmetry_space_group_name_H-M   'P 1'
_cell_length_a   7.88888300
_cell_length_b   9.03386400
_cell_length_c   12.11641000
_cell_angle_alpha   90.00000000
_cell_angle_beta   90.00000000
_cell_angle_gamma   90.00000000
_symmetry_Int_Tables_number   1
_chemical_formula_structural   Ce2DyEr2CoBi2
_chemical_formula_sum   'Ce8 Dy4 Er8 Co4 Bi8'
_cell_volume   863.50135627
_cell_formula_units_Z   4
loop_
 _symmetry_equiv_pos_site_id
 _symmetry_equiv_pos_as_xyz
  1  'x, y, z'
loop_
 _atom_site_type_symbol
 _atom_site_label
 _atom_site_symmetry_multiplicity
 _atom_site_fract_x
 _atom_site_fract_y
 _atom_site_fract_z
 _atom_site_occupancy
  Ce  Ce0  1  0.655989  0.013521  0.551278  1
  Ce  Ce1  1  0.344011  0.986479  0.448722  1
  Ce  Ce2  1  0.155989  0.986479  0.948722  1
  Ce  Ce3  1  0.344011  0.513521  0.448722  1
  Ce  Ce4  1  0.844011  0.013521  0.051278  1
  Ce  Ce5  1  0.655989  0.486479  0.551278  1
  Ce  Ce6  1  0.844011  0.486479  0.051278  1
  Ce  Ce7  1  0.155989  0.513521  0.948722  1
  Dy  Dy8  1  0.980740  0.750000  0.499613  1
  Dy  Dy9  1  0.019260  0.250000  0.500387  1
  Dy  Dy10  1  0.480740  0.250000  0.000387  1
  Dy  Dy11  1  0.519260  0.750000  0.999613  1
  Er  Er12  1  0.835909  0.750000  0.791236  1
  Er  Er13  1  0.164091  0.250000  0.208764  1
  Er  Er14  1  0.335909  0.250000  0.708764  1
  Er  Er15  1  0.664091  0.750000  0.291236  1
  Er  Er16  1  0.368541  0.750000  0.701118  1
  Er  Er17  1  0.631459  0.250000  0.298882  1
  Er  Er18  1  0.868541  0.250000  0.798882  1
  Er  Er19  1  0.131459  0.750000  0.201118  1
  Co  Co20  1  0.629353  0.750000  0.538370  1
  Co  Co21  1  0.370647  0.250000  0.461630  1
  Co  Co22  1  0.129353  0.250000  0.961630  1
  Co  Co23  1  0.870647  0.750000  0.038370  1
  Bi  Bi24  1  0.567123  0.493206  0.824447  1
  Bi  Bi25  1  0.432877  0.506794  0.175553  1
  Bi  Bi26  1  0.067123  0.506794  0.675553  1
  Bi  Bi27  1  0.432877  0.993206  0.175553  1
  Bi  Bi28  1  0.932877  0.493206  0.324447  1
  Bi  Bi29  1  0.567123  0.006794  0.824447  1
  Bi  Bi30  1  0.932877  0.006794  0.324447  1
  Bi  Bi31  1  0.067123  0.993206  0.675553  1
