# generated using pymatgen
data_Li5Lu6Zn18C
_symmetry_space_group_name_H-M   'P 1'
_cell_length_a   8.95037048
_cell_length_b   8.94003745
_cell_length_c   8.92653200
_cell_angle_alpha   60.04995260
_cell_angle_beta   60.08805836
_cell_angle_gamma   60.08946767
_symmetry_Int_Tables_number   1
_chemical_formula_structural   Li5Lu6Zn18C
_chemical_formula_sum   'Li5 Lu6 Zn18 C1'
_cell_volume   505.93370595
_cell_formula_units_Z   1
loop_
 _symmetry_equiv_pos_site_id
 _symmetry_equiv_pos_as_xyz
  1  'x, y, z'
loop_
 _atom_site_type_symbol
 _atom_site_label
 _atom_site_symmetry_multiplicity
 _atom_site_fract_x
 _atom_site_fract_y
 _atom_site_fract_z
 _atom_site_occupancy
  Li  Li0  1  0.125336  0.121532  0.115007  1
  Li  Li1  1  0.872497  0.879339  0.882103  1
  Li  Li2  1  0.125336  0.121532  0.638127  1
  Li  Li3  1  0.127298  0.638013  0.117345  1
  Li  Li4  1  0.872497  0.879339  0.366059  1
  Lu  Lu5  1  0.690256  0.309738  0.308072  1
  Lu  Lu6  1  0.311241  0.690044  0.689727  1
  Lu  Lu7  1  0.311241  0.690044  0.308989  1
  Lu  Lu8  1  0.690256  0.309738  0.691933  1
  Lu  Lu9  1  0.308814  0.309502  0.690842  1
  Lu  Lu10  1  0.687941  0.691001  0.310529  1
  Zn  Zn11  1  0.882825  0.354906  0.881134  1
  Zn  Zn12  1  0.647966  0.113320  0.119358  1
  Zn  Zn13  1  0.354320  0.880600  0.882539  1
  Zn  Zn14  1  0.498684  0.001447  0.999503  1
  Zn  Zn15  1  0.999867  0.497991  0.503535  1
  Zn  Zn16  1  0.999867  0.497991  0.998607  1
  Zn  Zn17  1  0.498684  0.001447  0.500367  1
  Zn  Zn18  1  0.997456  0.004436  0.499055  1
  Zn  Zn19  1  0.503454  0.496410  0.000068  1
  Zn  Zn20  1  0.326314  0.328520  0.326361  1
  Zn  Zn21  1  0.672134  0.673345  0.672642  1
  Zn  Zn22  1  0.326314  0.328520  0.018807  1
  Zn  Zn23  1  0.325229  0.018193  0.328289  1
  Zn  Zn24  1  0.672134  0.673345  0.981878  1
  Zn  Zn25  1  0.671322  0.983352  0.672663  1
  Zn  Zn26  1  0.017511  0.331027  0.325731  1
  Zn  Zn27  1  0.982724  0.675778  0.670748  1
  Zn  Zn28  1  0.000055  0.000217  0.999864  1
  C  C29  1  0.500426  0.499336  0.500118  1
