# generated using pymatgen
data_Dy5Er15(Bi2Sb)4
_symmetry_space_group_name_H-M   'P 1'
_cell_length_a   8.13661787
_cell_length_b   9.41546323
_cell_length_c   11.90789200
_cell_angle_alpha   89.98890201
_cell_angle_beta   90.02630133
_cell_angle_gamma   90.00953147
_symmetry_Int_Tables_number   1
_chemical_formula_structural   Dy5Er15(Bi2Sb)4
_chemical_formula_sum   'Dy5 Er15 Bi8 Sb4'
_cell_volume   912.26379402
_cell_formula_units_Z   1
loop_
 _symmetry_equiv_pos_site_id
 _symmetry_equiv_pos_as_xyz
  1  'x, y, z'
loop_
 _atom_site_type_symbol
 _atom_site_label
 _atom_site_symmetry_multiplicity
 _atom_site_fract_x
 _atom_site_fract_y
 _atom_site_fract_z
 _atom_site_occupancy
  Dy  Dy0  1  0.188914  0.562388  0.441769  1
  Dy  Dy1  1  0.315581  0.250038  0.217843  1
  Dy  Dy2  1  0.815779  0.250036  0.282089  1
  Dy  Dy3  1  0.684416  0.750100  0.782222  1
  Dy  Dy4  1  0.184486  0.750245  0.718064  1
  Er  Er5  1  0.353507  0.750342  0.214270  1
  Er  Er6  1  0.852697  0.750312  0.285426  1
  Er  Er7  1  0.646992  0.250168  0.785623  1
  Er  Er8  1  0.147125  0.250300  0.714461  1
  Er  Er9  1  0.688919  0.563614  0.058163  1
  Er  Er10  1  0.188911  0.936161  0.441658  1
  Er  Er11  1  0.311023  0.063610  0.941885  1
  Er  Er12  1  0.811284  0.436261  0.558147  1
  Er  Er13  1  0.311169  0.436455  0.941800  1
  Er  Er14  1  0.810589  0.063363  0.558431  1
  Er  Er15  1  0.688957  0.936467  0.058079  1
  Er  Er16  1  0.472988  0.250052  0.488077  1
  Er  Er17  1  0.972851  0.250166  0.011839  1
  Er  Er18  1  0.527342  0.750126  0.511968  1
  Er  Er19  1  0.027139  0.750065  0.988027  1
  Bi  Bi20  1  0.565740  0.995272  0.325906  1
  Bi  Bi21  1  0.065572  0.505084  0.173848  1
  Bi  Bi22  1  0.434314  0.495176  0.674235  1
  Bi  Bi23  1  0.934265  0.005141  0.825972  1
  Bi  Bi24  1  0.434329  0.005094  0.674102  1
  Bi  Bi25  1  0.934120  0.495150  0.825979  1
  Bi  Bi26  1  0.566093  0.504992  0.325815  1
  Bi  Bi27  1  0.065697  0.995139  0.173925  1
  Sb  Sb28  1  0.406122  0.750000  0.959077  1
  Sb  Sb29  1  0.905875  0.750399  0.541006  1
  Sb  Sb30  1  0.593881  0.250034  0.040846  1
  Sb  Sb31  1  0.093324  0.248247  0.459448  1
