# generated using pymatgen
data_AcDy3Rh4F28
_symmetry_space_group_name_H-M   'P 1'
_cell_length_a   5.59189414
_cell_length_b   9.02326731
_cell_length_c   12.12115066
_cell_angle_alpha   62.66455836
_cell_angle_beta   89.82177651
_cell_angle_gamma   89.88567226
_symmetry_Int_Tables_number   1
_chemical_formula_structural   AcDy3Rh4F28
_chemical_formula_sum   'Ac1 Dy3 Rh4 F28'
_cell_volume   543.30086121
_cell_formula_units_Z   1
loop_
 _symmetry_equiv_pos_site_id
 _symmetry_equiv_pos_as_xyz
  1  'x, y, z'
loop_
 _atom_site_type_symbol
 _atom_site_label
 _atom_site_symmetry_multiplicity
 _atom_site_fract_x
 _atom_site_fract_y
 _atom_site_fract_z
 _atom_site_occupancy
  Ac  Ac0  1  0.760863  0.815231  0.766215  1
  Dy  Dy1  1  0.264993  0.202188  0.731061  1
  Dy  Dy2  1  0.238775  0.185747  0.234926  1
  Dy  Dy3  1  0.739395  0.815838  0.264782  1
  Rh  Rh4  1  0.757520  0.263753  0.961028  1
  Rh  Rh5  1  0.254017  0.726441  0.534367  1
  Rh  Rh6  1  0.241780  0.722659  0.054152  1
  Rh  Rh7  1  0.740208  0.280287  0.450616  1
  F  F8  1  0.424317  0.700694  0.925832  1
  F  F9  1  0.937621  0.296212  0.577192  1
  F  F10  1  0.558511  0.288192  0.084040  1
  F  F11  1  0.063035  0.705949  0.408836  1
  F  F12  1  0.448696  0.282726  0.540620  1
  F  F13  1  0.947202  0.712539  0.973572  1
  F  F14  1  0.555474  0.722981  0.451755  1
  F  F15  1  0.050965  0.272191  0.048384  1
  F  F16  1  0.774691  0.502343  0.865372  1
  F  F17  1  0.269962  0.484110  0.631860  1
  F  F18  1  0.232762  0.481209  0.146671  1
  F  F19  1  0.728438  0.520818  0.358650  1
  F  F20  1  0.755014  0.022945  0.053341  1
  F  F21  1  0.252321  0.968857  0.445531  1
  F  F22  1  0.241922  0.960846  0.958501  1
  F  F23  1  0.743414  0.040837  0.539139  1
  F  F24  1  0.962221  0.723247  0.622161  1
  F  F25  1  0.468140  0.268124  0.868060  1
  F  F26  1  0.025063  0.273682  0.358553  1
  F  F27  1  0.533027  0.728999  0.140745  1
  F  F28  1  0.053481  0.745598  0.181184  1
  F  F29  1  0.543789  0.259040  0.324601  1
  F  F30  1  0.955407  0.245406  0.832939  1
  F  F31  1  0.430910  0.740559  0.666423  1
  F  F32  1  0.421208  0.974323  0.232566  1
  F  F33  1  0.920968  0.026719  0.267968  1
  F  F34  1  0.586840  0.054520  0.770369  1
  F  F35  1  0.117048  0.984190  0.727989  1
