# generated using pymatgen
data_Er2VCoB8
_symmetry_space_group_name_H-M   'P 1'
_cell_length_a   3.38791400
_cell_length_b   5.92106440
_cell_length_c   11.44227171
_cell_angle_alpha   89.92122684
_cell_angle_beta   90.00000000
_cell_angle_gamma   90.00000000
_symmetry_Int_Tables_number   1
_chemical_formula_structural   Er2VCoB8
_chemical_formula_sum   'Er4 V2 Co2 B16'
_cell_volume   229.53240533
_cell_formula_units_Z   2
loop_
 _symmetry_equiv_pos_site_id
 _symmetry_equiv_pos_as_xyz
  1  'x, y, z'
loop_
 _atom_site_type_symbol
 _atom_site_label
 _atom_site_symmetry_multiplicity
 _atom_site_fract_x
 _atom_site_fract_y
 _atom_site_fract_z
 _atom_site_occupancy
  Er  Er0  1  0.500000  0.124743  0.847490  1
  Er  Er1  1  0.500000  0.875257  0.152510  1
  Er  Er2  1  0.500000  0.628370  0.648175  1
  Er  Er3  1  0.500000  0.371630  0.351825  1
  V  V4  1  0.500000  0.627367  0.914246  1
  V  V5  1  0.500000  0.372633  0.085754  1
  Co  Co6  1  0.500000  0.135408  0.587581  1
  Co  Co7  1  0.500000  0.864592  0.412419  1
  B  B8  1  0.000000  0.281538  0.682848  1
  B  B9  1  0.000000  0.718462  0.317152  1
  B  B10  1  0.000000  0.787970  0.811516  1
  B  B11  1  0.000000  0.212030  0.188484  1
  B  B12  1  0.000000  0.361255  0.531137  1
  B  B13  1  0.000000  0.638745  0.468863  1
  B  B14  1  0.000000  0.866156  0.966937  1
  B  B15  1  0.000000  0.133844  0.033063  1
  B  B16  1  0.000000  0.020902  0.310288  1
  B  B17  1  0.000000  0.979098  0.689712  1
  B  B18  1  0.000000  0.526182  0.194941  1
  B  B19  1  0.000000  0.473818  0.805059  1
  B  B20  1  0.000000  0.111395  0.453903  1
  B  B21  1  0.000000  0.888605  0.546097  1
  B  B22  1  0.000000  0.615232  0.047311  1
  B  B23  1  0.000000  0.384768  0.952689  1
