# generated using pymatgen
data_Yb6CuSi24Ru7
_symmetry_space_group_name_H-M   'P 1'
_cell_length_a   10.13595559
_cell_length_b   10.13595486
_cell_length_c   8.16326431
_cell_angle_alpha   90.04748920
_cell_angle_beta   90.04749522
_cell_angle_gamma   132.40189987
_symmetry_Int_Tables_number   1
_chemical_formula_structural   Yb6CuSi24Ru7
_chemical_formula_sum   'Yb6 Cu1 Si24 Ru7'
_cell_volume   619.30330010
_cell_formula_units_Z   1
loop_
 _symmetry_equiv_pos_site_id
 _symmetry_equiv_pos_as_xyz
  1  'x, y, z'
loop_
 _atom_site_type_symbol
 _atom_site_label
 _atom_site_symmetry_multiplicity
 _atom_site_fract_x
 _atom_site_fract_y
 _atom_site_fract_z
 _atom_site_occupancy
  Yb  Yb0  1  0.997845  0.002155  0.000000  1
  Yb  Yb1  1  0.500605  0.499395  0.500000  1
  Yb  Yb2  1  0.003472  0.502206  0.250564  1
  Yb  Yb3  1  0.997750  0.497259  0.750993  1
  Yb  Yb4  1  0.497794  0.996528  0.749436  1
  Yb  Yb5  1  0.502741  0.002250  0.249007  1
  Cu  Cu6  1  0.830420  0.169580  0.000000  1
  Si  Si7  1  0.701456  0.298544  0.000000  1
  Si  Si8  1  0.293993  0.706007  0.000000  1
  Si  Si9  1  0.793277  0.206723  0.500000  1
  Si  Si10  1  0.204608  0.795392  0.500000  1
  Si  Si11  1  0.337571  0.329085  0.167859  1
  Si  Si12  1  0.670915  0.662429  0.832141  1
  Si  Si13  1  0.168602  0.165448  0.666965  1
  Si  Si14  1  0.834552  0.831398  0.333035  1
  Si  Si15  1  0.847710  0.616302  0.002542  1
  Si  Si16  1  0.162728  0.395600  0.995397  1
  Si  Si17  1  0.651844  0.884433  0.504062  1
  Si  Si18  1  0.115567  0.348156  0.495938  1
  Si  Si19  1  0.346460  0.113328  0.491723  1
  Si  Si20  1  0.886672  0.653540  0.508277  1
  Si  Si21  1  0.383698  0.152290  0.997458  1
  Si  Si22  1  0.604400  0.837272  0.004603  1
  Si  Si23  1  0.884903  0.117270  0.279366  1
  Si  Si24  1  0.106411  0.874343  0.731369  1
  Si  Si25  1  0.611790  0.379167  0.769634  1
  Si  Si26  1  0.620833  0.388210  0.230366  1
  Si  Si27  1  0.393704  0.625443  0.232113  1
  Si  Si28  1  0.374557  0.606296  0.767887  1
  Si  Si29  1  0.882730  0.115097  0.720634  1
  Si  Si30  1  0.125657  0.893589  0.268631  1
  Ru  Ru31  1  0.169574  0.830426  0.000000  1
  Ru  Ru32  1  0.668720  0.331280  0.500000  1
  Ru  Ru33  1  0.330291  0.669709  0.500000  1
  Ru  Ru34  1  0.124536  0.127361  0.373906  1
  Ru  Ru35  1  0.872639  0.875464  0.626094  1
  Ru  Ru36  1  0.372731  0.373755  0.874109  1
  Ru  Ru37  1  0.626245  0.627269  0.125891  1
