# generated using pymatgen
data_Y10InSb5
_symmetry_space_group_name_H-M   'P 1'
_cell_length_a   6.41271700
_cell_length_b   9.01029982
_cell_length_c   8.99858134
_cell_angle_alpha   120.04309528
_cell_angle_beta   90.00016326
_cell_angle_gamma   89.99967066
_symmetry_Int_Tables_number   1
_chemical_formula_structural   Y10InSb5
_chemical_formula_sum   'Y10 In1 Sb5'
_cell_volume   450.08779477
_cell_formula_units_Z   1
loop_
 _symmetry_equiv_pos_site_id
 _symmetry_equiv_pos_as_xyz
  1  'x, y, z'
loop_
 _atom_site_type_symbol
 _atom_site_label
 _atom_site_symmetry_multiplicity
 _atom_site_fract_x
 _atom_site_fract_y
 _atom_site_fract_z
 _atom_site_occupancy
  Y  Y0  1  0.499127  0.334433  0.668341  1
  Y  Y1  1  0.499127  0.666092  0.331659  1
  Y  Y2  1  0.000865  0.666093  0.331656  1
  Y  Y3  1  0.000865  0.334437  0.668344  1
  Y  Y4  1  0.750000  0.245024  0.000000  1
  Y  Y5  1  0.750001  0.753788  0.757151  1
  Y  Y6  1  0.750001  0.996637  0.242849  1
  Y  Y7  1  0.249997  0.756439  0.000000  1
  Y  Y8  1  0.249998  0.246951  0.245016  1
  Y  Y9  1  0.249998  0.001935  0.754984  1
  In  In10  1  0.750027  0.607188  0.000000  1
  Sb  Sb11  1  0.750002  0.388371  0.389106  1
  Sb  Sb12  1  0.750002  0.999264  0.610894  1
  Sb  Sb13  1  0.249998  0.390658  0.000000  1
  Sb  Sb14  1  0.249999  0.611768  0.610848  1
  Sb  Sb15  1  0.249999  0.000921  0.389152  1
