# generated using pymatgen
data_PmSmCo4
_symmetry_space_group_name_H-M   'P 1'
_cell_length_a   3.88003600
_cell_length_b   3.88003622
_cell_length_c   8.29658500
_cell_angle_alpha   90.00000000
_cell_angle_beta   90.00000000
_cell_angle_gamma   119.99999811
_symmetry_Int_Tables_number   1
_chemical_formula_structural   PmSmCo4
_chemical_formula_sum   'Pm1 Sm1 Co4'
_cell_volume   108.16868300
_cell_formula_units_Z   1
loop_
 _symmetry_equiv_pos_site_id
 _symmetry_equiv_pos_as_xyz
  1  'x, y, z'
loop_
 _atom_site_type_symbol
 _atom_site_label
 _atom_site_symmetry_multiplicity
 _atom_site_fract_x
 _atom_site_fract_y
 _atom_site_fract_z
 _atom_site_occupancy
  Pm  Pm0  1  0.000000  0.000000  0.500000  1
  Sm  Sm1  1  0.000000  0.000000  0.000000  1
  Co  Co2  1  0.666667  0.333333  0.248628  1
  Co  Co3  1  0.333333  0.666666  0.248628  1
  Co  Co4  1  0.666667  0.333333  0.751372  1
  Co  Co5  1  0.333333  0.666666  0.751372  1
