# generated using pymatgen
data_PrHo2As4Pd7
_symmetry_space_group_name_H-M   'P 1'
_cell_length_a   8.13453567
_cell_length_b   8.13453642
_cell_length_c   9.73382194
_cell_angle_alpha   55.90427033
_cell_angle_beta   55.90426706
_cell_angle_gamma   29.46250775
_symmetry_Int_Tables_number   1
_chemical_formula_structural   PrHo2As4Pd7
_chemical_formula_sum   'Pr1 Ho2 As4 Pd7'
_cell_volume   258.15383288
_cell_formula_units_Z   1
loop_
 _symmetry_equiv_pos_site_id
 _symmetry_equiv_pos_as_xyz
  1  'x, y, z'
loop_
 _atom_site_type_symbol
 _atom_site_label
 _atom_site_symmetry_multiplicity
 _atom_site_fract_x
 _atom_site_fract_y
 _atom_site_fract_z
 _atom_site_occupancy
  Pr  Pr0  1  0.000000  0.000000  0.000000  1
  Ho  Ho1  1  0.675606  0.675606  0.331661  1
  Ho  Ho2  1  0.324394  0.324394  0.668339  1
  As  As3  1  0.337009  0.337009  0.257297  1
  As  As4  1  0.662991  0.662991  0.742703  1
  As  As5  1  0.892359  0.892359  0.819783  1
  As  As6  1  0.107641  0.107641  0.180217  1
  Pd  Pd7  1  0.306479  0.306479  0.026000  1
  Pd  Pd8  1  0.693521  0.693521  0.974000  1
  Pd  Pd9  1  0.512451  0.512451  0.702820  1
  Pd  Pd10  1  0.831669  0.831669  0.430854  1
  Pd  Pd11  1  0.487549  0.487549  0.297180  1
  Pd  Pd12  1  0.168331  0.168331  0.569146  1
  Pd  Pd13  1  0.000000  0.000000  0.500000  1
