# generated using pymatgen
data_CaDy2(BPt2)3
_symmetry_space_group_name_H-M   'P 1'
_cell_length_a   5.40181500
_cell_length_b   5.43078637
_cell_length_c   7.83047300
_cell_angle_alpha   90.00000000
_cell_angle_beta   90.00000000
_cell_angle_gamma   120.17756771
_symmetry_Int_Tables_number   1
_chemical_formula_structural   CaDy2(BPt2)3
_chemical_formula_sum   'Ca1 Dy2 B3 Pt6'
_cell_volume   198.58259935
_cell_formula_units_Z   1
loop_
 _symmetry_equiv_pos_site_id
 _symmetry_equiv_pos_as_xyz
  1  'x, y, z'
loop_
 _atom_site_type_symbol
 _atom_site_label
 _atom_site_symmetry_multiplicity
 _atom_site_fract_x
 _atom_site_fract_y
 _atom_site_fract_z
 _atom_site_occupancy
  Ca  Ca0  1  0.000000  0.500000  0.666667  1
  Dy  Dy1  1  0.500000  0.500000  0.336457  1
  Dy  Dy2  1  0.500000  0.000000  0.996876  1
  B  B3  1  0.000000  0.500000  0.166667  1
  B  B4  1  0.500000  0.500000  0.831324  1
  B  B5  1  0.500000  0.000000  0.502009  1
  Pt  Pt6  1  0.298086  0.149043  0.666667  1
  Pt  Pt7  1  0.155028  0.853635  0.330985  1
  Pt  Pt8  1  0.844972  0.698609  0.002348  1
  Pt  Pt9  1  0.844972  0.146365  0.330985  1
  Pt  Pt10  1  0.155028  0.301391  0.002348  1
  Pt  Pt11  1  0.701914  0.850957  0.666667  1
