# generated using pymatgen
data_Ti19ReSi15Ge
_symmetry_space_group_name_H-M   'P 1'
_cell_length_a   6.69282454
_cell_length_b   6.68708101
_cell_length_c   12.19966417
_cell_angle_alpha   89.95972291
_cell_angle_beta   90.10892111
_cell_angle_gamma   90.01969969
_symmetry_Int_Tables_number   1
_chemical_formula_structural   Ti19ReSi15Ge
_chemical_formula_sum   'Ti19 Re1 Si15 Ge1'
_cell_volume   546.00042646
_cell_formula_units_Z   1
loop_
 _symmetry_equiv_pos_site_id
 _symmetry_equiv_pos_as_xyz
  1  'x, y, z'
loop_
 _atom_site_type_symbol
 _atom_site_label
 _atom_site_symmetry_multiplicity
 _atom_site_fract_x
 _atom_site_fract_y
 _atom_site_fract_z
 _atom_site_occupancy
  Ti  Ti0  1  0.996904  0.148159  0.621072  1
  Ti  Ti1  1  0.352390  0.497517  0.871191  1
  Ti  Ti2  1  0.650009  0.504324  0.371374  1
  Ti  Ti3  1  0.496884  0.350334  0.129076  1
  Ti  Ti4  1  0.504771  0.650772  0.628368  1
  Ti  Ti5  1  0.005848  0.849430  0.120731  1
  Ti  Ti6  1  0.148706  0.996277  0.376889  1
  Ti  Ti7  1  0.848045  0.002764  0.880869  1
  Ti  Ti8  1  0.003384  0.345566  0.219417  1
  Ti  Ti9  1  0.155219  0.502518  0.468777  1
  Ti  Ti10  1  0.837379  0.500584  0.972439  1
  Ti  Ti11  1  0.503649  0.154471  0.530792  1
  Ti  Ti12  1  0.497969  0.840684  0.030189  1
  Ti  Ti13  1  0.996782  0.662224  0.718979  1
  Ti  Ti14  1  0.347593  0.001743  0.780524  1
  Ti  Ti15  1  0.657463  0.997257  0.280054  1
  Ti  Ti16  1  0.328740  0.670199  0.248662  1
  Ti  Ti17  1  0.666670  0.328457  0.750692  1
  Ti  Ti18  1  0.828858  0.828919  0.499812  1
  Re  Re19  1  0.173453  0.169780  0.002031  1
  Si  Si20  1  0.198636  0.540528  0.063215  1
  Si  Si21  1  0.801345  0.455413  0.564075  1
  Si  Si22  1  0.541092  0.198606  0.936856  1
  Si  Si23  1  0.455312  0.800993  0.435679  1
  Si  Si24  1  0.955810  0.698187  0.313687  1
  Si  Si25  1  0.301631  0.044322  0.185989  1
  Si  Si26  1  0.699537  0.956161  0.686413  1
  Si  Si27  1  0.297337  0.357688  0.670868  1
  Si  Si28  1  0.142069  0.795097  0.921699  1
  Si  Si29  1  0.857739  0.205633  0.423393  1
  Si  Si30  1  0.795238  0.141426  0.078692  1
  Si  Si31  1  0.206390  0.857911  0.575657  1
  Si  Si32  1  0.705456  0.642994  0.173461  1
  Si  Si33  1  0.357836  0.294857  0.326781  1
  Si  Si34  1  0.643221  0.704969  0.826526  1
  Ge  Ge35  1  0.040635  0.303236  0.815072  1
