# generated using pymatgen
data_TlH3Se2
_symmetry_space_group_name_H-M   'P 1'
_cell_length_a   7.53043897
_cell_length_b   7.53043830
_cell_length_c   6.85599234
_cell_angle_alpha   113.73873247
_cell_angle_beta   113.73872850
_cell_angle_gamma   77.04840637
_symmetry_Int_Tables_number   1
_chemical_formula_structural   TlH3Se2
_chemical_formula_sum   'Tl2 H6 Se4'
_cell_volume   324.88461743
_cell_formula_units_Z   2
loop_
 _symmetry_equiv_pos_site_id
 _symmetry_equiv_pos_as_xyz
  1  'x, y, z'
loop_
 _atom_site_type_symbol
 _atom_site_label
 _atom_site_symmetry_multiplicity
 _atom_site_fract_x
 _atom_site_fract_y
 _atom_site_fract_z
 _atom_site_occupancy
  Tl  Tl0  1  0.735547  0.264453  0.000000  1
  Tl  Tl1  1  0.264453  0.735547  0.000000  1
  H  H2  1  0.743297  0.743297  0.045103  1
  H  H3  1  0.723034  0.062339  0.409981  1
  H  H4  1  0.062339  0.723034  0.409981  1
  H  H5  1  0.937660  0.276966  0.590017  1
  H  H6  1  0.276966  0.937660  0.590017  1
  H  H7  1  0.256704  0.256704  0.954897  1
  Se  Se8  1  0.714391  0.714391  0.231484  1
  Se  Se9  1  0.716880  0.283120  0.500000  1
  Se  Se10  1  0.283120  0.716880  0.500000  1
  Se  Se11  1  0.285609  0.285609  0.768514  1
