# generated using pymatgen
data_Y6Ti(Fe3Co8)2
_symmetry_space_group_name_H-M   'P 1'
_cell_length_a   8.38191727
_cell_length_b   8.38375404
_cell_length_c   8.38259000
_cell_angle_alpha   59.99985813
_cell_angle_beta   60.00009182
_cell_angle_gamma   59.99380414
_symmetry_Int_Tables_number   1
_chemical_formula_structural   Y6Ti(Fe3Co8)2
_chemical_formula_sum   'Y6 Ti1 Fe6 Co16'
_cell_volume   416.50922177
_cell_formula_units_Z   1
loop_
 _symmetry_equiv_pos_site_id
 _symmetry_equiv_pos_as_xyz
  1  'x, y, z'
loop_
 _atom_site_type_symbol
 _atom_site_label
 _atom_site_symmetry_multiplicity
 _atom_site_fract_x
 _atom_site_fract_y
 _atom_site_fract_z
 _atom_site_occupancy
  Y  Y0  1  0.711525  0.711878  0.288481  1
  Y  Y1  1  0.288315  0.711677  0.288257  1
  Y  Y2  1  0.711505  0.288139  0.288429  1
  Y  Y3  1  0.288475  0.288122  0.711519  1
  Y  Y4  1  0.711685  0.288323  0.711743  1
  Y  Y5  1  0.288495  0.711861  0.711571  1
  Ti  Ti6  1  0.000000  0.000000  0.000000  1
  Fe  Fe7  1  0.000000  0.000000  0.500000  1
  Fe  Fe8  1  0.500000  0.000000  0.500000  1
  Fe  Fe9  1  0.000000  0.500000  0.500000  1
  Fe  Fe10  1  0.500000  0.500000  0.000000  1
  Fe  Fe11  1  0.000000  0.500000  0.000000  1
  Fe  Fe12  1  0.500000  0.000000  0.000000  1
  Co  Co13  1  0.875414  0.875413  0.373725  1
  Co  Co14  1  0.875457  0.373599  0.875447  1
  Co  Co15  1  0.373631  0.875436  0.875429  1
  Co  Co16  1  0.875452  0.875423  0.875409  1
  Co  Co17  1  0.124586  0.124587  0.626275  1
  Co  Co18  1  0.124543  0.626401  0.124553  1
  Co  Co19  1  0.626369  0.124564  0.124571  1
  Co  Co20  1  0.124548  0.124577  0.124591  1
  Co  Co21  1  0.676844  0.676967  0.969128  1
  Co  Co22  1  0.676824  0.969315  0.676846  1
  Co  Co23  1  0.969156  0.676967  0.676858  1
  Co  Co24  1  0.676863  0.676991  0.676917  1
  Co  Co25  1  0.323156  0.323033  0.030872  1
  Co  Co26  1  0.323176  0.030685  0.323154  1
  Co  Co27  1  0.030844  0.323033  0.323142  1
  Co  Co28  1  0.323137  0.323009  0.323083  1
