# generated using pymatgen
data_Er4Si6IrRh
_symmetry_space_group_name_H-M   'P 1'
_cell_length_a   8.14843400
_cell_length_b   8.14843413
_cell_length_c   7.82557500
_cell_angle_alpha   90.00000000
_cell_angle_beta   90.00000000
_cell_angle_gamma   119.99999946
_symmetry_Int_Tables_number   1
_chemical_formula_structural   Er4Si6IrRh
_chemical_formula_sum   'Er8 Si12 Ir2 Rh2'
_cell_volume   449.98206436
_cell_formula_units_Z   2
loop_
 _symmetry_equiv_pos_site_id
 _symmetry_equiv_pos_as_xyz
  1  'x, y, z'
loop_
 _atom_site_type_symbol
 _atom_site_label
 _atom_site_symmetry_multiplicity
 _atom_site_fract_x
 _atom_site_fract_y
 _atom_site_fract_z
 _atom_site_occupancy
  Er  Er0  1  0.981079  0.490540  0.249746  1
  Er  Er1  1  0.509460  0.490540  0.249746  1
  Er  Er2  1  0.490540  0.981079  0.750254  1
  Er  Er3  1  0.018921  0.509460  0.750254  1
  Er  Er4  1  0.490540  0.509460  0.750254  1
  Er  Er5  1  0.509460  0.018921  0.249746  1
  Er  Er6  1  0.000000  0.000000  0.748753  1
  Er  Er7  1  0.000000  0.000000  0.251247  1
  Si  Si8  1  0.166874  0.833126  0.500004  1
  Si  Si9  1  0.166874  0.333747  0.500004  1
  Si  Si10  1  0.666253  0.833126  0.500004  1
  Si  Si11  1  0.333214  0.166607  0.999171  1
  Si  Si12  1  0.833126  0.666253  0.499996  1
  Si  Si13  1  0.833393  0.166607  0.999171  1
  Si  Si14  1  0.833393  0.666786  0.999171  1
  Si  Si15  1  0.166607  0.333214  0.000829  1
  Si  Si16  1  0.666786  0.833393  0.000829  1
  Si  Si17  1  0.333747  0.166874  0.499996  1
  Si  Si18  1  0.833126  0.166874  0.499996  1
  Si  Si19  1  0.166607  0.833393  0.000829  1
  Ir  Ir20  1  0.333333  0.666667  0.032201  1
  Ir  Ir21  1  0.666667  0.333333  0.967799  1
  Rh  Rh22  1  0.666667  0.333333  0.536474  1
  Rh  Rh23  1  0.333333  0.666667  0.463526  1
