# generated using pymatgen
data_Li2Tb3MgSi2Ag
_symmetry_space_group_name_H-M   'P 1'
_cell_length_a   7.21262315
_cell_length_b   7.21262186
_cell_length_c   4.24407900
_cell_angle_alpha   90.00000000
_cell_angle_beta   90.00000000
_cell_angle_gamma   119.37831094
_symmetry_Int_Tables_number   1
_chemical_formula_structural   Li2Tb3MgSi2Ag
_chemical_formula_sum   'Li2 Tb3 Mg1 Si2 Ag1'
_cell_volume   192.39208883
_cell_formula_units_Z   1
loop_
 _symmetry_equiv_pos_site_id
 _symmetry_equiv_pos_as_xyz
  1  'x, y, z'
loop_
 _atom_site_type_symbol
 _atom_site_label
 _atom_site_symmetry_multiplicity
 _atom_site_fract_x
 _atom_site_fract_y
 _atom_site_fract_z
 _atom_site_occupancy
  Li  Li0  1  0.249683  0.000425  0.500000  1
  Li  Li1  1  0.000425  0.249683  0.500000  1
  Tb  Tb2  1  0.573248  0.002415  0.000000  1
  Tb  Tb3  1  0.002415  0.573248  0.000000  1
  Tb  Tb4  1  0.419758  0.419758  0.000000  1
  Mg  Mg5  1  0.755290  0.755290  0.500000  1
  Si  Si6  1  0.331136  0.665988  0.500000  1
  Si  Si7  1  0.665988  0.331136  0.500000  1
  Ag  Ag8  1  0.002057  0.002057  0.000000  1
