# generated using pymatgen
data_Mn2P4PbO14
_symmetry_space_group_name_H-M   'P 1'
_cell_length_a   4.85748554
_cell_length_b   7.26220762
_cell_length_c   8.16067672
_cell_angle_alpha   86.48711650
_cell_angle_beta   94.92199302
_cell_angle_gamma   108.46696378
_symmetry_Int_Tables_number   1
_chemical_formula_structural   Mn2P4PbO14
_chemical_formula_sum   'Mn2 P4 Pb1 O14'
_cell_volume   271.86878227
_cell_formula_units_Z   1
loop_
 _symmetry_equiv_pos_site_id
 _symmetry_equiv_pos_as_xyz
  1  'x, y, z'
loop_
 _atom_site_type_symbol
 _atom_site_label
 _atom_site_symmetry_multiplicity
 _atom_site_fract_x
 _atom_site_fract_y
 _atom_site_fract_z
 _atom_site_occupancy
  Mn  Mn0  1  0.000000  0.000000  0.500000  1
  Mn  Mn1  1  0.500000  0.500000  0.000000  1
  P  P2  1  0.396218  0.778727  0.292091  1
  P  P3  1  0.603782  0.221273  0.707909  1
  P  P4  1  0.979950  0.382183  0.244234  1
  P  P5  1  0.020050  0.617817  0.755766  1
  Pb  Pb6  1  0.000000  0.000000  0.000000  1
  O  O7  1  0.505788  0.775046  0.120500  1
  O  O8  1  0.494212  0.224954  0.879500  1
  O  O9  1  0.194001  0.903671  0.287106  1
  O  O10  1  0.805999  0.096329  0.712894  1
  O  O11  1  0.630509  0.819176  0.434377  1
  O  O12  1  0.297469  0.564467  0.803304  1
  O  O13  1  0.702531  0.435533  0.196696  1
  O  O14  1  0.874011  0.647197  0.910758  1
  O  O15  1  0.125989  0.352803  0.089242  1
  O  O16  1  0.092019  0.801583  0.648330  1
  O  O17  1  0.907981  0.198417  0.351670  1
  O  O18  1  0.793421  0.444792  0.657383  1
  O  O19  1  0.206579  0.555208  0.342617  1
  O  O20  1  0.369491  0.180824  0.565623  1
