# generated using pymatgen
data_Dy2Ho2Mg3ZnIr4
_symmetry_space_group_name_H-M   'P 1'
_cell_length_a   4.07857900
_cell_length_b   7.03546561
_cell_length_c   8.43404407
_cell_angle_alpha   89.83495580
_cell_angle_beta   90.00000000
_cell_angle_gamma   90.00000000
_symmetry_Int_Tables_number   1
_chemical_formula_structural   Dy2Ho2Mg3ZnIr4
_chemical_formula_sum   'Dy2 Ho2 Mg3 Zn1 Ir4'
_cell_volume   242.01137976
_cell_formula_units_Z   1
loop_
 _symmetry_equiv_pos_site_id
 _symmetry_equiv_pos_as_xyz
  1  'x, y, z'
loop_
 _atom_site_type_symbol
 _atom_site_label
 _atom_site_symmetry_multiplicity
 _atom_site_fract_x
 _atom_site_fract_y
 _atom_site_fract_z
 _atom_site_occupancy
  Dy  Dy0  1  0.250000  0.535903  0.181047  1
  Dy  Dy1  1  0.750000  0.458362  0.821939  1
  Ho  Ho2  1  0.250000  0.046976  0.328705  1
  Ho  Ho3  1  0.750000  0.962441  0.673437  1
  Mg  Mg4  1  0.250000  0.135513  0.938665  1
  Mg  Mg5  1  0.750000  0.864043  0.060928  1
  Mg  Mg6  1  0.250000  0.631422  0.556927  1
  Zn  Zn7  1  0.750000  0.365819  0.438253  1
  Ir  Ir8  1  0.750000  0.747930  0.372463  1
  Ir  Ir9  1  0.250000  0.254034  0.625420  1
  Ir  Ir10  1  0.750000  0.247903  0.132661  1
  Ir  Ir11  1  0.250000  0.749653  0.869556  1
