# generated using pymatgen
data_Nd3Er3CoI10
_symmetry_space_group_name_H-M   'P 1'
_cell_length_a   7.78308066
_cell_length_b   9.85403996
_cell_length_c   9.76249263
_cell_angle_alpha   107.18219093
_cell_angle_beta   96.13756573
_cell_angle_gamma   104.97669979
_symmetry_Int_Tables_number   1
_chemical_formula_structural   Nd3Er3CoI10
_chemical_formula_sum   'Nd3 Er3 Co1 I10'
_cell_volume   677.25838728
_cell_formula_units_Z   1
loop_
 _symmetry_equiv_pos_site_id
 _symmetry_equiv_pos_as_xyz
  1  'x, y, z'
loop_
 _atom_site_type_symbol
 _atom_site_label
 _atom_site_symmetry_multiplicity
 _atom_site_fract_x
 _atom_site_fract_y
 _atom_site_fract_z
 _atom_site_occupancy
  Nd  Nd0  1  0.030109  0.711380  0.912115  1
  Nd  Nd1  1  0.888166  0.959877  0.232637  1
  Nd  Nd2  1  0.114121  0.041174  0.768833  1
  Er  Er3  1  0.338384  0.122762  0.160806  1
  Er  Er4  1  0.661222  0.881666  0.839900  1
  Er  Er5  1  0.969868  0.276376  0.084555  1
  Co  Co6  1  0.000466  0.000171  0.000404  1
  I  I7  1  0.344578  0.444249  0.267431  1
  I  I8  1  0.638486  0.555787  0.727696  1
  I  I9  1  0.770813  0.259454  0.339822  1
  I  I10  1  0.237643  0.746693  0.653636  1
  I  I11  1  0.551597  0.182869  0.912341  1
  I  I12  1  0.455146  0.822822  0.092203  1
  I  I13  1  0.737151  0.912717  0.544350  1
  I  I14  1  0.266269  0.089847  0.456000  1
  I  I15  1  0.913784  0.622780  0.183629  1
  I  I16  1  0.082198  0.369376  0.823642  1
