# generated using pymatgen
data_Nd3Sm3(Y7Sn8)2
_symmetry_space_group_name_H-M   'P 1'
_cell_length_a   8.10567524
_cell_length_b   8.26164114
_cell_length_c   15.60665142
_cell_angle_alpha   90.03931883
_cell_angle_beta   89.95171372
_cell_angle_gamma   90.04093725
_symmetry_Int_Tables_number   1
_chemical_formula_structural   Nd3Sm3(Y7Sn8)2
_chemical_formula_sum   'Nd3 Sm3 Y14 Sn16'
_cell_volume   1045.11694401
_cell_formula_units_Z   1
loop_
 _symmetry_equiv_pos_site_id
 _symmetry_equiv_pos_as_xyz
  1  'x, y, z'
loop_
 _atom_site_type_symbol
 _atom_site_label
 _atom_site_symmetry_multiplicity
 _atom_site_fract_x
 _atom_site_fract_y
 _atom_site_fract_z
 _atom_site_occupancy
  Nd  Nd0  1  0.481956  0.679328  0.403208  1
  Nd  Nd1  1  0.982004  0.820947  0.096675  1
  Nd  Nd2  1  0.481827  0.678542  0.096850  1
  Sm  Sm3  1  0.981497  0.821541  0.402999  1
  Sm  Sm4  1  0.517539  0.320202  0.597341  1
  Sm  Sm5  1  0.017479  0.179831  0.902624  1
  Y  Y6  1  0.364789  0.836225  0.877178  1
  Y  Y7  1  0.865019  0.663920  0.622631  1
  Y  Y8  1  0.634399  0.164111  0.378354  1
  Y  Y9  1  0.134332  0.335677  0.121813  1
  Y  Y10  1  0.634490  0.164437  0.121880  1
  Y  Y11  1  0.134338  0.335536  0.378191  1
  Y  Y12  1  0.365231  0.836833  0.622756  1
  Y  Y13  1  0.865124  0.663113  0.877161  1
  Y  Y14  1  0.519967  0.320965  0.901245  1
  Y  Y15  1  0.020065  0.178809  0.598646  1
  Y  Y16  1  0.197970  0.501887  0.750140  1
  Y  Y17  1  0.698031  0.998094  0.749806  1
  Y  Y18  1  0.802181  0.496887  0.250112  1
  Y  Y19  1  0.301767  0.003041  0.250297  1
  Sn  Sn20  1  0.297750  0.039384  0.041188  1
  Sn  Sn21  1  0.798114  0.461525  0.458656  1
  Sn  Sn22  1  0.705836  0.964358  0.542708  1
  Sn  Sn23  1  0.204709  0.535161  0.956840  1
  Sn  Sn24  1  0.701361  0.963674  0.957160  1
  Sn  Sn25  1  0.201204  0.536531  0.542737  1
  Sn  Sn26  1  0.294346  0.039613  0.459560  1
  Sn  Sn27  1  0.795638  0.459477  0.040170  1
  Sn  Sn28  1  0.563710  0.620088  0.749904  1
  Sn  Sn29  1  0.063705  0.879998  0.750044  1
  Sn  Sn30  1  0.435622  0.378041  0.250062  1
  Sn  Sn31  1  0.935707  0.121399  0.250135  1
  Sn  Sn32  1  0.327833  0.145689  0.750714  1
  Sn  Sn33  1  0.827772  0.354312  0.749279  1
  Sn  Sn34  1  0.674108  0.857406  0.250236  1
  Sn  Sn35  1  0.172587  0.643420  0.250700  1
