# generated using pymatgen
data_Ce3Tm2Ir3
_symmetry_space_group_name_H-M   'P 1'
_cell_length_a   10.97997900
_cell_length_b   11.05198800
_cell_length_c   6.26246400
_cell_angle_alpha   90.00000000
_cell_angle_beta   90.00000000
_cell_angle_gamma   90.00000000
_symmetry_Int_Tables_number   1
_chemical_formula_structural   Ce3Tm2Ir3
_chemical_formula_sum   'Ce12 Tm8 Ir12'
_cell_volume   759.95373976
_cell_formula_units_Z   4
loop_
 _symmetry_equiv_pos_site_id
 _symmetry_equiv_pos_as_xyz
  1  'x, y, z'
loop_
 _atom_site_type_symbol
 _atom_site_label
 _atom_site_symmetry_multiplicity
 _atom_site_fract_x
 _atom_site_fract_y
 _atom_site_fract_z
 _atom_site_occupancy
  Ce  Ce0  1  0.288305  0.090794  0.378876  1
  Ce  Ce1  1  0.288305  0.909206  0.878876  1
  Ce  Ce2  1  0.711695  0.090794  0.878876  1
  Ce  Ce3  1  0.711695  0.909206  0.378876  1
  Ce  Ce4  1  0.592691  0.785858  0.882173  1
  Ce  Ce5  1  0.592691  0.214142  0.382173  1
  Ce  Ce6  1  0.407309  0.785858  0.382173  1
  Ce  Ce7  1  0.407309  0.214142  0.882173  1
  Ce  Ce8  1  0.205993  0.411372  0.618367  1
  Ce  Ce9  1  0.205993  0.588628  0.118367  1
  Ce  Ce10  1  0.794007  0.411372  0.118367  1
  Ce  Ce11  1  0.794007  0.588628  0.618367  1
  Tm  Tm12  1  0.915626  0.712163  0.118598  1
  Tm  Tm13  1  0.915626  0.287837  0.618598  1
  Tm  Tm14  1  0.084374  0.712163  0.618598  1
  Tm  Tm15  1  0.084374  0.287837  0.118598  1
  Tm  Tm16  1  0.000000  0.000000  0.497575  1
  Tm  Tm17  1  0.000000  0.000000  0.997575  1
  Tm  Tm18  1  0.500000  0.500000  0.006702  1
  Tm  Tm19  1  0.500000  0.500000  0.506702  1
  Ir  Ir20  1  0.846290  0.152047  0.244670  1
  Ir  Ir21  1  0.846290  0.847953  0.744670  1
  Ir  Ir22  1  0.153710  0.152047  0.744670  1
  Ir  Ir23  1  0.153710  0.847953  0.244670  1
  Ir  Ir24  1  0.655427  0.344353  0.754205  1
  Ir  Ir25  1  0.655427  0.655647  0.254205  1
  Ir  Ir26  1  0.344573  0.344353  0.254205  1
  Ir  Ir27  1  0.344573  0.655647  0.754205  1
  Ir  Ir28  1  0.500000  0.000000  0.120661  1
  Ir  Ir29  1  0.500000  0.000000  0.620661  1
  Ir  Ir30  1  0.000000  0.500000  0.881283  1
  Ir  Ir31  1  0.000000  0.500000  0.381283  1
