# generated using pymatgen
data_TbEr(BiO4)2
_symmetry_space_group_name_H-M   'P 1'
_cell_length_a   5.52800880
_cell_length_b   7.87246123
_cell_length_c   7.83350724
_cell_angle_alpha   82.88520004
_cell_angle_beta   90.40095901
_cell_angle_gamma   92.49303408
_symmetry_Int_Tables_number   1
_chemical_formula_structural   TbEr(BiO4)2
_chemical_formula_sum   'Tb2 Er2 Bi4 O16'
_cell_volume   337.96106268
_cell_formula_units_Z   2
loop_
 _symmetry_equiv_pos_site_id
 _symmetry_equiv_pos_as_xyz
  1  'x, y, z'
loop_
 _atom_site_type_symbol
 _atom_site_label
 _atom_site_symmetry_multiplicity
 _atom_site_fract_x
 _atom_site_fract_y
 _atom_site_fract_z
 _atom_site_occupancy
  Tb  Tb0  1  0.254367  0.124921  0.621685  1
  Tb  Tb1  1  0.745633  0.875079  0.378315  1
  Er  Er2  1  0.216689  0.153039  0.116913  1
  Er  Er3  1  0.783311  0.846961  0.883087  1
  Bi  Bi4  1  0.241037  0.664351  0.182805  1
  Bi  Bi5  1  0.758963  0.335649  0.817195  1
  Bi  Bi6  1  0.725170  0.336867  0.318784  1
  Bi  Bi7  1  0.274830  0.663133  0.681216  1
  O  O8  1  0.090657  0.419301  0.677185  1
  O  O9  1  0.909343  0.580699  0.322815  1
  O  O10  1  0.583301  0.319748  0.571182  1
  O  O11  1  0.416699  0.680252  0.428818  1
  O  O12  1  0.899449  0.327052  0.072729  1
  O  O13  1  0.100551  0.672948  0.927271  1
  O  O14  1  0.393156  0.418079  0.186674  1
  O  O15  1  0.606844  0.581921  0.813326  1
  O  O16  1  0.038295  0.895291  0.168508  1
  O  O17  1  0.961705  0.104709  0.831492  1
  O  O18  1  0.501020  0.103071  0.321396  1
  O  O19  1  0.498980  0.896929  0.678604  1
  O  O20  1  0.450172  0.182394  0.887357  1
  O  O21  1  0.549828  0.817606  0.112643  1
  O  O22  1  0.995700  0.157517  0.386220  1
  O  O23  1  0.004300  0.842483  0.613780  1
