# generated using pymatgen
data_Tb2Cr2Co3P6Ir5
_symmetry_space_group_name_H-M   'P 1'
_cell_length_a   3.81552600
_cell_length_b   10.68316800
_cell_length_c   12.31644600
_cell_angle_alpha   90.00000000
_cell_angle_beta   90.00000000
_cell_angle_gamma   90.00000000
_symmetry_Int_Tables_number   1
_chemical_formula_structural   Tb2Cr2Co3P6Ir5
_chemical_formula_sum   'Tb4 Cr4 Co6 P12 Ir10'
_cell_volume   502.04180507
_cell_formula_units_Z   2
loop_
 _symmetry_equiv_pos_site_id
 _symmetry_equiv_pos_as_xyz
  1  'x, y, z'
loop_
 _atom_site_type_symbol
 _atom_site_label
 _atom_site_symmetry_multiplicity
 _atom_site_fract_x
 _atom_site_fract_y
 _atom_site_fract_z
 _atom_site_occupancy
  Tb  Tb0  1  0.250000  0.581330  0.710911  1
  Tb  Tb1  1  0.250000  0.918670  0.210911  1
  Tb  Tb2  1  0.750000  0.415577  0.291801  1
  Tb  Tb3  1  0.750000  0.084423  0.791801  1
  Cr  Cr4  1  0.250000  0.709388  0.985179  1
  Cr  Cr5  1  0.250000  0.790612  0.485179  1
  Cr  Cr6  1  0.750000  0.289651  0.010336  1
  Cr  Cr7  1  0.750000  0.210349  0.510336  1
  Co  Co8  1  0.750000  0.115497  0.305395  1
  Co  Co9  1  0.750000  0.384503  0.805395  1
  Co  Co10  1  0.250000  0.461484  0.933015  1
  Co  Co11  1  0.250000  0.038516  0.433015  1
  Co  Co12  1  0.750000  0.534617  0.063144  1
  Co  Co13  1  0.750000  0.965383  0.563144  1
  P  P14  1  0.250000  0.420718  0.105294  1
  P  P15  1  0.250000  0.079282  0.605294  1
  P  P16  1  0.750000  0.569202  0.890290  1
  P  P17  1  0.750000  0.930798  0.390290  1
  P  P18  1  0.250000  0.272915  0.871063  1
  P  P19  1  0.250000  0.227085  0.371063  1
  P  P20  1  0.750000  0.728096  0.125569  1
  P  P21  1  0.750000  0.771904  0.625569  1
  P  P22  1  0.250000  0.601272  0.390406  1
  P  P23  1  0.250000  0.898728  0.890406  1
  P  P24  1  0.750000  0.401337  0.618149  1
  P  P25  1  0.750000  0.098663  0.118149  1
  Ir  Ir26  1  0.250000  0.403519  0.483355  1
  Ir  Ir27  1  0.250000  0.096481  0.983355  1
  Ir  Ir28  1  0.750000  0.595070  0.517372  1
  Ir  Ir29  1  0.750000  0.904930  0.017372  1
  Ir  Ir30  1  0.250000  0.224376  0.181155  1
  Ir  Ir31  1  0.250000  0.275624  0.681155  1
  Ir  Ir32  1  0.750000  0.766636  0.820459  1
  Ir  Ir33  1  0.750000  0.733364  0.320459  1
  Ir  Ir34  1  0.250000  0.889085  0.697106  1
  Ir  Ir35  1  0.250000  0.610915  0.197106  1
