# generated using pymatgen
data_CrSb3F20
_symmetry_space_group_name_H-M   'P 1'
_cell_length_a   5.79402500
_cell_length_b   8.07190773
_cell_length_c   8.57183633
_cell_angle_alpha   89.52992020
_cell_angle_beta   90.00000000
_cell_angle_gamma   90.00000000
_symmetry_Int_Tables_number   1
_chemical_formula_structural   CrSb3F20
_chemical_formula_sum   'Cr1 Sb3 F20'
_cell_volume   400.88130766
_cell_formula_units_Z   1
loop_
 _symmetry_equiv_pos_site_id
 _symmetry_equiv_pos_as_xyz
  1  'x, y, z'
loop_
 _atom_site_type_symbol
 _atom_site_label
 _atom_site_symmetry_multiplicity
 _atom_site_fract_x
 _atom_site_fract_y
 _atom_site_fract_z
 _atom_site_occupancy
  Cr  Cr0  1  0.750000  0.413389  0.255741  1
  Sb  Sb1  1  0.250000  0.584073  0.743519  1
  Sb  Sb2  1  0.250000  0.093271  0.258792  1
  Sb  Sb3  1  0.750000  0.917443  0.743570  1
  F  F4  1  0.750000  0.462626  0.451632  1
  F  F5  1  0.250000  0.221501  0.073092  1
  F  F6  1  0.250000  0.716360  0.923254  1
  F  F7  1  0.250000  0.021446  0.469479  1
  F  F8  1  0.007073  0.255456  0.333609  1
  F  F9  1  0.250000  0.521391  0.532125  1
  F  F10  1  0.750000  0.978496  0.531456  1
  F  F11  1  0.006756  0.444228  0.804625  1
  F  F12  1  0.533602  0.547279  0.196980  1
  F  F13  1  0.966398  0.547279  0.196980  1
  F  F14  1  0.493244  0.444228  0.804625  1
  F  F15  1  0.750000  0.285845  0.096058  1
  F  F16  1  0.492927  0.255456  0.333609  1
  F  F17  1  0.489385  0.949956  0.196689  1
  F  F18  1  0.750000  0.778621  0.920682  1
  F  F19  1  0.507786  0.056193  0.805305  1
  F  F20  1  0.992214  0.056193  0.805305  1
  F  F21  1  0.000348  0.749658  0.663091  1
  F  F22  1  0.499652  0.749658  0.663091  1
  F  F23  1  0.010615  0.949956  0.196689  1
