# generated using pymatgen
data_Er6Lu14AlBi11
_symmetry_space_group_name_H-M   'P 1'
_cell_length_a   8.08516868
_cell_length_b   9.36130400
_cell_length_c   11.80460200
_cell_angle_alpha   90.00000000
_cell_angle_beta   89.76043211
_cell_angle_gamma   90.00000000
_symmetry_Int_Tables_number   1
_chemical_formula_structural   Er6Lu14AlBi11
_chemical_formula_sum   'Er6 Lu14 Al1 Bi11'
_cell_volume   893.45562278
_cell_formula_units_Z   1
loop_
 _symmetry_equiv_pos_site_id
 _symmetry_equiv_pos_as_xyz
  1  'x, y, z'
loop_
 _atom_site_type_symbol
 _atom_site_label
 _atom_site_symmetry_multiplicity
 _atom_site_fract_x
 _atom_site_fract_y
 _atom_site_fract_z
 _atom_site_occupancy
  Er  Er0  1  0.149464  0.750000  0.782529  1
  Er  Er1  1  0.850938  0.250000  0.215119  1
  Er  Er2  1  0.193506  0.250000  0.777058  1
  Er  Er3  1  0.809847  0.750000  0.217501  1
  Er  Er4  1  0.312261  0.750000  0.282207  1
  Er  Er5  1  0.677628  0.250000  0.711765  1
  Lu  Lu6  1  0.033898  0.250000  0.509274  1
  Lu  Lu7  1  0.980558  0.750000  0.490084  1
  Lu  Lu8  1  0.477973  0.750000  0.010483  1
  Lu  Lu9  1  0.524157  0.250000  0.989840  1
  Lu  Lu10  1  0.352356  0.250000  0.292791  1
  Lu  Lu11  1  0.652302  0.750000  0.718159  1
  Lu  Lu12  1  0.192234  0.067608  0.060714  1
  Lu  Lu13  1  0.808325  0.933157  0.940883  1
  Lu  Lu14  1  0.308620  0.946671  0.558095  1
  Lu  Lu15  1  0.808325  0.566843  0.940883  1
  Lu  Lu16  1  0.683576  0.072556  0.444669  1
  Lu  Lu17  1  0.192234  0.432392  0.060714  1
  Lu  Lu18  1  0.683576  0.427444  0.444669  1
  Lu  Lu19  1  0.308620  0.553329  0.558095  1
  Al  Al20  1  0.404190  0.250000  0.540537  1
  Bi  Bi21  1  0.597412  0.750000  0.459148  1
  Bi  Bi22  1  0.097851  0.750000  0.043663  1
  Bi  Bi23  1  0.905580  0.250000  0.953301  1
  Bi  Bi24  1  0.061501  0.002820  0.324807  1
  Bi  Bi25  1  0.935907  0.997194  0.674541  1
  Bi  Bi26  1  0.437843  0.995272  0.824904  1
  Bi  Bi27  1  0.935907  0.502806  0.674541  1
  Bi  Bi28  1  0.562034  0.004892  0.174658  1
  Bi  Bi29  1  0.061501  0.497180  0.324807  1
  Bi  Bi30  1  0.562034  0.495108  0.174658  1
  Bi  Bi31  1  0.437843  0.504728  0.824904  1
