# generated using pymatgen
data_Sc3U(SnRu3)2
_symmetry_space_group_name_H-M   'P 1'
_cell_length_a   4.62308600
_cell_length_b   6.50752800
_cell_length_c   13.61369000
_cell_angle_alpha   90.00000000
_cell_angle_beta   90.00275940
_cell_angle_gamma   90.00000000
_symmetry_Int_Tables_number   1
_chemical_formula_structural   Sc3U(SnRu3)2
_chemical_formula_sum   'Sc6 U2 Sn4 Ru12'
_cell_volume   409.56597916
_cell_formula_units_Z   2
loop_
 _symmetry_equiv_pos_site_id
 _symmetry_equiv_pos_as_xyz
  1  'x, y, z'
loop_
 _atom_site_type_symbol
 _atom_site_label
 _atom_site_symmetry_multiplicity
 _atom_site_fract_x
 _atom_site_fract_y
 _atom_site_fract_z
 _atom_site_occupancy
  Sc  Sc0  1  0.999995  0.500001  0.992834  1
  Sc  Sc1  1  0.499964  0.000000  0.174072  1
  Sc  Sc2  1  0.999958  0.500001  0.342702  1
  Sc  Sc3  1  0.500000  0.000000  0.500080  1
  Sc  Sc4  1  0.000053  0.500001  0.666578  1
  Sc  Sc5  1  0.500024  0.000000  0.823830  1
  U  U6  1  0.000007  0.000000  0.996484  1
  U  U7  1  0.499956  0.500001  0.170130  1
  Sn  Sn8  1  0.999903  0.000000  0.337621  1
  Sn  Sn9  1  0.500007  0.500001  0.503443  1
  Sn  Sn10  1  0.000031  0.000000  0.663236  1
  Sn  Sn11  1  0.500107  0.500001  0.829064  1
  Ru  Ru12  1  0.500000  0.253079  0.003960  1
  Ru  Ru13  1  0.500000  0.746922  0.003960  1
  Ru  Ru14  1  0.999961  0.247002  0.162621  1
  Ru  Ru15  1  0.999961  0.752997  0.162621  1
  Ru  Ru16  1  0.499943  0.260740  0.326839  1
  Ru  Ru17  1  0.499943  0.739260  0.326839  1
  Ru  Ru18  1  0.000003  0.251268  0.499671  1
  Ru  Ru19  1  0.000003  0.748733  0.499671  1
  Ru  Ru20  1  0.500040  0.248768  0.666984  1
  Ru  Ru21  1  0.500040  0.751232  0.666984  1
  Ru  Ru22  1  0.000052  0.239389  0.839887  1
  Ru  Ru23  1  0.000052  0.760610  0.839887  1
