# generated using pymatgen
data_Li30Pd5Pt3
_symmetry_space_group_name_H-M   'P 1'
_cell_length_a   9.15243447
_cell_length_b   9.15243517
_cell_length_c   9.15243403
_cell_angle_alpha   109.47609771
_cell_angle_beta   109.47610197
_cell_angle_gamma   109.47610002
_symmetry_Int_Tables_number   1
_chemical_formula_structural   Li30Pd5Pt3
_chemical_formula_sum   'Li30 Pd5 Pt3'
_cell_volume   590.07813944
_cell_formula_units_Z   1
loop_
 _symmetry_equiv_pos_site_id
 _symmetry_equiv_pos_as_xyz
  1  'x, y, z'
loop_
 _atom_site_type_symbol
 _atom_site_label
 _atom_site_symmetry_multiplicity
 _atom_site_fract_x
 _atom_site_fract_y
 _atom_site_fract_z
 _atom_site_occupancy
  Li  Li0  1  0.383869  0.655494  0.961690  1
  Li  Li1  1  0.037763  0.916364  0.693176  1
  Li  Li2  1  0.693176  0.037763  0.916364  1
  Li  Li3  1  0.747994  0.871348  0.123716  1
  Li  Li4  1  0.463264  0.159126  0.879880  1
  Li  Li5  1  0.118542  0.079806  0.275792  1
  Li  Li6  1  0.422291  0.538356  0.193967  1
  Li  Li7  1  0.580510  0.617225  0.777109  1
  Li  Li8  1  0.777109  0.580510  0.617225  1
  Li  Li9  1  0.538356  0.193967  0.422291  1
  Li  Li10  1  0.720798  0.341123  0.804908  1
  Li  Li11  1  0.159126  0.879880  0.463264  1
  Li  Li12  1  0.844768  0.228116  0.305485  1
  Li  Li13  1  0.079806  0.275792  0.118542  1
  Li  Li14  1  0.193967  0.422291  0.538356  1
  Li  Li15  1  0.378262  0.249997  0.628287  1
  Li  Li16  1  0.961690  0.383869  0.655494  1
  Li  Li17  1  0.123716  0.747994  0.871348  1
  Li  Li18  1  0.617225  0.777109  0.580510  1
  Li  Li19  1  0.655494  0.961690  0.383869  1
  Li  Li20  1  0.341123  0.804908  0.720798  1
  Li  Li21  1  0.275792  0.118542  0.079806  1
  Li  Li22  1  0.804908  0.720798  0.341123  1
  Li  Li23  1  0.228116  0.305485  0.844768  1
  Li  Li24  1  0.916364  0.693176  0.037763  1
  Li  Li25  1  0.879880  0.463264  0.159126  1
  Li  Li26  1  0.871348  0.123716  0.747994  1
  Li  Li27  1  0.305485  0.844768  0.228116  1
  Li  Li28  1  0.249997  0.628287  0.378262  1
  Li  Li29  1  0.628287  0.378262  0.249997  1
  Pd  Pd30  1  0.999877  0.088435  0.499712  1
  Pd  Pd31  1  0.913099  0.913099  0.913099  1
  Pd  Pd32  1  0.411351  0.411351  0.411351  1
  Pd  Pd33  1  0.088435  0.499712  0.999877  1
  Pd  Pd34  1  0.499712  0.999877  0.088435  1
  Pt  Pt35  1  0.500875  0.999859  0.587766  1
  Pt  Pt36  1  0.999859  0.587766  0.500875  1
  Pt  Pt37  1  0.587766  0.500875  0.999859  1
