# generated using pymatgen
data_Ta6Zn6CoIr11
_symmetry_space_group_name_H-M   'P 1'
_cell_length_a   4.06676200
_cell_length_b   7.31842600
_cell_length_c   12.11567800
_cell_angle_alpha   89.99969277
_cell_angle_beta   90.00024040
_cell_angle_gamma   89.99967584
_symmetry_Int_Tables_number   1
_chemical_formula_structural   Ta6Zn6CoIr11
_chemical_formula_sum   'Ta6 Zn6 Co1 Ir11'
_cell_volume   360.59040405
_cell_formula_units_Z   1
loop_
 _symmetry_equiv_pos_site_id
 _symmetry_equiv_pos_as_xyz
  1  'x, y, z'
loop_
 _atom_site_type_symbol
 _atom_site_label
 _atom_site_symmetry_multiplicity
 _atom_site_fract_x
 _atom_site_fract_y
 _atom_site_fract_z
 _atom_site_occupancy
  Ta  Ta0  1  0.999997  0.997560  0.995781  1
  Ta  Ta1  1  0.500011  0.498765  0.165003  1
  Ta  Ta2  1  0.000015  0.999584  0.333337  1
  Ta  Ta3  1  0.500002  0.498766  0.501663  1
  Ta  Ta4  1  0.999988  0.997554  0.670894  1
  Ta  Ta5  1  0.499984  0.505992  0.833329  1
  Zn  Zn6  1  0.999996  0.505256  0.996359  1
  Zn  Zn7  1  0.500013  0.999529  0.165591  1
  Zn  Zn8  1  0.000013  0.498788  0.333341  1
  Zn  Zn9  1  0.500003  0.999532  0.501086  1
  Zn  Zn10  1  0.999987  0.505243  0.670295  1
  Zn  Zn11  1  0.499987  0.993057  0.833334  1
  Co  Co12  1  0.999994  0.750661  0.833319  1
  Ir  Ir13  1  0.499992  0.249792  0.998717  1
  Ir  Ir14  1  0.500004  0.750821  0.996259  1
  Ir  Ir15  1  0.000009  0.248748  0.164801  1
  Ir  Ir16  1  0.000010  0.749389  0.165197  1
  Ir  Ir17  1  0.500010  0.249855  0.333331  1
  Ir  Ir18  1  0.500013  0.749012  0.333329  1
  Ir  Ir19  1  0.000000  0.248759  0.501867  1
  Ir  Ir20  1  0.000003  0.749384  0.501465  1
  Ir  Ir21  1  0.499983  0.249780  0.667957  1
  Ir  Ir22  1  0.499997  0.750838  0.670406  1
  Ir  Ir23  1  0.999986  0.253333  0.833339  1
