# generated using pymatgen
data_Dy5Lu5(GaSb)4
_symmetry_space_group_name_H-M   'P 1'
_cell_length_a   8.40112553
_cell_length_b   8.69777668
_cell_length_c   7.82694932
_cell_angle_alpha   90.07528298
_cell_angle_beta   90.11191031
_cell_angle_gamma   125.61876573
_symmetry_Int_Tables_number   1
_chemical_formula_structural   Dy5Lu5(GaSb)4
_chemical_formula_sum   'Dy5 Lu5 Ga4 Sb4'
_cell_volume   464.91969287
_cell_formula_units_Z   1
loop_
 _symmetry_equiv_pos_site_id
 _symmetry_equiv_pos_as_xyz
  1  'x, y, z'
loop_
 _atom_site_type_symbol
 _atom_site_label
 _atom_site_symmetry_multiplicity
 _atom_site_fract_x
 _atom_site_fract_y
 _atom_site_fract_z
 _atom_site_occupancy
  Dy  Dy0  1  0.820545  0.548204  0.175034  1
  Dy  Dy1  1  0.532500  0.788064  0.166233  1
  Dy  Dy2  1  0.181657  0.452737  0.824624  1
  Dy  Dy3  1  0.680972  0.951635  0.673420  1
  Dy  Dy4  1  0.317379  0.046915  0.326583  1
  Lu  Lu5  1  0.031992  0.282212  0.335753  1
  Lu  Lu6  1  0.966057  0.715178  0.664331  1
  Lu  Lu7  1  0.468785  0.216252  0.836256  1
  Lu  Lu8  1  0.001568  0.001449  0.998591  1
  Lu  Lu9  1  0.498817  0.497832  0.500698  1
  Ga  Ga10  1  0.376755  0.373366  0.125665  1
  Ga  Ga11  1  0.623723  0.625388  0.874176  1
  Ga  Ga12  1  0.124323  0.125660  0.625611  1
  Ga  Ga13  1  0.876479  0.873678  0.375721  1
  Sb  Sb14  1  0.784222  0.196890  0.015811  1
  Sb  Sb15  1  0.218446  0.808114  0.979876  1
  Sb  Sb16  1  0.719748  0.305823  0.518003  1
  Sb  Sb17  1  0.276031  0.690604  0.483615  1
