# generated using pymatgen
data_TbCeSbO2
_symmetry_space_group_name_H-M   'P 1'
_cell_length_a   7.00812076
_cell_length_b   7.00812048
_cell_length_c   7.00812092
_cell_angle_alpha   147.25323320
_cell_angle_beta   147.25322778
_cell_angle_gamma   46.98898569
_symmetry_Int_Tables_number   1
_chemical_formula_structural   TbCeSbO2
_chemical_formula_sum   'Tb1 Ce1 Sb1 O2'
_cell_volume   100.33625023
_cell_formula_units_Z   1
loop_
 _symmetry_equiv_pos_site_id
 _symmetry_equiv_pos_as_xyz
  1  'x, y, z'
loop_
 _atom_site_type_symbol
 _atom_site_label
 _atom_site_symmetry_multiplicity
 _atom_site_fract_x
 _atom_site_fract_y
 _atom_site_fract_z
 _atom_site_occupancy
  Tb  Tb0  1  0.659977  0.659977  0.000000  1
  Ce  Ce1  1  0.341665  0.341665  0.000000  1
  Sb  Sb2  1  0.999358  0.999358  0.000000  1
  O  O3  1  0.749500  0.249500  0.500000  1
  O  O4  1  0.249500  0.749500  0.500000  1
