# generated using pymatgen
data_Rb4AcPaO6
_symmetry_space_group_name_H-M   'P 1'
_cell_length_a   6.51866317
_cell_length_b   6.51866230
_cell_length_c   6.97467100
_cell_angle_alpha   99.13726350
_cell_angle_beta   99.13727117
_cell_angle_gamma   119.80305680
_symmetry_Int_Tables_number   1
_chemical_formula_structural   Rb4AcPaO6
_chemical_formula_sum   'Rb4 Ac1 Pa1 O6'
_cell_volume   243.94129337
_cell_formula_units_Z   1
loop_
 _symmetry_equiv_pos_site_id
 _symmetry_equiv_pos_as_xyz
  1  'x, y, z'
loop_
 _atom_site_type_symbol
 _atom_site_label
 _atom_site_symmetry_multiplicity
 _atom_site_fract_x
 _atom_site_fract_y
 _atom_site_fract_z
 _atom_site_occupancy
  Rb  Rb0  1  0.500124  0.499874  0.000000  1
  Rb  Rb1  1  0.003243  0.996756  0.499998  1
  Rb  Rb2  1  0.655599  0.344401  0.500000  1
  Rb  Rb3  1  0.340143  0.659857  0.500000  1
  Ac  Ac4  1  0.832995  0.167004  0.000000  1
  Pa  Pa5  1  0.167394  0.832605  0.000000  1
  O  O6  1  0.973287  0.598984  0.189760  1
  O  O7  1  0.530807  0.938616  0.190285  1
  O  O8  1  0.191043  0.157042  0.187241  1
  O  O9  1  0.842958  0.808957  0.812760  1
  O  O10  1  0.061384  0.469194  0.809716  1
  O  O11  1  0.401018  0.026715  0.810240  1
