# generated using pymatgen
data_Th8Co(Si4Pd)3
_symmetry_space_group_name_H-M   'P 1'
_cell_length_a   8.20405100
_cell_length_b   8.20405111
_cell_length_c   8.52217500
_cell_angle_alpha   90.00000000
_cell_angle_beta   90.00000000
_cell_angle_gamma   119.99999551
_symmetry_Int_Tables_number   1
_chemical_formula_structural   Th8Co(Si4Pd)3
_chemical_formula_sum   'Th8 Co1 Si12 Pd3'
_cell_volume   496.74992288
_cell_formula_units_Z   1
loop_
 _symmetry_equiv_pos_site_id
 _symmetry_equiv_pos_as_xyz
  1  'x, y, z'
loop_
 _atom_site_type_symbol
 _atom_site_label
 _atom_site_symmetry_multiplicity
 _atom_site_fract_x
 _atom_site_fract_y
 _atom_site_fract_z
 _atom_site_occupancy
  Th  Th0  1  0.502665  0.497335  0.754160  1
  Th  Th1  1  0.503121  0.496879  0.245963  1
  Th  Th2  1  0.994669  0.497335  0.754160  1
  Th  Th3  1  0.993758  0.496879  0.245963  1
  Th  Th4  1  0.502665  0.005331  0.754160  1
  Th  Th5  1  0.503121  0.006242  0.245963  1
  Th  Th6  1  0.000000  0.000000  0.750950  1
  Th  Th7  1  0.000000  0.000000  0.249175  1
  Co  Co8  1  0.666667  0.333333  0.998349  1
  Si  Si9  1  0.827032  0.172968  0.999735  1
  Si  Si10  1  0.163972  0.836028  0.000230  1
  Si  Si11  1  0.345935  0.172968  0.999735  1
  Si  Si12  1  0.166188  0.833812  0.499945  1
  Si  Si13  1  0.672058  0.836028  0.000230  1
  Si  Si14  1  0.834534  0.165466  0.500177  1
  Si  Si15  1  0.827032  0.654065  0.999735  1
  Si  Si16  1  0.667623  0.833812  0.499945  1
  Si  Si17  1  0.163972  0.327942  0.000230  1
  Si  Si18  1  0.330931  0.165466  0.500177  1
  Si  Si19  1  0.166188  0.332377  0.499945  1
  Si  Si20  1  0.834534  0.669069  0.500177  1
  Pd  Pd21  1  0.333333  0.666667  0.001374  1
  Pd  Pd22  1  0.333333  0.666667  0.498719  1
  Pd  Pd23  1  0.666667  0.333333  0.500804  1
