# generated using pymatgen
data_Re(BW)2
_symmetry_space_group_name_H-M   'P 1'
_cell_length_a   3.11751800
_cell_length_b   7.57984200
_cell_length_c   9.69775000
_cell_angle_alpha   90.00000000
_cell_angle_beta   90.00000000
_cell_angle_gamma   90.00000000
_symmetry_Int_Tables_number   1
_chemical_formula_structural   Re(BW)2
_chemical_formula_sum   'Re4 B8 W8'
_cell_volume   229.16068240
_cell_formula_units_Z   4
loop_
 _symmetry_equiv_pos_site_id
 _symmetry_equiv_pos_as_xyz
  1  'x, y, z'
loop_
 _atom_site_type_symbol
 _atom_site_label
 _atom_site_symmetry_multiplicity
 _atom_site_fract_x
 _atom_site_fract_y
 _atom_site_fract_z
 _atom_site_occupancy
  Re  Re0  1  0.500000  0.622346  0.394697  1
  Re  Re1  1  0.500000  0.377654  0.605303  1
  Re  Re2  1  0.000000  0.877654  0.894697  1
  Re  Re3  1  0.000000  0.122346  0.105303  1
  B  B4  1  0.500000  0.115551  0.460372  1
  B  B5  1  0.500000  0.884449  0.539628  1
  B  B6  1  0.000000  0.384449  0.960372  1
  B  B7  1  0.000000  0.615551  0.039628  1
  B  B8  1  0.500000  0.124191  0.267746  1
  B  B9  1  0.500000  0.875809  0.732254  1
  B  B10  1  0.000000  0.375809  0.767746  1
  B  B11  1  0.000000  0.624191  0.232254  1
  W  W12  1  0.500000  0.810600  0.129953  1
  W  W13  1  0.500000  0.189400  0.870047  1
  W  W14  1  0.000000  0.689400  0.629953  1
  W  W15  1  0.000000  0.310600  0.370047  1
  W  W16  1  0.500000  0.576212  0.861597  1
  W  W17  1  0.500000  0.423788  0.138403  1
  W  W18  1  0.000000  0.923788  0.361597  1
  W  W19  1  0.000000  0.076212  0.638403  1
