# generated using pymatgen
data_LuZrBIrRh5
_symmetry_space_group_name_H-M   'P 1'
_cell_length_a   5.75270107
_cell_length_b   5.74758458
_cell_length_c   5.74758434
_cell_angle_alpha   60.08269487
_cell_angle_beta   59.97054212
_cell_angle_gamma   59.97054555
_symmetry_Int_Tables_number   1
_chemical_formula_structural   LuZrBIrRh5
_chemical_formula_sum   'Lu1 Zr1 B1 Ir1 Rh5'
_cell_volume   134.40160985
_cell_formula_units_Z   1
loop_
 _symmetry_equiv_pos_site_id
 _symmetry_equiv_pos_as_xyz
  1  'x, y, z'
loop_
 _atom_site_type_symbol
 _atom_site_label
 _atom_site_symmetry_multiplicity
 _atom_site_fract_x
 _atom_site_fract_y
 _atom_site_fract_z
 _atom_site_occupancy
  Lu  Lu0  1  0.749971  0.750029  0.750029  1
  Zr  Zr1  1  0.249919  0.250081  0.250081  1
  B  B2  1  0.999884  0.000116  0.000116  1
  Ir  Ir3  1  0.257592  0.742408  0.742408  1
  Rh  Rh4  1  0.742479  0.742544  0.257787  1
  Rh  Rh5  1  0.257190  0.742544  0.257787  1
  Rh  Rh6  1  0.743297  0.256703  0.256703  1
  Rh  Rh7  1  0.257190  0.257787  0.742544  1
  Rh  Rh8  1  0.742479  0.257787  0.742544  1
