# generated using pymatgen
data_Tb5Y2Er3(In2Pd)4
_symmetry_space_group_name_H-M   'P 1'
_cell_length_a   3.63345900
_cell_length_b   8.16521509
_cell_length_c   18.25700019
_cell_angle_alpha   89.98337533
_cell_angle_beta   90.00000000
_cell_angle_gamma   90.00000000
_symmetry_Int_Tables_number   1
_chemical_formula_structural   Tb5Y2Er3(In2Pd)4
_chemical_formula_sum   'Tb5 Y2 Er3 In8 Pd4'
_cell_volume   541.64818862
_cell_formula_units_Z   1
loop_
 _symmetry_equiv_pos_site_id
 _symmetry_equiv_pos_as_xyz
  1  'x, y, z'
loop_
 _atom_site_type_symbol
 _atom_site_label
 _atom_site_symmetry_multiplicity
 _atom_site_fract_x
 _atom_site_fract_y
 _atom_site_fract_z
 _atom_site_occupancy
  Tb  Tb0  1  0.000000  0.739151  0.281399  1
  Tb  Tb1  1  0.000000  0.261031  0.718723  1
  Tb  Tb2  1  0.000000  0.761075  0.781269  1
  Tb  Tb3  1  0.000000  0.238874  0.218872  1
  Tb  Tb4  1  0.000000  0.617341  0.083171  1
  Y  Y5  1  0.000000  0.500062  0.500022  1
  Y  Y6  1  0.000000  0.000025  0.999952  1
  Er  Er7  1  0.000000  0.382946  0.916013  1
  Er  Er8  1  0.000000  0.883028  0.583876  1
  Er  Er9  1  0.000000  0.116997  0.416161  1
  In  In10  1  0.500000  0.706945  0.932572  1
  In  In11  1  0.500000  0.291760  0.066721  1
  In  In12  1  0.500000  0.793568  0.433288  1
  In  In13  1  0.500000  0.206567  0.566698  1
  In  In14  1  0.500000  0.582238  0.650051  1
  In  In15  1  0.500000  0.417699  0.350088  1
  In  In16  1  0.500000  0.919436  0.150432  1
  In  In17  1  0.500000  0.081959  0.849893  1
  Pd  Pd18  1  0.500000  0.522981  0.196137  1
  Pd  Pd19  1  0.500000  0.476212  0.804664  1
  Pd  Pd20  1  0.500000  0.976322  0.695212  1
  Pd  Pd21  1  0.500000  0.023782  0.304789  1
