# generated using pymatgen
data_DyHoGa6(NiAu)2
_symmetry_space_group_name_H-M   'P 1'
_cell_length_a   8.01210071
_cell_length_b   8.01210089
_cell_length_c   6.54329100
_cell_angle_alpha   90.00000000
_cell_angle_beta   90.00000000
_cell_angle_gamma   150.57882330
_symmetry_Int_Tables_number   1
_chemical_formula_structural   DyHoGa6(NiAu)2
_chemical_formula_sum   'Dy1 Ho1 Ga6 Ni2 Au2'
_cell_volume   206.33369003
_cell_formula_units_Z   1
loop_
 _symmetry_equiv_pos_site_id
 _symmetry_equiv_pos_as_xyz
  1  'x, y, z'
loop_
 _atom_site_type_symbol
 _atom_site_label
 _atom_site_symmetry_multiplicity
 _atom_site_fract_x
 _atom_site_fract_y
 _atom_site_fract_z
 _atom_site_occupancy
  Dy  Dy0  1  0.875349  0.124651  0.250000  1
  Ho  Ho1  1  0.124653  0.875347  0.750000  1
  Ga  Ga2  1  0.314937  0.685063  0.551013  1
  Ga  Ga3  1  0.069555  0.930445  0.250000  1
  Ga  Ga4  1  0.684781  0.315219  0.449430  1
  Ga  Ga5  1  0.684781  0.315219  0.050570  1
  Ga  Ga6  1  0.314937  0.685063  0.948987  1
  Ga  Ga7  1  0.930562  0.069438  0.750000  1
  Ni  Ni8  1  0.775907  0.224093  0.750000  1
  Ni  Ni9  1  0.223949  0.776051  0.250000  1
  Au  Au10  1  0.500295  0.499705  0.999477  1
  Au  Au11  1  0.500295  0.499705  0.500523  1
