# generated using pymatgen
data_Tm2TaIr3
_symmetry_space_group_name_H-M   'P 1'
_cell_length_a   5.61348112
_cell_length_b   5.23770189
_cell_length_c   5.61348100
_cell_angle_alpha   57.59689070
_cell_angle_beta   59.99999482
_cell_angle_gamma   57.59688512
_symmetry_Int_Tables_number   1
_chemical_formula_structural   Tm2TaIr3
_chemical_formula_sum   'Tm2 Ta1 Ir3'
_cell_volume   112.28479742
_cell_formula_units_Z   1
loop_
 _symmetry_equiv_pos_site_id
 _symmetry_equiv_pos_as_xyz
  1  'x, y, z'
loop_
 _atom_site_type_symbol
 _atom_site_label
 _atom_site_symmetry_multiplicity
 _atom_site_fract_x
 _atom_site_fract_y
 _atom_site_fract_z
 _atom_site_occupancy
  Tm  Tm0  1  0.498265  0.505204  0.498265  1
  Tm  Tm1  1  0.751735  0.744796  0.751735  1
  Ta  Ta2  1  0.125000  0.625000  0.125000  1
  Ir  Ir3  1  0.625000  0.125000  0.125000  1
  Ir  Ir4  1  0.125000  0.125000  0.125000  1
  Ir  Ir5  1  0.125000  0.125000  0.625000  1
