# generated using pymatgen
data_DyEr3Al18(NiIr2)2
_symmetry_space_group_name_H-M   'P 1'
_cell_length_a   7.52023619
_cell_length_b   7.51879350
_cell_length_c   9.37978700
_cell_angle_alpha   90.00000000
_cell_angle_beta   90.00000000
_cell_angle_gamma   120.00289432
_symmetry_Int_Tables_number   1
_chemical_formula_structural   DyEr3Al18(NiIr2)2
_chemical_formula_sum   'Dy1 Er3 Al18 Ni2 Ir4'
_cell_volume   459.29379607
_cell_formula_units_Z   1
loop_
 _symmetry_equiv_pos_site_id
 _symmetry_equiv_pos_as_xyz
  1  'x, y, z'
loop_
 _atom_site_type_symbol
 _atom_site_label
 _atom_site_symmetry_multiplicity
 _atom_site_fract_x
 _atom_site_fract_y
 _atom_site_fract_z
 _atom_site_occupancy
  Dy  Dy0  1  0.334095  0.005667  0.750000  1
  Er  Er1  1  0.994330  0.665724  0.250000  1
  Er  Er2  1  0.005511  0.334173  0.750000  1
  Er  Er3  1  0.666038  0.994486  0.250000  1
  Al  Al4  1  0.117980  0.118239  0.250000  1
  Al  Al5  1  0.881005  0.881532  0.750000  1
  Al  Al6  1  0.999323  0.330777  0.075206  1
  Al  Al7  1  0.000184  0.668732  0.925576  1
  Al  Al8  1  0.000184  0.668732  0.574424  1
  Al  Al9  1  0.330847  0.999329  0.424263  1
  Al  Al10  1  0.999323  0.330777  0.424794  1
  Al  Al11  1  0.669585  0.000532  0.574364  1
  Al  Al12  1  0.669585  0.000532  0.925636  1
  Al  Al13  1  0.330847  0.999329  0.075737  1
  Al  Al14  1  0.330035  0.330391  0.550866  1
  Al  Al15  1  0.670006  0.670023  0.447907  1
  Al  Al16  1  0.670006  0.670023  0.052093  1
  Al  Al17  1  0.330035  0.330391  0.949134  1
  Al  Al18  1  0.337888  0.545359  0.250000  1
  Al  Al19  1  0.662870  0.455446  0.750000  1
  Al  Al20  1  0.545443  0.338116  0.250000  1
  Al  Al21  1  0.454709  0.661677  0.750000  1
  Ni  Ni22  1  0.000085  0.000044  0.000190  1
  Ni  Ni23  1  0.000085  0.000044  0.499810  1
  Ir  Ir24  1  0.672090  0.327959  0.000235  1
  Ir  Ir25  1  0.327910  0.672003  0.000166  1
  Ir  Ir26  1  0.327910  0.672003  0.499834  1
  Ir  Ir27  1  0.672090  0.327959  0.499765  1
