# generated using pymatgen
data_LaY3(WO6)2
_symmetry_space_group_name_H-M   'P 1'
_cell_length_a   5.48719500
_cell_length_b   7.81509926
_cell_length_c   11.62497412
_cell_angle_alpha   75.63993022
_cell_angle_beta   90.00000000
_cell_angle_gamma   90.00000000
_symmetry_Int_Tables_number   1
_chemical_formula_structural   LaY3(WO6)2
_chemical_formula_sum   'La2 Y6 W4 O24'
_cell_volume   482.93802371
_cell_formula_units_Z   2
loop_
 _symmetry_equiv_pos_site_id
 _symmetry_equiv_pos_as_xyz
  1  'x, y, z'
loop_
 _atom_site_type_symbol
 _atom_site_label
 _atom_site_symmetry_multiplicity
 _atom_site_fract_x
 _atom_site_fract_y
 _atom_site_fract_z
 _atom_site_occupancy
  La  La0  1  0.313819  0.500000  0.750000  1
  La  La1  1  0.686181  0.500000  0.250000  1
  Y  Y2  1  0.187593  0.797898  0.076543  1
  Y  Y3  1  0.258375  0.000000  0.750000  1
  Y  Y4  1  0.741625  0.000000  0.250000  1
  Y  Y5  1  0.187593  0.202102  0.423457  1
  Y  Y6  1  0.812407  0.202102  0.923457  1
  Y  Y7  1  0.812407  0.797898  0.576543  1
  W  W8  1  0.746794  0.728578  0.884111  1
  W  W9  1  0.253206  0.728578  0.384111  1
  W  W10  1  0.746794  0.271422  0.615889  1
  W  W11  1  0.253206  0.271422  0.115889  1
  O  O12  1  0.856641  0.357035  0.456091  1
  O  O13  1  0.468883  0.845726  0.930484  1
  O  O14  1  0.856641  0.642965  0.043909  1
  O  O15  1  0.011475  0.280164  0.730011  1
  O  O16  1  0.988525  0.280164  0.230011  1
  O  O17  1  0.143359  0.357035  0.956091  1
  O  O18  1  0.652047  0.495156  0.888196  1
  O  O19  1  0.531117  0.154274  0.069516  1
  O  O20  1  0.143359  0.642965  0.543909  1
  O  O21  1  0.011475  0.719836  0.769989  1
  O  O22  1  0.454073  0.204545  0.272013  1
  O  O23  1  0.042233  0.941272  0.395514  1
  O  O24  1  0.468883  0.154274  0.569516  1
  O  O25  1  0.988525  0.719836  0.269989  1
  O  O26  1  0.957767  0.058728  0.604486  1
  O  O27  1  0.545927  0.204545  0.772013  1
  O  O28  1  0.545927  0.795455  0.727987  1
  O  O29  1  0.042233  0.058728  0.104486  1
  O  O30  1  0.652047  0.504844  0.611804  1
  O  O31  1  0.347953  0.504844  0.111804  1
  O  O32  1  0.454073  0.795455  0.227987  1
  O  O33  1  0.347953  0.495156  0.388196  1
  O  O34  1  0.531117  0.845726  0.430484  1
  O  O35  1  0.957767  0.941272  0.895514  1
