# generated using pymatgen
data_Sm6Ga4RuRh3
_symmetry_space_group_name_H-M   'P 1'
_cell_length_a   5.64231355
_cell_length_b   8.04927528
_cell_length_c   13.66548100
_cell_angle_alpha   90.00000000
_cell_angle_beta   90.00000000
_cell_angle_gamma   89.85564977
_symmetry_Int_Tables_number   1
_chemical_formula_structural   Sm6Ga4RuRh3
_chemical_formula_sum   'Sm12 Ga8 Ru2 Rh6'
_cell_volume   620.63682638
_cell_formula_units_Z   2
loop_
 _symmetry_equiv_pos_site_id
 _symmetry_equiv_pos_as_xyz
  1  'x, y, z'
loop_
 _atom_site_type_symbol
 _atom_site_label
 _atom_site_symmetry_multiplicity
 _atom_site_fract_x
 _atom_site_fract_y
 _atom_site_fract_z
 _atom_site_occupancy
  Sm  Sm0  1  0.148259  0.404163  0.598072  1
  Sm  Sm1  1  0.851741  0.595837  0.098072  1
  Sm  Sm2  1  0.146540  0.098757  0.402581  1
  Sm  Sm3  1  0.853460  0.901243  0.902581  1
  Sm  Sm4  1  0.851009  0.598832  0.403198  1
  Sm  Sm5  1  0.148991  0.401168  0.903198  1
  Sm  Sm6  1  0.851691  0.897633  0.597592  1
  Sm  Sm7  1  0.148309  0.102367  0.097592  1
  Sm  Sm8  1  0.630564  0.266724  0.748425  1
  Sm  Sm9  1  0.369436  0.733276  0.248425  1
  Sm  Sm10  1  0.627234  0.238482  0.249435  1
  Sm  Sm11  1  0.372766  0.761518  0.749435  1
  Ga  Ga12  1  0.130469  0.110643  0.750030  1
  Ga  Ga13  1  0.869531  0.889357  0.250030  1
  Ga  Ga14  1  0.126893  0.389131  0.250198  1
  Ga  Ga15  1  0.873107  0.610869  0.750198  1
  Ga  Ga16  1  0.631089  0.249931  0.501606  1
  Ga  Ga17  1  0.368911  0.750069  0.001606  1
  Ga  Ga18  1  0.370760  0.748250  0.500259  1
  Ga  Ga19  1  0.629240  0.251750  0.000259  1
  Ru  Ru20  1  0.650328  0.532627  0.591468  1
  Ru  Ru21  1  0.349672  0.467373  0.091468  1
  Rh  Rh22  1  0.352080  0.030822  0.592239  1
  Rh  Rh23  1  0.647920  0.969178  0.092239  1
  Rh  Rh24  1  0.354085  0.464278  0.407345  1
  Rh  Rh25  1  0.645915  0.535722  0.907345  1
  Rh  Rh26  1  0.645789  0.969311  0.407553  1
  Rh  Rh27  1  0.354211  0.030689  0.907553  1
