# generated using pymatgen
data_Tb8Ho2Si6C
_symmetry_space_group_name_H-M   'P 1'
_cell_length_a   8.48768100
_cell_length_b   8.48768130
_cell_length_c   6.42323800
_cell_angle_alpha   90.00000000
_cell_angle_beta   90.00000000
_cell_angle_gamma   119.99999493
_symmetry_Int_Tables_number   1
_chemical_formula_structural   Tb8Ho2Si6C
_chemical_formula_sum   'Tb8 Ho2 Si6 C1'
_cell_volume   400.74008029
_cell_formula_units_Z   1
loop_
 _symmetry_equiv_pos_site_id
 _symmetry_equiv_pos_as_xyz
  1  'x, y, z'
loop_
 _atom_site_type_symbol
 _atom_site_label
 _atom_site_symmetry_multiplicity
 _atom_site_fract_x
 _atom_site_fract_y
 _atom_site_fract_z
 _atom_site_occupancy
  Tb  Tb0  1  0.000000  0.764458  0.270803  1
  Tb  Tb1  1  0.235542  0.235542  0.270803  1
  Tb  Tb2  1  0.764458  0.000000  0.270803  1
  Tb  Tb3  1  0.000000  0.235542  0.729197  1
  Tb  Tb4  1  0.764458  0.764458  0.729197  1
  Tb  Tb5  1  0.235542  0.000000  0.729197  1
  Tb  Tb6  1  0.333333  0.666667  0.000000  1
  Tb  Tb7  1  0.666667  0.333333  0.000000  1
  Ho  Ho8  1  0.666667  0.333333  0.500000  1
  Ho  Ho9  1  0.333333  0.666667  0.500000  1
  Si  Si10  1  0.000000  0.399878  0.257441  1
  Si  Si11  1  0.600122  0.600122  0.257441  1
  Si  Si12  1  0.399878  0.000000  0.257441  1
  Si  Si13  1  0.000000  0.600122  0.742559  1
  Si  Si14  1  0.399878  0.399878  0.742559  1
  Si  Si15  1  0.600122  0.000000  0.742559  1
  C  C16  1  0.000000  0.000000  0.500000  1
