# generated using pymatgen
data_Tb12Tc2Ni2AgSn
_symmetry_space_group_name_H-M   'P 1'
_cell_length_a   8.46280149
_cell_length_b   8.46280126
_cell_length_c   8.46280123
_cell_angle_alpha   104.20598572
_cell_angle_beta   110.86722827
_cell_angle_gamma   113.47743426
_symmetry_Int_Tables_number   1
_chemical_formula_structural   Tb12Tc2Ni2AgSn
_chemical_formula_sum   'Tb12 Tc2 Ni2 Ag1 Sn1'
_cell_volume   463.38920279
_cell_formula_units_Z   1
loop_
 _symmetry_equiv_pos_site_id
 _symmetry_equiv_pos_as_xyz
  1  'x, y, z'
loop_
 _atom_site_type_symbol
 _atom_site_label
 _atom_site_symmetry_multiplicity
 _atom_site_fract_x
 _atom_site_fract_y
 _atom_site_fract_z
 _atom_site_occupancy
  Tb  Tb0  1  0.694301  0.265312  0.959611  1
  Tb  Tb1  1  0.305699  0.734688  0.040389  1
  Tb  Tb2  1  0.694301  0.734688  0.428989  1
  Tb  Tb3  1  0.305699  0.265312  0.571011  1
  Tb  Tb4  1  0.815899  0.147145  0.331246  1
  Tb  Tb5  1  0.815899  0.484653  0.668754  1
  Tb  Tb6  1  0.184101  0.852855  0.668754  1
  Tb  Tb7  1  0.184101  0.515347  0.331246  1
  Tb  Tb8  1  0.602317  0.785408  0.816910  1
  Tb  Tb9  1  0.968499  0.785408  0.183090  1
  Tb  Tb10  1  0.031501  0.214592  0.816910  1
  Tb  Tb11  1  0.397683  0.214592  0.183090  1
  Tc  Tc12  1  0.824729  0.500000  0.324729  1
  Tc  Tc13  1  0.175271  0.500000  0.675271  1
  Ni  Ni14  1  0.000000  0.115894  0.115894  1
  Ni  Ni15  1  0.000000  0.884106  0.884106  1
  Ag  Ag16  1  0.500000  0.500000  0.000000  1
  Sn  Sn17  1  0.500000  0.000000  0.500000  1
