# generated using pymatgen
data_Yb2SmTh(B4Ru)4
_symmetry_space_group_name_H-M   'P 1'
_cell_length_a   3.60729500
_cell_length_b   5.99616151
_cell_length_c   11.61088482
_cell_angle_alpha   90.19676950
_cell_angle_beta   90.00000000
_cell_angle_gamma   90.00000000
_symmetry_Int_Tables_number   1
_chemical_formula_structural   Yb2SmTh(B4Ru)4
_chemical_formula_sum   'Yb2 Sm1 Th1 B16 Ru4'
_cell_volume   251.14106866
_cell_formula_units_Z   1
loop_
 _symmetry_equiv_pos_site_id
 _symmetry_equiv_pos_as_xyz
  1  'x, y, z'
loop_
 _atom_site_type_symbol
 _atom_site_label
 _atom_site_symmetry_multiplicity
 _atom_site_fract_x
 _atom_site_fract_y
 _atom_site_fract_z
 _atom_site_occupancy
  Yb  Yb0  1  0.500000  0.127317  0.351441  1
  Yb  Yb1  1  0.500000  0.872435  0.646550  1
  Sm  Sm2  1  0.500000  0.628514  0.153707  1
  Th  Th3  1  0.500000  0.371791  0.847492  1
  B  B4  1  0.000000  0.976803  0.193134  1
  B  B5  1  0.000000  0.022184  0.808319  1
  B  B6  1  0.000000  0.475595  0.310816  1
  B  B7  1  0.000000  0.524672  0.687235  1
  B  B8  1  0.000000  0.787619  0.317575  1
  B  B9  1  0.000000  0.212633  0.681277  1
  B  B10  1  0.000000  0.283874  0.187729  1
  B  B11  1  0.000000  0.716738  0.813600  1
  B  B12  1  0.000000  0.863986  0.469194  1
  B  B13  1  0.000000  0.136152  0.530000  1
  B  B14  1  0.000000  0.360933  0.032796  1
  B  B15  1  0.000000  0.638914  0.969377  1
  B  B16  1  0.000000  0.889794  0.048052  1
  B  B17  1  0.000000  0.107533  0.954779  1
  B  B18  1  0.000000  0.386829  0.453833  1
  B  B19  1  0.000000  0.614153  0.544922  1
  Ru  Ru20  1  0.500000  0.637095  0.410579  1
  Ru  Ru21  1  0.500000  0.363281  0.588833  1
  Ru  Ru22  1  0.500000  0.139493  0.092472  1
  Ru  Ru23  1  0.500000  0.861662  0.906291  1
