# generated using pymatgen
data_Tb4SmHoRh18
_symmetry_space_group_name_H-M   'P 1'
_cell_length_a   5.28526100
_cell_length_b   5.28526136
_cell_length_c   17.52782900
_cell_angle_alpha   90.00000000
_cell_angle_beta   90.00000000
_cell_angle_gamma   119.99999147
_symmetry_Int_Tables_number   1
_chemical_formula_structural   Tb4SmHoRh18
_chemical_formula_sum   'Tb4 Sm1 Ho1 Rh18'
_cell_volume   424.02523555
_cell_formula_units_Z   1
loop_
 _symmetry_equiv_pos_site_id
 _symmetry_equiv_pos_as_xyz
  1  'x, y, z'
loop_
 _atom_site_type_symbol
 _atom_site_label
 _atom_site_symmetry_multiplicity
 _atom_site_fract_x
 _atom_site_fract_y
 _atom_site_fract_z
 _atom_site_occupancy
  Tb  Tb0  1  0.333333  0.666667  0.957866  1
  Tb  Tb1  1  0.666667  0.333333  0.041771  1
  Tb  Tb2  1  0.666667  0.333333  0.458398  1
  Tb  Tb3  1  0.333333  0.666667  0.749881  1
  Sm  Sm4  1  0.666667  0.333333  0.250006  1
  Ho  Ho5  1  0.333333  0.666667  0.542298  1
  Rh  Rh6  1  0.167332  0.832668  0.374584  1
  Rh  Rh7  1  0.167332  0.334662  0.374584  1
  Rh  Rh8  1  0.665338  0.832668  0.374584  1
  Rh  Rh9  1  0.832725  0.167275  0.625755  1
  Rh  Rh10  1  0.832725  0.665449  0.625755  1
  Rh  Rh11  1  0.334551  0.167275  0.625755  1
  Rh  Rh12  1  0.832762  0.167238  0.873968  1
  Rh  Rh13  1  0.832762  0.665524  0.873968  1
  Rh  Rh14  1  0.334476  0.167238  0.873968  1
  Rh  Rh15  1  0.167325  0.832675  0.125587  1
  Rh  Rh16  1  0.167325  0.334650  0.125587  1
  Rh  Rh17  1  0.665350  0.832675  0.125587  1
  Rh  Rh18  1  0.333333  0.666667  0.250004  1
  Rh  Rh19  1  0.666667  0.333333  0.749954  1
  Rh  Rh20  1  0.000000  0.000000  0.250117  1
  Rh  Rh21  1  0.000000  0.000000  0.749926  1
  Rh  Rh22  1  0.000000  0.000000  0.500270  1
  Rh  Rh23  1  0.000000  0.000000  0.999824  1
