# generated using pymatgen
data_La9NdCd2(SnRu3)2
_symmetry_space_group_name_H-M   'P 1'
_cell_length_a   8.77303593
_cell_length_b   8.84973577
_cell_length_c   8.80451111
_cell_angle_alpha   109.92908701
_cell_angle_beta   109.40513457
_cell_angle_gamma   109.62215486
_symmetry_Int_Tables_number   1
_chemical_formula_structural   La9NdCd2(SnRu3)2
_chemical_formula_sum   'La9 Nd1 Cd2 Sn2 Ru6'
_cell_volume   522.65295338
_cell_formula_units_Z   1
loop_
 _symmetry_equiv_pos_site_id
 _symmetry_equiv_pos_as_xyz
  1  'x, y, z'
loop_
 _atom_site_type_symbol
 _atom_site_label
 _atom_site_symmetry_multiplicity
 _atom_site_fract_x
 _atom_site_fract_y
 _atom_site_fract_z
 _atom_site_occupancy
  La  La0  1  0.743751  0.808292  0.060821  1
  La  La1  1  0.437621  0.252825  0.690153  1
  La  La2  1  0.691790  0.437884  0.249548  1
  La  La3  1  0.062224  0.745051  0.807287  1
  La  La4  1  0.811801  0.062687  0.746312  1
  La  La5  1  0.203757  0.203851  0.202419  1
  La  La6  1  0.494949  0.998742  0.292731  1
  La  La7  1  0.291424  0.499027  0.001798  1
  La  La8  1  0.000651  0.289084  0.500505  1
  Nd  Nd9  1  0.247382  0.680380  0.436634  1
  Cd  Cd10  1  0.501479  0.999313  0.911173  1
  Cd  Cd11  1  0.582948  0.585092  0.583859  1
  Sn  Sn12  1  0.908450  0.504409  0.001573  1
  Sn  Sn13  1  0.002425  0.903517  0.499402  1
  Ru  Ru14  1  0.247500  0.137304  0.878553  1
  Ru  Ru15  1  0.760177  0.369390  0.622157  1
  Ru  Ru16  1  0.898991  0.262139  0.133526  1
  Ru  Ru17  1  0.125744  0.884477  0.247411  1
  Ru  Ru18  1  0.623653  0.766997  0.374514  1
  Ru  Ru19  1  0.363284  0.609544  0.759624  1
