# generated using pymatgen
data_DyTm3Mn4F28
_symmetry_space_group_name_H-M   'P 1'
_cell_length_a   5.39065352
_cell_length_b   8.61681520
_cell_length_c   11.60068204
_cell_angle_alpha   62.60412016
_cell_angle_beta   90.04845994
_cell_angle_gamma   90.00986249
_symmetry_Int_Tables_number   1
_chemical_formula_structural   DyTm3Mn4F28
_chemical_formula_sum   'Dy1 Tm3 Mn4 F28'
_cell_volume   478.42118982
_cell_formula_units_Z   1
loop_
 _symmetry_equiv_pos_site_id
 _symmetry_equiv_pos_as_xyz
  1  'x, y, z'
loop_
 _atom_site_type_symbol
 _atom_site_label
 _atom_site_symmetry_multiplicity
 _atom_site_fract_x
 _atom_site_fract_y
 _atom_site_fract_z
 _atom_site_occupancy
  Dy  Dy0  1  0.738710  0.811648  0.264750  1
  Tm  Tm1  1  0.761840  0.811580  0.764535  1
  Tm  Tm2  1  0.261926  0.188744  0.735558  1
  Tm  Tm3  1  0.237744  0.190991  0.235176  1
  Mn  Mn4  1  0.759206  0.274522  0.955892  1
  Mn  Mn5  1  0.259115  0.725913  0.544828  1
  Mn  Mn6  1  0.241698  0.726468  0.042019  1
  Mn  Mn7  1  0.741266  0.271646  0.457414  1
  F  F8  1  0.432665  0.704470  0.919851  1
  F  F9  1  0.933579  0.294646  0.578866  1
  F  F10  1  0.567135  0.295985  0.077932  1
  F  F11  1  0.068488  0.704251  0.422337  1
  F  F12  1  0.452170  0.278121  0.541873  1
  F  F13  1  0.951432  0.720926  0.958133  1
  F  F14  1  0.547607  0.719643  0.461370  1
  F  F15  1  0.048124  0.279773  0.040777  1
  F  F16  1  0.774865  0.514798  0.860905  1
  F  F17  1  0.273841  0.485318  0.639561  1
  F  F18  1  0.225293  0.485666  0.137529  1
  F  F19  1  0.724382  0.511614  0.362176  1
  F  F20  1  0.756931  0.035875  0.046193  1
  F  F21  1  0.256946  0.964612  0.453488  1
  F  F22  1  0.243686  0.965065  0.952015  1
  F  F23  1  0.743340  0.033265  0.547954  1
  F  F24  1  0.978339  0.727179  0.635165  1
  F  F25  1  0.479430  0.273263  0.864854  1
  F  F26  1  0.021368  0.272668  0.366128  1
  F  F27  1  0.522559  0.725981  0.132083  1
  F  F28  1  0.055283  0.742832  0.170052  1
  F  F29  1  0.550695  0.254746  0.329911  1
  F  F30  1  0.949691  0.256384  0.828964  1
  F  F31  1  0.448357  0.744017  0.671934  1
  F  F32  1  0.404789  0.972285  0.228546  1
  F  F33  1  0.909909  0.034624  0.271148  1
  F  F34  1  0.588889  0.029657  0.770576  1
  F  F35  1  0.088703  0.970826  0.729507  1
