# generated using pymatgen
data_Tm8LuTh3Co4
_symmetry_space_group_name_H-M   'P 1'
_cell_length_a   6.21127805
_cell_length_b   6.85323670
_cell_length_c   9.40101202
_cell_angle_alpha   89.99739203
_cell_angle_beta   90.00788805
_cell_angle_gamma   91.05102381
_symmetry_Int_Tables_number   1
_chemical_formula_structural   Tm8LuTh3Co4
_chemical_formula_sum   'Tm8 Lu1 Th3 Co4'
_cell_volume   400.10891927
_cell_formula_units_Z   1
loop_
 _symmetry_equiv_pos_site_id
 _symmetry_equiv_pos_as_xyz
  1  'x, y, z'
loop_
 _atom_site_type_symbol
 _atom_site_label
 _atom_site_symmetry_multiplicity
 _atom_site_fract_x
 _atom_site_fract_y
 _atom_site_fract_z
 _atom_site_occupancy
  Tm  Tm0  1  0.329356  0.674522  0.067450  1
  Tm  Tm1  1  0.169584  0.171073  0.431864  1
  Tm  Tm2  1  0.673539  0.327051  0.569382  1
  Tm  Tm3  1  0.824953  0.827489  0.928422  1
  Tm  Tm4  1  0.673530  0.326866  0.930763  1
  Tm  Tm5  1  0.824845  0.827432  0.571635  1
  Tm  Tm6  1  0.329597  0.674474  0.432563  1
  Tm  Tm7  1  0.357425  0.958594  0.750240  1
  Lu  Lu8  1  0.169601  0.171132  0.068136  1
  Th  Th9  1  0.847558  0.548729  0.249920  1
  Th  Th10  1  0.652245  0.052263  0.249707  1
  Th  Th11  1  0.154497  0.451449  0.750236  1
  Co  Co12  1  0.038474  0.871639  0.249791  1
  Co  Co13  1  0.458896  0.372723  0.249689  1
  Co  Co14  1  0.959556  0.130922  0.750260  1
  Co  Co15  1  0.536345  0.613642  0.749941  1
