# generated using pymatgen
data_Ho5Er11In4Pt3Rh
_symmetry_space_group_name_H-M   'P 1'
_cell_length_a   9.62440343
_cell_length_b   9.62775712
_cell_length_c   9.62682856
_cell_angle_alpha   60.12705668
_cell_angle_beta   60.10826463
_cell_angle_gamma   60.10198911
_symmetry_Int_Tables_number   1
_chemical_formula_structural   Ho5Er11In4Pt3Rh
_chemical_formula_sum   'Ho5 Er11 In4 Pt3 Rh1'
_cell_volume   632.37116641
_cell_formula_units_Z   1
loop_
 _symmetry_equiv_pos_site_id
 _symmetry_equiv_pos_as_xyz
  1  'x, y, z'
loop_
 _atom_site_type_symbol
 _atom_site_label
 _atom_site_symmetry_multiplicity
 _atom_site_fract_x
 _atom_site_fract_y
 _atom_site_fract_z
 _atom_site_occupancy
  Ho  Ho0  1  0.190148  0.190326  0.808992  1
  Ho  Ho1  1  0.438467  0.062019  0.062275  1
  Ho  Ho2  1  0.437303  0.063631  0.437296  1
  Ho  Ho3  1  0.061940  0.438582  0.062285  1
  Ho  Ho4  1  0.650680  0.051818  0.650379  1
  Er  Er5  1  0.186585  0.810607  0.810651  1
  Er  Er6  1  0.061896  0.061994  0.438672  1
  Er  Er7  1  0.809009  0.190248  0.190295  1
  Er  Er8  1  0.810701  0.810563  0.186679  1
  Er  Er9  1  0.650398  0.650452  0.051700  1
  Er  Er10  1  0.649408  0.649244  0.649288  1
  Er  Er11  1  0.063449  0.437506  0.437385  1
  Er  Er12  1  0.051582  0.650634  0.650336  1
  Er  Er13  1  0.810691  0.186650  0.810616  1
  Er  Er14  1  0.437487  0.437584  0.063509  1
  Er  Er15  1  0.190265  0.808914  0.190406  1
  In  In16  1  0.416627  0.749461  0.416685  1
  In  In17  1  0.416761  0.416882  0.749446  1
  In  In18  1  0.749709  0.416678  0.416610  1
  In  In19  1  0.416145  0.416398  0.415974  1
  Pt  Pt20  1  0.857244  0.428055  0.857617  1
  Pt  Pt21  1  0.857950  0.857412  0.427466  1
  Pt  Pt22  1  0.427805  0.856964  0.857898  1
  Rh  Rh23  1  0.857753  0.857379  0.857542  1
