# generated using pymatgen
data_SrTb5YFeI12
_symmetry_space_group_name_H-M   'P 1'
_cell_length_a   9.78347197
_cell_length_b   9.78615009
_cell_length_c   9.84942130
_cell_angle_alpha   106.16674022
_cell_angle_beta   106.45569891
_cell_angle_gamma   106.10342672
_symmetry_Int_Tables_number   1
_chemical_formula_structural   SrTb5YFeI12
_chemical_formula_sum   'Sr1 Tb5 Y1 Fe1 I12'
_cell_volume   801.02505191
_cell_formula_units_Z   1
loop_
 _symmetry_equiv_pos_site_id
 _symmetry_equiv_pos_as_xyz
  1  'x, y, z'
loop_
 _atom_site_type_symbol
 _atom_site_label
 _atom_site_symmetry_multiplicity
 _atom_site_fract_x
 _atom_site_fract_y
 _atom_site_fract_z
 _atom_site_occupancy
  Sr  Sr0  1  0.499939  0.499981  0.500063  1
  Tb  Tb1  1  0.716058  0.980728  0.910880  1
  Tb  Tb2  1  0.980518  0.906148  0.703227  1
  Tb  Tb3  1  0.089300  0.282545  0.019378  1
  Tb  Tb4  1  0.284081  0.019361  0.089281  1
  Tb  Tb5  1  0.910765  0.717584  0.980687  1
  Y  Y6  1  0.019571  0.093867  0.297172  1
  Fe  Fe7  1  0.999988  0.999881  0.999396  1
  I  I8  1  0.074655  0.225581  0.680324  1
  I  I9  1  0.366162  0.133490  0.445087  1
  I  I10  1  0.633215  0.866412  0.554827  1
  I  I11  1  0.223913  0.681171  0.074408  1
  I  I12  1  0.776151  0.318869  0.925744  1
  I  I13  1  0.679538  0.073858  0.222978  1
  I  I14  1  0.553490  0.632885  0.864440  1
  I  I15  1  0.865534  0.552680  0.634745  1
  I  I16  1  0.925426  0.775058  0.319096  1
  I  I17  1  0.321207  0.926390  0.777460  1
  I  I18  1  0.446539  0.367178  0.135685  1
  I  I19  1  0.133949  0.446333  0.365122  1
