# generated using pymatgen
data_Ti10Zn2Sn5Sb
_symmetry_space_group_name_H-M   'P 1'
_cell_length_a   8.24105000
_cell_length_b   8.23006375
_cell_length_c   5.56130500
_cell_angle_alpha   90.00000000
_cell_angle_beta   90.00000000
_cell_angle_gamma   120.04416773
_symmetry_Int_Tables_number   1
_chemical_formula_structural   Ti10Zn2Sn5Sb
_chemical_formula_sum   'Ti10 Zn2 Sn5 Sb1'
_cell_volume   326.51236544
_cell_formula_units_Z   1
loop_
 _symmetry_equiv_pos_site_id
 _symmetry_equiv_pos_as_xyz
  1  'x, y, z'
loop_
 _atom_site_type_symbol
 _atom_site_label
 _atom_site_symmetry_multiplicity
 _atom_site_fract_x
 _atom_site_fract_y
 _atom_site_fract_z
 _atom_site_occupancy
  Ti  Ti0  1  0.729686  0.731256  0.250000  1
  Ti  Ti1  1  0.729200  0.000000  0.750000  1
  Ti  Ti2  1  0.998431  0.268744  0.250000  1
  Ti  Ti3  1  0.999915  0.729616  0.750000  1
  Ti  Ti4  1  0.270300  0.270384  0.750000  1
  Ti  Ti5  1  0.271216  0.000000  0.250000  1
  Ti  Ti6  1  0.334332  0.667888  0.500057  1
  Ti  Ti7  1  0.666444  0.332112  0.999943  1
  Ti  Ti8  1  0.666444  0.332112  0.500057  1
  Ti  Ti9  1  0.334332  0.667888  0.999943  1
  Zn  Zn10  1  0.001229  0.000000  0.999209  1
  Zn  Zn11  1  0.001229  0.000000  0.500791  1
  Sn  Sn12  1  0.382341  0.000000  0.750000  1
  Sn  Sn13  1  0.383666  0.384103  0.250000  1
  Sn  Sn14  1  0.999562  0.615897  0.250000  1
  Sn  Sn15  1  0.000757  0.384638  0.750000  1
  Sn  Sn16  1  0.616120  0.615362  0.750000  1
  Sb  Sb17  1  0.614798  0.000000  0.250000  1
