# generated using pymatgen
data_Ce6Al21Si3Os8
_symmetry_space_group_name_H-M   'P 1'
_cell_length_a   8.83795600
_cell_length_b   8.83795651
_cell_length_c   9.57273100
_cell_angle_alpha   90.00000000
_cell_angle_beta   90.00000000
_cell_angle_gamma   119.99999810
_symmetry_Int_Tables_number   1
_chemical_formula_structural   Ce6Al21Si3Os8
_chemical_formula_sum   'Ce6 Al21 Si3 Os8'
_cell_volume   647.54535179
_cell_formula_units_Z   1
loop_
 _symmetry_equiv_pos_site_id
 _symmetry_equiv_pos_as_xyz
  1  'x, y, z'
loop_
 _atom_site_type_symbol
 _atom_site_label
 _atom_site_symmetry_multiplicity
 _atom_site_fract_x
 _atom_site_fract_y
 _atom_site_fract_z
 _atom_site_occupancy
  Ce  Ce0  1  0.193872  0.387745  0.249152  1
  Ce  Ce1  1  0.805909  0.611819  0.750901  1
  Ce  Ce2  1  0.612255  0.806128  0.249152  1
  Ce  Ce3  1  0.388181  0.194091  0.750901  1
  Ce  Ce4  1  0.193872  0.806128  0.249152  1
  Ce  Ce5  1  0.805909  0.194091  0.750901  1
  Al  Al6  1  0.333333  0.666667  0.482775  1
  Al  Al7  1  0.162848  0.325695  0.575166  1
  Al  Al8  1  0.836385  0.672770  0.423376  1
  Al  Al9  1  0.674305  0.837152  0.575166  1
  Al  Al10  1  0.836672  0.673343  0.076432  1
  Al  Al11  1  0.327230  0.163615  0.423376  1
  Al  Al12  1  0.163727  0.327454  0.922624  1
  Al  Al13  1  0.162848  0.837152  0.575166  1
  Al  Al14  1  0.326657  0.163328  0.076432  1
  Al  Al15  1  0.836385  0.163615  0.423376  1
  Al  Al16  1  0.672546  0.836273  0.922624  1
  Al  Al17  1  0.836672  0.163328  0.076432  1
  Al  Al18  1  0.163727  0.836273  0.922624  1
  Al  Al19  1  0.563907  0.127816  0.249235  1
  Al  Al20  1  0.436570  0.873139  0.748513  1
  Al  Al21  1  0.872184  0.436093  0.249235  1
  Al  Al22  1  0.126861  0.563430  0.748513  1
  Al  Al23  1  0.563907  0.436093  0.249235  1
  Al  Al24  1  0.436570  0.563430  0.748513  1
  Al  Al25  1  0.000000  0.000000  0.249064  1
  Al  Al26  1  0.000000  0.000000  0.749184  1
  Si  Si27  1  0.333333  0.666667  0.035055  1
  Si  Si28  1  0.666667  0.333333  0.967948  1
  Si  Si29  1  0.666667  0.333333  0.532456  1
  Os  Os30  1  0.500079  0.000158  0.998830  1
  Os  Os31  1  0.999842  0.499921  0.998830  1
  Os  Os32  1  0.503759  0.007516  0.500982  1
  Os  Os33  1  0.500079  0.499921  0.998830  1
  Os  Os34  1  0.992484  0.496241  0.500982  1
  Os  Os35  1  0.503759  0.496241  0.500982  1
  Os  Os36  1  0.000000  0.000000  0.998999  1
  Os  Os37  1  0.000000  0.000000  0.498888  1
