# generated using pymatgen
data_Cs16ThSnBi8
_symmetry_space_group_name_H-M   'P 1'
_cell_length_a   12.91016537
_cell_length_b   12.91016460
_cell_length_c   12.91016500
_cell_angle_alpha   59.99999640
_cell_angle_beta   59.99999840
_cell_angle_gamma   59.99999990
_symmetry_Int_Tables_number   1
_chemical_formula_structural   Cs16ThSnBi8
_chemical_formula_sum   'Cs16 Th1 Sn1 Bi8'
_cell_volume   1521.52944844
_cell_formula_units_Z   1
loop_
 _symmetry_equiv_pos_site_id
 _symmetry_equiv_pos_as_xyz
  1  'x, y, z'
loop_
 _atom_site_type_symbol
 _atom_site_label
 _atom_site_symmetry_multiplicity
 _atom_site_fract_x
 _atom_site_fract_y
 _atom_site_fract_z
 _atom_site_occupancy
  Cs  Cs0  1  0.622047  0.133860  0.622047  1
  Cs  Cs1  1  0.622047  0.622047  0.133860  1
  Cs  Cs2  1  0.133860  0.622047  0.622047  1
  Cs  Cs3  1  0.622047  0.622047  0.622047  1
  Cs  Cs4  1  0.023921  0.023921  0.476079  1
  Cs  Cs5  1  0.775417  0.224583  0.224583  1
  Cs  Cs6  1  0.224583  0.775417  0.775417  1
  Cs  Cs7  1  0.775417  0.775417  0.224583  1
  Cs  Cs8  1  0.775417  0.224583  0.775417  1
  Cs  Cs9  1  0.224583  0.775417  0.224583  1
  Cs  Cs10  1  0.476079  0.023921  0.476079  1
  Cs  Cs11  1  0.476079  0.023921  0.023921  1
  Cs  Cs12  1  0.023921  0.476079  0.476079  1
  Cs  Cs13  1  0.023921  0.476079  0.023921  1
  Cs  Cs14  1  0.224583  0.224583  0.775417  1
  Cs  Cs15  1  0.476079  0.476079  0.023921  1
  Th  Th16  1  0.750000  0.750000  0.750000  1
  Sn  Sn17  1  0.500000  0.500000  0.500000  1
  Bi  Bi18  1  0.402526  0.792421  0.402526  1
  Bi  Bi19  1  0.851167  0.851167  0.446500  1
  Bi  Bi20  1  0.446500  0.851167  0.851167  1
  Bi  Bi21  1  0.851167  0.851167  0.851167  1
  Bi  Bi22  1  0.792421  0.402526  0.402526  1
  Bi  Bi23  1  0.402526  0.402526  0.402526  1
  Bi  Bi24  1  0.402526  0.402526  0.792421  1
  Bi  Bi25  1  0.851167  0.446500  0.851167  1
