# generated using pymatgen
data_Sc8Re2B24RuRh
_symmetry_space_group_name_H-M   'P 1'
_cell_length_a   3.50666600
_cell_length_b   8.88818039
_cell_length_c   11.21450230
_cell_angle_alpha   90.18436903
_cell_angle_beta   90.00000000
_cell_angle_gamma   90.00000000
_symmetry_Int_Tables_number   1
_chemical_formula_structural   Sc8Re2B24RuRh
_chemical_formula_sum   'Sc8 Re2 B24 Ru1 Rh1'
_cell_volume   349.53045181
_cell_formula_units_Z   1
loop_
 _symmetry_equiv_pos_site_id
 _symmetry_equiv_pos_as_xyz
  1  'x, y, z'
loop_
 _atom_site_type_symbol
 _atom_site_label
 _atom_site_symmetry_multiplicity
 _atom_site_fract_x
 _atom_site_fract_y
 _atom_site_fract_z
 _atom_site_occupancy
  Sc  Sc0  1  0.000000  0.316318  0.408945  1
  Sc  Sc1  1  0.000000  0.686244  0.586765  1
  Sc  Sc2  1  0.000000  0.822840  0.084869  1
  Sc  Sc3  1  0.000000  0.175687  0.918361  1
  Sc  Sc4  1  0.000000  0.944114  0.372111  1
  Sc  Sc5  1  0.000000  0.054128  0.627386  1
  Sc  Sc6  1  0.000000  0.443941  0.128055  1
  Sc  Sc7  1  0.000000  0.558040  0.873321  1
  Re  Re8  1  0.000000  0.139072  0.180443  1
  Re  Re9  1  0.000000  0.861206  0.819668  1
  B  B10  1  0.500000  0.553570  0.435363  1
  B  B11  1  0.500000  0.445771  0.564016  1
  B  B12  1  0.500000  0.053239  0.065109  1
  B  B13  1  0.500000  0.947638  0.934935  1
  B  B14  1  0.500000  0.751951  0.421262  1
  B  B15  1  0.500000  0.247414  0.577426  1
  B  B16  1  0.500000  0.252564  0.078653  1
  B  B17  1  0.500000  0.748032  0.921596  1
  B  B18  1  0.500000  0.793098  0.264353  1
  B  B19  1  0.500000  0.206791  0.735815  1
  B  B20  1  0.500000  0.295104  0.236525  1
  B  B21  1  0.500000  0.704658  0.763055  1
  B  B22  1  0.500000  0.629565  0.182784  1
  B  B23  1  0.500000  0.370039  0.818785  1
  B  B24  1  0.500000  0.129569  0.318015  1
  B  B25  1  0.500000  0.870149  0.681787  1
  B  B26  1  0.500000  0.978383  0.212886  1
  B  B27  1  0.500000  0.021649  0.786893  1
  B  B28  1  0.500000  0.479654  0.288065  1
  B  B29  1  0.500000  0.519931  0.712523  1
  B  B30  1  0.500000  0.600193  0.027756  1
  B  B31  1  0.500000  0.399454  0.972315  1
  B  B32  1  0.500000  0.101203  0.472675  1
  B  B33  1  0.500000  0.898847  0.527481  1
  Ru  Ru34  1  0.000000  0.638536  0.320709  1
  Rh  Rh35  1  0.000000  0.361406  0.679296  1
