# generated using pymatgen
data_LaY3Zr4F28
_symmetry_space_group_name_H-M   'P 1'
_cell_length_a   5.81209947
_cell_length_b   9.21085157
_cell_length_c   12.39113707
_cell_angle_alpha   62.34581764
_cell_angle_beta   89.98200197
_cell_angle_gamma   90.02773114
_symmetry_Int_Tables_number   1
_chemical_formula_structural   LaY3Zr4F28
_chemical_formula_sum   'La1 Y3 Zr4 F28'
_cell_volume   587.57376743
_cell_formula_units_Z   1
loop_
 _symmetry_equiv_pos_site_id
 _symmetry_equiv_pos_as_xyz
  1  'x, y, z'
loop_
 _atom_site_type_symbol
 _atom_site_label
 _atom_site_symmetry_multiplicity
 _atom_site_fract_x
 _atom_site_fract_y
 _atom_site_fract_z
 _atom_site_occupancy
  La  La0  1  0.757093  0.817310  0.766601  1
  Y  Y1  1  0.743617  0.817765  0.266152  1
  Y  Y2  1  0.243425  0.185374  0.233856  1
  Y  Y3  1  0.257511  0.191167  0.732996  1
  Zr  Zr4  1  0.743556  0.279081  0.451888  1
  Zr  Zr5  1  0.244552  0.724998  0.050931  1
  Zr  Zr6  1  0.254876  0.725797  0.539169  1
  Zr  Zr7  1  0.755295  0.268580  0.957764  1
  F  F8  1  0.457163  0.707552  0.927439  1
  F  F9  1  0.964608  0.288657  0.576389  1
  F  F10  1  0.532740  0.285711  0.078647  1
  F  F11  1  0.031586  0.711025  0.418136  1
  F  F12  1  0.457229  0.282198  0.548675  1
  F  F13  1  0.957450  0.713608  0.960238  1
  F  F14  1  0.546640  0.719216  0.447590  1
  F  F15  1  0.042549  0.277708  0.051925  1
  F  F16  1  0.770004  0.515988  0.861192  1
  F  F17  1  0.267474  0.475712  0.638514  1
  F  F18  1  0.235337  0.474359  0.144157  1
  F  F19  1  0.732889  0.527818  0.356407  1
  F  F20  1  0.759523  0.020483  0.059705  1
  F  F21  1  0.259137  0.974586  0.439860  1
  F  F22  1  0.239949  0.972428  0.943791  1
  F  F23  1  0.739439  0.030793  0.550788  1
  F  F24  1  0.986097  0.730111  0.642371  1
  F  F25  1  0.485904  0.265713  0.852374  1
  F  F26  1  0.011029  0.265942  0.348945  1
  F  F27  1  0.514315  0.734924  0.153043  1
  F  F28  1  0.032614  0.747065  0.175612  1
  F  F29  1  0.530623  0.254815  0.327618  1
  F  F30  1  0.966997  0.250411  0.830312  1
  F  F31  1  0.455724  0.742308  0.668506  1
  F  F32  1  0.432293  0.975920  0.235737  1
  F  F33  1  0.933271  0.025787  0.264337  1
  F  F34  1  0.568940  0.039416  0.765683  1
  F  F35  1  0.088551  0.979676  0.732651  1
