# generated using pymatgen
data_NaV8CoS16
_symmetry_space_group_name_H-M   'P 1'
_cell_length_a   6.37275800
_cell_length_b   6.37275859
_cell_length_c   13.08785500
_cell_angle_alpha   90.00000000
_cell_angle_beta   90.00000000
_cell_angle_gamma   119.99999694
_symmetry_Int_Tables_number   1
_chemical_formula_structural   NaV8CoS16
_chemical_formula_sum   'Na1 V8 Co1 S16'
_cell_volume   460.31381975
_cell_formula_units_Z   1
loop_
 _symmetry_equiv_pos_site_id
 _symmetry_equiv_pos_as_xyz
  1  'x, y, z'
loop_
 _atom_site_type_symbol
 _atom_site_label
 _atom_site_symmetry_multiplicity
 _atom_site_fract_x
 _atom_site_fract_y
 _atom_site_fract_z
 _atom_site_occupancy
  Na  Na0  1  0.000000  0.000000  0.000000  1
  V  V1  1  0.989013  0.494506  0.283731  1
  V  V2  1  0.010987  0.505494  0.716269  1
  V  V3  1  0.494506  0.505494  0.716269  1
  V  V4  1  0.505494  0.010987  0.283731  1
  V  V5  1  0.000000  0.000000  0.718771  1
  V  V6  1  0.000000  0.000000  0.281229  1
  V  V7  1  0.505494  0.494506  0.283731  1
  V  V8  1  0.494506  0.989013  0.716269  1
  Co  Co9  1  0.000000  0.000000  0.500000  1
  S  S10  1  0.333333  0.666667  0.601784  1
  S  S11  1  0.666667  0.333333  0.166593  1
  S  S12  1  0.666667  0.333333  0.398216  1
  S  S13  1  0.333333  0.666667  0.833407  1
  S  S14  1  0.165713  0.331427  0.392881  1
  S  S15  1  0.832082  0.167918  0.829981  1
  S  S16  1  0.335838  0.167918  0.829981  1
  S  S17  1  0.668573  0.834287  0.392881  1
  S  S18  1  0.165713  0.834287  0.392881  1
  S  S19  1  0.832082  0.664162  0.829981  1
  S  S20  1  0.167918  0.335838  0.170019  1
  S  S21  1  0.834287  0.165713  0.607119  1
  S  S22  1  0.331427  0.165713  0.607119  1
  S  S23  1  0.664162  0.832082  0.170019  1
  S  S24  1  0.167918  0.832082  0.170019  1
  S  S25  1  0.834287  0.668573  0.607119  1
