# generated using pymatgen
data_Ti8Al13Ga2Ru(PtRh2)2
_symmetry_space_group_name_H-M   'P 1'
_cell_length_a   8.66327626
_cell_length_b   8.65151960
_cell_length_c   8.66327700
_cell_angle_alpha   120.11263922
_cell_angle_beta   119.74818965
_cell_angle_gamma   90.16008590
_symmetry_Int_Tables_number   1
_chemical_formula_structural   Ti8Al13Ga2Ru(PtRh2)2
_chemical_formula_sum   'Ti8 Al13 Ga2 Ru1 Pt2 Rh4'
_cell_volume   459.45453351
_cell_formula_units_Z   1
loop_
 _symmetry_equiv_pos_site_id
 _symmetry_equiv_pos_as_xyz
  1  'x, y, z'
loop_
 _atom_site_type_symbol
 _atom_site_label
 _atom_site_symmetry_multiplicity
 _atom_site_fract_x
 _atom_site_fract_y
 _atom_site_fract_z
 _atom_site_occupancy
  Ti  Ti0  1  0.791807  0.292676  0.076407  1
  Ti  Ti1  1  0.216269  0.292676  0.500868  1
  Ti  Ti2  1  0.207934  0.708312  0.500378  1
  Ti  Ti3  1  0.214852  0.713644  0.921111  1
  Ti  Ti4  1  0.792533  0.713644  0.498792  1
  Ti  Ti5  1  0.783705  0.283628  0.499924  1
  Ti  Ti6  1  0.383419  0.130464  0.747046  1
  Ti  Ti7  1  0.379209  0.633823  0.254611  1
  Al  Al8  1  0.154014  0.967033  0.813020  1
  Al  Al9  1  0.151983  0.348768  0.807290  1
  Al  Al10  1  0.541477  0.348768  0.196785  1
  Al  Al11  1  0.844616  0.653857  0.809242  1
  Al  Al12  1  0.846217  0.034149  0.187931  1
  Al  Al13  1  0.839877  0.652647  0.181356  1
  Al  Al14  1  0.471291  0.652647  0.812770  1
  Al  Al15  1  0.377255  0.123036  0.260490  1
  Al  Al16  1  0.862548  0.123036  0.745782  1
  Al  Al17  1  0.617703  0.872212  0.254509  1
  Al  Al18  1  0.620673  0.364623  0.743949  1
  Al  Al19  1  0.621252  0.875650  0.737890  1
  Al  Al20  1  0.137757  0.875650  0.254396  1
  Ga  Ga21  1  0.995735  0.495906  0.500170  1
  Ga  Ga22  1  0.152422  0.349857  0.197434  1
  Ru  Ru23  1  0.496502  0.497070  0.000568  1
  Pt  Pt24  1  0.000419  0.000273  0.501060  1
  Pt  Pt25  1  0.499212  0.000273  0.999854  1
  Rh  Rh26  1  0.501214  0.499132  0.499805  1
  Rh  Rh27  1  0.999326  0.499132  0.997918  1
  Rh  Rh28  1  0.999235  0.997930  0.998694  1
  Rh  Rh29  1  0.499540  0.999484  0.499945  1
