# generated using pymatgen
data_Ho6Al20Fe3Si4Ru5
_symmetry_space_group_name_H-M   'P 1'
_cell_length_a   8.62523114
_cell_length_b   8.64353225
_cell_length_c   9.51978899
_cell_angle_alpha   90.00000114
_cell_angle_beta   89.95496158
_cell_angle_gamma   120.07021869
_symmetry_Int_Tables_number   1
_chemical_formula_structural   Ho6Al20Fe3Si4Ru5
_chemical_formula_sum   'Ho6 Al20 Fe3 Si4 Ru5'
_cell_volume   614.20315722
_cell_formula_units_Z   1
loop_
 _symmetry_equiv_pos_site_id
 _symmetry_equiv_pos_as_xyz
  1  'x, y, z'
loop_
 _atom_site_type_symbol
 _atom_site_label
 _atom_site_symmetry_multiplicity
 _atom_site_fract_x
 _atom_site_fract_y
 _atom_site_fract_z
 _atom_site_occupancy
  Ho  Ho0  1  0.195329  0.391047  0.249362  1
  Ho  Ho1  1  0.804671  0.608953  0.750638  1
  Ho  Ho2  1  0.607616  0.803809  0.248015  1
  Ho  Ho3  1  0.392384  0.196191  0.751985  1
  Ho  Ho4  1  0.195329  0.804284  0.249362  1
  Ho  Ho5  1  0.804671  0.195716  0.750638  1
  Al  Al6  1  0.161320  0.323706  0.576570  1
  Al  Al7  1  0.838680  0.676294  0.423430  1
  Al  Al8  1  0.676614  0.838308  0.576354  1
  Al  Al9  1  0.840839  0.674637  0.074975  1
  Al  Al10  1  0.323386  0.161692  0.423646  1
  Al  Al11  1  0.159161  0.325363  0.925025  1
  Al  Al12  1  0.161320  0.837615  0.576570  1
  Al  Al13  1  0.323372  0.161685  0.076090  1
  Al  Al14  1  0.838680  0.162385  0.423430  1
  Al  Al15  1  0.676628  0.838315  0.923910  1
  Al  Al16  1  0.840839  0.166201  0.074975  1
  Al  Al17  1  0.159161  0.833799  0.925025  1
  Al  Al18  1  0.564165  0.127715  0.249603  1
  Al  Al19  1  0.435835  0.872285  0.750397  1
  Al  Al20  1  0.875441  0.437720  0.245298  1
  Al  Al21  1  0.124559  0.562280  0.754702  1
  Al  Al22  1  0.564165  0.436449  0.249603  1
  Al  Al23  1  0.435835  0.563551  0.750397  1
  Al  Al24  1  0.999983  0.999991  0.249815  1
  Al  Al25  1  0.000017  0.000009  0.750185  1
  Fe  Fe26  1  0.000000  0.500000  0.000000  1
  Fe  Fe27  1  0.000000  0.000000  0.000000  1
  Fe  Fe28  1  0.000000  0.000000  0.500000  1
  Si  Si29  1  0.325054  0.662528  0.033663  1
  Si  Si30  1  0.674946  0.337472  0.966337  1
  Si  Si31  1  0.666661  0.333330  0.535752  1
  Si  Si32  1  0.333339  0.666670  0.464248  1
  Ru  Ru33  1  0.500000  0.000000  0.000000  1
  Ru  Ru34  1  0.500000  0.000000  0.500000  1
  Ru  Ru35  1  0.500000  0.500000  0.000000  1
  Ru  Ru36  1  0.000000  0.500000  0.500000  1
  Ru  Ru37  1  0.500000  0.500000  0.500000  1
