# generated using pymatgen
data_SrHo6PtI12
_symmetry_space_group_name_H-M   'P 1'
_cell_length_a   9.81039882
_cell_length_b   9.81039953
_cell_length_c   9.81039883
_cell_angle_alpha   106.47599852
_cell_angle_beta   106.47600444
_cell_angle_gamma   106.47600537
_symmetry_Int_Tables_number   1
_chemical_formula_structural   SrHo6PtI12
_chemical_formula_sum   'Sr1 Ho6 Pt1 I12'
_cell_volume   797.30450620
_cell_formula_units_Z   1
loop_
 _symmetry_equiv_pos_site_id
 _symmetry_equiv_pos_as_xyz
  1  'x, y, z'
loop_
 _atom_site_type_symbol
 _atom_site_label
 _atom_site_symmetry_multiplicity
 _atom_site_fract_x
 _atom_site_fract_y
 _atom_site_fract_z
 _atom_site_occupancy
  Sr  Sr0  1  0.000000  0.000000  0.000000  1
  Ho  Ho1  1  0.404164  0.476249  0.201891  1
  Ho  Ho2  1  0.201891  0.404164  0.476249  1
  Ho  Ho3  1  0.476249  0.201891  0.404164  1
  Ho  Ho4  1  0.595836  0.523751  0.798109  1
  Ho  Ho5  1  0.798109  0.595836  0.523751  1
  Ho  Ho6  1  0.523751  0.798109  0.595836  1
  Pt  Pt7  1  0.500000  0.500000  0.500000  1
  I  I8  1  0.047799  0.363328  0.127344  1
  I  I9  1  0.127344  0.047799  0.363328  1
  I  I10  1  0.363328  0.127344  0.047799  1
  I  I11  1  0.952201  0.636672  0.872656  1
  I  I12  1  0.872656  0.952201  0.636672  1
  I  I13  1  0.636672  0.872656  0.952201  1
  I  I14  1  0.722112  0.573775  0.176474  1
  I  I15  1  0.176474  0.722112  0.573775  1
  I  I16  1  0.573775  0.176474  0.722112  1
  I  I17  1  0.277888  0.426225  0.823526  1
  I  I18  1  0.823526  0.277888  0.426225  1
  I  I19  1  0.426225  0.823526  0.277888  1
