# generated using pymatgen
data_TaB4Ru4W3
_symmetry_space_group_name_H-M   'P 1'
_cell_length_a   3.02121300
_cell_length_b   8.99304355
_cell_length_c   15.78946590
_cell_angle_alpha   89.83264988
_cell_angle_beta   90.00000000
_cell_angle_gamma   90.00000000
_symmetry_Int_Tables_number   1
_chemical_formula_structural   TaB4Ru4W3
_chemical_formula_sum   'Ta3 B12 Ru12 W9'
_cell_volume   428.99638117
_cell_formula_units_Z   3
loop_
 _symmetry_equiv_pos_site_id
 _symmetry_equiv_pos_as_xyz
  1  'x, y, z'
loop_
 _atom_site_type_symbol
 _atom_site_label
 _atom_site_symmetry_multiplicity
 _atom_site_fract_x
 _atom_site_fract_y
 _atom_site_fract_z
 _atom_site_occupancy
  Ta  Ta0  1  0.000000  0.299898  0.801509  1
  Ta  Ta1  1  0.000000  0.202626  0.302219  1
  Ta  Ta2  1  0.000000  0.800689  0.698591  1
  B  B3  1  0.500000  0.603436  0.495511  1
  B  B4  1  0.500000  0.397565  0.504142  1
  B  B5  1  0.500000  0.101411  0.005332  1
  B  B6  1  0.500000  0.894365  0.996660  1
  B  B7  1  0.000000  0.601307  0.831818  1
  B  B8  1  0.000000  0.398039  0.168022  1
  B  B9  1  0.000000  0.099182  0.668286  1
  B  B10  1  0.000000  0.901254  0.332843  1
  B  B11  1  0.500000  0.712667  0.593491  1
  B  B12  1  0.500000  0.289283  0.406333  1
  B  B13  1  0.500000  0.210915  0.906210  1
  B  B14  1  0.500000  0.783369  0.095574  1
  Ru  Ru15  1  0.500000  0.724844  0.346452  1
  Ru  Ru16  1  0.500000  0.275043  0.649651  1
  Ru  Ru17  1  0.500000  0.223574  0.149536  1
  Ru  Ru18  1  0.500000  0.775200  0.851154  1
  Ru  Ru19  1  0.500000  0.515208  0.087957  1
  Ru  Ru20  1  0.500000  0.480501  0.911305  1
  Ru  Ru21  1  0.500000  0.019181  0.412701  1
  Ru  Ru22  1  0.500000  0.981520  0.588412  1
  Ru  Ru23  1  0.500000  0.544865  0.735910  1
  Ru  Ru24  1  0.500000  0.461695  0.261642  1
  Ru  Ru25  1  0.500000  0.043869  0.764812  1
  Ru  Ru26  1  0.500000  0.959741  0.237671  1
  W  W27  1  0.000000  0.790259  0.491018  1
  W  W28  1  0.000000  0.210128  0.507960  1
  W  W29  1  0.000000  0.289057  0.007694  1
  W  W30  1  0.000000  0.707481  0.992717  1
  W  W31  1  0.000000  0.512918  0.590979  1
  W  W32  1  0.000000  0.488614  0.408752  1
  W  W33  1  0.000000  0.012231  0.909904  1
  W  W34  1  0.000000  0.982812  0.092714  1
  W  W35  1  0.000000  0.705252  0.194518  1
