# generated using pymatgen
data_SrAc3Au8
_symmetry_space_group_name_H-M   'P 1'
_cell_length_a   6.17937649
_cell_length_b   6.17937632
_cell_length_c   11.44628400
_cell_angle_alpha   86.98588297
_cell_angle_beta   86.98588306
_cell_angle_gamma   45.17526699
_symmetry_Int_Tables_number   1
_chemical_formula_structural   SrAc3Au8
_chemical_formula_sum   'Sr1 Ac3 Au8'
_cell_volume   309.49799054
_cell_formula_units_Z   1
loop_
 _symmetry_equiv_pos_site_id
 _symmetry_equiv_pos_as_xyz
  1  'x, y, z'
loop_
 _atom_site_type_symbol
 _atom_site_label
 _atom_site_symmetry_multiplicity
 _atom_site_fract_x
 _atom_site_fract_y
 _atom_site_fract_z
 _atom_site_occupancy
  Sr  Sr0  1  0.907321  0.907321  0.406792  1
  Ac  Ac1  1  0.670040  0.670040  0.668491  1
  Ac  Ac2  1  0.172755  0.172755  0.174715  1
  Ac  Ac3  1  0.407539  0.407539  0.908108  1
  Au  Au4  1  0.196012  0.196012  0.465939  1
  Au  Au5  1  0.961106  0.961106  0.701647  1
  Au  Au6  1  0.471148  0.471148  0.192950  1
  Au  Au7  1  0.698416  0.698416  0.966197  1
  Au  Au8  1  0.377624  0.377624  0.615054  1
  Au  Au9  1  0.880372  0.880372  0.114708  1
  Au  Au10  1  0.116174  0.116174  0.878070  1
  Au  Au11  1  0.613894  0.613894  0.379729  1
