# generated using pymatgen
data_Nb3Si3TcW2
_symmetry_space_group_name_H-M   'P 1'
_cell_length_a   6.92610659
_cell_length_b   6.92610568
_cell_length_c   3.35300200
_cell_angle_alpha   90.00000000
_cell_angle_beta   90.00000000
_cell_angle_gamma   120.16080419
_symmetry_Int_Tables_number   1
_chemical_formula_structural   Nb3Si3TcW2
_chemical_formula_sum   'Nb3 Si3 Tc1 W2'
_cell_volume   139.07104826
_cell_formula_units_Z   1
loop_
 _symmetry_equiv_pos_site_id
 _symmetry_equiv_pos_as_xyz
  1  'x, y, z'
loop_
 _atom_site_type_symbol
 _atom_site_label
 _atom_site_symmetry_multiplicity
 _atom_site_fract_x
 _atom_site_fract_y
 _atom_site_fract_z
 _atom_site_occupancy
  Nb  Nb0  1  0.400661  0.986348  0.500000  1
  Nb  Nb1  1  0.986348  0.400661  0.500000  1
  Nb  Nb2  1  0.610850  0.610850  0.500000  1
  Si  Si3  1  0.329973  0.656044  0.000000  1
  Si  Si4  1  0.656044  0.329973  0.000000  1
  Si  Si5  1  0.013274  0.013274  0.500000  1
  Tc  Tc6  1  0.260161  0.260161  0.000000  1
  W  W7  1  0.743201  0.999485  0.000000  1
  W  W8  1  0.999485  0.743201  0.000000  1
