# generated using pymatgen
data_Ca3Y(OsC2)2
_symmetry_space_group_name_H-M   'P 1'
_cell_length_a   5.16823500
_cell_length_b   6.49710031
_cell_length_c   10.32271977
_cell_angle_alpha   90.42763407
_cell_angle_beta   90.00000000
_cell_angle_gamma   90.00000000
_symmetry_Int_Tables_number   1
_chemical_formula_structural   Ca3Y(OsC2)2
_chemical_formula_sum   'Ca6 Y2 Os4 C8'
_cell_volume   346.61221692
_cell_formula_units_Z   2
loop_
 _symmetry_equiv_pos_site_id
 _symmetry_equiv_pos_as_xyz
  1  'x, y, z'
loop_
 _atom_site_type_symbol
 _atom_site_label
 _atom_site_symmetry_multiplicity
 _atom_site_fract_x
 _atom_site_fract_y
 _atom_site_fract_z
 _atom_site_occupancy
  Ca  Ca0  1  0.750000  0.807145  0.052242  1
  Ca  Ca1  1  0.250000  0.192855  0.947758  1
  Ca  Ca2  1  0.250000  0.535430  0.219001  1
  Ca  Ca3  1  0.750000  0.464570  0.780999  1
  Ca  Ca4  1  0.750000  0.966499  0.724903  1
  Ca  Ca5  1  0.250000  0.033501  0.275097  1
  Y  Y6  1  0.250000  0.684615  0.552907  1
  Y  Y7  1  0.750000  0.315385  0.447093  1
  Os  Os8  1  0.250000  0.730508  0.850676  1
  Os  Os9  1  0.750000  0.269492  0.149324  1
  Os  Os10  1  0.750000  0.770879  0.354212  1
  Os  Os11  1  0.250000  0.229121  0.645788  1
  C  C12  1  0.250000  0.468485  0.755065  1
  C  C13  1  0.750000  0.531515  0.244935  1
  C  C14  1  0.750000  0.035287  0.264084  1
  C  C15  1  0.250000  0.964713  0.735916  1
  C  C16  1  0.250000  0.791625  0.025636  1
  C  C17  1  0.750000  0.208375  0.974364  1
  C  C18  1  0.750000  0.689462  0.529829  1
  C  C19  1  0.250000  0.310538  0.470171  1
