# generated using pymatgen
data_Ho3Er(B4Ir)4
_symmetry_space_group_name_H-M   'P 1'
_cell_length_a   3.56643400
_cell_length_b   5.96211575
_cell_length_c   11.56286221
_cell_angle_alpha   89.99325146
_cell_angle_beta   90.00000000
_cell_angle_gamma   90.00000000
_symmetry_Int_Tables_number   1
_chemical_formula_structural   Ho3Er(B4Ir)4
_chemical_formula_sum   'Ho3 Er1 B16 Ir4'
_cell_volume   245.86683004
_cell_formula_units_Z   1
loop_
 _symmetry_equiv_pos_site_id
 _symmetry_equiv_pos_as_xyz
  1  'x, y, z'
loop_
 _atom_site_type_symbol
 _atom_site_label
 _atom_site_symmetry_multiplicity
 _atom_site_fract_x
 _atom_site_fract_y
 _atom_site_fract_z
 _atom_site_occupancy
  Ho  Ho0  1  0.000000  0.368628  0.351729  1
  Ho  Ho1  1  0.000000  0.131589  0.851453  1
  Ho  Ho2  1  0.000000  0.868294  0.148621  1
  Er  Er3  1  0.000000  0.631267  0.648296  1
  B  B4  1  0.500000  0.975097  0.692366  1
  B  B5  1  0.500000  0.024077  0.307502  1
  B  B6  1  0.500000  0.476246  0.806996  1
  B  B7  1  0.500000  0.523977  0.192773  1
  B  B8  1  0.500000  0.791251  0.811775  1
  B  B9  1  0.500000  0.208581  0.188090  1
  B  B10  1  0.500000  0.292290  0.687621  1
  B  B11  1  0.500000  0.708461  0.312273  1
  B  B12  1  0.500000  0.863810  0.969848  1
  B  B13  1  0.500000  0.136168  0.030017  1
  B  B14  1  0.500000  0.364290  0.530258  1
  B  B15  1  0.500000  0.635910  0.469794  1
  B  B16  1  0.500000  0.886826  0.546619  1
  B  B17  1  0.500000  0.112328  0.453441  1
  B  B18  1  0.500000  0.387587  0.953207  1
  B  B19  1  0.500000  0.612470  0.046667  1
  Ir  Ir20  1  0.000000  0.643871  0.902837  1
  Ir  Ir21  1  0.000000  0.355928  0.096973  1
  Ir  Ir22  1  0.000000  0.144678  0.597210  1
  Ir  Ir23  1  0.000000  0.856376  0.403631  1
