# generated using pymatgen
data_Dy5Co14P12Os5
_symmetry_space_group_name_H-M   'P 1'
_cell_length_a   12.04567929
_cell_length_b   12.06115694
_cell_length_c   3.75540800
_cell_angle_alpha   90.00000000
_cell_angle_beta   90.00000000
_cell_angle_gamma   119.85070815
_symmetry_Int_Tables_number   1
_chemical_formula_structural   Dy5Co14P12Os5
_chemical_formula_sum   'Dy5 Co14 P12 Os5'
_cell_volume   473.21597446
_cell_formula_units_Z   1
loop_
 _symmetry_equiv_pos_site_id
 _symmetry_equiv_pos_as_xyz
  1  'x, y, z'
loop_
 _atom_site_type_symbol
 _atom_site_label
 _atom_site_symmetry_multiplicity
 _atom_site_fract_x
 _atom_site_fract_y
 _atom_site_fract_z
 _atom_site_occupancy
  Dy  Dy0  1  0.661343  0.334009  0.000000  1
  Dy  Dy1  1  0.333282  0.666170  0.000000  1
  Dy  Dy2  1  0.185470  0.184217  0.500000  1
  Dy  Dy3  1  0.817974  0.000476  0.500000  1
  Dy  Dy4  1  0.000923  0.819402  0.500000  1
  Co  Co5  1  0.827986  0.199972  0.000000  1
  Co  Co6  1  0.801457  0.628721  0.000000  1
  Co  Co7  1  0.375884  0.179074  0.000000  1
  Co  Co8  1  0.194787  0.818693  0.000000  1
  Co  Co9  1  0.623116  0.802880  0.000000  1
  Co  Co10  1  0.181524  0.375866  0.000000  1
  Co  Co11  1  0.480788  0.359665  0.500000  1
  Co  Co12  1  0.130812  0.642096  0.500000  1
  Co  Co13  1  0.510869  0.867827  0.500000  1
  Co  Co14  1  0.358590  0.484690  0.500000  1
  Co  Co15  1  0.715754  0.716964  0.500000  1
  Co  Co16  1  0.282635  0.998645  0.500000  1
  Co  Co17  1  0.002819  0.284345  0.500000  1
  Co  Co18  1  0.999959  0.999677  0.000000  1
  P  P19  1  0.362569  0.362197  0.000000  1
  P  P20  1  0.634621  0.995090  0.000000  1
  P  P21  1  0.004059  0.640245  0.000000  1
  P  P22  1  0.837002  0.312853  0.500000  1
  P  P23  1  0.681204  0.521813  0.500000  1
  P  P24  1  0.473668  0.167582  0.500000  1
  P  P25  1  0.310973  0.832815  0.500000  1
  P  P26  1  0.520794  0.686676  0.500000  1
  P  P27  1  0.168453  0.478052  0.500000  1
  P  P28  1  0.820324  0.822767  0.000000  1
  P  P29  1  0.179488  0.000149  0.000000  1
  P  P30  1  0.002928  0.179072  0.000000  1
  Os  Os31  1  0.552716  0.553051  0.000000  1
  Os  Os32  1  0.439971  0.990649  0.000000  1
  Os  Os33  1  0.009066  0.450036  0.000000  1
  Os  Os34  1  0.641420  0.123838  0.500000  1
  Os  Os35  1  0.874773  0.519727  0.500000  1
