# generated using pymatgen
data_Dy6Co14P12Rh3W
_symmetry_space_group_name_H-M   'P 1'
_cell_length_a   3.71384600
_cell_length_b   10.67236700
_cell_length_c   12.36639100
_cell_angle_alpha   90.00000000
_cell_angle_beta   90.00000000
_cell_angle_gamma   90.00000000
_symmetry_Int_Tables_number   1
_chemical_formula_structural   Dy6Co14P12Rh3W
_chemical_formula_sum   'Dy6 Co14 P12 Rh3 W1'
_cell_volume   490.14843048
_cell_formula_units_Z   1
loop_
 _symmetry_equiv_pos_site_id
 _symmetry_equiv_pos_as_xyz
  1  'x, y, z'
loop_
 _atom_site_type_symbol
 _atom_site_label
 _atom_site_symmetry_multiplicity
 _atom_site_fract_x
 _atom_site_fract_y
 _atom_site_fract_z
 _atom_site_occupancy
  Dy  Dy0  1  0.000000  0.500000  0.519825  1
  Dy  Dy1  1  0.500000  0.000000  0.479663  1
  Dy  Dy2  1  0.500000  0.815296  0.205331  1
  Dy  Dy3  1  0.500000  0.184704  0.205331  1
  Dy  Dy4  1  0.000000  0.684738  0.796885  1
  Dy  Dy5  1  0.000000  0.315262  0.796885  1
  Co  Co6  1  0.000000  0.500000  0.989104  1
  Co  Co7  1  0.500000  0.000000  0.011369  1
  Co  Co8  1  0.500000  0.332806  0.992751  1
  Co  Co9  1  0.500000  0.667194  0.992751  1
  Co  Co10  1  0.000000  0.168949  0.007756  1
  Co  Co11  1  0.000000  0.831051  0.007756  1
  Co  Co12  1  0.500000  0.297356  0.430991  1
  Co  Co13  1  0.500000  0.702644  0.430991  1
  Co  Co14  1  0.000000  0.201196  0.569426  1
  Co  Co15  1  0.000000  0.798804  0.569426  1
  Co  Co16  1  0.500000  0.879822  0.708938  1
  Co  Co17  1  0.500000  0.120178  0.708938  1
  Co  Co18  1  0.000000  0.620095  0.290744  1
  Co  Co19  1  0.000000  0.379905  0.290744  1
  P  P20  1  0.500000  0.500000  0.888463  1
  P  P21  1  0.000000  0.000000  0.109269  1
  P  P22  1  0.500000  0.500000  0.348778  1
  P  P23  1  0.000000  0.000000  0.650303  1
  P  P24  1  0.500000  0.302695  0.614239  1
  P  P25  1  0.500000  0.697305  0.614239  1
  P  P26  1  0.000000  0.196759  0.386394  1
  P  P27  1  0.000000  0.803241  0.386394  1
  P  P28  1  0.500000  0.845128  0.894108  1
  P  P29  1  0.500000  0.154872  0.894108  1
  P  P30  1  0.000000  0.656077  0.106775  1
  P  P31  1  0.000000  0.343923  0.106775  1
  Rh  Rh32  1  0.000000  0.000000  0.840127  1
  Rh  Rh33  1  0.500000  0.500000  0.701629  1
  Rh  Rh34  1  0.000000  0.000000  0.296416  1
  W  W35  1  0.500000  0.500000  0.156378  1
