# generated using pymatgen
data_DyY3(B4Mo)4
_symmetry_space_group_name_H-M   'P 1'
_cell_length_a   3.62956200
_cell_length_b   6.04345200
_cell_length_c   11.67168700
_cell_angle_alpha   90.00238744
_cell_angle_beta   90.00000000
_cell_angle_gamma   90.00000000
_symmetry_Int_Tables_number   1
_chemical_formula_structural   DyY3(B4Mo)4
_chemical_formula_sum   'Dy1 Y3 B16 Mo4'
_cell_volume   256.01943148
_cell_formula_units_Z   1
loop_
 _symmetry_equiv_pos_site_id
 _symmetry_equiv_pos_as_xyz
  1  'x, y, z'
loop_
 _atom_site_type_symbol
 _atom_site_label
 _atom_site_symmetry_multiplicity
 _atom_site_fract_x
 _atom_site_fract_y
 _atom_site_fract_z
 _atom_site_occupancy
  Dy  Dy0  1  0.000000  0.372883  0.649837  1
  Y  Y1  1  0.000000  0.127070  0.149836  1
  Y  Y2  1  0.000000  0.872936  0.850159  1
  Y  Y3  1  0.000000  0.627064  0.350161  1
  B  B4  1  0.500000  0.476624  0.193519  1
  B  B5  1  0.500000  0.523277  0.806438  1
  B  B6  1  0.500000  0.976632  0.306481  1
  B  B7  1  0.500000  0.023510  0.693497  1
  B  B8  1  0.500000  0.287186  0.313795  1
  B  B9  1  0.500000  0.712672  0.686183  1
  B  B10  1  0.500000  0.787198  0.186210  1
  B  B11  1  0.500000  0.212908  0.813741  1
  B  B12  1  0.500000  0.366673  0.468150  1
  B  B13  1  0.500000  0.633185  0.531978  1
  B  B14  1  0.500000  0.866724  0.031914  1
  B  B15  1  0.500000  0.133283  0.968082  1
  B  B16  1  0.500000  0.386087  0.047461  1
  B  B17  1  0.500000  0.613896  0.952530  1
  B  B18  1  0.500000  0.886103  0.452528  1
  B  B19  1  0.500000  0.114067  0.547500  1
  Mo  Mo20  1  0.000000  0.129800  0.416522  1
  Mo  Mo21  1  0.000000  0.870222  0.583536  1
  Mo  Mo22  1  0.000000  0.629746  0.083496  1
  Mo  Mo23  1  0.000000  0.370255  0.916447  1
