# generated using pymatgen
data_NaSr(CoP)4
_symmetry_space_group_name_H-M   'P 1'
_cell_length_a   6.54902655
_cell_length_b   6.54902725
_cell_length_c   5.18445800
_cell_angle_alpha   90.00000000
_cell_angle_beta   90.00000000
_cell_angle_gamma   133.39680085
_symmetry_Int_Tables_number   1
_chemical_formula_structural   NaSr(CoP)4
_chemical_formula_sum   'Na1 Sr1 Co4 P4'
_cell_volume   161.56976495
_cell_formula_units_Z   1
loop_
 _symmetry_equiv_pos_site_id
 _symmetry_equiv_pos_as_xyz
  1  'x, y, z'
loop_
 _atom_site_type_symbol
 _atom_site_label
 _atom_site_symmetry_multiplicity
 _atom_site_fract_x
 _atom_site_fract_y
 _atom_site_fract_z
 _atom_site_occupancy
  Na  Na0  1  0.000000  0.000000  0.000000  1
  Sr  Sr1  1  0.500000  0.500000  0.500000  1
  Co  Co2  1  0.500000  0.000000  0.751093  1
  Co  Co3  1  0.000000  0.500000  0.248907  1
  Co  Co4  1  0.000000  0.500000  0.751093  1
  Co  Co5  1  0.500000  0.000000  0.248907  1
  P  P6  1  0.352930  0.647070  0.000000  1
  P  P7  1  0.851072  0.148928  0.500000  1
  P  P8  1  0.148928  0.851072  0.500000  1
  P  P9  1  0.647070  0.352930  0.000000  1
