# generated using pymatgen
data_La4Y3Er3Pt8
_symmetry_space_group_name_H-M   'P 1'
_cell_length_a   7.67383200
_cell_length_b   7.81944069
_cell_length_c   14.83813800
_cell_angle_alpha   90.06276609
_cell_angle_beta   90.00000000
_cell_angle_gamma   90.00000000
_symmetry_Int_Tables_number   1
_chemical_formula_structural   La4Y3Er3Pt8
_chemical_formula_sum   'La8 Y6 Er6 Pt16'
_cell_volume   890.36303749
_cell_formula_units_Z   2
loop_
 _symmetry_equiv_pos_site_id
 _symmetry_equiv_pos_as_xyz
  1  'x, y, z'
loop_
 _atom_site_type_symbol
 _atom_site_label
 _atom_site_symmetry_multiplicity
 _atom_site_fract_x
 _atom_site_fract_y
 _atom_site_fract_z
 _atom_site_occupancy
  La  La0  1  0.496903  0.324519  0.902985  1
  La  La1  1  0.996903  0.175481  0.597015  1
  La  La2  1  0.503470  0.676659  0.403054  1
  La  La3  1  0.003470  0.823341  0.096946  1
  La  La4  1  0.503160  0.676158  0.096835  1
  La  La5  1  0.003160  0.823842  0.403165  1
  La  La6  1  0.496933  0.323282  0.597119  1
  La  La7  1  0.996933  0.176718  0.902881  1
  Y  Y8  1  0.338955  0.832437  0.621578  1
  Y  Y9  1  0.838955  0.667563  0.878422  1
  Y  Y10  1  0.175148  0.495216  0.749916  1
  Y  Y11  1  0.675148  0.004784  0.750084  1
  Y  Y12  1  0.824384  0.505292  0.250136  1
  Y  Y13  1  0.324384  0.994708  0.249864  1
  Er  Er14  1  0.338402  0.833332  0.876882  1
  Er  Er15  1  0.838402  0.666668  0.623118  1
  Er  Er16  1  0.661193  0.167588  0.376622  1
  Er  Er17  1  0.161193  0.332412  0.123378  1
  Er  Er18  1  0.660754  0.167144  0.123278  1
  Er  Er19  1  0.160754  0.332856  0.376722  1
  Pt  Pt20  1  0.324045  0.036811  0.044069  1
  Pt  Pt21  1  0.824045  0.463189  0.455931  1
  Pt  Pt22  1  0.678452  0.962840  0.542504  1
  Pt  Pt23  1  0.178452  0.537160  0.957496  1
  Pt  Pt24  1  0.672104  0.966363  0.956301  1
  Pt  Pt25  1  0.172104  0.533637  0.543699  1
  Pt  Pt26  1  0.326671  0.038015  0.454202  1
  Pt  Pt27  1  0.826671  0.461985  0.045798  1
  Pt  Pt28  1  0.542727  0.629560  0.750163  1
  Pt  Pt29  1  0.042727  0.870440  0.749837  1
  Pt  Pt30  1  0.456556  0.368826  0.249861  1
  Pt  Pt31  1  0.956556  0.131174  0.250139  1
  Pt  Pt32  1  0.305154  0.135449  0.750870  1
  Pt  Pt33  1  0.805154  0.364551  0.749130  1
  Pt  Pt34  1  0.694988  0.866300  0.249875  1
  Pt  Pt35  1  0.194988  0.633700  0.250125  1
