# generated using pymatgen
data_YTa2Nb4Bi(PO4)12
_symmetry_space_group_name_H-M   'P 1'
_cell_length_a   8.90888570
_cell_length_b   9.03193442
_cell_length_c   12.53472300
_cell_angle_alpha   90.01551666
_cell_angle_beta   90.86944318
_cell_angle_gamma   90.00759176
_symmetry_Int_Tables_number   1
_chemical_formula_structural   YTa2Nb4Bi(PO4)12
_chemical_formula_sum   'Y1 Ta2 Nb4 Bi1 P12 O48'
_cell_volume   1008.48369105
_cell_formula_units_Z   1
loop_
 _symmetry_equiv_pos_site_id
 _symmetry_equiv_pos_as_xyz
  1  'x, y, z'
loop_
 _atom_site_type_symbol
 _atom_site_label
 _atom_site_symmetry_multiplicity
 _atom_site_fract_x
 _atom_site_fract_y
 _atom_site_fract_z
 _atom_site_occupancy
  Y  Y0  1  0.748182  0.967778  0.377591  1
  Ta  Ta1  1  0.750100  0.466490  0.114961  1
  Ta  Ta2  1  0.746073  0.034966  0.886982  1
  Nb  Nb3  1  0.752955  0.533587  0.615615  1
  Nb  Nb4  1  0.250643  0.033488  0.615526  1
  Nb  Nb5  1  0.252016  0.966338  0.115726  1
  Nb  Nb6  1  0.247377  0.464849  0.385708  1
  Bi  Bi7  1  0.246633  0.533789  0.876831  1
  P  P8  1  0.542205  0.755007  0.003960  1
  P  P9  1  0.972648  0.258146  0.508017  1
  P  P10  1  0.473160  0.240326  0.009072  1
  P  P11  1  0.040090  0.745887  0.503625  1
  P  P12  1  0.612865  0.593304  0.351076  1
  P  P13  1  0.902324  0.124473  0.136034  1
  P  P14  1  0.868357  0.387126  0.853423  1
  P  P15  1  0.604511  0.886196  0.646169  1
  P  P16  1  0.403530  0.375817  0.634003  1
  P  P17  1  0.110278  0.910365  0.850738  1
  P  P18  1  0.101694  0.614529  0.146882  1
  P  P19  1  0.370871  0.110042  0.352760  1
  O  O20  1  0.927931  0.596889  0.137964  1
  O  O21  1  0.539846  0.109511  0.354176  1
  O  O22  1  0.574755  0.406802  0.642219  1
  O  O23  1  0.940799  0.953090  0.847251  1
  O  O24  1  0.037293  0.377976  0.854904  1
  O  O25  1  0.430277  0.903315  0.639789  1
  O  O26  1  0.442350  0.553557  0.345106  1
  O  O27  1  0.074178  0.094173  0.141775  1
  O  O28  1  0.951888  0.818384  0.414443  1
  O  O29  1  0.581378  0.326182  0.085856  1
  O  O30  1  0.564602  0.131268  0.940333  1
  O  O31  1  0.934439  0.655266  0.578151  1
  O  O32  1  0.081733  0.175444  0.585832  1
  O  O33  1  0.458842  0.685818  0.910935  1
  O  O34  1  0.434044  0.843324  0.078106  1
  O  O35  1  0.064176  0.365995  0.437835  1
  O  O36  1  0.690290  0.494724  0.265025  1
  O  O37  1  0.819217  0.028602  0.213385  1
  O  O38  1  0.811116  0.500261  0.767008  1
  O  O39  1  0.655918  0.962445  0.752741  1
  O  O40  1  0.315441  0.476745  0.705151  1
  O  O41  1  0.189187  0.010247  0.766554  1
  O  O42  1  0.151184  0.539606  0.253994  1
  O  O43  1  0.310018  0.997336  0.266740  1
  O  O44  1  0.678116  0.548659  0.462141  1
  O  O45  1  0.850854  0.095052  0.019607  1
  O  O46  1  0.805573  0.441334  0.962255  1
  O  O47  1  0.680261  0.952090  0.551195  1
  O  O48  1  0.355396  0.401367  0.516141  1
  O  O49  1  0.178015  0.949091  0.962215  1
  O  O50  1  0.182253  0.543300  0.055881  1
  O  O51  1  0.306560  0.058935  0.461677  1
  O  O52  1  0.623057  0.636586  0.075550  1
  O  O53  1  0.883756  0.155515  0.437824  1
  O  O54  1  0.869808  0.355016  0.578748  1
  O  O55  1  0.670402  0.857666  0.964061  1
  O  O56  1  0.384411  0.338989  0.935904  1
  O  O57  1  0.122294  0.863248  0.575852  1
  O  O58  1  0.167993  0.643966  0.462499  1
  O  O59  1  0.370682  0.144327  0.080614  1
  O  O60  1  0.633050  0.756140  0.329529  1
  O  O61  1  0.877550  0.293410  0.156202  1
  O  O62  1  0.797334  0.233427  0.826327  1
  O  O63  1  0.641009  0.717426  0.655962  1
  O  O64  1  0.379547  0.208034  0.657202  1
  O  O65  1  0.123241  0.748631  0.823387  1
  O  O66  1  0.137521  0.783266  0.155126  1
  O  O67  1  0.303900  0.265064  0.324136  1
