# generated using pymatgen
data_Nb8Hg2Pb4O25
_symmetry_space_group_name_H-M   'P 1'
_cell_length_a   7.60737992
_cell_length_b   7.60737923
_cell_length_c   10.71493659
_cell_angle_alpha   89.50688810
_cell_angle_beta   89.50688499
_cell_angle_gamma   90.44907710
_symmetry_Int_Tables_number   1
_chemical_formula_structural   Nb8Hg2Pb4O25
_chemical_formula_sum   'Nb8 Hg2 Pb4 O25'
_cell_volume   620.03187118
_cell_formula_units_Z   1
loop_
 _symmetry_equiv_pos_site_id
 _symmetry_equiv_pos_as_xyz
  1  'x, y, z'
loop_
 _atom_site_type_symbol
 _atom_site_label
 _atom_site_symmetry_multiplicity
 _atom_site_fract_x
 _atom_site_fract_y
 _atom_site_fract_z
 _atom_site_occupancy
  Nb  Nb0  1  0.753254  0.995506  0.120395  1
  Nb  Nb1  1  0.509965  0.249169  0.374521  1
  Nb  Nb2  1  0.252896  0.995090  0.128315  1
  Nb  Nb3  1  0.244699  0.498451  0.615786  1
  Nb  Nb4  1  0.004494  0.246746  0.879605  1
  Nb  Nb5  1  0.004910  0.747104  0.871685  1
  Nb  Nb6  1  0.750831  0.490035  0.625479  1
  Nb  Nb7  1  0.501549  0.755301  0.384214  1
  Hg  Hg8  1  0.091113  0.087788  0.416730  1
  Hg  Hg9  1  0.912212  0.908887  0.583270  1
  Pb  Pb10  1  0.742903  0.500734  0.125269  1
  Pb  Pb11  1  0.499266  0.257097  0.874731  1
  Pb  Pb12  1  0.497632  0.746452  0.854198  1
  Pb  Pb13  1  0.253548  0.502368  0.145802  1
  O  O14  1  0.313100  0.320539  0.504097  1
  O  O15  1  0.987803  0.008002  0.175913  1
  O  O16  1  0.991998  0.012197  0.824087  1
  O  O17  1  0.800905  0.329512  0.757203  1
  O  O18  1  0.790223  0.209777  0.000000  1
  O  O19  1  0.788306  0.815982  0.994600  1
  O  O20  1  0.676467  0.323533  0.500000  1
  O  O21  1  0.496068  0.512375  0.700404  1
  O  O22  1  0.484285  0.021618  0.056680  1
  O  O23  1  0.487625  0.503932  0.299596  1
  O  O24  1  0.492626  0.507374  0.000000  1
  O  O25  1  0.282141  0.191271  0.263032  1
  O  O26  1  0.303652  0.813417  0.245026  1
  O  O27  1  0.311849  0.688151  0.500000  1
  O  O28  1  0.184018  0.211694  0.005400  1
  O  O29  1  0.177976  0.331054  0.757922  1
  O  O30  1  0.179172  0.820828  0.000000  1
  O  O31  1  0.995034  0.507011  0.571468  1
  O  O32  1  0.978382  0.515715  0.943320  1
  O  O33  1  0.808729  0.717859  0.736968  1
  O  O34  1  0.670488  0.199095  0.242797  1
  O  O35  1  0.668946  0.822024  0.242078  1
  O  O36  1  0.679461  0.686900  0.495903  1
  O  O37  1  0.492989  0.004966  0.428532  1
  O  O38  1  0.186583  0.696348  0.754974  1
