# generated using pymatgen
data_Dy2Sc2B12MoIr
_symmetry_space_group_name_H-M   'P 1'
_cell_length_a   3.56890000
_cell_length_b   9.03026724
_cell_length_c   11.44987262
_cell_angle_alpha   90.16362313
_cell_angle_beta   90.00000000
_cell_angle_gamma   90.00000000
_symmetry_Int_Tables_number   1
_chemical_formula_structural   Dy2Sc2B12MoIr
_chemical_formula_sum   'Dy4 Sc4 B24 Mo2 Ir2'
_cell_volume   369.00637299
_cell_formula_units_Z   2
loop_
 _symmetry_equiv_pos_site_id
 _symmetry_equiv_pos_as_xyz
  1  'x, y, z'
loop_
 _atom_site_type_symbol
 _atom_site_label
 _atom_site_symmetry_multiplicity
 _atom_site_fract_x
 _atom_site_fract_y
 _atom_site_fract_z
 _atom_site_occupancy
  Dy  Dy0  1  0.500000  0.317901  0.412548  1
  Dy  Dy1  1  0.500000  0.682099  0.587452  1
  Dy  Dy2  1  0.500000  0.177474  0.915698  1
  Dy  Dy3  1  0.500000  0.822526  0.084302  1
  Sc  Sc4  1  0.500000  0.443232  0.125368  1
  Sc  Sc5  1  0.500000  0.556768  0.874632  1
  Sc  Sc6  1  0.500000  0.052048  0.626639  1
  Sc  Sc7  1  0.500000  0.947952  0.373361  1
  B  B8  1  0.000000  0.099670  0.474278  1
  B  B9  1  0.000000  0.900330  0.525722  1
  B  B10  1  0.000000  0.401539  0.972496  1
  B  B11  1  0.000000  0.598461  0.027504  1
  B  B12  1  0.000000  0.129858  0.319278  1
  B  B13  1  0.000000  0.870142  0.680722  1
  B  B14  1  0.000000  0.370711  0.817685  1
  B  B15  1  0.000000  0.629289  0.182315  1
  B  B16  1  0.000000  0.053196  0.066350  1
  B  B17  1  0.000000  0.946804  0.933650  1
  B  B18  1  0.000000  0.444803  0.566847  1
  B  B19  1  0.000000  0.555197  0.433153  1
  B  B20  1  0.000000  0.482420  0.285975  1
  B  B21  1  0.000000  0.517580  0.714025  1
  B  B22  1  0.000000  0.020767  0.784291  1
  B  B23  1  0.000000  0.979233  0.215709  1
  B  B24  1  0.000000  0.254879  0.079814  1
  B  B25  1  0.000000  0.745121  0.920186  1
  B  B26  1  0.000000  0.245549  0.580705  1
  B  B27  1  0.000000  0.754451  0.419295  1
  B  B28  1  0.000000  0.298161  0.235601  1
  B  B29  1  0.000000  0.701839  0.764399  1
  B  B30  1  0.000000  0.206318  0.734709  1
  B  B31  1  0.000000  0.793682  0.265291  1
  Mo  Mo32  1  0.500000  0.141484  0.182877  1
  Mo  Mo33  1  0.500000  0.858516  0.817123  1
  Ir  Ir34  1  0.500000  0.359748  0.680623  1
  Ir  Ir35  1  0.500000  0.640252  0.319377  1
