# generated using pymatgen
data_Y4TcB12Ir
_symmetry_space_group_name_H-M   'P 1'
_cell_length_a   3.68031900
_cell_length_b   9.18265528
_cell_length_c   11.57114513
_cell_angle_alpha   89.73462835
_cell_angle_beta   90.00000000
_cell_angle_gamma   90.00000000
_symmetry_Int_Tables_number   1
_chemical_formula_structural   Y4TcB12Ir
_chemical_formula_sum   'Y8 Tc2 B24 Ir2'
_cell_volume   391.04382057
_cell_formula_units_Z   2
loop_
 _symmetry_equiv_pos_site_id
 _symmetry_equiv_pos_as_xyz
  1  'x, y, z'
loop_
 _atom_site_type_symbol
 _atom_site_label
 _atom_site_symmetry_multiplicity
 _atom_site_fract_x
 _atom_site_fract_y
 _atom_site_fract_z
 _atom_site_occupancy
  Y  Y0  1  0.000000  0.326270  0.417381  1
  Y  Y1  1  0.000000  0.673730  0.582619  1
  Y  Y2  1  0.000000  0.817478  0.089422  1
  Y  Y3  1  0.000000  0.182522  0.910578  1
  Y  Y4  1  0.000000  0.940724  0.373853  1
  Y  Y5  1  0.000000  0.059276  0.626147  1
  Y  Y6  1  0.000000  0.446533  0.128322  1
  Y  Y7  1  0.000000  0.553467  0.871678  1
  Tc  Tc8  1  0.000000  0.638394  0.320052  1
  Tc  Tc9  1  0.000000  0.361606  0.679948  1
  B  B10  1  0.500000  0.553524  0.432785  1
  B  B11  1  0.500000  0.446476  0.567215  1
  B  B12  1  0.500000  0.054175  0.066280  1
  B  B13  1  0.500000  0.945825  0.933720  1
  B  B14  1  0.500000  0.747158  0.419196  1
  B  B15  1  0.500000  0.252842  0.580804  1
  B  B16  1  0.500000  0.249338  0.079254  1
  B  B17  1  0.500000  0.750662  0.920746  1
  B  B18  1  0.500000  0.791587  0.265626  1
  B  B19  1  0.500000  0.208413  0.734374  1
  B  B20  1  0.500000  0.290477  0.234209  1
  B  B21  1  0.500000  0.709523  0.765791  1
  B  B22  1  0.500000  0.631712  0.185380  1
  B  B23  1  0.500000  0.368288  0.814620  1
  B  B24  1  0.500000  0.131271  0.315700  1
  B  B25  1  0.500000  0.868729  0.684300  1
  B  B26  1  0.500000  0.982261  0.212498  1
  B  B27  1  0.500000  0.017739  0.787502  1
  B  B28  1  0.500000  0.483298  0.287369  1
  B  B29  1  0.500000  0.516702  0.712631  1
  B  B30  1  0.500000  0.607921  0.029116  1
  B  B31  1  0.500000  0.392079  0.970884  1
  B  B32  1  0.500000  0.107289  0.469763  1
  B  B33  1  0.500000  0.892711  0.530237  1
  Ir  Ir34  1  0.000000  0.136599  0.177624  1
  Ir  Ir35  1  0.000000  0.863401  0.822376  1
