# generated using pymatgen
data_Ho5(GaSb)2
_symmetry_space_group_name_H-M   'P 1'
_cell_length_a   8.59983932
_cell_length_b   8.59984077
_cell_length_c   7.88286300
_cell_angle_alpha   90.00000000
_cell_angle_beta   90.00000000
_cell_angle_gamma   125.43053716
_symmetry_Int_Tables_number   1
_chemical_formula_structural   Ho5(GaSb)2
_chemical_formula_sum   'Ho10 Ga4 Sb4'
_cell_volume   475.03525301
_cell_formula_units_Z   2
loop_
 _symmetry_equiv_pos_site_id
 _symmetry_equiv_pos_as_xyz
  1  'x, y, z'
loop_
 _atom_site_type_symbol
 _atom_site_label
 _atom_site_symmetry_multiplicity
 _atom_site_fract_x
 _atom_site_fract_y
 _atom_site_fract_z
 _atom_site_occupancy
  Ho  Ho0  1  0.039351  0.299762  0.332327  1
  Ho  Ho1  1  0.960649  0.700238  0.667673  1
  Ho  Ho2  1  0.460649  0.200238  0.832327  1
  Ho  Ho3  1  0.799762  0.539351  0.167673  1
  Ho  Ho4  1  0.539351  0.799762  0.167673  1
  Ho  Ho5  1  0.200238  0.460649  0.832327  1
  Ho  Ho6  1  0.700238  0.960649  0.667673  1
  Ho  Ho7  1  0.299762  0.039351  0.332327  1
  Ho  Ho8  1  0.000000  0.000000  0.000000  1
  Ho  Ho9  1  0.500000  0.500000  0.500000  1
  Ga  Ga10  1  0.374113  0.374113  0.125552  1
  Ga  Ga11  1  0.625887  0.625887  0.874448  1
  Ga  Ga12  1  0.125887  0.125887  0.625552  1
  Ga  Ga13  1  0.874113  0.874113  0.374448  1
  Sb  Sb14  1  0.794421  0.205579  0.000000  1
  Sb  Sb15  1  0.205579  0.794421  0.000000  1
  Sb  Sb16  1  0.705579  0.294421  0.500000  1
  Sb  Sb17  1  0.294421  0.705579  0.500000  1
