# generated using pymatgen
data_Sc5Nb(AsRu)6
_symmetry_space_group_name_H-M   'P 1'
_cell_length_a   7.65801859
_cell_length_b   7.68732802
_cell_length_c   7.65801816
_cell_angle_alpha   128.30152372
_cell_angle_beta   120.81388788
_cell_angle_gamma   82.30436944
_symmetry_Int_Tables_number   1
_chemical_formula_structural   Sc5Nb(AsRu)6
_chemical_formula_sum   'Sc5 Nb1 As6 Ru6'
_cell_volume   292.35809691
_cell_formula_units_Z   1
loop_
 _symmetry_equiv_pos_site_id
 _symmetry_equiv_pos_as_xyz
  1  'x, y, z'
loop_
 _atom_site_type_symbol
 _atom_site_label
 _atom_site_symmetry_multiplicity
 _atom_site_fract_x
 _atom_site_fract_y
 _atom_site_fract_z
 _atom_site_occupancy
  Sc  Sc0  1  0.468889  0.695976  0.727088  1
  Sc  Sc1  1  0.530100  0.258151  0.228051  1
  Sc  Sc2  1  0.749733  0.833417  0.583684  1
  Sc  Sc3  1  0.250364  0.835534  0.085170  1
  Sc  Sc4  1  0.050442  0.254781  0.704339  1
  Nb  Nb5  1  0.948657  0.654040  0.205383  1
  As  As6  1  0.274869  0.274026  0.499158  1
  As  As7  1  0.722914  0.215943  0.993030  1
  As  As8  1  0.329291  0.586890  0.249311  1
  As  As9  1  0.671001  0.920892  0.258482  1
  As  As10  1  0.162410  0.920892  0.749890  1
  As  As11  1  0.837579  0.586890  0.757600  1
  Ru  Ru12  1  0.507307  0.497498  0.000838  1
  Ru  Ru13  1  0.996660  0.497498  0.490191  1
  Ru  Ru14  1  0.093363  0.256601  0.104316  1
  Ru  Ru15  1  0.908780  0.006985  0.161628  1
  Ru  Ru16  1  0.345357  0.006985  0.598205  1
  Ru  Ru17  1  0.652285  0.256601  0.663237  1
