# generated using pymatgen
data_La9Pr7Cd4RuPt3
_symmetry_space_group_name_H-M   'P 1'
_cell_length_a   10.15829192
_cell_length_b   10.15808679
_cell_length_c   10.15229930
_cell_angle_alpha   59.78726844
_cell_angle_beta   59.79408334
_cell_angle_gamma   59.97707755
_symmetry_Int_Tables_number   1
_chemical_formula_structural   La9Pr7Cd4RuPt3
_chemical_formula_sum   'La9 Pr7 Cd4 Ru1 Pt3'
_cell_volume   738.28808354
_cell_formula_units_Z   1
loop_
 _symmetry_equiv_pos_site_id
 _symmetry_equiv_pos_as_xyz
  1  'x, y, z'
loop_
 _atom_site_type_symbol
 _atom_site_label
 _atom_site_symmetry_multiplicity
 _atom_site_fract_x
 _atom_site_fract_y
 _atom_site_fract_z
 _atom_site_occupancy
  La  La0  1  0.350580  0.350617  0.350707  1
  La  La1  1  0.346529  0.346562  0.954184  1
  La  La2  1  0.347072  0.954010  0.346310  1
  La  La3  1  0.953988  0.347016  0.346343  1
  La  La4  1  0.816394  0.188705  0.189544  1
  La  La5  1  0.190250  0.806955  0.807766  1
  La  La6  1  0.188654  0.816457  0.189525  1
  La  La7  1  0.806912  0.190205  0.807793  1
  La  La8  1  0.189461  0.189462  0.816604  1
  Pr  Pr9  1  0.806523  0.806500  0.191231  1
  Pr  Pr10  1  0.936129  0.565650  0.564566  1
  Pr  Pr11  1  0.560482  0.935739  0.936254  1
  Pr  Pr12  1  0.565683  0.936109  0.564532  1
  Pr  Pr13  1  0.935727  0.560491  0.936259  1
  Pr  Pr14  1  0.564843  0.564863  0.936969  1
  Pr  Pr15  1  0.936260  0.936234  0.559781  1
  Cd  Cd16  1  0.579763  0.579755  0.579463  1
  Cd  Cd17  1  0.580393  0.580375  0.259041  1
  Cd  Cd18  1  0.580307  0.259112  0.580246  1
  Cd  Cd19  1  0.259110  0.580297  0.580251  1
  Ru  Ru20  1  0.141647  0.141621  0.141434  1
  Pt  Pt21  1  0.144306  0.144283  0.573598  1
  Pt  Pt22  1  0.145644  0.573338  0.143797  1
  Pt  Pt23  1  0.573340  0.145644  0.143798  1
