# generated using pymatgen
data_Pr6Cd(SiSe7)2
_symmetry_space_group_name_H-M   'P 1'
_cell_length_a   10.79983100
_cell_length_b   10.79983038
_cell_length_c   6.04413600
_cell_angle_alpha   90.00000000
_cell_angle_beta   90.00000000
_cell_angle_gamma   120.00000496
_symmetry_Int_Tables_number   1
_chemical_formula_structural   Pr6Cd(SiSe7)2
_chemical_formula_sum   'Pr6 Cd1 Si2 Se14'
_cell_volume   610.51836446
_cell_formula_units_Z   1
loop_
 _symmetry_equiv_pos_site_id
 _symmetry_equiv_pos_as_xyz
  1  'x, y, z'
loop_
 _atom_site_type_symbol
 _atom_site_label
 _atom_site_symmetry_multiplicity
 _atom_site_fract_x
 _atom_site_fract_y
 _atom_site_fract_z
 _atom_site_occupancy
  Pr  Pr0  1  0.876840  0.233524  0.248897  1
  Pr  Pr1  1  0.766476  0.643317  0.248897  1
  Pr  Pr2  1  0.356683  0.123160  0.248897  1
  Pr  Pr3  1  0.123365  0.766492  0.750157  1
  Pr  Pr4  1  0.233508  0.356874  0.750157  1
  Pr  Pr5  1  0.643126  0.876635  0.750157  1
  Cd  Cd6  1  0.000000  0.000000  0.490218  1
  Si  Si7  1  0.666667  0.333333  0.833650  1
  Si  Si8  1  0.333333  0.666667  0.338412  1
  Se  Se9  1  0.666667  0.333333  0.459240  1
  Se  Se10  1  0.333333  0.666667  0.963351  1
  Se  Se11  1  0.911524  0.167989  0.730651  1
  Se  Se12  1  0.832011  0.743535  0.730651  1
  Se  Se13  1  0.256465  0.088476  0.730651  1
  Se  Se14  1  0.086212  0.830136  0.241178  1
  Se  Se15  1  0.169864  0.256077  0.241178  1
  Se  Se16  1  0.743923  0.913788  0.241178  1
  Se  Se17  1  0.589562  0.109766  0.984769  1
  Se  Se18  1  0.890234  0.479798  0.984769  1
  Se  Se19  1  0.520202  0.410438  0.984769  1
  Se  Se20  1  0.410652  0.890501  0.487942  1
  Se  Se21  1  0.109499  0.520151  0.487942  1
  Se  Se22  1  0.479849  0.589348  0.487942  1
