# generated using pymatgen
data_Dy8ErTh3(Si2Ni)4
_symmetry_space_group_name_H-M   'P 1'
_cell_length_a   4.16773300
_cell_length_b   11.42321667
_cell_length_c   11.26404008
_cell_angle_alpha   89.43083755
_cell_angle_beta   90.00000000
_cell_angle_gamma   90.00000000
_symmetry_Int_Tables_number   1
_chemical_formula_structural   Dy8ErTh3(Si2Ni)4
_chemical_formula_sum   'Dy8 Er1 Th3 Si8 Ni4'
_cell_volume   536.24229134
_cell_formula_units_Z   1
loop_
 _symmetry_equiv_pos_site_id
 _symmetry_equiv_pos_as_xyz
  1  'x, y, z'
loop_
 _atom_site_type_symbol
 _atom_site_label
 _atom_site_symmetry_multiplicity
 _atom_site_fract_x
 _atom_site_fract_y
 _atom_site_fract_z
 _atom_site_occupancy
  Dy  Dy0  1  0.250000  0.120271  0.562116  1
  Dy  Dy1  1  0.250000  0.379939  0.059961  1
  Dy  Dy2  1  0.750000  0.874697  0.439166  1
  Dy  Dy3  1  0.750000  0.621605  0.935789  1
  Dy  Dy4  1  0.250000  0.801181  0.709077  1
  Dy  Dy5  1  0.250000  0.692554  0.210539  1
  Dy  Dy6  1  0.750000  0.197774  0.291885  1
  Dy  Dy7  1  0.750000  0.311068  0.790908  1
  Er  Er8  1  0.750000  0.558674  0.615466  1
  Th  Th9  1  0.250000  0.062470  0.882661  1
  Th  Th10  1  0.250000  0.438704  0.385701  1
  Th  Th11  1  0.750000  0.939177  0.117026  1
  Si  Si12  1  0.250000  0.805550  0.970387  1
  Si  Si13  1  0.250000  0.688959  0.473265  1
  Si  Si14  1  0.750000  0.195389  0.028919  1
  Si  Si15  1  0.750000  0.308624  0.532690  1
  Si  Si16  1  0.250000  0.496269  0.799511  1
  Si  Si17  1  0.250000  0.014197  0.309032  1
  Si  Si18  1  0.750000  0.508618  0.193394  1
  Si  Si19  1  0.750000  0.985186  0.692066  1
  Ni  Ni20  1  0.250000  0.363235  0.630145  1
  Ni  Ni21  1  0.250000  0.136344  0.129777  1
  Ni  Ni22  1  0.750000  0.633317  0.368816  1
  Ni  Ni23  1  0.750000  0.866198  0.871704  1
