# generated using pymatgen
data_Pr8Cd(Si4Pt)3
_symmetry_space_group_name_H-M   'P 1'
_cell_length_a   8.30481200
_cell_length_b   8.30481236
_cell_length_c   8.71609500
_cell_angle_alpha   90.00000000
_cell_angle_beta   90.00000000
_cell_angle_gamma   120.00000655
_symmetry_Int_Tables_number   1
_chemical_formula_structural   Pr8Cd(Si4Pt)3
_chemical_formula_sum   'Pr8 Cd1 Si12 Pt3'
_cell_volume   520.60961890
_cell_formula_units_Z   1
loop_
 _symmetry_equiv_pos_site_id
 _symmetry_equiv_pos_as_xyz
  1  'x, y, z'
loop_
 _atom_site_type_symbol
 _atom_site_label
 _atom_site_symmetry_multiplicity
 _atom_site_fract_x
 _atom_site_fract_y
 _atom_site_fract_z
 _atom_site_occupancy
  Pr  Pr0  1  0.497126  0.502874  0.745809  1
  Pr  Pr1  1  0.498376  0.501624  0.253825  1
  Pr  Pr2  1  0.005749  0.502874  0.745809  1
  Pr  Pr3  1  0.003248  0.501624  0.253825  1
  Pr  Pr4  1  0.497126  0.994251  0.745809  1
  Pr  Pr5  1  0.498376  0.996752  0.253825  1
  Pr  Pr6  1  0.000000  0.000000  0.747540  1
  Pr  Pr7  1  0.000000  0.000000  0.253310  1
  Cd  Cd8  1  0.666667  0.333333  0.995535  1
  Si  Si9  1  0.841673  0.158327  0.001770  1
  Si  Si10  1  0.168497  0.831503  0.998945  1
  Si  Si11  1  0.316652  0.158327  0.001770  1
  Si  Si12  1  0.165955  0.834045  0.499935  1
  Si  Si13  1  0.663004  0.831503  0.998945  1
  Si  Si14  1  0.833388  0.166612  0.500220  1
  Si  Si15  1  0.841673  0.683348  0.001770  1
  Si  Si16  1  0.668090  0.834045  0.499935  1
  Si  Si17  1  0.168497  0.336996  0.998945  1
  Si  Si18  1  0.333225  0.166612  0.500220  1
  Si  Si19  1  0.165955  0.331910  0.499935  1
  Si  Si20  1  0.833388  0.666775  0.500220  1
  Pt  Pt21  1  0.333333  0.666667  0.002040  1
  Pt  Pt22  1  0.333333  0.666667  0.498548  1
  Pt  Pt23  1  0.666667  0.333333  0.501518  1
