# generated using pymatgen
data_Ti8Ir3PdO2
_symmetry_space_group_name_H-M   'P 1'
_cell_length_a   8.26902102
_cell_length_b   8.26902046
_cell_length_c   8.25604500
_cell_angle_alpha   60.05189801
_cell_angle_beta   60.05190023
_cell_angle_gamma   60.12731465
_symmetry_Int_Tables_number   1
_chemical_formula_structural   Ti8Ir3PdO2
_chemical_formula_sum   'Ti16 Ir6 Pd2 O4'
_cell_volume   399.87314565
_cell_formula_units_Z   2
loop_
 _symmetry_equiv_pos_site_id
 _symmetry_equiv_pos_as_xyz
  1  'x, y, z'
loop_
 _atom_site_type_symbol
 _atom_site_label
 _atom_site_symmetry_multiplicity
 _atom_site_fract_x
 _atom_site_fract_y
 _atom_site_fract_z
 _atom_site_occupancy
  Ti  Ti0  1  0.128559  0.620669  0.625386  1
  Ti  Ti1  1  0.620669  0.128559  0.625386  1
  Ti  Ti2  1  0.624662  0.624662  0.122012  1
  Ti  Ti3  1  0.624662  0.624662  0.628665  1
  Ti  Ti4  1  0.820787  0.820787  0.179213  1
  Ti  Ti5  1  0.181963  0.181963  0.818037  1
  Ti  Ti6  1  0.818596  0.181050  0.819325  1
  Ti  Ti7  1  0.181050  0.818596  0.181029  1
  Ti  Ti8  1  0.181050  0.818596  0.819325  1
  Ti  Ti9  1  0.818596  0.181050  0.181029  1
  Ti  Ti10  1  0.433550  0.433550  0.066450  1
  Ti  Ti11  1  0.065134  0.065134  0.434866  1
  Ti  Ti12  1  0.433709  0.069293  0.433415  1
  Ti  Ti13  1  0.069293  0.433709  0.063584  1
  Ti  Ti14  1  0.069293  0.433709  0.433415  1
  Ti  Ti15  1  0.433709  0.069293  0.063584  1
  Ir  Ir16  1  0.405709  0.405709  0.783381  1
  Ir  Ir17  1  0.405709  0.405709  0.405203  1
  Ir  Ir18  1  0.476930  0.842999  0.840035  1
  Ir  Ir19  1  0.842999  0.476930  0.840035  1
  Ir  Ir20  1  0.842471  0.842471  0.476807  1
  Ir  Ir21  1  0.842471  0.842471  0.838250  1
  Pd  Pd22  1  0.769514  0.411474  0.409506  1
  Pd  Pd23  1  0.411474  0.769514  0.409506  1
  O  O24  1  0.624189  0.123752  0.126030  1
  O  O25  1  0.123752  0.624189  0.126030  1
  O  O26  1  0.124751  0.124751  0.623741  1
  O  O27  1  0.124751  0.124751  0.126757  1
