# generated using pymatgen
data_CaSm2Si3P3Pd20
_symmetry_space_group_name_H-M   'P 1'
_cell_length_a   8.73034843
_cell_length_b   8.72391926
_cell_length_c   8.72188432
_cell_angle_alpha   60.05647421
_cell_angle_beta   59.98332044
_cell_angle_gamma   59.96019534
_symmetry_Int_Tables_number   1
_chemical_formula_structural   CaSm2Si3P3Pd20
_chemical_formula_sum   'Ca1 Sm2 Si3 P3 Pd20'
_cell_volume   469.71868624
_cell_formula_units_Z   1
loop_
 _symmetry_equiv_pos_site_id
 _symmetry_equiv_pos_as_xyz
  1  'x, y, z'
loop_
 _atom_site_type_symbol
 _atom_site_label
 _atom_site_symmetry_multiplicity
 _atom_site_fract_x
 _atom_site_fract_y
 _atom_site_fract_z
 _atom_site_occupancy
  Ca  Ca0  1  0.999354  0.000646  0.999354  1
  Sm  Sm1  1  0.250523  0.249477  0.250523  1
  Sm  Sm2  1  0.750523  0.749477  0.750523  1
  Si  Si3  1  0.735116  0.264884  0.735116  1
  Si  Si4  1  0.264710  0.263143  0.736857  1
  Si  Si5  1  0.736857  0.735290  0.264710  1
  P  P6  1  0.736823  0.263177  0.264952  1
  P  P7  1  0.264952  0.735048  0.736823  1
  P  P8  1  0.263166  0.736834  0.263166  1
  Pd  Pd9  1  0.385951  0.386124  0.384354  1
  Pd  Pd10  1  0.613485  0.615815  0.615501  1
  Pd  Pd11  1  0.384185  0.386515  0.844799  1
  Pd  Pd12  1  0.384354  0.843570  0.385951  1
  Pd  Pd13  1  0.613876  0.614049  0.156430  1
  Pd  Pd14  1  0.615501  0.155201  0.613485  1
  Pd  Pd15  1  0.844799  0.384499  0.384185  1
  Pd  Pd16  1  0.156430  0.615646  0.613876  1
  Pd  Pd17  1  0.347217  0.998024  0.001976  1
  Pd  Pd18  1  0.652570  0.000173  0.999827  1
  Pd  Pd19  1  0.999827  0.347430  0.652570  1
  Pd  Pd20  1  0.001976  0.652783  0.347217  1
  Pd  Pd21  1  0.997224  0.347408  0.001128  1
  Pd  Pd22  1  0.652592  0.002776  0.345760  1
  Pd  Pd23  1  0.001128  0.654240  0.997224  1
  Pd  Pd24  1  0.345760  0.998872  0.652592  1
  Pd  Pd25  1  0.000105  0.999895  0.345473  1
  Pd  Pd26  1  0.001817  0.998183  0.653704  1
  Pd  Pd27  1  0.653704  0.346296  0.001817  1
  Pd  Pd28  1  0.345473  0.654527  0.000105  1
