# generated using pymatgen
data_Ti8Al14SiRu3Rh4
_symmetry_space_group_name_H-M   'P 1'
_cell_length_a   8.63740409
_cell_length_b   8.64506844
_cell_length_c   8.63740361
_cell_angle_alpha   120.02542736
_cell_angle_beta   119.94558129
_cell_angle_gamma   89.99968522
_symmetry_Int_Tables_number   1
_chemical_formula_structural   Ti8Al14SiRu3Rh4
_chemical_formula_sum   'Ti8 Al14 Si1 Ru3 Rh4'
_cell_volume   456.25860506
_cell_formula_units_Z   1
loop_
 _symmetry_equiv_pos_site_id
 _symmetry_equiv_pos_as_xyz
  1  'x, y, z'
loop_
 _atom_site_type_symbol
 _atom_site_label
 _atom_site_symmetry_multiplicity
 _atom_site_fract_x
 _atom_site_fract_y
 _atom_site_fract_z
 _atom_site_occupancy
  Ti  Ti0  1  0.796338  0.297600  0.088992  1
  Ti  Ti1  1  0.208609  0.297600  0.501263  1
  Ti  Ti2  1  0.201710  0.704380  0.502671  1
  Ti  Ti3  1  0.211226  0.710751  0.911825  1
  Ti  Ti4  1  0.798925  0.710751  0.499525  1
  Ti  Ti5  1  0.789299  0.286324  0.497026  1
  Ti  Ti6  1  0.376793  0.121208  0.744415  1
  Ti  Ti7  1  0.380466  0.635681  0.255215  1
  Al  Al8  1  0.155837  0.341294  0.185456  1
  Al  Al9  1  0.157019  0.973786  0.816767  1
  Al  Al10  1  0.152271  0.344251  0.808080  1
  Al  Al11  1  0.536171  0.344251  0.191981  1
  Al  Al12  1  0.844492  0.654257  0.809767  1
  Al  Al13  1  0.844198  0.031449  0.187251  1
  Al  Al14  1  0.841675  0.657194  0.183854  1
  Al  Al15  1  0.473339  0.657194  0.815519  1
  Al  Al16  1  0.380899  0.120215  0.259309  1
  Al  Al17  1  0.860907  0.120215  0.739317  1
  Al  Al18  1  0.620841  0.877499  0.256658  1
  Al  Al19  1  0.619453  0.362399  0.742947  1
  Al  Al20  1  0.619558  0.879251  0.742580  1
  Al  Al21  1  0.136670  0.879251  0.259693  1
  Si  Si22  1  0.995993  0.496241  0.500248  1
  Ru  Ru23  1  0.001957  0.000419  0.501702  1
  Ru  Ru24  1  0.498717  0.000419  0.998462  1
  Ru  Ru25  1  0.497271  0.498428  0.001157  1
  Rh  Rh26  1  0.499122  0.500448  0.498525  1
  Rh  Rh27  1  0.001923  0.500448  0.001326  1
  Rh  Rh28  1  0.999939  0.999189  0.999250  1
  Rh  Rh29  1  0.498382  0.997602  0.499220  1
