# generated using pymatgen
data_Yb2DyErB16
_symmetry_space_group_name_H-M   'P 1'
_cell_length_a   7.10463718
_cell_length_b   7.11201718
_cell_length_c   4.02661500
_cell_angle_alpha   90.00000000
_cell_angle_beta   90.00000000
_cell_angle_gamma   89.93406613
_symmetry_Int_Tables_number   1
_chemical_formula_structural   Yb2DyErB16
_chemical_formula_sum   'Yb2 Dy1 Er1 B16'
_cell_volume   203.45788257
_cell_formula_units_Z   1
loop_
 _symmetry_equiv_pos_site_id
 _symmetry_equiv_pos_as_xyz
  1  'x, y, z'
loop_
 _atom_site_type_symbol
 _atom_site_label
 _atom_site_symmetry_multiplicity
 _atom_site_fract_x
 _atom_site_fract_y
 _atom_site_fract_z
 _atom_site_occupancy
  Yb  Yb0  1  0.183078  0.683066  0.000000  1
  Yb  Yb1  1  0.683104  0.816907  0.000000  1
  Dy  Dy2  1  0.317548  0.182692  0.000000  1
  Er  Er3  1  0.817612  0.317413  0.000000  1
  B  B4  1  0.324410  0.461419  0.500000  1
  B  B5  1  0.676458  0.536958  0.500000  1
  B  B6  1  0.537985  0.323669  0.500000  1
  B  B7  1  0.461962  0.675250  0.500000  1
  B  B8  1  0.999452  0.998984  0.203203  1
  B  B9  1  0.499729  0.501072  0.796802  1
  B  B10  1  0.999452  0.998984  0.796797  1
  B  B11  1  0.499729  0.501072  0.203198  1
  B  B12  1  0.586460  0.086641  0.500000  1
  B  B13  1  0.086183  0.413277  0.500000  1
  B  B14  1  0.913426  0.586102  0.500000  1
  B  B15  1  0.413550  0.913666  0.500000  1
  B  B16  1  0.037564  0.176436  0.500000  1
  B  B17  1  0.176195  0.962886  0.500000  1
  B  B18  1  0.824252  0.038747  0.500000  1
  B  B19  1  0.961852  0.824758  0.500000  1
