# generated using pymatgen
data_Er16In3Ni3AgIr
_symmetry_space_group_name_H-M   'P 1'
_cell_length_a   9.46904881
_cell_length_b   9.49240374
_cell_length_c   9.47883200
_cell_angle_alpha   60.04728442
_cell_angle_beta   59.96581692
_cell_angle_gamma   60.25835462
_symmetry_Int_Tables_number   1
_chemical_formula_structural   Er16In3Ni3AgIr
_chemical_formula_sum   'Er16 In3 Ni3 Ag1 Ir1'
_cell_volume   603.67877900
_cell_formula_units_Z   1
loop_
 _symmetry_equiv_pos_site_id
 _symmetry_equiv_pos_as_xyz
  1  'x, y, z'
loop_
 _atom_site_type_symbol
 _atom_site_label
 _atom_site_symmetry_multiplicity
 _atom_site_fract_x
 _atom_site_fract_y
 _atom_site_fract_z
 _atom_site_occupancy
  Er  Er0  1  0.054480  0.065959  0.439780  1
  Er  Er1  1  0.647323  0.047833  0.652422  1
  Er  Er2  1  0.189657  0.808997  0.190277  1
  Er  Er3  1  0.432476  0.066285  0.435934  1
  Er  Er4  1  0.190581  0.188168  0.810625  1
  Er  Er5  1  0.650099  0.655478  0.650450  1
  Er  Er6  1  0.053297  0.648733  0.648985  1
  Er  Er7  1  0.432476  0.066285  0.065305  1
  Er  Er8  1  0.650099  0.655478  0.043973  1
  Er  Er9  1  0.189657  0.808997  0.811070  1
  Er  Er10  1  0.810063  0.186926  0.811642  1
  Er  Er11  1  0.810063  0.186926  0.191368  1
  Er  Er12  1  0.811814  0.809524  0.189332  1
  Er  Er13  1  0.055109  0.435959  0.441619  1
  Er  Er14  1  0.436526  0.437483  0.062995  1
  Er  Er15  1  0.055109  0.435959  0.067313  1
  In  In16  1  0.423351  0.415525  0.745770  1
  In  In17  1  0.424407  0.745107  0.415243  1
  In  In18  1  0.423351  0.415525  0.415354  1
  Ni  Ni19  1  0.860879  0.858849  0.851634  1
  Ni  Ni20  1  0.424526  0.858913  0.858281  1
  Ni  Ni21  1  0.860879  0.858849  0.428638  1
  Ag  Ag22  1  0.753671  0.415214  0.415557  1
  Ir  Ir23  1  0.860107  0.427027  0.856433  1
