# generated using pymatgen
data_U2FeO6
_symmetry_space_group_name_H-M   'P 1'
_cell_length_a   5.01302900
_cell_length_b   10.02304000
_cell_length_c   10.20737300
_cell_angle_alpha   90.00000000
_cell_angle_beta   90.00000000
_cell_angle_gamma   90.00000000
_symmetry_Int_Tables_number   1
_chemical_formula_structural   U2FeO6
_chemical_formula_sum   'U8 Fe4 O24'
_cell_volume   512.87752213
_cell_formula_units_Z   4
loop_
 _symmetry_equiv_pos_site_id
 _symmetry_equiv_pos_as_xyz
  1  'x, y, z'
loop_
 _atom_site_type_symbol
 _atom_site_label
 _atom_site_symmetry_multiplicity
 _atom_site_fract_x
 _atom_site_fract_y
 _atom_site_fract_z
 _atom_site_occupancy
  U  U0  1  0.000000  0.000000  0.331069  1
  U  U1  1  0.000000  0.500000  0.331069  1
  U  U2  1  0.500000  0.250000  0.831069  1
  U  U3  1  0.500000  0.750000  0.831069  1
  U  U4  1  0.500000  0.250000  0.168931  1
  U  U5  1  0.500000  0.750000  0.168931  1
  U  U6  1  0.000000  0.000000  0.668931  1
  U  U7  1  0.000000  0.500000  0.668931  1
  Fe  Fe8  1  0.000000  0.500000  0.000000  1
  Fe  Fe9  1  0.500000  0.750000  0.500000  1
  Fe  Fe10  1  0.000000  0.000000  0.000000  1
  Fe  Fe11  1  0.500000  0.250000  0.500000  1
  O  O12  1  0.310697  0.155602  0.000000  1
  O  O13  1  0.310697  0.655602  0.000000  1
  O  O14  1  0.189303  0.405602  0.500000  1
  O  O15  1  0.189303  0.905602  0.500000  1
  O  O16  1  0.810697  0.094398  0.500000  1
  O  O17  1  0.810697  0.594398  0.500000  1
  O  O18  1  0.689303  0.344398  0.000000  1
  O  O19  1  0.689303  0.844398  0.000000  1
  O  O20  1  0.303496  0.151637  0.331454  1
  O  O21  1  0.303496  0.651637  0.331454  1
  O  O22  1  0.196504  0.401637  0.831454  1
  O  O23  1  0.196504  0.901637  0.831454  1
  O  O24  1  0.803496  0.098363  0.831454  1
  O  O25  1  0.803496  0.598363  0.831454  1
  O  O26  1  0.803496  0.098363  0.168546  1
  O  O27  1  0.803496  0.598363  0.168546  1
  O  O28  1  0.196504  0.401637  0.168546  1
  O  O29  1  0.196504  0.901637  0.168546  1
  O  O30  1  0.696504  0.348363  0.331454  1
  O  O31  1  0.696504  0.848363  0.331454  1
  O  O32  1  0.303496  0.151637  0.668546  1
  O  O33  1  0.303496  0.651637  0.668546  1
  O  O34  1  0.696504  0.348363  0.668546  1
  O  O35  1  0.696504  0.848363  0.668546  1
