# generated using pymatgen
data_Y2TmLu(B6Rh)2
_symmetry_space_group_name_H-M   'P 1'
_cell_length_a   3.63451000
_cell_length_b   9.12769027
_cell_length_c   11.47656934
_cell_angle_alpha   90.02801929
_cell_angle_beta   90.00000000
_cell_angle_gamma   90.00000000
_symmetry_Int_Tables_number   1
_chemical_formula_structural   Y2TmLu(B6Rh)2
_chemical_formula_sum   'Y4 Tm2 Lu2 B24 Rh4'
_cell_volume   380.73148799
_cell_formula_units_Z   2
loop_
 _symmetry_equiv_pos_site_id
 _symmetry_equiv_pos_as_xyz
  1  'x, y, z'
loop_
 _atom_site_type_symbol
 _atom_site_label
 _atom_site_symmetry_multiplicity
 _atom_site_fract_x
 _atom_site_fract_y
 _atom_site_fract_z
 _atom_site_occupancy
  Y  Y0  1  0.500000  0.321829  0.413835  1
  Y  Y1  1  0.500000  0.678171  0.586165  1
  Y  Y2  1  0.500000  0.178980  0.914050  1
  Y  Y3  1  0.500000  0.821020  0.085950  1
  Tm  Tm4  1  0.500000  0.055855  0.627195  1
  Tm  Tm5  1  0.500000  0.944145  0.372805  1
  Lu  Lu6  1  0.500000  0.444163  0.126828  1
  Lu  Lu7  1  0.500000  0.555837  0.873172  1
  B  B8  1  0.000000  0.106898  0.471259  1
  B  B9  1  0.000000  0.893102  0.528741  1
  B  B10  1  0.000000  0.395198  0.971760  1
  B  B11  1  0.000000  0.604802  0.028240  1
  B  B12  1  0.000000  0.132402  0.316509  1
  B  B13  1  0.000000  0.867598  0.683491  1
  B  B14  1  0.000000  0.368500  0.817195  1
  B  B15  1  0.000000  0.631500  0.182805  1
  B  B16  1  0.000000  0.054758  0.065554  1
  B  B17  1  0.000000  0.945242  0.934446  1
  B  B18  1  0.000000  0.445684  0.565801  1
  B  B19  1  0.000000  0.554316  0.434199  1
  B  B20  1  0.000000  0.482666  0.285754  1
  B  B21  1  0.000000  0.517334  0.714246  1
  B  B22  1  0.000000  0.016968  0.786468  1
  B  B23  1  0.000000  0.983032  0.213532  1
  B  B24  1  0.000000  0.251454  0.080108  1
  B  B25  1  0.000000  0.748546  0.919892  1
  B  B26  1  0.000000  0.249732  0.580385  1
  B  B27  1  0.000000  0.750268  0.419615  1
  B  B28  1  0.000000  0.294788  0.235592  1
  B  B29  1  0.000000  0.705212  0.764408  1
  B  B30  1  0.000000  0.206000  0.736409  1
  B  B31  1  0.000000  0.794000  0.263591  1
  Rh  Rh32  1  0.500000  0.140615  0.179501  1
  Rh  Rh33  1  0.500000  0.859385  0.820499  1
  Rh  Rh34  1  0.500000  0.360295  0.680327  1
  Rh  Rh35  1  0.500000  0.639705  0.319673  1
