# generated using pymatgen
data_NdTh2Zn3CuPd2
_symmetry_space_group_name_H-M   'P 1'
_cell_length_a   7.35831463
_cell_length_b   7.32614271
_cell_length_c   4.04840200
_cell_angle_alpha   90.00000000
_cell_angle_beta   90.00000000
_cell_angle_gamma   119.85547296
_symmetry_Int_Tables_number   1
_chemical_formula_structural   NdTh2Zn3CuPd2
_chemical_formula_sum   'Nd1 Th2 Zn3 Cu1 Pd2'
_cell_volume   189.27734465
_cell_formula_units_Z   1
loop_
 _symmetry_equiv_pos_site_id
 _symmetry_equiv_pos_as_xyz
  1  'x, y, z'
loop_
 _atom_site_type_symbol
 _atom_site_label
 _atom_site_symmetry_multiplicity
 _atom_site_fract_x
 _atom_site_fract_y
 _atom_site_fract_z
 _atom_site_occupancy
  Nd  Nd0  1  0.000000  0.592504  0.000000  1
  Th  Th1  1  0.410790  0.410703  0.000000  1
  Th  Th2  1  0.589210  0.999915  0.000000  1
  Zn  Zn3  1  0.771117  0.768818  0.500000  1
  Zn  Zn4  1  0.228883  0.997701  0.500000  1
  Zn  Zn5  1  0.000000  0.235392  0.500000  1
  Cu  Cu6  1  0.000000  0.003668  0.000000  1
  Pd  Pd7  1  0.654910  0.323104  0.500000  1
  Pd  Pd8  1  0.345090  0.668195  0.500000  1
