# generated using pymatgen
data_Sr4Yb2TaRuO12
_symmetry_space_group_name_H-M   'P 1'
_cell_length_a   5.81122011
_cell_length_b   5.93635352
_cell_length_c   8.22554551
_cell_angle_alpha   90.07971714
_cell_angle_beta   90.37269547
_cell_angle_gamma   90.09709831
_symmetry_Int_Tables_number   1
_chemical_formula_structural   Sr4Yb2TaRuO12
_chemical_formula_sum   'Sr4 Yb2 Ta1 Ru1 O12'
_cell_volume   283.75371212
_cell_formula_units_Z   1
loop_
 _symmetry_equiv_pos_site_id
 _symmetry_equiv_pos_as_xyz
  1  'x, y, z'
loop_
 _atom_site_type_symbol
 _atom_site_label
 _atom_site_symmetry_multiplicity
 _atom_site_fract_x
 _atom_site_fract_y
 _atom_site_fract_z
 _atom_site_occupancy
  Sr  Sr0  1  0.012926  0.045733  0.243927  1
  Sr  Sr1  1  0.491341  0.544029  0.242928  1
  Sr  Sr2  1  0.508659  0.455971  0.757072  1
  Sr  Sr3  1  0.987074  0.954267  0.756073  1
  Yb  Yb4  1  0.500000  0.000000  0.999999  1
  Yb  Yb5  1  0.999999  0.500001  0.500000  1
  Ta  Ta6  1  0.000000  0.500001  0.000000  1
  Ru  Ru7  1  0.499999  0.000000  0.500001  1
  O  O8  1  0.276051  0.305563  0.044244  1
  O  O9  1  0.190152  0.776159  0.051305  1
  O  O10  1  0.910391  0.469148  0.234781  1
  O  O11  1  0.578207  0.979001  0.275271  1
  O  O12  1  0.313342  0.264840  0.455257  1
  O  O13  1  0.235609  0.810198  0.459481  1
  O  O14  1  0.764392  0.189801  0.540518  1
  O  O15  1  0.686659  0.735160  0.544745  1
  O  O16  1  0.421791  0.020999  0.724729  1
  O  O17  1  0.089610  0.530852  0.765219  1
  O  O18  1  0.809849  0.223841  0.948695  1
  O  O19  1  0.723948  0.694436  0.955756  1
