# generated using pymatgen
data_V10Ga2Si4C
_symmetry_space_group_name_H-M   'P 1'
_cell_length_a   7.19786601
_cell_length_b   7.17681195
_cell_length_c   4.85859201
_cell_angle_alpha   89.98324517
_cell_angle_beta   90.00835921
_cell_angle_gamma   119.90327976
_symmetry_Int_Tables_number   1
_chemical_formula_structural   V10Ga2Si4C
_chemical_formula_sum   'V10 Ga2 Si4 C1'
_cell_volume   217.56990151
_cell_formula_units_Z   1
loop_
 _symmetry_equiv_pos_site_id
 _symmetry_equiv_pos_as_xyz
  1  'x, y, z'
loop_
 _atom_site_type_symbol
 _atom_site_label
 _atom_site_symmetry_multiplicity
 _atom_site_fract_x
 _atom_site_fract_y
 _atom_site_fract_z
 _atom_site_occupancy
  V  V0  1  0.000000  0.762282  0.255117  1
  V  V1  1  0.232653  0.233718  0.255993  1
  V  V2  1  0.767347  0.001065  0.255993  1
  V  V3  1  0.000000  0.238840  0.744182  1
  V  V4  1  0.769275  0.763182  0.744778  1
  V  V5  1  0.230725  0.993905  0.744778  1
  V  V6  1  0.328241  0.665745  0.004253  1
  V  V7  1  0.671759  0.337502  0.004253  1
  V  V8  1  0.672614  0.338169  0.495942  1
  V  V9  1  0.327386  0.665556  0.495942  1
  Ga  Ga10  1  0.402028  0.400830  0.755003  1
  Ga  Ga11  1  0.597972  0.998802  0.755003  1
  Si  Si12  1  0.000000  0.399317  0.241714  1
  Si  Si13  1  0.598628  0.601124  0.243554  1
  Si  Si14  1  0.401372  0.002496  0.243554  1
  Si  Si15  1  0.000000  0.596503  0.758444  1
  C  C16  1  0.000000  0.000966  0.501502  1
