# generated using pymatgen
data_Tm19LuGaBi11
_symmetry_space_group_name_H-M   'P 1'
_cell_length_a   8.10828570
_cell_length_b   9.39169800
_cell_length_c   11.85645406
_cell_angle_alpha   90.00000000
_cell_angle_beta   89.66535137
_cell_angle_gamma   90.00000000
_symmetry_Int_Tables_number   1
_chemical_formula_structural   Tm19LuGaBi11
_chemical_formula_sum   'Tm19 Lu1 Ga1 Bi11'
_cell_volume   902.86034178
_cell_formula_units_Z   1
loop_
 _symmetry_equiv_pos_site_id
 _symmetry_equiv_pos_as_xyz
  1  'x, y, z'
loop_
 _atom_site_type_symbol
 _atom_site_label
 _atom_site_symmetry_multiplicity
 _atom_site_fract_x
 _atom_site_fract_y
 _atom_site_fract_z
 _atom_site_occupancy
  Tm  Tm0  1  0.978688  0.750000  0.489897  1
  Tm  Tm1  1  0.475205  0.750000  0.010978  1
  Tm  Tm2  1  0.525878  0.250000  0.988788  1
  Tm  Tm3  1  0.356144  0.250000  0.293970  1
  Tm  Tm4  1  0.646708  0.750000  0.716586  1
  Tm  Tm5  1  0.147874  0.750000  0.782496  1
  Tm  Tm6  1  0.853782  0.250000  0.216318  1
  Tm  Tm7  1  0.192725  0.250000  0.777191  1
  Tm  Tm8  1  0.810342  0.750000  0.217983  1
  Tm  Tm9  1  0.312805  0.750000  0.281260  1
  Tm  Tm10  1  0.674358  0.250000  0.710465  1
  Tm  Tm11  1  0.193657  0.065907  0.060650  1
  Tm  Tm12  1  0.806507  0.934746  0.940592  1
  Tm  Tm13  1  0.308498  0.949564  0.559196  1
  Tm  Tm14  1  0.806507  0.565254  0.940592  1
  Tm  Tm15  1  0.684780  0.072388  0.444911  1
  Tm  Tm16  1  0.193657  0.434093  0.060650  1
  Tm  Tm17  1  0.684780  0.427612  0.444911  1
  Tm  Tm18  1  0.308498  0.550436  0.559196  1
  Lu  Lu19  1  0.037757  0.250000  0.509828  1
  Ga  Ga20  1  0.407994  0.250000  0.539732  1
  Bi  Bi21  1  0.593650  0.750000  0.457513  1
  Bi  Bi22  1  0.093969  0.750000  0.042575  1
  Bi  Bi23  1  0.907717  0.250000  0.954774  1
  Bi  Bi24  1  0.063882  0.002913  0.324772  1
  Bi  Bi25  1  0.934792  0.997989  0.674814  1
  Bi  Bi26  1  0.435032  0.996200  0.825279  1
  Bi  Bi27  1  0.934792  0.502011  0.674814  1
  Bi  Bi28  1  0.565054  0.004415  0.174607  1
  Bi  Bi29  1  0.063882  0.497087  0.324772  1
  Bi  Bi30  1  0.565054  0.495585  0.174607  1
  Bi  Bi31  1  0.435032  0.503800  0.825279  1
