# generated using pymatgen
data_AcPr2Zn9Ag2
_symmetry_space_group_name_H-M   'P 1'
_cell_length_a   4.58173852
_cell_length_b   8.53705772
_cell_length_c   8.53705870
_cell_angle_alpha   63.68030324
_cell_angle_beta   74.43424410
_cell_angle_gamma   74.43424836
_symmetry_Int_Tables_number   1
_chemical_formula_structural   AcPr2Zn9Ag2
_chemical_formula_sum   'Ac1 Pr2 Zn9 Ag2'
_cell_volume   283.98249217
_cell_formula_units_Z   1
loop_
 _symmetry_equiv_pos_site_id
 _symmetry_equiv_pos_as_xyz
  1  'x, y, z'
loop_
 _atom_site_type_symbol
 _atom_site_label
 _atom_site_symmetry_multiplicity
 _atom_site_fract_x
 _atom_site_fract_y
 _atom_site_fract_z
 _atom_site_occupancy
  Ac  Ac0  1  0.000000  0.000000  0.000000  1
  Pr  Pr1  1  0.299386  0.700614  0.700614  1
  Pr  Pr2  1  0.700614  0.299386  0.299386  1
  Zn  Zn3  1  0.000000  0.500000  0.500000  1
  Zn  Zn4  1  0.333706  0.309358  0.023231  1
  Zn  Zn5  1  0.666294  0.690642  0.976769  1
  Zn  Zn6  1  0.333706  0.023231  0.309358  1
  Zn  Zn7  1  0.666294  0.976769  0.690642  1
  Zn  Zn8  1  0.138658  0.574663  0.148020  1
  Zn  Zn9  1  0.861342  0.425337  0.851980  1
  Zn  Zn10  1  0.138658  0.148020  0.574663  1
  Zn  Zn11  1  0.861342  0.851980  0.425337  1
  Ag  Ag12  1  0.500000  0.309865  0.690135  1
  Ag  Ag13  1  0.500000  0.690135  0.309865  1
