# generated using pymatgen
data_Th5Fe19
_symmetry_space_group_name_H-M   'P 1'
_cell_length_a   5.12933433
_cell_length_b   5.12933336
_cell_length_c   16.62685859
_cell_angle_alpha   81.12678437
_cell_angle_beta   81.12678560
_cell_angle_gamma   59.99999807
_symmetry_Int_Tables_number   1
_chemical_formula_structural   Th5Fe19
_chemical_formula_sum   'Th5 Fe19'
_cell_volume   372.78846141
_cell_formula_units_Z   1
loop_
 _symmetry_equiv_pos_site_id
 _symmetry_equiv_pos_as_xyz
  1  'x, y, z'
loop_
 _atom_site_type_symbol
 _atom_site_label
 _atom_site_symmetry_multiplicity
 _atom_site_fract_x
 _atom_site_fract_y
 _atom_site_fract_z
 _atom_site_occupancy
  Th  Th0  1  0.000000  0.000000  0.000000  1
  Th  Th1  1  0.078948  0.078948  0.763155  1
  Th  Th2  1  0.921052  0.921052  0.236845  1
  Th  Th3  1  0.152543  0.152543  0.542372  1
  Th  Th4  1  0.847457  0.847457  0.457628  1
  Fe  Fe5  1  0.500000  0.500000  0.500000  1
  Fe  Fe6  1  0.250842  0.250842  0.247473  1
  Fe  Fe7  1  0.749158  0.749158  0.752527  1
  Fe  Fe8  1  0.333324  0.333324  0.000029  1
  Fe  Fe9  1  0.666676  0.666676  0.999971  1
  Fe  Fe10  1  0.415332  0.415332  0.754004  1
  Fe  Fe11  1  0.584668  0.584668  0.245996  1
  Fe  Fe12  1  0.123979  0.622970  0.630081  1
  Fe  Fe13  1  0.622970  0.622970  0.630081  1
  Fe  Fe14  1  0.622970  0.123979  0.630081  1
  Fe  Fe15  1  0.876021  0.377030  0.369919  1
  Fe  Fe16  1  0.377030  0.377030  0.369919  1
  Fe  Fe17  1  0.377030  0.876021  0.369919  1
  Fe  Fe18  1  0.040780  0.540946  0.877328  1
  Fe  Fe19  1  0.540946  0.540946  0.877328  1
  Fe  Fe20  1  0.540946  0.040780  0.877328  1
  Fe  Fe21  1  0.959220  0.459054  0.122672  1
  Fe  Fe22  1  0.459054  0.459054  0.122672  1
  Fe  Fe23  1  0.459054  0.959220  0.122672  1
