# generated using pymatgen
data_Tb8Sc12Ga15Sb
_symmetry_space_group_name_H-M   'P 1'
_cell_length_a   7.31332736
_cell_length_b   7.59759286
_cell_length_c   14.53385819
_cell_angle_alpha   89.98809566
_cell_angle_beta   89.95500624
_cell_angle_gamma   89.94669577
_symmetry_Int_Tables_number   1
_chemical_formula_structural   Tb8Sc12Ga15Sb
_chemical_formula_sum   'Tb8 Sc12 Ga15 Sb1'
_cell_volume   807.55408435
_cell_formula_units_Z   1
loop_
 _symmetry_equiv_pos_site_id
 _symmetry_equiv_pos_as_xyz
  1  'x, y, z'
loop_
 _atom_site_type_symbol
 _atom_site_label
 _atom_site_symmetry_multiplicity
 _atom_site_fract_x
 _atom_site_fract_y
 _atom_site_fract_z
 _atom_site_occupancy
  Tb  Tb0  1  0.012190  0.178482  0.095303  1
  Tb  Tb1  1  0.988294  0.821934  0.904757  1
  Tb  Tb2  1  0.487896  0.677172  0.905041  1
  Tb  Tb3  1  0.984875  0.828194  0.596085  1
  Tb  Tb4  1  0.512320  0.322184  0.095149  1
  Tb  Tb5  1  0.007925  0.173509  0.402028  1
  Tb  Tb6  1  0.513675  0.317743  0.403597  1
  Tb  Tb7  1  0.498606  0.684180  0.597273  1
  Sc  Sc8  1  0.163371  0.503614  0.753842  1
  Sc  Sc9  1  0.837852  0.497040  0.249044  1
  Sc  Sc10  1  0.337173  0.004140  0.249748  1
  Sc  Sc11  1  0.663823  0.997667  0.751015  1
  Sc  Sc12  1  0.335579  0.161898  0.627097  1
  Sc  Sc13  1  0.668540  0.829553  0.375289  1
  Sc  Sc14  1  0.169900  0.679730  0.372004  1
  Sc  Sc15  1  0.670655  0.826417  0.123992  1
  Sc  Sc16  1  0.822445  0.323230  0.625525  1
  Sc  Sc17  1  0.329593  0.173994  0.875871  1
  Sc  Sc18  1  0.829596  0.327072  0.875821  1
  Sc  Sc19  1  0.170736  0.673109  0.124316  1
  Ga  Ga20  1  0.031813  0.118660  0.749278  1
  Ga  Ga21  1  0.967556  0.882325  0.249129  1
  Ga  Ga22  1  0.469496  0.617372  0.250921  1
  Ga  Ga23  1  0.530760  0.381860  0.750269  1
  Ga  Ga24  1  0.284785  0.871346  0.750106  1
  Ga  Ga25  1  0.715056  0.126078  0.249794  1
  Ga  Ga26  1  0.214928  0.373592  0.251084  1
  Ga  Ga27  1  0.786098  0.626647  0.749316  1
  Ga  Ga28  1  0.828482  0.537532  0.456988  1
  Ga  Ga29  1  0.339456  0.965033  0.459783  1
  Ga  Ga30  1  0.840159  0.534600  0.040464  1
  Ga  Ga31  1  0.659735  0.036680  0.540284  1
  Ga  Ga32  1  0.159532  0.465062  0.959646  1
  Ga  Ga33  1  0.659680  0.035453  0.959361  1
  Ga  Ga34  1  0.340603  0.964125  0.040520  1
  Sb  Sb35  1  0.166816  0.462773  0.540261  1
