# generated using pymatgen
data_Dy3ErTh6(Si3C)2
_symmetry_space_group_name_H-M   'P 1'
_cell_length_a   8.74588500
_cell_length_b   8.74588511
_cell_length_c   6.36470900
_cell_angle_alpha   90.00000000
_cell_angle_beta   90.00000000
_cell_angle_gamma   119.99999582
_symmetry_Int_Tables_number   1
_chemical_formula_structural   Dy3ErTh6(Si3C)2
_chemical_formula_sum   'Dy3 Er1 Th6 Si6 C2'
_cell_volume   421.61565899
_cell_formula_units_Z   1
loop_
 _symmetry_equiv_pos_site_id
 _symmetry_equiv_pos_as_xyz
  1  'x, y, z'
loop_
 _atom_site_type_symbol
 _atom_site_label
 _atom_site_symmetry_multiplicity
 _atom_site_fract_x
 _atom_site_fract_y
 _atom_site_fract_z
 _atom_site_occupancy
  Dy  Dy0  1  0.666667  0.333333  0.000000  1
  Dy  Dy1  1  0.333333  0.666667  0.000000  1
  Dy  Dy2  1  0.333333  0.666667  0.500000  1
  Er  Er3  1  0.666667  0.333333  0.500000  1
  Th  Th4  1  0.766860  0.766727  0.749859  1
  Th  Th5  1  0.233273  0.000133  0.749859  1
  Th  Th6  1  0.999867  0.233140  0.749859  1
  Th  Th7  1  0.233273  0.233140  0.250141  1
  Th  Th8  1  0.766860  0.000133  0.250141  1
  Th  Th9  1  0.999867  0.766727  0.250141  1
  Si  Si10  1  0.402521  0.402077  0.749656  1
  Si  Si11  1  0.597923  0.000443  0.749656  1
  Si  Si12  1  0.999557  0.597479  0.749656  1
  Si  Si13  1  0.597923  0.597479  0.250344  1
  Si  Si14  1  0.402521  0.000443  0.250344  1
  Si  Si15  1  0.999557  0.402077  0.250344  1
  C  C16  1  0.000000  0.000000  0.000000  1
  C  C17  1  0.000000  0.000000  0.500000  1
