# generated using pymatgen
data_LaTh7(ZnRu)8
_symmetry_space_group_name_H-M   'P 1'
_cell_length_a   3.93335800
_cell_length_b   7.45849942
_cell_length_c   16.53948300
_cell_angle_alpha   89.63944017
_cell_angle_beta   90.00000000
_cell_angle_gamma   90.00000000
_symmetry_Int_Tables_number   1
_chemical_formula_structural   LaTh7(ZnRu)8
_chemical_formula_sum   'La1 Th7 Zn8 Ru8'
_cell_volume   485.20835090
_cell_formula_units_Z   1
loop_
 _symmetry_equiv_pos_site_id
 _symmetry_equiv_pos_as_xyz
  1  'x, y, z'
loop_
 _atom_site_type_symbol
 _atom_site_label
 _atom_site_symmetry_multiplicity
 _atom_site_fract_x
 _atom_site_fract_y
 _atom_site_fract_z
 _atom_site_occupancy
  La  La0  1  0.750000  0.944882  0.285174  1
  Th  Th1  1  0.750000  0.329813  0.439584  1
  Th  Th2  1  0.250000  0.057227  0.715286  1
  Th  Th3  1  0.250000  0.556563  0.784969  1
  Th  Th4  1  0.250000  0.673903  0.560512  1
  Th  Th5  1  0.750000  0.823032  0.060802  1
  Th  Th6  1  0.250000  0.171089  0.939777  1
  Th  Th7  1  0.750000  0.444305  0.215026  1
  Zn  Zn8  1  0.250000  0.114018  0.151477  1
  Zn  Zn9  1  0.250000  0.996939  0.442073  1
  Zn  Zn10  1  0.750000  0.884394  0.848686  1
  Zn  Zn11  1  0.750000  0.006001  0.558272  1
  Zn  Zn12  1  0.250000  0.491010  0.056729  1
  Zn  Zn13  1  0.750000  0.385000  0.651485  1
  Zn  Zn14  1  0.750000  0.503549  0.941968  1
  Zn  Zn15  1  0.250000  0.618513  0.349182  1
  Ru  Ru16  1  0.750000  0.263406  0.811950  1
  Ru  Ru17  1  0.250000  0.253369  0.314010  1
  Ru  Ru18  1  0.250000  0.753998  0.937738  1
  Ru  Ru19  1  0.250000  0.256118  0.561757  1
  Ru  Ru20  1  0.250000  0.726725  0.182876  1
  Ru  Ru21  1  0.750000  0.742979  0.441281  1
  Ru  Ru22  1  0.750000  0.239245  0.060747  1
  Ru  Ru23  1  0.750000  0.763922  0.688641  1
