# generated using pymatgen
data_Ho3MgCdInSn2Pd
_symmetry_space_group_name_H-M   'P 1'
_cell_length_a   7.43928000
_cell_length_b   7.43928255
_cell_length_c   4.49393600
_cell_angle_alpha   90.00000000
_cell_angle_beta   90.00000000
_cell_angle_gamma   120.49517069
_symmetry_Int_Tables_number   1
_chemical_formula_structural   Ho3MgCdInSn2Pd
_chemical_formula_sum   'Ho3 Mg1 Cd1 In1 Sn2 Pd1'
_cell_volume   214.30425340
_cell_formula_units_Z   1
loop_
 _symmetry_equiv_pos_site_id
 _symmetry_equiv_pos_as_xyz
  1  'x, y, z'
loop_
 _atom_site_type_symbol
 _atom_site_label
 _atom_site_symmetry_multiplicity
 _atom_site_fract_x
 _atom_site_fract_y
 _atom_site_fract_z
 _atom_site_occupancy
  Ho  Ho0  1  0.596598  0.001227  0.000000  1
  Ho  Ho1  1  0.001027  0.595331  0.000000  1
  Ho  Ho2  1  0.401464  0.401940  0.000000  1
  Mg  Mg3  1  0.771129  0.772299  0.500000  1
  Cd  Cd4  1  0.996102  0.236103  0.500000  1
  In  In5  1  0.232286  0.997217  0.500000  1
  Sn  Sn6  1  0.339792  0.666233  0.500000  1
  Sn  Sn7  1  0.667816  0.339278  0.500000  1
  Pd  Pd8  1  0.993784  0.990370  0.000000  1
