# generated using pymatgen
data_CaTb2MnVC6
_symmetry_space_group_name_H-M   'P 1'
_cell_length_a   8.19025502
_cell_length_b   8.18494760
_cell_length_c   5.01016900
_cell_angle_alpha   90.00000000
_cell_angle_beta   90.00000000
_cell_angle_gamma   120.26874329
_symmetry_Int_Tables_number   1
_chemical_formula_structural   CaTb2MnVC6
_chemical_formula_sum   'Ca2 Tb4 Mn2 V2 C12'
_cell_volume   290.07738309
_cell_formula_units_Z   2
loop_
 _symmetry_equiv_pos_site_id
 _symmetry_equiv_pos_as_xyz
  1  'x, y, z'
loop_
 _atom_site_type_symbol
 _atom_site_label
 _atom_site_symmetry_multiplicity
 _atom_site_fract_x
 _atom_site_fract_y
 _atom_site_fract_z
 _atom_site_occupancy
  Ca  Ca0  1  0.608515  0.679736  0.750000  1
  Ca  Ca1  1  0.926046  0.608759  0.250000  1
  Tb  Tb2  1  0.683725  0.065843  0.250000  1
  Tb  Tb3  1  0.314068  0.934091  0.750000  1
  Tb  Tb4  1  0.066124  0.384891  0.750000  1
  Tb  Tb5  1  0.382725  0.318529  0.250000  1
  Mn  Mn6  1  0.666318  0.329705  0.750000  1
  Mn  Mn7  1  0.335464  0.668517  0.250000  1
  V  V8  1  0.998997  0.998330  0.500283  1
  V  V9  1  0.998997  0.998330  0.999717  1
  C  C10  1  0.956285  0.764731  0.750000  1
  C  C11  1  0.196533  0.961881  0.250000  1
  C  C12  1  0.768751  0.814011  0.250000  1
  C  C13  1  0.234088  0.195588  0.750000  1
  C  C14  1  0.812348  0.042654  0.750000  1
  C  C15  1  0.040635  0.234177  0.250000  1
  C  C16  1  0.859296  0.572964  0.750000  1
  C  C17  1  0.287031  0.860241  0.250000  1
  C  C18  1  0.576969  0.715816  0.250000  1
  C  C19  1  0.427771  0.285398  0.750000  1
  C  C20  1  0.143624  0.427670  0.250000  1
  C  C21  1  0.715691  0.138139  0.750000  1
