# generated using pymatgen
data_Ho16In4RuRh3
_symmetry_space_group_name_H-M   'P 1'
_cell_length_a   9.61722101
_cell_length_b   9.61908060
_cell_length_c   9.61722200
_cell_angle_alpha   60.00639835
_cell_angle_beta   60.00000347
_cell_angle_gamma   60.00640117
_symmetry_Int_Tables_number   1
_chemical_formula_structural   Ho16In4RuRh3
_chemical_formula_sum   'Ho16 In4 Ru1 Rh3'
_cell_volume   629.15813848
_cell_formula_units_Z   1
loop_
 _symmetry_equiv_pos_site_id
 _symmetry_equiv_pos_as_xyz
  1  'x, y, z'
loop_
 _atom_site_type_symbol
 _atom_site_label
 _atom_site_symmetry_multiplicity
 _atom_site_fract_x
 _atom_site_fract_y
 _atom_site_fract_z
 _atom_site_occupancy
  Ho  Ho0  1  0.187402  0.187895  0.812351  1
  Ho  Ho1  1  0.599191  0.600719  0.200898  1
  Ho  Ho2  1  0.438910  0.058884  0.438910  1
  Ho  Ho3  1  0.438989  0.439307  0.060852  1
  Ho  Ho4  1  0.812351  0.187895  0.812351  1
  Ho  Ho5  1  0.188852  0.812785  0.188852  1
  Ho  Ho6  1  0.438910  0.058884  0.063296  1
  Ho  Ho7  1  0.188852  0.812785  0.809511  1
  Ho  Ho8  1  0.060852  0.439307  0.060852  1
  Ho  Ho9  1  0.809511  0.812785  0.188852  1
  Ho  Ho10  1  0.200898  0.600719  0.599191  1
  Ho  Ho11  1  0.060852  0.439307  0.438989  1
  Ho  Ho12  1  0.063296  0.058884  0.438910  1
  Ho  Ho13  1  0.812351  0.187895  0.187402  1
  Ho  Ho14  1  0.599972  0.200085  0.599972  1
  Ho  Ho15  1  0.599191  0.600719  0.599191  1
  In  In16  1  0.832939  0.833304  0.832939  1
  In  In17  1  0.832939  0.833304  0.500820  1
  In  In18  1  0.500820  0.833304  0.832939  1
  In  In19  1  0.832708  0.501878  0.832708  1
  Ru  Ru20  1  0.392548  0.822355  0.392548  1
  Rh  Rh21  1  0.392365  0.392334  0.392365  1
  Rh  Rh22  1  0.822935  0.392334  0.392365  1
  Rh  Rh23  1  0.392365  0.392334  0.822935  1
