# generated using pymatgen
data_Lu12Mn2In2Ag
_symmetry_space_group_name_H-M   'P 1'
_cell_length_a   8.27243530
_cell_length_b   8.27243609
_cell_length_c   8.27243594
_cell_angle_alpha   109.25450693
_cell_angle_beta   109.25449604
_cell_angle_gamma   109.90552681
_symmetry_Int_Tables_number   1
_chemical_formula_structural   Lu12Mn2In2Ag
_chemical_formula_sum   'Lu12 Mn2 In2 Ag1'
_cell_volume   435.77230682
_cell_formula_units_Z   1
loop_
 _symmetry_equiv_pos_site_id
 _symmetry_equiv_pos_as_xyz
  1  'x, y, z'
loop_
 _atom_site_type_symbol
 _atom_site_label
 _atom_site_symmetry_multiplicity
 _atom_site_fract_x
 _atom_site_fract_y
 _atom_site_fract_z
 _atom_site_occupancy
  Lu  Lu0  1  0.305338  0.305338  0.610676  1
  Lu  Lu1  1  0.694662  0.694662  0.389324  1
  Lu  Lu2  1  0.694662  0.305338  0.000000  1
  Lu  Lu3  1  0.305338  0.694662  0.000000  1
  Lu  Lu4  1  0.204490  0.448991  0.244501  1
  Lu  Lu5  1  0.795510  0.551009  0.755499  1
  Lu  Lu6  1  0.204490  0.959986  0.755499  1
  Lu  Lu7  1  0.959986  0.204490  0.755499  1
  Lu  Lu8  1  0.795510  0.040014  0.244501  1
  Lu  Lu9  1  0.040014  0.795510  0.244501  1
  Lu  Lu10  1  0.448991  0.204490  0.244501  1
  Lu  Lu11  1  0.551009  0.795510  0.755499  1
  Mn  Mn12  1  0.389328  0.389328  0.000000  1
  Mn  Mn13  1  0.610672  0.610672  0.000000  1
  In  In14  1  0.000000  0.500000  0.500000  1
  In  In15  1  0.500000  0.000000  0.500000  1
  Ag  Ag16  1  0.000000  0.000000  0.000000  1
