# generated using pymatgen
data_DyEr7Ga3Co
_symmetry_space_group_name_H-M   'P 1'
_cell_length_a   9.93720100
_cell_length_b   9.93720218
_cell_length_c   6.87462900
_cell_angle_alpha   90.00000000
_cell_angle_beta   90.00000000
_cell_angle_gamma   120.00000607
_symmetry_Int_Tables_number   1
_chemical_formula_structural   DyEr7Ga3Co
_chemical_formula_sum   'Dy2 Er14 Ga6 Co2'
_cell_volume   587.90624170
_cell_formula_units_Z   2
loop_
 _symmetry_equiv_pos_site_id
 _symmetry_equiv_pos_as_xyz
  1  'x, y, z'
loop_
 _atom_site_type_symbol
 _atom_site_label
 _atom_site_symmetry_multiplicity
 _atom_site_fract_x
 _atom_site_fract_y
 _atom_site_fract_z
 _atom_site_occupancy
  Dy  Dy0  1  0.000000  0.000000  0.270394  1
  Dy  Dy1  1  0.000000  0.000000  0.770394  1
  Er  Er2  1  0.173557  0.826443  0.990822  1
  Er  Er3  1  0.826443  0.173557  0.490822  1
  Er  Er4  1  0.173557  0.347115  0.990822  1
  Er  Er5  1  0.652885  0.826443  0.990822  1
  Er  Er6  1  0.347115  0.173557  0.490822  1
  Er  Er7  1  0.826443  0.652885  0.490822  1
  Er  Er8  1  0.333333  0.666667  0.672399  1
  Er  Er9  1  0.666667  0.333333  0.172399  1
  Er  Er10  1  0.463817  0.536183  0.293226  1
  Er  Er11  1  0.536183  0.463817  0.793226  1
  Er  Er12  1  0.463817  0.927634  0.293226  1
  Er  Er13  1  0.072366  0.536183  0.293226  1
  Er  Er14  1  0.927634  0.463817  0.793226  1
  Er  Er15  1  0.536183  0.072366  0.793226  1
  Ga  Ga16  1  0.163817  0.836183  0.540216  1
  Ga  Ga17  1  0.836183  0.163817  0.040216  1
  Ga  Ga18  1  0.163817  0.327634  0.540216  1
  Ga  Ga19  1  0.672366  0.836183  0.540216  1
  Ga  Ga20  1  0.327634  0.163817  0.040216  1
  Ga  Ga21  1  0.836183  0.672366  0.040216  1
  Co  Co22  1  0.333333  0.666667  0.057473  1
  Co  Co23  1  0.666667  0.333333  0.557473  1
