# generated using pymatgen
data_Pr12Nd2IrPd5
_symmetry_space_group_name_H-M   'P 1'
_cell_length_a   10.26106700
_cell_length_b   10.26066158
_cell_length_c   6.51468100
_cell_angle_alpha   89.98844122
_cell_angle_beta   90.00000000
_cell_angle_gamma   120.00131027
_symmetry_Int_Tables_number   1
_chemical_formula_structural   Pr12Nd2IrPd5
_chemical_formula_sum   'Pr12 Nd2 Ir1 Pd5'
_cell_volume   593.99929272
_cell_formula_units_Z   1
loop_
 _symmetry_equiv_pos_site_id
 _symmetry_equiv_pos_as_xyz
  1  'x, y, z'
loop_
 _atom_site_type_symbol
 _atom_site_label
 _atom_site_symmetry_multiplicity
 _atom_site_fract_x
 _atom_site_fract_y
 _atom_site_fract_z
 _atom_site_occupancy
  Pr  Pr0  1  0.126141  0.872816  0.242506  1
  Pr  Pr1  1  0.746676  0.872816  0.242506  1
  Pr  Pr2  1  0.128074  0.256148  0.251204  1
  Pr  Pr3  1  0.880776  0.131490  0.740367  1
  Pr  Pr4  1  0.250712  0.131490  0.740367  1
  Pr  Pr5  1  0.872350  0.744700  0.738875  1
  Pr  Pr6  1  0.536259  0.459826  0.445111  1
  Pr  Pr7  1  0.923567  0.459826  0.445111  1
  Pr  Pr8  1  0.537809  0.075619  0.448868  1
  Pr  Pr9  1  0.456059  0.535704  0.943221  1
  Pr  Pr10  1  0.079645  0.535704  0.943221  1
  Pr  Pr11  1  0.462472  0.924943  0.949209  1
  Nd  Nd12  1  0.331254  0.662509  0.462944  1
  Nd  Nd13  1  0.666554  0.333108  0.952666  1
  Ir  Ir14  1  0.189448  0.378894  0.689551  1
  Pd  Pd15  1  0.809936  0.187874  0.192745  1
  Pd  Pd16  1  0.377939  0.187874  0.192745  1
  Pd  Pd17  1  0.811098  0.622198  0.192842  1
  Pd  Pd18  1  0.189142  0.813230  0.694016  1
  Pd  Pd19  1  0.624088  0.813230  0.694016  1
