# generated using pymatgen
data_YHo5CrB14Os
_symmetry_space_group_name_H-M   'P 1'
_cell_length_a   8.05041003
_cell_length_b   8.05040918
_cell_length_c   9.32746300
_cell_angle_alpha   90.00000000
_cell_angle_beta   90.00000000
_cell_angle_gamma   155.03896881
_symmetry_Int_Tables_number   1
_chemical_formula_structural   YHo5CrB14Os
_chemical_formula_sum   'Y1 Ho5 Cr1 B14 Os1'
_cell_volume   255.10193103
_cell_formula_units_Z   1
loop_
 _symmetry_equiv_pos_site_id
 _symmetry_equiv_pos_as_xyz
  1  'x, y, z'
loop_
 _atom_site_type_symbol
 _atom_site_label
 _atom_site_symmetry_multiplicity
 _atom_site_fract_x
 _atom_site_fract_y
 _atom_site_fract_z
 _atom_site_occupancy
  Y  Y0  1  0.757467  0.242533  0.250000  1
  Ho  Ho1  1  0.105380  0.894620  0.061578  1
  Ho  Ho2  1  0.894419  0.105581  0.941035  1
  Ho  Ho3  1  0.243932  0.756068  0.750000  1
  Ho  Ho4  1  0.105380  0.894620  0.438422  1
  Ho  Ho5  1  0.894419  0.105581  0.558965  1
  Cr  Cr6  1  0.947373  0.052627  0.250000  1
  B  B7  1  0.726945  0.273055  0.534462  1
  B  B8  1  0.272210  0.727790  0.467261  1
  B  B9  1  0.272210  0.727790  0.032739  1
  B  B10  1  0.726945  0.273055  0.965538  1
  B  B11  1  0.520568  0.479432  0.904884  1
  B  B12  1  0.478919  0.521081  0.096019  1
  B  B13  1  0.478919  0.521081  0.403981  1
  B  B14  1  0.520568  0.479432  0.595116  1
  B  B15  1  0.456832  0.543168  0.750000  1
  B  B16  1  0.541958  0.458042  0.250000  1
  B  B17  1  0.631850  0.368150  0.649872  1
  B  B18  1  0.368901  0.631099  0.348544  1
  B  B19  1  0.368901  0.631099  0.151456  1
  B  B20  1  0.631850  0.368150  0.850128  1
  Os  Os21  1  0.054052  0.945948  0.750000  1
