# generated using pymatgen
data_Ce20Si13AsSe2
_symmetry_space_group_name_H-M   'P 1'
_cell_length_a   7.54358375
_cell_length_b   7.71295270
_cell_length_c   14.76326000
_cell_angle_alpha   90.41273182
_cell_angle_beta   86.43180709
_cell_angle_gamma   90.41591003
_symmetry_Int_Tables_number   1
_chemical_formula_structural   Ce20Si13AsSe2
_chemical_formula_sum   'Ce20 Si13 As1 Se2'
_cell_volume   857.26786789
_cell_formula_units_Z   1
loop_
 _symmetry_equiv_pos_site_id
 _symmetry_equiv_pos_as_xyz
  1  'x, y, z'
loop_
 _atom_site_type_symbol
 _atom_site_label
 _atom_site_symmetry_multiplicity
 _atom_site_fract_x
 _atom_site_fract_y
 _atom_site_fract_z
 _atom_site_occupancy
  Ce  Ce0  1  0.190085  0.009722  0.760330  1
  Ce  Ce1  1  0.810497  0.990763  0.239559  1
  Ce  Ce2  1  0.310552  0.509947  0.242645  1
  Ce  Ce3  1  0.689201  0.490623  0.754468  1
  Ce  Ce4  1  0.035744  0.678310  0.608047  1
  Ce  Ce5  1  0.960937  0.321265  0.392471  1
  Ce  Ce6  1  0.466190  0.189400  0.395240  1
  Ce  Ce7  1  0.003116  0.319384  0.100079  1
  Ce  Ce8  1  0.535773  0.811317  0.605113  1
  Ce  Ce9  1  0.996891  0.680008  0.900104  1
  Ce  Ce10  1  0.498101  0.820176  0.900637  1
  Ce  Ce11  1  0.501770  0.179803  0.099654  1
  Ce  Ce12  1  0.393534  0.334558  0.615671  1
  Ce  Ce13  1  0.610061  0.665537  0.384974  1
  Ce  Ce14  1  0.107314  0.829473  0.385612  1
  Ce  Ce15  1  0.648572  0.691903  0.127507  1
  Ce  Ce16  1  0.890851  0.171153  0.614280  1
  Ce  Ce17  1  0.350777  0.307137  0.872535  1
  Ce  Ce18  1  0.850408  0.188455  0.873628  1
  Ce  Ce19  1  0.150067  0.811515  0.127184  1
  Si  Si20  1  0.076136  0.400600  0.745216  1
  Si  Si21  1  0.924363  0.599076  0.254892  1
  Si  Si22  1  0.422244  0.903940  0.258201  1
  Si  Si23  1  0.577716  0.096250  0.742801  1
  Si  Si24  1  0.308557  0.627029  0.751285  1
  Si  Si25  1  0.691101  0.372748  0.248954  1
  Si  Si26  1  0.192046  0.128676  0.251826  1
  Si  Si27  1  0.807597  0.872359  0.749315  1
  Si  Si28  1  0.844108  0.973640  0.034527  1
  Si  Si29  1  0.733146  0.482890  0.545156  1
  Si  Si30  1  0.156079  0.025176  0.965456  1
  Si  Si31  1  0.654189  0.473981  0.964801  1
  Si  Si32  1  0.344758  0.525780  0.034852  1
  As  As33  1  0.267375  0.516549  0.453705  1
  Se  Se34  1  0.232744  0.012538  0.548946  1
  Se  Se35  1  0.767399  0.988321  0.450327  1
