# generated using pymatgen
data_YTi2ZnAu3
_symmetry_space_group_name_H-M   'P 1'
_cell_length_a   5.65837043
_cell_length_b   5.65836979
_cell_length_c   5.63406666
_cell_angle_alpha   101.78099632
_cell_angle_beta   101.78099290
_cell_angle_gamma   126.39945438
_symmetry_Int_Tables_number   1
_chemical_formula_structural   YTi2ZnAu3
_chemical_formula_sum   'Y1 Ti2 Zn1 Au3'
_cell_volume   129.45405262
_cell_formula_units_Z   1
loop_
 _symmetry_equiv_pos_site_id
 _symmetry_equiv_pos_as_xyz
  1  'x, y, z'
loop_
 _atom_site_type_symbol
 _atom_site_label
 _atom_site_symmetry_multiplicity
 _atom_site_fract_x
 _atom_site_fract_y
 _atom_site_fract_z
 _atom_site_occupancy
  Y  Y0  1  0.003008  0.996992  0.000000  1
  Ti  Ti1  1  0.248608  0.751392  0.500000  1
  Ti  Ti2  1  0.748608  0.251392  0.500000  1
  Zn  Zn3  1  0.305771  0.694229  0.000000  1
  Au  Au4  1  0.704255  0.295745  0.000000  1
  Au  Au5  1  0.682904  0.693155  0.376060  1
  Au  Au6  1  0.306845  0.317096  0.623940  1
