# generated using pymatgen
data_Pr8Be3CoSi12
_symmetry_space_group_name_H-M   'P 1'
_cell_length_a   8.01361400
_cell_length_b   8.01361374
_cell_length_c   8.67709900
_cell_angle_alpha   90.00000000
_cell_angle_beta   90.00000000
_cell_angle_gamma   120.00000107
_symmetry_Int_Tables_number   1
_chemical_formula_structural   Pr8Be3CoSi12
_chemical_formula_sum   'Pr8 Be3 Co1 Si12'
_cell_volume   482.57187211
_cell_formula_units_Z   1
loop_
 _symmetry_equiv_pos_site_id
 _symmetry_equiv_pos_as_xyz
  1  'x, y, z'
loop_
 _atom_site_type_symbol
 _atom_site_label
 _atom_site_symmetry_multiplicity
 _atom_site_fract_x
 _atom_site_fract_y
 _atom_site_fract_z
 _atom_site_occupancy
  Pr  Pr0  1  0.500570  0.499430  0.749369  1
  Pr  Pr1  1  0.500639  0.499361  0.250703  1
  Pr  Pr2  1  0.998860  0.499430  0.749369  1
  Pr  Pr3  1  0.998723  0.499361  0.250703  1
  Pr  Pr4  1  0.500570  0.001140  0.749369  1
  Pr  Pr5  1  0.500639  0.001277  0.250703  1
  Pr  Pr6  1  0.000000  0.000000  0.749658  1
  Pr  Pr7  1  0.000000  0.000000  0.250357  1
  Be  Be8  1  0.666667  0.333333  0.999225  1
  Be  Be9  1  0.333333  0.666667  0.000816  1
  Be  Be10  1  0.333333  0.666667  0.499621  1
  Co  Co11  1  0.666667  0.333333  0.499714  1
  Si  Si12  1  0.827590  0.172410  0.000114  1
  Si  Si13  1  0.172047  0.827953  0.999978  1
  Si  Si14  1  0.344818  0.172410  0.000114  1
  Si  Si15  1  0.168644  0.831356  0.499923  1
  Si  Si16  1  0.655906  0.827953  0.999978  1
  Si  Si17  1  0.825514  0.174486  0.500118  1
  Si  Si18  1  0.827590  0.655182  0.000114  1
  Si  Si19  1  0.662712  0.831356  0.499923  1
  Si  Si20  1  0.172047  0.344094  0.999978  1
  Si  Si21  1  0.348972  0.174486  0.500118  1
  Si  Si22  1  0.168644  0.337288  0.499923  1
  Si  Si23  1  0.825514  0.651028  0.500118  1
