# generated using pymatgen
data_Y5Er(Tm3Ru2)2
_symmetry_space_group_name_H-M   'P 1'
_cell_length_a   6.27618210
_cell_length_b   7.31749850
_cell_length_c   9.06400601
_cell_angle_alpha   89.95958777
_cell_angle_beta   89.75576932
_cell_angle_gamma   89.89668977
_symmetry_Int_Tables_number   1
_chemical_formula_structural   Y5Er(Tm3Ru2)2
_chemical_formula_sum   'Y5 Er1 Tm6 Ru4'
_cell_volume   416.26855517
_cell_formula_units_Z   1
loop_
 _symmetry_equiv_pos_site_id
 _symmetry_equiv_pos_as_xyz
  1  'x, y, z'
loop_
 _atom_site_type_symbol
 _atom_site_label
 _atom_site_symmetry_multiplicity
 _atom_site_fract_x
 _atom_site_fract_y
 _atom_site_fract_z
 _atom_site_occupancy
  Y  Y0  1  0.631771  0.040220  0.251097  1
  Y  Y1  1  0.369068  0.959293  0.748758  1
  Y  Y2  1  0.130604  0.459911  0.748876  1
  Y  Y3  1  0.868575  0.541031  0.250547  1
  Y  Y4  1  0.168107  0.176486  0.063618  1
  Er  Er5  1  0.830974  0.823660  0.934984  1
  Tm  Tm6  1  0.668138  0.324967  0.935091  1
  Tm  Tm7  1  0.831856  0.824135  0.564060  1
  Tm  Tm8  1  0.332481  0.675353  0.064417  1
  Tm  Tm9  1  0.167976  0.175210  0.436527  1
  Tm  Tm10  1  0.332172  0.675989  0.435574  1
  Tm  Tm11  1  0.667518  0.324541  0.564244  1
  Ru  Ru12  1  0.458714  0.386759  0.251773  1
  Ru  Ru13  1  0.543377  0.614290  0.750448  1
  Ru  Ru14  1  0.955552  0.114132  0.747838  1
  Ru  Ru15  1  0.043118  0.884021  0.252147  1
