# generated using pymatgen
data_CrCoI18
_symmetry_space_group_name_H-M   'P 1'
_cell_length_a   10.03018224
_cell_length_b   10.03018280
_cell_length_c   10.03018403
_cell_angle_alpha   91.18517241
_cell_angle_beta   91.18516575
_cell_angle_gamma   91.18517472
_symmetry_Int_Tables_number   1
_chemical_formula_structural   CrCoI18
_chemical_formula_sum   'Cr1 Co1 I18'
_cell_volume   1008.42557321
_cell_formula_units_Z   1
loop_
 _symmetry_equiv_pos_site_id
 _symmetry_equiv_pos_as_xyz
  1  'x, y, z'
loop_
 _atom_site_type_symbol
 _atom_site_label
 _atom_site_symmetry_multiplicity
 _atom_site_fract_x
 _atom_site_fract_y
 _atom_site_fract_z
 _atom_site_occupancy
  Cr  Cr0  1  0.500000  0.500000  0.500000  1
  Co  Co1  1  0.000000  0.000000  0.000000  1
  I  I2  1  0.740698  0.984785  0.023890  1
  I  I3  1  0.740954  0.129803  0.621348  1
  I  I4  1  0.023890  0.740698  0.984785  1
  I  I5  1  0.259046  0.870197  0.378652  1
  I  I6  1  0.129803  0.621348  0.740954  1
  I  I7  1  0.015215  0.976110  0.259302  1
  I  I8  1  0.621348  0.740954  0.129803  1
  I  I9  1  0.976110  0.259302  0.015215  1
  I  I10  1  0.870197  0.378652  0.259046  1
  I  I11  1  0.378652  0.259046  0.870197  1
  I  I12  1  0.984785  0.023890  0.740698  1
  I  I13  1  0.259302  0.015215  0.976110  1
  I  I14  1  0.771028  0.532588  0.490308  1
  I  I15  1  0.509692  0.228972  0.467412  1
  I  I16  1  0.467412  0.509692  0.228972  1
  I  I17  1  0.490308  0.771028  0.532588  1
  I  I18  1  0.532588  0.490308  0.771028  1
  I  I19  1  0.228972  0.467412  0.509692  1
