# generated using pymatgen
data_TbYb3(Pt2O7)2
_symmetry_space_group_name_H-M   'P 1'
_cell_length_a   7.25645543
_cell_length_b   7.26813338
_cell_length_c   7.26813300
_cell_angle_alpha   59.99999718
_cell_angle_beta   59.94674704
_cell_angle_gamma   59.94674623
_symmetry_Int_Tables_number   1
_chemical_formula_structural   TbYb3(Pt2O7)2
_chemical_formula_sum   'Tb1 Yb3 Pt4 O14'
_cell_volume   270.83527965
_cell_formula_units_Z   1
loop_
 _symmetry_equiv_pos_site_id
 _symmetry_equiv_pos_as_xyz
  1  'x, y, z'
loop_
 _atom_site_type_symbol
 _atom_site_label
 _atom_site_symmetry_multiplicity
 _atom_site_fract_x
 _atom_site_fract_y
 _atom_site_fract_z
 _atom_site_occupancy
  Tb  Tb0  1  0.125000  0.625000  0.625000  1
  Yb  Yb1  1  0.625000  0.625000  0.125000  1
  Yb  Yb2  1  0.625000  0.625000  0.625000  1
  Yb  Yb3  1  0.625000  0.125000  0.625000  1
  Pt  Pt4  1  0.125000  0.125000  0.125000  1
  Pt  Pt5  1  0.625000  0.125000  0.125000  1
  Pt  Pt6  1  0.125000  0.625000  0.125000  1
  Pt  Pt7  1  0.125000  0.125000  0.625000  1
  O  O8  1  0.043393  0.459480  0.459480  1
  O  O9  1  0.792763  0.792154  0.207541  1
  O  O10  1  0.792763  0.207541  0.207541  1
  O  O11  1  0.457237  0.042459  0.457846  1
  O  O12  1  0.043393  0.459480  0.037648  1
  O  O13  1  0.756178  0.747941  0.747941  1
  O  O14  1  0.043393  0.037648  0.459480  1
  O  O15  1  0.206607  0.790520  0.212352  1
  O  O16  1  0.206607  0.212352  0.790520  1
  O  O17  1  0.493822  0.502059  0.502059  1
  O  O18  1  0.792763  0.207541  0.792154  1
  O  O19  1  0.457237  0.042459  0.042459  1
  O  O20  1  0.457237  0.457846  0.042459  1
  O  O21  1  0.206607  0.790520  0.790520  1
