# generated using pymatgen
data_Li4Yb8Si11Pb
_symmetry_space_group_name_H-M   'P 1'
_cell_length_a   4.36904400
_cell_length_b   10.65771431
_cell_length_c   11.28799990
_cell_angle_alpha   89.54824311
_cell_angle_beta   90.00000000
_cell_angle_gamma   90.00000000
_symmetry_Int_Tables_number   1
_chemical_formula_structural   Li4Yb8Si11Pb
_chemical_formula_sum   'Li4 Yb8 Si11 Pb1'
_cell_volume   525.59834632
_cell_formula_units_Z   1
loop_
 _symmetry_equiv_pos_site_id
 _symmetry_equiv_pos_as_xyz
  1  'x, y, z'
loop_
 _atom_site_type_symbol
 _atom_site_label
 _atom_site_symmetry_multiplicity
 _atom_site_fract_x
 _atom_site_fract_y
 _atom_site_fract_z
 _atom_site_occupancy
  Li  Li0  1  0.500000  0.863661  0.300425  1
  Li  Li1  1  0.500000  0.141492  0.716363  1
  Li  Li2  1  0.000000  0.364773  0.217002  1
  Li  Li3  1  0.000000  0.634960  0.778381  1
  Yb  Yb4  1  0.500000  0.552772  0.348874  1
  Yb  Yb5  1  0.500000  0.447923  0.649697  1
  Yb  Yb6  1  0.000000  0.064893  0.154264  1
  Yb  Yb7  1  0.000000  0.950669  0.847735  1
  Yb  Yb8  1  0.500000  0.820163  0.575057  1
  Yb  Yb9  1  0.500000  0.178913  0.427038  1
  Yb  Yb10  1  0.000000  0.323613  0.925210  1
  Yb  Yb11  1  0.000000  0.662765  0.068946  1
  Si  Si12  1  0.500000  0.120729  0.956340  1
  Si  Si13  1  0.000000  0.392633  0.458238  1
  Si  Si14  1  0.000000  0.605724  0.540268  1
  Si  Si15  1  0.000000  0.965301  0.402248  1
  Si  Si16  1  0.000000  0.035427  0.598135  1
  Si  Si17  1  0.500000  0.468032  0.098215  1
  Si  Si18  1  0.500000  0.529210  0.898118  1
  Si  Si19  1  0.000000  0.254856  0.629436  1
  Si  Si20  1  0.000000  0.744371  0.369906  1
  Si  Si21  1  0.500000  0.745716  0.853152  1
  Si  Si22  1  0.500000  0.249832  0.130741  1
  Pb  Pb23  1  0.500000  0.881575  0.056209  1
