# generated using pymatgen
data_Pr20Co3IrAu8
_symmetry_space_group_name_H-M   'P 1'
_cell_length_a   8.66354925
_cell_length_b   8.41633400
_cell_length_c   12.30900831
_cell_angle_alpha   90.00000000
_cell_angle_beta   89.85171391
_cell_angle_gamma   90.00000000
_symmetry_Int_Tables_number   1
_chemical_formula_structural   Pr20Co3IrAu8
_chemical_formula_sum   'Pr20 Co3 Ir1 Au8'
_cell_volume   897.51232468
_cell_formula_units_Z   1
loop_
 _symmetry_equiv_pos_site_id
 _symmetry_equiv_pos_as_xyz
  1  'x, y, z'
loop_
 _atom_site_type_symbol
 _atom_site_label
 _atom_site_symmetry_multiplicity
 _atom_site_fract_x
 _atom_site_fract_y
 _atom_site_fract_z
 _atom_site_occupancy
  Pr  Pr0  1  0.841039  0.750000  0.789283  1
  Pr  Pr1  1  0.157526  0.250000  0.209927  1
  Pr  Pr2  1  0.337759  0.250000  0.713691  1
  Pr  Pr3  1  0.662012  0.750000  0.280860  1
  Pr  Pr4  1  0.380098  0.750000  0.701949  1
  Pr  Pr5  1  0.618858  0.250000  0.300201  1
  Pr  Pr6  1  0.884588  0.250000  0.802585  1
  Pr  Pr7  1  0.116743  0.750000  0.199373  1
  Pr  Pr8  1  0.949545  0.750000  0.492245  1
  Pr  Pr9  1  0.050068  0.250000  0.507628  1
  Pr  Pr10  1  0.454671  0.250000  0.008093  1
  Pr  Pr11  1  0.542246  0.750000  0.990308  1
  Pr  Pr12  1  0.676616  0.044415  0.577492  1
  Pr  Pr13  1  0.324575  0.968057  0.425042  1
  Pr  Pr14  1  0.172869  0.964477  0.928508  1
  Pr  Pr15  1  0.324575  0.531943  0.425042  1
  Pr  Pr16  1  0.826659  0.034874  0.071751  1
  Pr  Pr17  1  0.676616  0.455585  0.577492  1
  Pr  Pr18  1  0.826659  0.465126  0.071751  1
  Pr  Pr19  1  0.172869  0.535523  0.928508  1
  Co  Co20  1  0.439311  0.250000  0.493666  1
  Co  Co21  1  0.062088  0.250000  0.992064  1
  Co  Co22  1  0.937381  0.750000  0.008319  1
  Ir  Ir23  1  0.566410  0.750000  0.505176  1
  Au  Au24  1  0.578231  0.473153  0.827807  1
  Au  Au25  1  0.420789  0.524890  0.171817  1
  Au  Au26  1  0.077941  0.525863  0.672744  1
  Au  Au27  1  0.420789  0.975110  0.171817  1
  Au  Au28  1  0.922149  0.473887  0.327157  1
  Au  Au29  1  0.578231  0.026847  0.827807  1
  Au  Au30  1  0.922149  0.026113  0.327157  1
  Au  Au31  1  0.077941  0.974137  0.672744  1
