# generated using pymatgen
data_Dy3Ho9Ni5Sn
_symmetry_space_group_name_H-M   'P 1'
_cell_length_a   8.27798245
_cell_length_b   8.28084306
_cell_length_c   8.28084303
_cell_angle_alpha   107.27639316
_cell_angle_beta   109.73286474
_cell_angle_gamma   111.44613070
_symmetry_Int_Tables_number   1
_chemical_formula_structural   Dy3Ho9Ni5Sn
_chemical_formula_sum   'Dy3 Ho9 Ni5 Sn1'
_cell_volume   436.30799490
_cell_formula_units_Z   1
loop_
 _symmetry_equiv_pos_site_id
 _symmetry_equiv_pos_as_xyz
  1  'x, y, z'
loop_
 _atom_site_type_symbol
 _atom_site_label
 _atom_site_symmetry_multiplicity
 _atom_site_fract_x
 _atom_site_fract_y
 _atom_site_fract_z
 _atom_site_occupancy
  Dy  Dy0  1  0.476586  0.294410  0.182177  1
  Dy  Dy1  1  0.112473  0.294563  0.817909  1
  Dy  Dy2  1  0.887644  0.705749  0.181895  1
  Ho  Ho3  1  0.523528  0.705594  0.817934  1
  Ho  Ho4  1  0.305951  0.627043  0.321536  1
  Ho  Ho5  1  0.305951  0.984417  0.678908  1
  Ho  Ho6  1  0.694111  0.373044  0.678749  1
  Ho  Ho7  1  0.694111  0.015361  0.321068  1
  Ho  Ho8  1  0.191454  0.211544  0.402771  1
  Ho  Ho9  1  0.808667  0.788724  0.597686  1
  Ho  Ho10  1  0.191454  0.788683  0.979909  1
  Ho  Ho11  1  0.808667  0.210981  0.019944  1
  Ni  Ni12  1  0.500007  0.624815  0.124520  1
  Ni  Ni13  1  0.500007  0.375486  0.875192  1
  Ni  Ni14  1  0.365147  0.000012  0.365134  1
  Ni  Ni15  1  0.634758  0.999796  0.634962  1
  Ni  Ni16  1  0.999800  0.999810  0.999991  1
  Sn  Sn17  1  0.999685  0.499968  0.499717  1
