# generated using pymatgen
data_Ca5Sn2SbH
_symmetry_space_group_name_H-M   'P 1'
_cell_length_a   9.41931784
_cell_length_b   9.41931852
_cell_length_c   9.41931955
_cell_angle_alpha   128.54421755
_cell_angle_beta   128.54422112
_cell_angle_gamma   75.74505577
_symmetry_Int_Tables_number   1
_chemical_formula_structural   Ca5Sn2SbH
_chemical_formula_sum   'Ca10 Sn4 Sb2 H2'
_cell_volume   497.25442039
_cell_formula_units_Z   2
loop_
 _symmetry_equiv_pos_site_id
 _symmetry_equiv_pos_as_xyz
  1  'x, y, z'
loop_
 _atom_site_type_symbol
 _atom_site_label
 _atom_site_symmetry_multiplicity
 _atom_site_fract_x
 _atom_site_fract_y
 _atom_site_fract_z
 _atom_site_occupancy
  Ca  Ca0  1  0.500000  0.500000  0.000000  1
  Ca  Ca1  1  0.000000  0.000000  0.000000  1
  Ca  Ca2  1  0.512542  0.012542  0.821916  1
  Ca  Ca3  1  0.190626  0.690626  0.178084  1
  Ca  Ca4  1  0.012542  0.190626  0.500000  1
  Ca  Ca5  1  0.690626  0.512542  0.500000  1
  Ca  Ca6  1  0.487458  0.987458  0.178084  1
  Ca  Ca7  1  0.809374  0.309374  0.821916  1
  Ca  Ca8  1  0.987458  0.809374  0.500000  1
  Ca  Ca9  1  0.309374  0.487458  0.500000  1
  Sn  Sn10  1  0.870553  0.370553  0.241107  1
  Sn  Sn11  1  0.129447  0.629447  0.758893  1
  Sn  Sn12  1  0.370553  0.129447  0.500000  1
  Sn  Sn13  1  0.629447  0.870553  0.500000  1
  Sb  Sb14  1  0.250000  0.250000  0.000000  1
  Sb  Sb15  1  0.750000  0.750000  0.000000  1
  H  H16  1  0.250000  0.750000  0.500000  1
  H  H17  1  0.750000  0.250000  0.500000  1
