# generated using pymatgen
data_MgAl(Ni7B2)3
_symmetry_space_group_name_H-M   'P 1'
_cell_length_a   7.39977960
_cell_length_b   7.39978009
_cell_length_c   7.39978000
_cell_angle_alpha   60.00000041
_cell_angle_beta   59.99999821
_cell_angle_gamma   59.99999584
_symmetry_Int_Tables_number   1
_chemical_formula_structural   MgAl(Ni7B2)3
_chemical_formula_sum   'Mg1 Al1 Ni21 B6'
_cell_volume   286.51105911
_cell_formula_units_Z   1
loop_
 _symmetry_equiv_pos_site_id
 _symmetry_equiv_pos_as_xyz
  1  'x, y, z'
loop_
 _atom_site_type_symbol
 _atom_site_label
 _atom_site_symmetry_multiplicity
 _atom_site_fract_x
 _atom_site_fract_y
 _atom_site_fract_z
 _atom_site_occupancy
  Mg  Mg0  1  0.250000  0.250000  0.250000  1
  Al  Al1  1  0.750000  0.750000  0.750000  1
  Ni  Ni2  1  0.386833  0.386833  0.386833  1
  Ni  Ni3  1  0.619381  0.619381  0.619381  1
  Ni  Ni4  1  0.386833  0.386833  0.839500  1
  Ni  Ni5  1  0.386833  0.839500  0.386833  1
  Ni  Ni6  1  0.619381  0.619381  0.141859  1
  Ni  Ni7  1  0.619381  0.141859  0.619381  1
  Ni  Ni8  1  0.839500  0.386833  0.386833  1
  Ni  Ni9  1  0.141859  0.619381  0.619381  1
  Ni  Ni10  1  0.338126  0.999868  0.999868  1
  Ni  Ni11  1  0.662137  0.999868  0.999868  1
  Ni  Ni12  1  0.999868  0.338126  0.662137  1
  Ni  Ni13  1  0.999868  0.662137  0.338126  1
  Ni  Ni14  1  0.999868  0.338126  0.999868  1
  Ni  Ni15  1  0.662137  0.999868  0.338126  1
  Ni  Ni16  1  0.999868  0.662137  0.999868  1
  Ni  Ni17  1  0.338126  0.999868  0.662137  1
  Ni  Ni18  1  0.999868  0.999868  0.338126  1
  Ni  Ni19  1  0.999868  0.999868  0.662137  1
  Ni  Ni20  1  0.662137  0.338126  0.999868  1
  Ni  Ni21  1  0.338126  0.662137  0.999868  1
  Ni  Ni22  1  0.000000  0.000000  0.000000  1
  B  B23  1  0.727581  0.272419  0.272419  1
  B  B24  1  0.272419  0.727581  0.727581  1
  B  B25  1  0.272419  0.727581  0.272419  1
  B  B26  1  0.727581  0.272419  0.727581  1
  B  B27  1  0.272419  0.272419  0.727581  1
  B  B28  1  0.727581  0.727581  0.272419  1
