# generated using pymatgen
data_HoEr9Si5Bi
_symmetry_space_group_name_H-M   'P 1'
_cell_length_a   8.44859800
_cell_length_b   8.49138392
_cell_length_c   6.31061800
_cell_angle_alpha   90.00000000
_cell_angle_beta   90.00000000
_cell_angle_gamma   119.83345915
_symmetry_Int_Tables_number   1
_chemical_formula_structural   HoEr9Si5Bi
_chemical_formula_sum   'Ho1 Er9 Si5 Bi1'
_cell_volume   392.72814462
_cell_formula_units_Z   1
loop_
 _symmetry_equiv_pos_site_id
 _symmetry_equiv_pos_as_xyz
  1  'x, y, z'
loop_
 _atom_site_type_symbol
 _atom_site_label
 _atom_site_symmetry_multiplicity
 _atom_site_fract_x
 _atom_site_fract_y
 _atom_site_fract_z
 _atom_site_occupancy
  Ho  Ho0  1  0.240038  0.000000  0.250000  1
  Er  Er1  1  0.984573  0.745034  0.750000  1
  Er  Er2  1  0.998511  0.243259  0.250000  1
  Er  Er3  1  0.755253  0.756741  0.250000  1
  Er  Er4  1  0.767953  0.000000  0.750000  1
  Er  Er5  1  0.239540  0.254966  0.750000  1
  Er  Er6  1  0.330802  0.654049  0.494994  1
  Er  Er7  1  0.676753  0.345951  0.005006  1
  Er  Er8  1  0.676753  0.345951  0.494994  1
  Er  Er9  1  0.330802  0.654049  0.005006  1
  Si  Si10  1  0.393275  0.390981  0.250000  1
  Si  Si11  1  0.002294  0.609019  0.250000  1
  Si  Si12  1  0.998819  0.394496  0.750000  1
  Si  Si13  1  0.604323  0.605504  0.750000  1
  Si  Si14  1  0.607144  0.000000  0.250000  1
  Bi  Bi15  1  0.393167  0.000000  0.750000  1
