# generated using pymatgen
data_Tb7Er3(GaSb2)2
_symmetry_space_group_name_H-M   'P 1'
_cell_length_a   8.86514166
_cell_length_b   8.86645624
_cell_length_c   6.40636501
_cell_angle_alpha   90.00622545
_cell_angle_beta   89.99688518
_cell_angle_gamma   120.00490143
_symmetry_Int_Tables_number   1
_chemical_formula_structural   Tb7Er3(GaSb2)2
_chemical_formula_sum   'Tb7 Er3 Ga2 Sb4'
_cell_volume   436.07040322
_cell_formula_units_Z   1
loop_
 _symmetry_equiv_pos_site_id
 _symmetry_equiv_pos_as_xyz
  1  'x, y, z'
loop_
 _atom_site_type_symbol
 _atom_site_label
 _atom_site_symmetry_multiplicity
 _atom_site_fract_x
 _atom_site_fract_y
 _atom_site_fract_z
 _atom_site_occupancy
  Tb  Tb0  1  0.010496  0.765381  0.749822  1
  Tb  Tb1  1  0.010496  0.245115  0.250178  1
  Tb  Tb2  1  0.752113  0.752834  0.250069  1
  Tb  Tb3  1  0.752113  0.999279  0.749931  1
  Tb  Tb4  1  0.244301  0.232889  0.749847  1
  Tb  Tb5  1  0.244301  0.011413  0.250153  1
  Tb  Tb6  1  0.336779  0.668390  0.000000  1
  Er  Er7  1  0.336804  0.668403  0.500000  1
  Er  Er8  1  0.653184  0.326591  0.000000  1
  Er  Er9  1  0.653477  0.326737  0.500000  1
  Ga  Ga10  1  0.396302  0.998671  0.749170  1
  Ga  Ga11  1  0.396302  0.397631  0.250830  1
  Sb  Sb12  1  0.998494  0.606238  0.250805  1
  Sb  Sb13  1  0.998494  0.392255  0.749195  1
  Sb  Sb14  1  0.608173  0.605926  0.749042  1
  Sb  Sb15  1  0.608173  0.002247  0.250958  1
