# generated using pymatgen
data_Ho8Hf3Si16Mo9
_symmetry_space_group_name_H-M   'P 1'
_cell_length_a   6.96534268
_cell_length_b   6.96534261
_cell_length_c   12.88042010
_cell_angle_alpha   89.92657270
_cell_angle_beta   90.07342836
_cell_angle_gamma   89.78330602
_symmetry_Int_Tables_number   1
_chemical_formula_structural   Ho8Hf3Si16Mo9
_chemical_formula_sum   'Ho8 Hf3 Si16 Mo9'
_cell_volume   624.90093830
_cell_formula_units_Z   1
loop_
 _symmetry_equiv_pos_site_id
 _symmetry_equiv_pos_as_xyz
  1  'x, y, z'
loop_
 _atom_site_type_symbol
 _atom_site_label
 _atom_site_symmetry_multiplicity
 _atom_site_fract_x
 _atom_site_fract_y
 _atom_site_fract_z
 _atom_site_occupancy
  Ho  Ho0  1  0.000296  0.337945  0.216771  1
  Ho  Ho1  1  0.004340  0.660303  0.720534  1
  Ho  Ho2  1  0.160640  0.497430  0.468446  1
  Ho  Ho3  1  0.499755  0.841435  0.030967  1
  Ho  Ho4  1  0.841435  0.499755  0.969033  1
  Ho  Ho5  1  0.497430  0.160640  0.531554  1
  Ho  Ho6  1  0.337945  0.000296  0.783229  1
  Ho  Ho7  1  0.660303  0.004340  0.279466  1
  Hf  Hf8  1  0.831803  0.831803  0.500000  1
  Hf  Hf9  1  0.330286  0.668968  0.247733  1
  Hf  Hf10  1  0.668968  0.330286  0.752267  1
  Si  Si11  1  0.370371  0.294840  0.317302  1
  Si  Si12  1  0.627856  0.706491  0.817902  1
  Si  Si13  1  0.204709  0.871586  0.568428  1
  Si  Si14  1  0.125951  0.803987  0.934114  1
  Si  Si15  1  0.803987  0.125951  0.065886  1
  Si  Si16  1  0.871586  0.204709  0.431572  1
  Si  Si17  1  0.294840  0.370371  0.682698  1
  Si  Si18  1  0.706491  0.627856  0.182098  1
  Si  Si19  1  0.288034  0.046595  0.182945  1
  Si  Si20  1  0.708251  0.958219  0.688913  1
  Si  Si21  1  0.456781  0.791101  0.437726  1
  Si  Si22  1  0.211472  0.533273  0.058496  1
  Si  Si23  1  0.533273  0.211472  0.941504  1
  Si  Si24  1  0.791101  0.456781  0.562274  1
  Si  Si25  1  0.046595  0.288034  0.817055  1
  Si  Si26  1  0.958219  0.708251  0.311087  1
  Mo  Mo27  1  0.167789  0.167789  0.000000  1
  Mo  Mo28  1  0.160349  0.995475  0.375335  1
  Mo  Mo29  1  0.832728  0.002621  0.877405  1
  Mo  Mo30  1  0.505791  0.659437  0.626674  1
  Mo  Mo31  1  0.344363  0.498730  0.873357  1
  Mo  Mo32  1  0.498730  0.344363  0.126643  1
  Mo  Mo33  1  0.659437  0.505791  0.373326  1
  Mo  Mo34  1  0.995475  0.160349  0.624665  1
  Mo  Mo35  1  0.002621  0.832728  0.122595  1
