# generated using pymatgen
data_Ho2LuIn3AgAu2
_symmetry_space_group_name_H-M   'P 1'
_cell_length_a   7.76259583
_cell_length_b   7.76259653
_cell_length_c   3.91951000
_cell_angle_alpha   90.00000000
_cell_angle_beta   90.00000000
_cell_angle_gamma   119.60193747
_symmetry_Int_Tables_number   1
_chemical_formula_structural   Ho2LuIn3AgAu2
_chemical_formula_sum   'Ho2 Lu1 In3 Ag1 Au2'
_cell_volume   205.35461907
_cell_formula_units_Z   1
loop_
 _symmetry_equiv_pos_site_id
 _symmetry_equiv_pos_as_xyz
  1  'x, y, z'
loop_
 _atom_site_type_symbol
 _atom_site_label
 _atom_site_symmetry_multiplicity
 _atom_site_fract_x
 _atom_site_fract_y
 _atom_site_fract_z
 _atom_site_occupancy
  Ho  Ho0  1  0.406168  0.000117  0.500000  1
  Ho  Ho1  1  0.000117  0.406168  0.500000  1
  Lu  Lu2  1  0.594043  0.594043  0.500000  1
  In  In3  1  0.737490  0.998851  0.000000  1
  In  In4  1  0.998851  0.737490  0.000000  1
  In  In5  1  0.262349  0.262349  0.000000  1
  Ag  Ag6  1  0.999025  0.999025  0.500000  1
  Au  Au7  1  0.336019  0.665938  0.000000  1
  Au  Au8  1  0.665938  0.336019  0.000000  1
