# generated using pymatgen
data_Hf7ZrCo16(SiP2)4
_symmetry_space_group_name_H-M   'P 1'
_cell_length_a   12.13022603
_cell_length_b   12.13813996
_cell_length_c   3.63181200
_cell_angle_alpha   90.00000000
_cell_angle_beta   90.00000000
_cell_angle_gamma   119.97058061
_symmetry_Int_Tables_number   1
_chemical_formula_structural   Hf7ZrCo16(SiP2)4
_chemical_formula_sum   'Hf7 Zr1 Co16 Si4 P8'
_cell_volume   463.23748487
_cell_formula_units_Z   1
loop_
 _symmetry_equiv_pos_site_id
 _symmetry_equiv_pos_as_xyz
  1  'x, y, z'
loop_
 _atom_site_type_symbol
 _atom_site_label
 _atom_site_symmetry_multiplicity
 _atom_site_fract_x
 _atom_site_fract_y
 _atom_site_fract_z
 _atom_site_occupancy
  Hf  Hf0  1  0.443188  0.442718  0.000000  1
  Hf  Hf1  1  0.557646  0.000295  0.000000  1
  Hf  Hf2  1  0.999892  0.556968  0.000000  1
  Hf  Hf3  1  0.666617  0.333237  0.000000  1
  Hf  Hf4  1  0.824828  0.823366  0.500000  1
  Hf  Hf5  1  0.177407  0.000016  0.500000  1
  Hf  Hf6  1  0.001476  0.176663  0.500000  1
  Zr  Zr7  1  0.333244  0.666651  0.000000  1
  Co  Co8  1  0.196646  0.371417  0.000000  1
  Co  Co9  1  0.174738  0.803512  0.000000  1
  Co  Co10  1  0.824829  0.628067  0.000000  1
  Co  Co11  1  0.802379  0.178389  0.000000  1
  Co  Co12  1  0.371775  0.196580  0.000000  1
  Co  Co13  1  0.126505  0.482214  0.500000  1
  Co  Co14  1  0.355254  0.873601  0.500000  1
  Co  Co15  1  0.517267  0.643055  0.500000  1
  Co  Co16  1  0.644116  0.515912  0.500000  1
  Co  Co17  1  0.872515  0.357089  0.500000  1
  Co  Co18  1  0.483540  0.128114  0.500000  1
  Co  Co19  1  0.004194  0.999998  0.000000  1
  Co  Co20  1  0.718995  0.000274  0.500000  1
  Co  Co21  1  0.999690  0.722371  0.500000  1
  Co  Co22  1  0.624659  0.822091  0.000000  1
  Co  Co23  1  0.277546  0.277435  0.500000  1
  Si  Si24  1  0.654608  0.654822  0.000000  1
  Si  Si25  1  0.345905  0.999981  0.000000  1
  Si  Si26  1  0.999866  0.345210  0.000000  1
  Si  Si27  1  0.824527  0.000174  0.000000  1
  P  P28  1  0.482892  0.308283  0.500000  1
  P  P29  1  0.691810  0.174787  0.500000  1
  P  P30  1  0.825267  0.516667  0.500000  1
  P  P31  1  0.518134  0.825999  0.500000  1
  P  P32  1  0.173758  0.692000  0.500000  1
  P  P33  1  0.999763  0.823710  0.000000  1
  P  P34  1  0.308300  0.482244  0.500000  1
  P  P35  1  0.176228  0.176093  0.000000  1
