# generated using pymatgen
data_YbPr15(CdCo)4
_symmetry_space_group_name_H-M   'P 1'
_cell_length_a   9.88946760
_cell_length_b   9.85991286
_cell_length_c   9.88946793
_cell_angle_alpha   60.09880501
_cell_angle_beta   59.94575097
_cell_angle_gamma   60.09880699
_symmetry_Int_Tables_number   1
_chemical_formula_structural   YbPr15(CdCo)4
_chemical_formula_sum   'Yb1 Pr15 Cd4 Co4'
_cell_volume   682.60898933
_cell_formula_units_Z   1
loop_
 _symmetry_equiv_pos_site_id
 _symmetry_equiv_pos_as_xyz
  1  'x, y, z'
loop_
 _atom_site_type_symbol
 _atom_site_label
 _atom_site_symmetry_multiplicity
 _atom_site_fract_x
 _atom_site_fract_y
 _atom_site_fract_z
 _atom_site_occupancy
  Yb  Yb0  1  0.939391  0.560609  0.939391  1
  Pr  Pr1  1  0.938935  0.938281  0.561762  1
  Pr  Pr2  1  0.561514  0.938486  0.561514  1
  Pr  Pr3  1  0.561762  0.938281  0.938935  1
  Pr  Pr4  1  0.690096  0.690984  0.307895  1
  Pr  Pr5  1  0.154458  0.152800  0.539940  1
  Pr  Pr6  1  0.307895  0.690984  0.690096  1
  Pr  Pr7  1  0.153452  0.153733  0.153452  1
  Pr  Pr8  1  0.539940  0.152800  0.154458  1
  Pr  Pr9  1  0.310765  0.689235  0.310765  1
  Pr  Pr10  1  0.307895  0.311024  0.690096  1
  Pr  Pr11  1  0.688502  0.311498  0.688502  1
  Pr  Pr12  1  0.938935  0.561022  0.561762  1
  Pr  Pr13  1  0.561762  0.561022  0.938935  1
  Pr  Pr14  1  0.153452  0.539362  0.153452  1
  Pr  Pr15  1  0.690096  0.311024  0.307895  1
  Cd  Cd16  1  0.237676  0.920741  0.920842  1
  Cd  Cd17  1  0.920526  0.920459  0.920526  1
  Cd  Cd18  1  0.920842  0.920741  0.237676  1
  Cd  Cd19  1  0.920526  0.238489  0.920526  1
  Co  Co20  1  0.921767  0.358705  0.360822  1
  Co  Co21  1  0.360822  0.358705  0.921767  1
  Co  Co22  1  0.359494  0.921656  0.359494  1
  Co  Co23  1  0.359494  0.359355  0.359494  1
