# generated using pymatgen
data_YHo9(SnBi)3
_symmetry_space_group_name_H-M   'P 1'
_cell_length_a   9.03090459
_cell_length_b   9.04638342
_cell_length_c   6.45848300
_cell_angle_alpha   90.00000000
_cell_angle_beta   90.00000000
_cell_angle_gamma   119.97924964
_symmetry_Int_Tables_number   1
_chemical_formula_structural   YHo9(SnBi)3
_chemical_formula_sum   'Y1 Ho9 Sn3 Bi3'
_cell_volume   457.04416439
_cell_formula_units_Z   1
loop_
 _symmetry_equiv_pos_site_id
 _symmetry_equiv_pos_as_xyz
  1  'x, y, z'
loop_
 _atom_site_type_symbol
 _atom_site_label
 _atom_site_symmetry_multiplicity
 _atom_site_fract_x
 _atom_site_fract_y
 _atom_site_fract_z
 _atom_site_occupancy
  Y  Y0  1  0.237777  0.243305  0.750000  1
  Ho  Ho1  1  0.759844  0.753906  0.250000  1
  Ho  Ho2  1  0.005508  0.245723  0.250000  1
  Ho  Ho3  1  0.765357  0.006110  0.750000  1
  Ho  Ho4  1  0.325200  0.658522  0.498499  1
  Ho  Ho5  1  0.235649  0.999514  0.250000  1
  Ho  Ho6  1  0.672033  0.338448  0.498579  1
  Ho  Ho7  1  0.999866  0.755903  0.750000  1
  Ho  Ho8  1  0.325200  0.658522  0.001501  1
  Ho  Ho9  1  0.672033  0.338448  0.001421  1
  Sn  Sn10  1  0.997211  0.392932  0.750000  1
  Sn  Sn11  1  0.393252  0.390293  0.250000  1
  Sn  Sn12  1  0.001225  0.608196  0.250000  1
  Bi  Bi13  1  0.609083  0.611876  0.750000  1
  Bi  Bi14  1  0.391660  0.999793  0.750000  1
  Bi  Bi15  1  0.609102  0.998510  0.250000  1
