# generated using pymatgen
data_Tb7Ce3(Sn3N)2
_symmetry_space_group_name_H-M   'P 1'
_cell_length_a   9.05695500
_cell_length_b   9.05695552
_cell_length_c   6.54175200
_cell_angle_alpha   90.00000000
_cell_angle_beta   90.00000000
_cell_angle_gamma   119.99999445
_symmetry_Int_Tables_number   1
_chemical_formula_structural   Tb7Ce3(Sn3N)2
_chemical_formula_sum   'Tb7 Ce3 Sn6 N2'
_cell_volume   464.71765997
_cell_formula_units_Z   1
loop_
 _symmetry_equiv_pos_site_id
 _symmetry_equiv_pos_as_xyz
  1  'x, y, z'
loop_
 _atom_site_type_symbol
 _atom_site_label
 _atom_site_symmetry_multiplicity
 _atom_site_fract_x
 _atom_site_fract_y
 _atom_site_fract_z
 _atom_site_occupancy
  Tb  Tb0  1  0.666667  0.333333  0.000843  1
  Tb  Tb1  1  0.333333  0.666667  0.000843  1
  Tb  Tb2  1  0.333333  0.666667  0.499157  1
  Tb  Tb3  1  0.666667  0.333333  0.499157  1
  Tb  Tb4  1  0.215875  0.215875  0.250000  1
  Tb  Tb5  1  0.784125  0.000000  0.250000  1
  Tb  Tb6  1  0.000000  0.784125  0.250000  1
  Ce  Ce7  1  0.786243  0.786243  0.750000  1
  Ce  Ce8  1  0.213757  0.000000  0.750000  1
  Ce  Ce9  1  0.000000  0.213757  0.750000  1
  Sn  Sn10  1  0.406669  0.406669  0.750000  1
  Sn  Sn11  1  0.593331  0.000000  0.750000  1
  Sn  Sn12  1  0.000000  0.593331  0.750000  1
  Sn  Sn13  1  0.597951  0.597951  0.250000  1
  Sn  Sn14  1  0.402049  0.000000  0.250000  1
  Sn  Sn15  1  0.000000  0.402049  0.250000  1
  N  N16  1  0.000000  0.000000  0.003851  1
  N  N17  1  0.000000  0.000000  0.496149  1
