# generated using pymatgen
data_TbTm2Al12Os3Rh
_symmetry_space_group_name_H-M   'P 1'
_cell_length_a   8.79914354
_cell_length_b   8.76656112
_cell_length_c   9.57396600
_cell_angle_alpha   90.00000000
_cell_angle_beta   90.00000000
_cell_angle_gamma   119.68662210
_symmetry_Int_Tables_number   1
_chemical_formula_structural   TbTm2Al12Os3Rh
_chemical_formula_sum   'Tb2 Tm4 Al24 Os6 Rh2'
_cell_volume   641.58611070
_cell_formula_units_Z   2
loop_
 _symmetry_equiv_pos_site_id
 _symmetry_equiv_pos_as_xyz
  1  'x, y, z'
loop_
 _atom_site_type_symbol
 _atom_site_label
 _atom_site_symmetry_multiplicity
 _atom_site_fract_x
 _atom_site_fract_y
 _atom_site_fract_z
 _atom_site_occupancy
  Tb  Tb0  1  0.185110  0.384238  0.250000  1
  Tb  Tb1  1  0.814890  0.615762  0.750000  1
  Tm  Tm2  1  0.612633  0.813851  0.250000  1
  Tm  Tm3  1  0.387367  0.186149  0.750000  1
  Tm  Tm4  1  0.194106  0.804808  0.250000  1
  Tm  Tm5  1  0.805894  0.195192  0.750000  1
  Al  Al6  1  0.333124  0.666754  0.022667  1
  Al  Al7  1  0.666876  0.333246  0.977333  1
  Al  Al8  1  0.666876  0.333246  0.522667  1
  Al  Al9  1  0.333124  0.666754  0.477333  1
  Al  Al10  1  0.162603  0.325458  0.577596  1
  Al  Al11  1  0.837397  0.674542  0.422404  1
  Al  Al12  1  0.674281  0.838154  0.576816  1
  Al  Al13  1  0.837397  0.674542  0.077596  1
  Al  Al14  1  0.325719  0.161846  0.423184  1
  Al  Al15  1  0.162603  0.325458  0.922404  1
  Al  Al16  1  0.164981  0.836852  0.575478  1
  Al  Al17  1  0.325719  0.161846  0.076816  1
  Al  Al18  1  0.835019  0.163148  0.424522  1
  Al  Al19  1  0.674281  0.838154  0.923184  1
  Al  Al20  1  0.835019  0.163148  0.075478  1
  Al  Al21  1  0.164981  0.836852  0.924522  1
  Al  Al22  1  0.560555  0.125656  0.250000  1
  Al  Al23  1  0.439445  0.874344  0.750000  1
  Al  Al24  1  0.873677  0.439399  0.250000  1
  Al  Al25  1  0.126323  0.560601  0.750000  1
  Al  Al26  1  0.559855  0.441349  0.250000  1
  Al  Al27  1  0.440145  0.558651  0.750000  1
  Al  Al28  1  0.996297  0.998292  0.250000  1
  Al  Al29  1  0.003703  0.001708  0.750000  1
  Os  Os30  1  0.500000  0.000000  0.000000  1
  Os  Os31  1  0.000000  0.500000  0.000000  1
  Os  Os32  1  0.500000  0.000000  0.500000  1
  Os  Os33  1  0.000000  0.500000  0.500000  1
  Os  Os34  1  0.000000  0.000000  0.000000  1
  Os  Os35  1  0.000000  0.000000  0.500000  1
  Rh  Rh36  1  0.500000  0.500000  0.000000  1
  Rh  Rh37  1  0.500000  0.500000  0.500000  1
