# generated using pymatgen
data_K4Sr2SiP4
_symmetry_space_group_name_H-M   'P 1'
_cell_length_a   9.92210617
_cell_length_b   9.92210563
_cell_length_c   7.52827501
_cell_angle_alpha   88.39538179
_cell_angle_beta   88.39537062
_cell_angle_gamma   119.09506638
_symmetry_Int_Tables_number   1
_chemical_formula_structural   K4Sr2SiP4
_chemical_formula_sum   'K8 Sr4 Si2 P8'
_cell_volume   646.63372880
_cell_formula_units_Z   2
loop_
 _symmetry_equiv_pos_site_id
 _symmetry_equiv_pos_as_xyz
  1  'x, y, z'
loop_
 _atom_site_type_symbol
 _atom_site_label
 _atom_site_symmetry_multiplicity
 _atom_site_fract_x
 _atom_site_fract_y
 _atom_site_fract_z
 _atom_site_occupancy
  K  K0  1  0.051545  0.523928  0.613000  1
  K  K1  1  0.523928  0.051545  0.113000  1
  K  K2  1  0.272861  0.134728  0.825366  1
  K  K3  1  0.868832  0.723568  0.777537  1
  K  K4  1  0.861887  0.148224  0.804829  1
  K  K5  1  0.723568  0.868832  0.277537  1
  K  K6  1  0.134728  0.272861  0.325366  1
  K  K7  1  0.148224  0.861887  0.304829  1
  Sr  Sr8  1  0.474136  0.948697  0.615002  1
  Sr  Sr9  1  0.472245  0.522061  0.614374  1
  Sr  Sr10  1  0.948697  0.474136  0.115002  1
  Sr  Sr11  1  0.522061  0.472245  0.114374  1
  Si  Si12  1  0.666703  0.336594  0.502115  1
  Si  Si13  1  0.336594  0.666703  0.002115  1
  P  P14  1  0.662169  0.343776  0.812359  1
  P  P15  1  0.343776  0.662169  0.312359  1
  P  P16  1  0.588085  0.785143  0.877957  1
  P  P17  1  0.211500  0.410247  0.921448  1
  P  P18  1  0.203935  0.789136  0.904759  1
  P  P19  1  0.410247  0.211500  0.421448  1
  P  P20  1  0.785143  0.588085  0.377957  1
  P  P21  1  0.789136  0.203935  0.404759  1
