# generated using pymatgen
data_Tm2Lu3Bi3S
_symmetry_space_group_name_H-M   'P 1'
_cell_length_a   8.95977500
_cell_length_b   8.95977634
_cell_length_c   6.58307300
_cell_angle_alpha   90.00000000
_cell_angle_beta   90.00000000
_cell_angle_gamma   119.97864636
_symmetry_Int_Tables_number   1
_chemical_formula_structural   Tm2Lu3Bi3S
_chemical_formula_sum   'Tm4 Lu6 Bi6 S2'
_cell_volume   457.76963719
_cell_formula_units_Z   2
loop_
 _symmetry_equiv_pos_site_id
 _symmetry_equiv_pos_as_xyz
  1  'x, y, z'
loop_
 _atom_site_type_symbol
 _atom_site_label
 _atom_site_symmetry_multiplicity
 _atom_site_fract_x
 _atom_site_fract_y
 _atom_site_fract_z
 _atom_site_occupancy
  Tm  Tm0  1  0.753157  0.753157  0.750000  1
  Tm  Tm1  1  0.246702  0.999875  0.750000  1
  Tm  Tm2  1  0.999875  0.246702  0.750000  1
  Tm  Tm3  1  0.248017  0.248017  0.250000  1
  Lu  Lu4  1  0.666605  0.333315  0.000155  1
  Lu  Lu5  1  0.333315  0.666605  0.000155  1
  Lu  Lu6  1  0.333315  0.666605  0.499845  1
  Lu  Lu7  1  0.666605  0.333315  0.499845  1
  Lu  Lu8  1  0.752671  0.000289  0.250000  1
  Lu  Lu9  1  0.000289  0.752671  0.250000  1
  Bi  Bi10  1  0.397830  0.397830  0.750000  1
  Bi  Bi11  1  0.602289  0.000077  0.750000  1
  Bi  Bi12  1  0.000077  0.602289  0.750000  1
  Bi  Bi13  1  0.603418  0.603418  0.250000  1
  Bi  Bi14  1  0.397628  0.999428  0.250000  1
  Bi  Bi15  1  0.999428  0.397628  0.250000  1
  S  S16  1  0.999388  0.999388  0.001141  1
  S  S17  1  0.999388  0.999388  0.498859  1
