# generated using pymatgen
data_Zr4TiGa2Te
_symmetry_space_group_name_H-M   'P 1'
_cell_length_a   5.39645721
_cell_length_b   8.15720970
_cell_length_c   8.16807065
_cell_angle_alpha   83.72683435
_cell_angle_beta   70.71068756
_cell_angle_gamma   70.68397678
_symmetry_Int_Tables_number   1
_chemical_formula_structural   Zr4TiGa2Te
_chemical_formula_sum   'Zr8 Ti2 Ga4 Te2'
_cell_volume   320.27016332
_cell_formula_units_Z   2
loop_
 _symmetry_equiv_pos_site_id
 _symmetry_equiv_pos_as_xyz
  1  'x, y, z'
loop_
 _atom_site_type_symbol
 _atom_site_label
 _atom_site_symmetry_multiplicity
 _atom_site_fract_x
 _atom_site_fract_y
 _atom_site_fract_z
 _atom_site_occupancy
  Zr  Zr0  1  0.713965  0.872690  0.699381  1
  Zr  Zr1  1  0.286035  0.127310  0.300619  1
  Zr  Zr2  1  0.781058  0.293934  0.143951  1
  Zr  Zr3  1  0.218942  0.706066  0.856049  1
  Zr  Zr4  1  0.574990  0.706066  0.143951  1
  Zr  Zr5  1  0.425010  0.293934  0.856049  1
  Zr  Zr6  1  0.086654  0.127310  0.699381  1
  Zr  Zr7  1  0.913346  0.872690  0.300619  1
  Ti  Ti8  1  0.735633  0.500000  0.500000  1
  Ti  Ti9  1  0.264367  0.500000  0.500000  1
  Ga  Ga10  1  0.344881  0.810238  0.500000  1
  Ga  Ga11  1  0.655119  0.189762  0.500000  1
  Ga  Ga12  1  0.250000  0.000000  0.000000  1
  Ga  Ga13  1  0.750000  0.000000  0.000000  1
  Te  Te14  1  0.156126  0.500000  0.187748  1
  Te  Te15  1  0.843874  0.500000  0.812252  1
