# generated using pymatgen
data_La6PrRhO12
_symmetry_space_group_name_H-M   'P 1'
_cell_length_a   6.96657526
_cell_length_b   6.96657484
_cell_length_c   6.96657500
_cell_angle_alpha   96.45920420
_cell_angle_beta   96.45919554
_cell_angle_gamma   96.45920637
_symmetry_Int_Tables_number   1
_chemical_formula_structural   La6PrRhO12
_chemical_formula_sum   'La6 Pr1 Rh1 O12'
_cell_volume   331.13840959
_cell_formula_units_Z   1
loop_
 _symmetry_equiv_pos_site_id
 _symmetry_equiv_pos_as_xyz
  1  'x, y, z'
loop_
 _atom_site_type_symbol
 _atom_site_label
 _atom_site_symmetry_multiplicity
 _atom_site_fract_x
 _atom_site_fract_y
 _atom_site_fract_z
 _atom_site_occupancy
  La  La0  1  0.724402  0.900561  0.418050  1
  La  La1  1  0.418050  0.724402  0.900561  1
  La  La2  1  0.099439  0.581950  0.275598  1
  La  La3  1  0.900561  0.418050  0.724402  1
  La  La4  1  0.581950  0.275598  0.099439  1
  La  La5  1  0.275598  0.099439  0.581950  1
  Pr  Pr6  1  0.000000  0.000000  0.000000  1
  Rh  Rh7  1  0.500000  0.500000  0.500000  1
  O  O8  1  0.062073  0.917000  0.322168  1
  O  O9  1  0.677832  0.937927  0.083000  1
  O  O10  1  0.442988  0.790342  0.573061  1
  O  O11  1  0.083000  0.677832  0.937927  1
  O  O12  1  0.790342  0.573061  0.442988  1
  O  O13  1  0.426939  0.557012  0.209658  1
  O  O14  1  0.573061  0.442988  0.790342  1
  O  O15  1  0.209658  0.426939  0.557012  1
  O  O16  1  0.917000  0.322168  0.062073  1
  O  O17  1  0.557012  0.209658  0.426939  1
  O  O18  1  0.322168  0.062073  0.917000  1
  O  O19  1  0.937927  0.083000  0.677832  1
