# generated using pymatgen
data_Ho2MgSi2Rh5
_symmetry_space_group_name_H-M   'P 1'
_cell_length_a   9.89953600
_cell_length_b   9.89953600
_cell_length_c   3.41867800
_cell_angle_alpha   90.00000000
_cell_angle_beta   90.00000000
_cell_angle_gamma   90.00000000
_symmetry_Int_Tables_number   1
_chemical_formula_structural   Ho2MgSi2Rh5
_chemical_formula_sum   'Ho4 Mg2 Si4 Rh10'
_cell_volume   335.03322344
_cell_formula_units_Z   2
loop_
 _symmetry_equiv_pos_site_id
 _symmetry_equiv_pos_as_xyz
  1  'x, y, z'
loop_
 _atom_site_type_symbol
 _atom_site_label
 _atom_site_symmetry_multiplicity
 _atom_site_fract_x
 _atom_site_fract_y
 _atom_site_fract_z
 _atom_site_occupancy
  Ho  Ho0  1  0.674152  0.174152  0.000000  1
  Ho  Ho1  1  0.325848  0.825848  0.000000  1
  Ho  Ho2  1  0.174152  0.325848  0.000000  1
  Ho  Ho3  1  0.825848  0.674152  0.000000  1
  Mg  Mg4  1  0.000000  0.000000  0.000000  1
  Mg  Mg5  1  0.500000  0.500000  0.000000  1
  Si  Si6  1  0.125084  0.625084  0.000000  1
  Si  Si7  1  0.874916  0.374916  0.000000  1
  Si  Si8  1  0.625084  0.874916  0.000000  1
  Si  Si9  1  0.374916  0.125084  0.000000  1
  Rh  Rh10  1  0.500000  0.000000  0.500000  1
  Rh  Rh11  1  0.000000  0.500000  0.500000  1
  Rh  Rh12  1  0.216671  0.068147  0.500000  1
  Rh  Rh13  1  0.783329  0.931853  0.500000  1
  Rh  Rh14  1  0.068147  0.783329  0.500000  1
  Rh  Rh15  1  0.716671  0.431853  0.500000  1
  Rh  Rh16  1  0.931853  0.216671  0.500000  1
  Rh  Rh17  1  0.283329  0.568147  0.500000  1
  Rh  Rh18  1  0.568147  0.716671  0.500000  1
  Rh  Rh19  1  0.431853  0.283329  0.500000  1
