# generated using pymatgen
data_Y10In8AgAu3
_symmetry_space_group_name_H-M   'P 1'
_cell_length_a   3.67063500
_cell_length_b   8.21956000
_cell_length_c   18.44743000
_cell_angle_alpha   89.99990938
_cell_angle_beta   90.00000000
_cell_angle_gamma   90.00000000
_symmetry_Int_Tables_number   1
_chemical_formula_structural   Y10In8AgAu3
_chemical_formula_sum   'Y10 In8 Ag1 Au3'
_cell_volume   556.57749577
_cell_formula_units_Z   1
loop_
 _symmetry_equiv_pos_site_id
 _symmetry_equiv_pos_as_xyz
  1  'x, y, z'
loop_
 _atom_site_type_symbol
 _atom_site_label
 _atom_site_symmetry_multiplicity
 _atom_site_fract_x
 _atom_site_fract_y
 _atom_site_fract_z
 _atom_site_occupancy
  Y  Y0  1  0.500000  0.231942  0.783456  1
  Y  Y1  1  0.500000  0.763194  0.216285  1
  Y  Y2  1  0.500000  0.263208  0.282925  1
  Y  Y3  1  0.500000  0.740346  0.715419  1
  Y  Y4  1  0.500000  0.122770  0.579524  1
  Y  Y5  1  0.500000  0.878278  0.420911  1
  Y  Y6  1  0.500000  0.378293  0.079105  1
  Y  Y7  1  0.500000  0.623154  0.922743  1
  Y  Y8  1  0.500000  0.000741  0.999962  1
  Y  Y9  1  0.500000  0.499598  0.500448  1
  In  In10  1  0.000000  0.079682  0.147084  1
  In  In11  1  0.000000  0.916069  0.852376  1
  In  In12  1  0.000000  0.421899  0.648646  1
  In  In13  1  0.000000  0.580042  0.352561  1
  In  In14  1  0.000000  0.209458  0.432942  1
  In  In15  1  0.000000  0.790367  0.566967  1
  In  In16  1  0.000000  0.292100  0.931766  1
  In  In17  1  0.000000  0.710028  0.067167  1
  Ag  Ag18  1  0.000000  0.526690  0.803379  1
  Au  Au19  1  0.000000  0.028362  0.696385  1
  Au  Au20  1  0.000000  0.971936  0.303528  1
  Au  Au21  1  0.000000  0.471841  0.196423  1
