# generated using pymatgen
data_Ho4TmNi19
_symmetry_space_group_name_H-M   'P 1'
_cell_length_a   4.91629378
_cell_length_b   4.91629365
_cell_length_c   16.31710246
_cell_angle_alpha   81.33548400
_cell_angle_beta   81.33548181
_cell_angle_gamma   59.99999899
_symmetry_Int_Tables_number   1
_chemical_formula_structural   Ho4TmNi19
_chemical_formula_sum   'Ho4 Tm1 Ni19'
_cell_volume   336.33879436
_cell_formula_units_Z   1
loop_
 _symmetry_equiv_pos_site_id
 _symmetry_equiv_pos_as_xyz
  1  'x, y, z'
loop_
 _atom_site_type_symbol
 _atom_site_label
 _atom_site_symmetry_multiplicity
 _atom_site_fract_x
 _atom_site_fract_y
 _atom_site_fract_z
 _atom_site_occupancy
  Ho  Ho0  1  0.999910  0.999910  0.000269  1
  Ho  Ho1  1  0.921707  0.921707  0.234880  1
  Ho  Ho2  1  0.078362  0.078362  0.764913  1
  Ho  Ho3  1  0.848121  0.848121  0.455639  1
  Tm  Tm4  1  0.151933  0.151933  0.544199  1
  Ni  Ni5  1  0.500072  0.500072  0.499783  1
  Ni  Ni6  1  0.749528  0.749529  0.751414  1
  Ni  Ni7  1  0.250493  0.250493  0.248521  1
  Ni  Ni8  1  0.666615  0.666615  0.000158  1
  Ni  Ni9  1  0.333150  0.333150  0.000549  1
  Ni  Ni10  1  0.584032  0.584032  0.247906  1
  Ni  Ni11  1  0.415986  0.415986  0.752042  1
  Ni  Ni12  1  0.375726  0.375726  0.371391  1
  Ni  Ni13  1  0.877158  0.375726  0.371391  1
  Ni  Ni14  1  0.375726  0.877158  0.371391  1
  Ni  Ni15  1  0.624462  0.624462  0.627970  1
  Ni  Ni16  1  0.123106  0.624462  0.627970  1
  Ni  Ni17  1  0.624462  0.123106  0.627970  1
  Ni  Ni18  1  0.458884  0.458884  0.123291  1
  Ni  Ni19  1  0.958939  0.458884  0.123291  1
  Ni  Ni20  1  0.458884  0.958939  0.123291  1
  Ni  Ni21  1  0.540914  0.540914  0.877258  1
  Ni  Ni22  1  0.040916  0.540914  0.877258  1
  Ni  Ni23  1  0.540914  0.040916  0.877258  1
