# generated using pymatgen
data_GdDy3Ho2C3Cl5
_symmetry_space_group_name_H-M   'P 1'
_cell_length_a   3.65802845
_cell_length_b   8.32627770
_cell_length_c   10.34475648
_cell_angle_alpha   85.43390274
_cell_angle_beta   79.76040101
_cell_angle_gamma   77.32596995
_symmetry_Int_Tables_number   1
_chemical_formula_structural   GdDy3Ho2C3Cl5
_chemical_formula_sum   'Gd1 Dy3 Ho2 C3 Cl5'
_cell_volume   302.23428752
_cell_formula_units_Z   1
loop_
 _symmetry_equiv_pos_site_id
 _symmetry_equiv_pos_as_xyz
  1  'x, y, z'
loop_
 _atom_site_type_symbol
 _atom_site_label
 _atom_site_symmetry_multiplicity
 _atom_site_fract_x
 _atom_site_fract_y
 _atom_site_fract_z
 _atom_site_occupancy
  Gd  Gd0  1  0.431274  0.924071  0.218376  1
  Dy  Dy1  1  0.575287  0.073488  0.777817  1
  Dy  Dy2  1  0.959063  0.428871  0.656120  1
  Dy  Dy3  1  0.683258  0.179845  0.456349  1
  Ho  Ho4  1  0.044775  0.569296  0.344746  1
  Ho  Ho5  1  0.321447  0.818640  0.542374  1
  C  C6  1  0.128403  0.122079  0.624316  1
  C  C7  1  0.877130  0.874797  0.374645  1
  C  C8  1  0.501530  0.500109  0.499774  1
  Cl  Cl9  1  0.754766  0.745346  0.751021  1
  Cl  Cl10  1  0.380553  0.378607  0.864028  1
  Cl  Cl11  1  0.248698  0.255482  0.248376  1
  Cl  Cl12  1  0.626421  0.613239  0.136860  1
  Cl  Cl13  1  0.004616  0.999718  0.994513  1
