# generated using pymatgen
data_HfZr5Ti4Ga5Ge
_symmetry_space_group_name_H-M   'P 1'
_cell_length_a   7.93437583
_cell_length_b   7.92713483
_cell_length_c   5.48277800
_cell_angle_alpha   90.00000000
_cell_angle_beta   90.00000000
_cell_angle_gamma   119.86918502
_symmetry_Int_Tables_number   1
_chemical_formula_structural   HfZr5Ti4Ga5Ge
_chemical_formula_sum   'Hf1 Zr5 Ti4 Ga5 Ge1'
_cell_volume   299.04137128
_cell_formula_units_Z   1
loop_
 _symmetry_equiv_pos_site_id
 _symmetry_equiv_pos_as_xyz
  1  'x, y, z'
loop_
 _atom_site_type_symbol
 _atom_site_label
 _atom_site_symmetry_multiplicity
 _atom_site_fract_x
 _atom_site_fract_y
 _atom_site_fract_z
 _atom_site_occupancy
  Hf  Hf0  1  0.243743  0.244960  0.750000  1
  Zr  Zr1  1  0.244592  0.000264  0.250000  1
  Zr  Zr2  1  0.754764  0.999946  0.750000  1
  Zr  Zr3  1  0.000844  0.243448  0.250000  1
  Zr  Zr4  1  0.999226  0.757108  0.750000  1
  Zr  Zr5  1  0.755329  0.755157  0.250000  1
  Ti  Ti6  1  0.334313  0.667456  0.000420  1
  Ti  Ti7  1  0.666676  0.332387  0.000668  1
  Ti  Ti8  1  0.666676  0.332387  0.499332  1
  Ti  Ti9  1  0.334313  0.667456  0.499580  1
  Ga  Ga10  1  0.398322  0.000474  0.750000  1
  Ga  Ga11  1  0.000509  0.599746  0.250000  1
  Ga  Ga12  1  0.000967  0.401077  0.750000  1
  Ga  Ga13  1  0.400112  0.400174  0.250000  1
  Ga  Ga14  1  0.598168  0.598137  0.750000  1
  Ge  Ge15  1  0.601444  0.999822  0.250000  1
