# generated using pymatgen
data_Hf6MnCr(Co4P3)4
_symmetry_space_group_name_H-M   'P 1'
_cell_length_a   11.91350615
_cell_length_b   11.91468710
_cell_length_c   3.61273000
_cell_angle_alpha   90.00000000
_cell_angle_beta   90.00000000
_cell_angle_gamma   120.15069427
_symmetry_Int_Tables_number   1
_chemical_formula_structural   Hf6MnCr(Co4P3)4
_chemical_formula_sum   'Hf6 Mn1 Cr1 Co16 P12'
_cell_volume   443.43185968
_cell_formula_units_Z   1
loop_
 _symmetry_equiv_pos_site_id
 _symmetry_equiv_pos_as_xyz
  1  'x, y, z'
loop_
 _atom_site_type_symbol
 _atom_site_label
 _atom_site_symmetry_multiplicity
 _atom_site_fract_x
 _atom_site_fract_y
 _atom_site_fract_z
 _atom_site_occupancy
  Hf  Hf0  1  0.817986  0.817274  0.500000  1
  Hf  Hf1  1  0.000137  0.175320  0.500000  1
  Hf  Hf2  1  0.333891  0.667266  0.000000  1
  Hf  Hf3  1  0.664888  0.330905  0.000000  1
  Hf  Hf4  1  0.999076  0.554651  0.000000  1
  Hf  Hf5  1  0.182304  0.999320  0.500000  1
  Mn  Mn6  1  0.448285  0.449121  0.000000  1
  Cr  Cr7  1  0.551600  0.000750  0.000000  1
  Co  Co8  1  0.625321  0.824040  0.000000  1
  Co  Co9  1  0.376568  0.197719  0.000000  1
  Co  Co10  1  0.000686  0.721529  0.500000  1
  Co  Co11  1  0.284190  0.283171  0.500000  1
  Co  Co12  1  0.869021  0.349612  0.500000  1
  Co  Co13  1  0.717909  0.999650  0.500000  1
  Co  Co14  1  0.818202  0.628687  0.000000  1
  Co  Co15  1  0.182407  0.810137  0.000000  1
  Co  Co16  1  0.357889  0.875121  0.500000  1
  Co  Co17  1  0.127827  0.479061  0.500000  1
  Co  Co18  1  0.641873  0.516588  0.500000  1
  Co  Co19  1  0.000360  0.001270  0.000000  1
  Co  Co20  1  0.514984  0.647544  0.500000  1
  Co  Co21  1  0.483624  0.129298  0.500000  1
  Co  Co22  1  0.198557  0.373496  0.000000  1
  Co  Co23  1  0.801019  0.172970  0.000000  1
  P  P24  1  0.999930  0.343847  0.000000  1
  P  P25  1  0.823937  0.515137  0.500000  1
  P  P26  1  0.680621  0.162642  0.500000  1
  P  P27  1  0.178739  0.175985  0.000000  1
  P  P28  1  0.638477  0.643515  0.000000  1
  P  P29  1  0.823153  0.997727  0.000000  1
  P  P30  1  0.517548  0.836546  0.500000  1
  P  P31  1  0.175282  0.690017  0.500000  1
  P  P32  1  0.362863  0.004305  0.000000  1
  P  P33  1  0.482966  0.317111  0.500000  1
  P  P34  1  0.000569  0.826077  0.000000  1
  P  P35  1  0.317311  0.482590  0.500000  1
