# generated using pymatgen
data_TmSi(AsRh2)3
_symmetry_space_group_name_H-M   'P 1'
_cell_length_a   7.21858400
_cell_length_b   7.21858476
_cell_length_c   3.79090800
_cell_angle_alpha   90.00000000
_cell_angle_beta   90.00000000
_cell_angle_gamma   119.99999652
_symmetry_Int_Tables_number   1
_chemical_formula_structural   TmSi(AsRh2)3
_chemical_formula_sum   'Tm1 Si1 As3 Rh6'
_cell_volume   171.07161942
_cell_formula_units_Z   1
loop_
 _symmetry_equiv_pos_site_id
 _symmetry_equiv_pos_as_xyz
  1  'x, y, z'
loop_
 _atom_site_type_symbol
 _atom_site_label
 _atom_site_symmetry_multiplicity
 _atom_site_fract_x
 _atom_site_fract_y
 _atom_site_fract_z
 _atom_site_occupancy
  Tm  Tm0  1  0.000000  0.000000  0.000000  1
  Si  Si1  1  0.333333  0.666667  0.000000  1
  As  As2  1  0.810110  0.620218  0.500000  1
  As  As3  1  0.379782  0.189890  0.500000  1
  As  As4  1  0.810110  0.189890  0.500000  1
  Rh  Rh5  1  0.531552  0.063106  0.000000  1
  Rh  Rh6  1  0.599648  0.799824  0.500000  1
  Rh  Rh7  1  0.200176  0.400352  0.500000  1
  Rh  Rh8  1  0.531552  0.468448  0.000000  1
  Rh  Rh9  1  0.200176  0.799824  0.500000  1
  Rh  Rh10  1  0.936894  0.468448  0.000000  1
