# generated using pymatgen
data_Sr5Np3O12
_symmetry_space_group_name_H-M   'P 1'
_cell_length_a   6.03694464
_cell_length_b   6.20087002
_cell_length_c   8.61167297
_cell_angle_alpha   89.68129345
_cell_angle_beta   89.78109288
_cell_angle_gamma   89.90448059
_symmetry_Int_Tables_number   1
_chemical_formula_structural   Sr5Np3O12
_chemical_formula_sum   'Sr5 Np3 O12'
_cell_volume   322.36425088
_cell_formula_units_Z   1
loop_
 _symmetry_equiv_pos_site_id
 _symmetry_equiv_pos_as_xyz
  1  'x, y, z'
loop_
 _atom_site_type_symbol
 _atom_site_label
 _atom_site_symmetry_multiplicity
 _atom_site_fract_x
 _atom_site_fract_y
 _atom_site_fract_z
 _atom_site_occupancy
  Sr  Sr0  1  0.000000  0.000000  0.000000  1
  Sr  Sr1  1  0.983087  0.451841  0.245683  1
  Sr  Sr2  1  0.512772  0.954421  0.249394  1
  Sr  Sr3  1  0.487228  0.045579  0.750606  1
  Sr  Sr4  1  0.016913  0.548159  0.754317  1
  Np  Np5  1  0.500000  0.500000  0.500000  1
  Np  Np6  1  0.500000  0.500000  0.000000  1
  Np  Np7  1  0.000000  0.000000  0.500000  1
  O  O8  1  0.891190  0.953712  0.723453  1
  O  O9  1  0.785701  0.712057  0.433854  1
  O  O10  1  0.782301  0.674302  0.049798  1
  O  O11  1  0.706945  0.215885  0.442182  1
  O  O12  1  0.673332  0.217684  0.059569  1
  O  O13  1  0.607651  0.456805  0.744741  1
  O  O14  1  0.392349  0.543195  0.255259  1
  O  O15  1  0.326668  0.782316  0.940431  1
  O  O16  1  0.293055  0.784115  0.557818  1
  O  O17  1  0.217699  0.325698  0.950202  1
  O  O18  1  0.214299  0.287943  0.566146  1
  O  O19  1  0.108810  0.046288  0.276547  1
