# generated using pymatgen
data_TbLuMo2F14
_symmetry_space_group_name_H-M   'P 1'
_cell_length_a   5.51724879
_cell_length_b   8.81606257
_cell_length_c   11.92698500
_cell_angle_alpha   62.60590066
_cell_angle_beta   89.80858616
_cell_angle_gamma   90.02334116
_symmetry_Int_Tables_number   1
_chemical_formula_structural   TbLuMo2F14
_chemical_formula_sum   'Tb2 Lu2 Mo4 F28'
_cell_volume   515.07478196
_cell_formula_units_Z   2
loop_
 _symmetry_equiv_pos_site_id
 _symmetry_equiv_pos_as_xyz
  1  'x, y, z'
loop_
 _atom_site_type_symbol
 _atom_site_label
 _atom_site_symmetry_multiplicity
 _atom_site_fract_x
 _atom_site_fract_y
 _atom_site_fract_z
 _atom_site_occupancy
  Tb  Tb0  1  0.257008  0.815020  0.265464  1
  Tb  Tb1  1  0.742992  0.184980  0.734536  1
  Lu  Lu2  1  0.758989  0.187843  0.234138  1
  Lu  Lu3  1  0.241011  0.812157  0.765862  1
  Mo  Mo4  1  0.755523  0.724413  0.041541  1
  Mo  Mo5  1  0.244477  0.275587  0.958459  1
  Mo  Mo6  1  0.256108  0.269617  0.455412  1
  Mo  Mo7  1  0.743892  0.730383  0.544588  1
  F  F8  1  0.950439  0.704163  0.415617  1
  F  F9  1  0.049561  0.295837  0.584383  1
  F  F10  1  0.449805  0.298947  0.085355  1
  F  F11  1  0.550195  0.701053  0.914645  1
  F  F12  1  0.457855  0.724245  0.138387  1
  F  F13  1  0.542145  0.275755  0.861613  1
  F  F14  1  0.961317  0.272438  0.359046  1
  F  F15  1  0.038683  0.727562  0.640954  1
  F  F16  1  0.949408  0.744620  0.174733  1
  F  F17  1  0.050592  0.255380  0.825267  1
  F  F18  1  0.458316  0.248432  0.321966  1
  F  F19  1  0.541684  0.751568  0.678034  1
  F  F20  1  0.777410  0.473176  0.142617  1
  F  F21  1  0.222590  0.526824  0.857383  1
  F  F22  1  0.279882  0.520169  0.358738  1
  F  F23  1  0.720118  0.479831  0.641262  1
  F  F24  1  0.930971  0.273720  0.047910  1
  F  F25  1  0.069029  0.726280  0.952090  1
  F  F26  1  0.437291  0.726354  0.457308  1
  F  F27  1  0.562709  0.273646  0.542692  1
  F  F28  1  0.741870  0.980771  0.447187  1
  F  F29  1  0.258130  0.019229  0.552813  1
  F  F30  1  0.240152  0.024111  0.052756  1
  F  F31  1  0.759848  0.975889  0.947244  1
  F  F32  1  0.588231  0.974835  0.231607  1
  F  F33  1  0.411769  0.025165  0.768393  1
  F  F34  1  0.079956  0.037067  0.268182  1
  F  F35  1  0.920044  0.962933  0.731818  1
