# generated using pymatgen
data_AlBiTeO6
_symmetry_space_group_name_H-M   'P 1'
_cell_length_a   5.13651701
_cell_length_b   8.89678103
_cell_length_c   10.08755101
_cell_angle_alpha   89.99904719
_cell_angle_beta   90.00188902
_cell_angle_gamma   90.00032435
_symmetry_Int_Tables_number   1
_chemical_formula_structural   AlBiTeO6
_chemical_formula_sum   'Al4 Bi4 Te4 O24'
_cell_volume   460.98561789
_cell_formula_units_Z   4
loop_
 _symmetry_equiv_pos_site_id
 _symmetry_equiv_pos_as_xyz
  1  'x, y, z'
loop_
 _atom_site_type_symbol
 _atom_site_label
 _atom_site_symmetry_multiplicity
 _atom_site_fract_x
 _atom_site_fract_y
 _atom_site_fract_z
 _atom_site_occupancy
  Al  Al0  1  0.500052  0.833309  0.750002  1
  Al  Al1  1  0.499948  0.166691  0.249998  1
  Al  Al2  1  0.000052  0.333309  0.750002  1
  Al  Al3  1  0.999948  0.666691  0.249998  1
  Bi  Bi4  1  0.000000  0.000000  0.500000  1
  Bi  Bi5  1  0.500000  0.500000  0.500000  1
  Bi  Bi6  1  0.000000  0.000000  0.000000  1
  Bi  Bi7  1  0.500000  0.500000  0.000000  1
  Te  Te8  1  0.499968  0.166641  0.750004  1
  Te  Te9  1  0.999968  0.666641  0.750004  1
  Te  Te10  1  0.000032  0.333359  0.249996  1
  Te  Te11  1  0.500032  0.833359  0.249996  1
  O  O12  1  0.625877  0.998258  0.643627  1
  O  O13  1  0.125877  0.498258  0.643627  1
  O  O14  1  0.689714  0.313783  0.643644  1
  O  O15  1  0.189714  0.813783  0.643644  1
  O  O16  1  0.184564  0.187961  0.643639  1
  O  O17  1  0.684564  0.687961  0.643639  1
  O  O18  1  0.189625  0.186233  0.143655  1
  O  O19  1  0.689625  0.686233  0.143655  1
  O  O20  1  0.125799  0.501746  0.143629  1
  O  O21  1  0.625799  0.001746  0.143629  1
  O  O22  1  0.684475  0.312041  0.143637  1
  O  O23  1  0.184475  0.812041  0.143637  1
  O  O24  1  0.874123  0.501742  0.356373  1
  O  O25  1  0.374123  0.001742  0.356373  1
  O  O26  1  0.810286  0.186217  0.356356  1
  O  O27  1  0.310286  0.686217  0.356356  1
  O  O28  1  0.315436  0.312039  0.356361  1
  O  O29  1  0.815436  0.812039  0.356361  1
  O  O30  1  0.310375  0.313767  0.856345  1
  O  O31  1  0.810375  0.813767  0.856345  1
  O  O32  1  0.374201  0.998254  0.856371  1
  O  O33  1  0.874201  0.498254  0.856371  1
  O  O34  1  0.815525  0.187959  0.856363  1
  O  O35  1  0.315525  0.687959  0.856363  1
