# generated using pymatgen
data_CaCu2(SO4)4
_symmetry_space_group_name_H-M   'P 1'
_cell_length_a   6.46543907
_cell_length_b   6.46543830
_cell_length_c   8.77137623
_cell_angle_alpha   73.02187857
_cell_angle_beta   73.02188214
_cell_angle_gamma   86.74297375
_symmetry_Int_Tables_number   1
_chemical_formula_structural   CaCu2(SO4)4
_chemical_formula_sum   'Ca1 Cu2 S4 O16'
_cell_volume   335.23357916
_cell_formula_units_Z   1
loop_
 _symmetry_equiv_pos_site_id
 _symmetry_equiv_pos_as_xyz
  1  'x, y, z'
loop_
 _atom_site_type_symbol
 _atom_site_label
 _atom_site_symmetry_multiplicity
 _atom_site_fract_x
 _atom_site_fract_y
 _atom_site_fract_z
 _atom_site_occupancy
  Ca  Ca0  1  0.000000  0.000000  0.000000  1
  Cu  Cu1  1  0.000000  0.000000  0.500000  1
  Cu  Cu2  1  0.500000  0.500000  0.500000  1
  S  S3  1  0.092025  0.595773  0.733553  1
  S  S4  1  0.595773  0.092025  0.733553  1
  S  S5  1  0.907975  0.404227  0.266447  1
  S  S6  1  0.404227  0.907975  0.266447  1
  O  O7  1  0.337667  0.626617  0.662324  1
  O  O8  1  0.626617  0.337667  0.662324  1
  O  O9  1  0.662333  0.373383  0.337676  1
  O  O10  1  0.373383  0.662333  0.337676  1
  O  O11  1  0.032345  0.711944  0.858268  1
  O  O12  1  0.711944  0.032345  0.858268  1
  O  O13  1  0.967655  0.288056  0.141732  1
  O  O14  1  0.288056  0.967655  0.141732  1
  O  O15  1  0.988624  0.697609  0.593307  1
  O  O16  1  0.697609  0.988624  0.593307  1
  O  O17  1  0.011376  0.302391  0.406693  1
  O  O18  1  0.302391  0.011376  0.406693  1
  O  O19  1  0.029187  0.367482  0.789487  1
  O  O20  1  0.367482  0.029187  0.789487  1
  O  O21  1  0.970813  0.632518  0.210513  1
  O  O22  1  0.632518  0.970813  0.210513  1
