# generated using pymatgen
data_Rb8Dy4Tm2BBr20
_symmetry_space_group_name_H-M   'P 1'
_cell_length_a   12.30503293
_cell_length_b   12.30503258
_cell_length_c   12.32061000
_cell_angle_alpha   59.95811423
_cell_angle_beta   59.95811518
_cell_angle_gamma   60.08377241
_symmetry_Int_Tables_number   1
_chemical_formula_structural   Rb8Dy4Tm2BBr20
_chemical_formula_sum   'Rb8 Dy4 Tm2 B1 Br20'
_cell_volume   1319.11109446
_cell_formula_units_Z   1
loop_
 _symmetry_equiv_pos_site_id
 _symmetry_equiv_pos_as_xyz
  1  'x, y, z'
loop_
 _atom_site_type_symbol
 _atom_site_label
 _atom_site_symmetry_multiplicity
 _atom_site_fract_x
 _atom_site_fract_y
 _atom_site_fract_z
 _atom_site_occupancy
  Rb  Rb0  1  0.359953  0.359953  0.358974  1
  Rb  Rb1  1  0.640047  0.640047  0.641026  1
  Rb  Rb2  1  0.359953  0.359953  0.921121  1
  Rb  Rb3  1  0.358974  0.921121  0.359953  1
  Rb  Rb4  1  0.640047  0.640047  0.078879  1
  Rb  Rb5  1  0.641026  0.078879  0.640047  1
  Rb  Rb6  1  0.921121  0.358974  0.359953  1
  Rb  Rb7  1  0.078879  0.641026  0.640047  1
  Dy  Dy8  1  0.849462  0.150538  0.150538  1
  Dy  Dy9  1  0.150538  0.849462  0.849462  1
  Dy  Dy10  1  0.150538  0.849462  0.150538  1
  Dy  Dy11  1  0.849462  0.150538  0.849462  1
  Tm  Tm12  1  0.149275  0.149275  0.850725  1
  Tm  Tm13  1  0.850725  0.850725  0.149275  1
  B  B14  1  0.000000  0.000000  0.000000  1
  Br  Br15  1  0.326277  0.003039  0.996961  1
  Br  Br16  1  0.673723  0.996961  0.003039  1
  Br  Br17  1  0.003039  0.326277  0.673723  1
  Br  Br18  1  0.996961  0.673723  0.326277  1
  Br  Br19  1  0.003039  0.326277  0.996961  1
  Br  Br20  1  0.673723  0.996961  0.326277  1
  Br  Br21  1  0.996961  0.673723  0.003039  1
  Br  Br22  1  0.326277  0.003039  0.673723  1
  Br  Br23  1  0.000000  0.000000  0.329402  1
  Br  Br24  1  0.000000  0.000000  0.670598  1
  Br  Br25  1  0.670598  0.329402  0.000000  1
  Br  Br26  1  0.329402  0.670598  0.000000  1
  Br  Br27  1  0.681754  0.318246  0.318246  1
  Br  Br28  1  0.318246  0.681754  0.681754  1
  Br  Br29  1  0.318246  0.681754  0.318246  1
  Br  Br30  1  0.681754  0.318246  0.681754  1
  Br  Br31  1  0.314227  0.314227  0.685773  1
  Br  Br32  1  0.685773  0.685773  0.314227  1
  Br  Br33  1  0.250000  0.250000  0.250000  1
  Br  Br34  1  0.750000  0.750000  0.750000  1
