# generated using pymatgen
data_EuGe7As5Pt4
_symmetry_space_group_name_H-M   'P 1'
_cell_length_a   7.53177004
_cell_length_b   7.53079078
_cell_length_c   7.57042245
_cell_angle_alpha   109.37254973
_cell_angle_beta   109.56031069
_cell_angle_gamma   109.24737870
_symmetry_Int_Tables_number   1
_chemical_formula_structural   EuGe7As5Pt4
_chemical_formula_sum   'Eu1 Ge7 As5 Pt4'
_cell_volume   331.49593654
_cell_formula_units_Z   1
loop_
 _symmetry_equiv_pos_site_id
 _symmetry_equiv_pos_as_xyz
  1  'x, y, z'
loop_
 _atom_site_type_symbol
 _atom_site_label
 _atom_site_symmetry_multiplicity
 _atom_site_fract_x
 _atom_site_fract_y
 _atom_site_fract_z
 _atom_site_occupancy
  Eu  Eu0  1  0.013616  0.000499  0.012988  1
  Ge  Ge1  1  0.849850  0.647643  0.497802  1
  Ge  Ge2  1  0.145017  0.361922  0.507026  1
  Ge  Ge3  1  0.802565  0.151446  0.655903  1
  Ge  Ge4  1  0.504348  0.853126  0.655778  1
  Ge  Ge5  1  0.144304  0.648993  0.793269  1
  Ge  Ge6  1  0.350496  0.199674  0.841996  1
  Ge  Ge7  1  0.642594  0.491869  0.842215  1
  As  As8  1  0.350904  0.494031  0.139973  1
  As  As9  1  0.646072  0.789076  0.140129  1
  As  As10  1  0.850292  0.352898  0.203458  1
  As  As11  1  0.504411  0.149874  0.359404  1
  As  As12  1  0.209352  0.854799  0.359282  1
  Pt  Pt13  1  0.494284  0.998300  0.001255  1
  Pt  Pt14  1  0.002811  0.506863  0.001252  1
  Pt  Pt15  1  0.995145  0.000065  0.494217  1
  Pt  Pt16  1  0.493939  0.498923  0.494053  1
