# generated using pymatgen
data_Sc2U6Ta9Nb3Si16
_symmetry_space_group_name_H-M   'P 1'
_cell_length_a   7.00219529
_cell_length_b   7.00310461
_cell_length_c   12.92316437
_cell_angle_alpha   90.05199801
_cell_angle_beta   90.00683395
_cell_angle_gamma   89.63143825
_symmetry_Int_Tables_number   1
_chemical_formula_structural   Sc2U6Ta9Nb3Si16
_chemical_formula_sum   'Sc2 U6 Ta9 Nb3 Si16'
_cell_volume   633.70120663
_cell_formula_units_Z   1
loop_
 _symmetry_equiv_pos_site_id
 _symmetry_equiv_pos_as_xyz
  1  'x, y, z'
loop_
 _atom_site_type_symbol
 _atom_site_label
 _atom_site_symmetry_multiplicity
 _atom_site_fract_x
 _atom_site_fract_y
 _atom_site_fract_z
 _atom_site_occupancy
  Sc  Sc0  1  0.003475  0.338706  0.216791  1
  Sc  Sc1  1  0.996768  0.661350  0.716833  1
  U  U2  1  0.169196  0.490087  0.468934  1
  U  U3  1  0.508759  0.831589  0.031129  1
  U  U4  1  0.830382  0.509823  0.968724  1
  U  U5  1  0.491206  0.168407  0.531091  1
  U  U6  1  0.338328  0.002417  0.781278  1
  U  U7  1  0.661763  0.997640  0.281349  1
  Ta  Ta8  1  0.170056  0.171017  0.998294  1
  Ta  Ta9  1  0.829965  0.829458  0.498458  1
  Ta  Ta10  1  0.332943  0.669004  0.250402  1
  Ta  Ta11  1  0.666775  0.331163  0.750466  1
  Ta  Ta12  1  0.154565  0.994969  0.375483  1
  Ta  Ta13  1  0.845465  0.004748  0.875502  1
  Ta  Ta14  1  0.503417  0.655648  0.624954  1
  Ta  Ta15  1  0.347893  0.499828  0.876486  1
  Ta  Ta16  1  0.496250  0.344694  0.124612  1
  Nb  Nb17  1  0.652440  0.499292  0.376407  1
  Nb  Nb18  1  0.000335  0.156429  0.625961  1
  Nb  Nb19  1  0.999780  0.843725  0.125717  1
  Si  Si20  1  0.292749  0.041164  0.184312  1
  Si  Si21  1  0.707078  0.959112  0.684264  1
  Si  Si22  1  0.457296  0.795892  0.436090  1
  Si  Si23  1  0.200673  0.539966  0.065733  1
  Si  Si24  1  0.542823  0.203848  0.936048  1
  Si  Si25  1  0.799154  0.460061  0.565982  1
  Si  Si26  1  0.039186  0.303974  0.814566  1
  Si  Si27  1  0.961131  0.696059  0.314503  1
  Si  Si28  1  0.365512  0.290727  0.314620  1
  Si  Si29  1  0.634091  0.709232  0.814818  1
  Si  Si30  1  0.201337  0.863296  0.569988  1
  Si  Si31  1  0.130966  0.794429  0.930360  1
  Si  Si32  1  0.798891  0.137040  0.070077  1
  Si  Si33  1  0.869052  0.205029  0.430824  1
  Si  Si34  1  0.290934  0.375784  0.684480  1
  Si  Si35  1  0.709369  0.624392  0.184465  1
