# generated using pymatgen
data_Tb5Dy7Tc3Rh
_symmetry_space_group_name_H-M   'P 1'
_cell_length_a   6.30840927
_cell_length_b   7.41449026
_cell_length_c   9.21046223
_cell_angle_alpha   89.99205768
_cell_angle_beta   90.02446371
_cell_angle_gamma   89.90849189
_symmetry_Int_Tables_number   1
_chemical_formula_structural   Tb5Dy7Tc3Rh
_chemical_formula_sum   'Tb5 Dy7 Tc3 Rh1'
_cell_volume   430.80624319
_cell_formula_units_Z   1
loop_
 _symmetry_equiv_pos_site_id
 _symmetry_equiv_pos_as_xyz
  1  'x, y, z'
loop_
 _atom_site_type_symbol
 _atom_site_label
 _atom_site_symmetry_multiplicity
 _atom_site_fract_x
 _atom_site_fract_y
 _atom_site_fract_z
 _atom_site_occupancy
  Tb  Tb0  1  0.332500  0.676712  0.066055  1
  Tb  Tb1  1  0.872805  0.541467  0.250156  1
  Tb  Tb2  1  0.624839  0.039268  0.250098  1
  Tb  Tb3  1  0.131464  0.457468  0.749867  1
  Tb  Tb4  1  0.370879  0.959248  0.749897  1
  Dy  Dy5  1  0.162860  0.176641  0.436249  1
  Dy  Dy6  1  0.663549  0.321413  0.561576  1
  Dy  Dy7  1  0.837728  0.826015  0.938256  1
  Dy  Dy8  1  0.663755  0.321218  0.938307  1
  Dy  Dy9  1  0.837762  0.825962  0.561648  1
  Dy  Dy10  1  0.332509  0.676691  0.434029  1
  Dy  Dy11  1  0.162699  0.176645  0.063773  1
  Tc  Tc12  1  0.039678  0.884216  0.250177  1
  Tc  Tc13  1  0.461852  0.386330  0.250120  1
  Tc  Tc14  1  0.959589  0.115924  0.750025  1
  Rh  Rh15  1  0.545531  0.614777  0.749769  1
