# generated using pymatgen
data_Pr10Bi5PbCl2
_symmetry_space_group_name_H-M   'P 1'
_cell_length_a   9.69080000
_cell_length_b   9.65891803
_cell_length_c   6.69457300
_cell_angle_alpha   90.00000000
_cell_angle_beta   90.00000000
_cell_angle_gamma   120.10925600
_symmetry_Int_Tables_number   1
_chemical_formula_structural   Pr10Bi5PbCl2
_chemical_formula_sum   'Pr10 Bi5 Pb1 Cl2'
_cell_volume   542.07882187
_cell_formula_units_Z   1
loop_
 _symmetry_equiv_pos_site_id
 _symmetry_equiv_pos_as_xyz
  1  'x, y, z'
loop_
 _atom_site_type_symbol
 _atom_site_label
 _atom_site_symmetry_multiplicity
 _atom_site_fract_x
 _atom_site_fract_y
 _atom_site_fract_z
 _atom_site_occupancy
  Pr  Pr0  1  0.733477  0.000000  0.750000  1
  Pr  Pr1  1  0.999772  0.265544  0.250000  1
  Pr  Pr2  1  0.734229  0.734456  0.250000  1
  Pr  Pr3  1  0.333104  0.666909  0.499990  1
  Pr  Pr4  1  0.333104  0.666909  0.000010  1
  Pr  Pr5  1  0.666197  0.333091  0.499990  1
  Pr  Pr6  1  0.666197  0.333091  0.000010  1
  Pr  Pr7  1  0.266383  0.000000  0.250000  1
  Pr  Pr8  1  0.266675  0.264319  0.750000  1
  Pr  Pr9  1  0.002356  0.735681  0.750000  1
  Bi  Bi10  1  0.612603  0.000000  0.250000  1
  Bi  Bi11  1  0.000372  0.614151  0.250000  1
  Bi  Bi12  1  0.614097  0.613666  0.750000  1
  Bi  Bi13  1  0.000430  0.386334  0.750000  1
  Bi  Bi14  1  0.386221  0.385849  0.250000  1
  Pb  Pb15  1  0.386389  0.000000  0.750000  1
  Cl  Cl16  1  0.999198  0.000000  0.499393  1
  Cl  Cl17  1  0.999198  0.000000  0.000607  1
