# generated using pymatgen
data_Y12HoTh3(MgRh)4
_symmetry_space_group_name_H-M   'P 1'
_cell_length_a   9.79340326
_cell_length_b   9.79591234
_cell_length_c   9.79591200
_cell_angle_alpha   59.99999438
_cell_angle_beta   59.99151898
_cell_angle_gamma   59.99151296
_symmetry_Int_Tables_number   1
_chemical_formula_structural   Y12HoTh3(MgRh)4
_chemical_formula_sum   'Y12 Ho1 Th3 Mg4 Rh4'
_cell_volume   664.43527691
_cell_formula_units_Z   1
loop_
 _symmetry_equiv_pos_site_id
 _symmetry_equiv_pos_as_xyz
  1  'x, y, z'
loop_
 _atom_site_type_symbol
 _atom_site_label
 _atom_site_symmetry_multiplicity
 _atom_site_fract_x
 _atom_site_fract_y
 _atom_site_fract_z
 _atom_site_occupancy
  Y  Y0  1  0.062441  0.437954  0.437954  1
  Y  Y1  1  0.437268  0.063140  0.063140  1
  Y  Y2  1  0.437268  0.063140  0.436450  1
  Y  Y3  1  0.062441  0.437954  0.061650  1
  Y  Y4  1  0.437268  0.436450  0.063140  1
  Y  Y5  1  0.062441  0.061650  0.437954  1
  Y  Y6  1  0.185303  0.814868  0.814868  1
  Y  Y7  1  0.815444  0.184452  0.184452  1
  Y  Y8  1  0.815444  0.184452  0.815652  1
  Y  Y9  1  0.185303  0.814868  0.184962  1
  Y  Y10  1  0.815444  0.815652  0.184452  1
  Y  Y11  1  0.185303  0.184962  0.814868  1
  Ho  Ho12  1  0.203869  0.598710  0.598710  1
  Th  Th13  1  0.595586  0.598311  0.598311  1
  Th  Th14  1  0.595586  0.598311  0.207793  1
  Th  Th15  1  0.595586  0.207793  0.598311  1
  Mg  Mg16  1  0.830862  0.829820  0.829820  1
  Mg  Mg17  1  0.830862  0.829820  0.509496  1
  Mg  Mg18  1  0.830862  0.509496  0.829820  1
  Mg  Mg19  1  0.507922  0.830693  0.830693  1
  Rh  Rh20  1  0.397210  0.392836  0.392836  1
  Rh  Rh21  1  0.397210  0.392836  0.817119  1
  Rh  Rh22  1  0.397210  0.817119  0.392836  1
  Rh  Rh23  1  0.815868  0.394711  0.394711  1
