# generated using pymatgen
data_Be6NbCo2Tc3
_symmetry_space_group_name_H-M   'P 1'
_cell_length_a   4.53033000
_cell_length_b   4.53033132
_cell_length_c   7.13582000
_cell_angle_alpha   89.99954554
_cell_angle_beta   90.00038283
_cell_angle_gamma   120.00000028
_symmetry_Int_Tables_number   1
_chemical_formula_structural   Be6NbCo2Tc3
_chemical_formula_sum   'Be6 Nb1 Co2 Tc3'
_cell_volume   126.83360014
_cell_formula_units_Z   1
loop_
 _symmetry_equiv_pos_site_id
 _symmetry_equiv_pos_as_xyz
  1  'x, y, z'
loop_
 _atom_site_type_symbol
 _atom_site_label
 _atom_site_symmetry_multiplicity
 _atom_site_fract_x
 _atom_site_fract_y
 _atom_site_fract_z
 _atom_site_occupancy
  Be  Be0  1  0.168926  0.337806  0.756202  1
  Be  Be1  1  0.168920  0.831082  0.756213  1
  Be  Be2  1  0.662194  0.831074  0.756201  1
  Be  Be3  1  0.832500  0.665041  0.244832  1
  Be  Be4  1  0.832499  0.167501  0.244822  1
  Be  Be5  1  0.334960  0.167500  0.244833  1
  Nb  Nb6  1  0.666675  0.333325  0.568136  1
  Co  Co7  1  0.000002  0.999999  0.498454  1
  Co  Co8  1  0.999998  0.000002  0.002347  1
  Tc  Tc9  1  0.333331  0.666670  0.420914  1
  Tc  Tc10  1  0.333328  0.666670  0.072572  1
  Tc  Tc11  1  0.666668  0.333331  0.934475  1
