# generated using pymatgen
data_Sr21Mg(Ga4Bi3)2
_symmetry_space_group_name_H-M   'P 1'
_cell_length_a   12.22004576
_cell_length_b   12.22004688
_cell_length_c   12.22004600
_cell_angle_alpha   60.00000237
_cell_angle_beta   59.99999936
_cell_angle_gamma   60.00000415
_symmetry_Int_Tables_number   1
_chemical_formula_structural   Sr21Mg(Ga4Bi3)2
_chemical_formula_sum   'Sr21 Mg1 Ga8 Bi6'
_cell_volume   1290.33823510
_cell_formula_units_Z   1
loop_
 _symmetry_equiv_pos_site_id
 _symmetry_equiv_pos_as_xyz
  1  'x, y, z'
loop_
 _atom_site_type_symbol
 _atom_site_label
 _atom_site_symmetry_multiplicity
 _atom_site_fract_x
 _atom_site_fract_y
 _atom_site_fract_z
 _atom_site_occupancy
  Sr  Sr0  1  0.867012  0.867012  0.398963  1
  Sr  Sr1  1  0.601037  0.132988  0.132988  1
  Sr  Sr2  1  0.867012  0.398963  0.867012  1
  Sr  Sr3  1  0.132988  0.132988  0.132988  1
  Sr  Sr4  1  0.398963  0.867012  0.867012  1
  Sr  Sr5  1  0.867012  0.867012  0.867012  1
  Sr  Sr6  1  0.176905  0.823095  0.500000  1
  Sr  Sr7  1  0.823095  0.500000  0.500000  1
  Sr  Sr8  1  0.132988  0.132988  0.601037  1
  Sr  Sr9  1  0.823095  0.176905  0.500000  1
  Sr  Sr10  1  0.176905  0.500000  0.500000  1
  Sr  Sr11  1  0.132988  0.601037  0.132988  1
  Sr  Sr12  1  0.500000  0.500000  0.176905  1
  Sr  Sr13  1  0.500000  0.176905  0.823095  1
  Sr  Sr14  1  0.500000  0.823095  0.176905  1
  Sr  Sr15  1  0.500000  0.500000  0.823095  1
  Sr  Sr16  1  0.500000  0.176905  0.500000  1
  Sr  Sr17  1  0.176905  0.500000  0.823095  1
  Sr  Sr18  1  0.000000  0.000000  0.000000  1
  Sr  Sr19  1  0.500000  0.823095  0.500000  1
  Sr  Sr20  1  0.823095  0.500000  0.176905  1
  Mg  Mg21  1  0.500000  0.500000  0.500000  1
  Ga  Ga22  1  0.693454  0.919637  0.693454  1
  Ga  Ga23  1  0.693454  0.693454  0.919637  1
  Ga  Ga24  1  0.693454  0.693454  0.693454  1
  Ga  Ga25  1  0.306546  0.080363  0.306546  1
  Ga  Ga26  1  0.919637  0.693454  0.693454  1
  Ga  Ga27  1  0.306546  0.306546  0.080363  1
  Ga  Ga28  1  0.080363  0.306546  0.306546  1
  Ga  Ga29  1  0.306546  0.306546  0.306546  1
  Bi  Bi30  1  0.792017  0.207983  0.792017  1
  Bi  Bi31  1  0.792017  0.207983  0.207983  1
  Bi  Bi32  1  0.207983  0.792017  0.207983  1
  Bi  Bi33  1  0.207983  0.792017  0.792017  1
  Bi  Bi34  1  0.792017  0.792017  0.207983  1
  Bi  Bi35  1  0.207983  0.207983  0.792017  1
