# generated using pymatgen
data_SrDy3(Ir2O7)2
_symmetry_space_group_name_H-M   'P 1'
_cell_length_a   7.30667753
_cell_length_b   7.30667723
_cell_length_c   7.30667724
_cell_angle_alpha   59.79089239
_cell_angle_beta   59.79089569
_cell_angle_gamma   59.79089794
_symmetry_Int_Tables_number   1
_chemical_formula_structural   SrDy3(Ir2O7)2
_chemical_formula_sum   'Sr1 Dy3 Ir4 O14'
_cell_volume   274.52268045
_cell_formula_units_Z   1
loop_
 _symmetry_equiv_pos_site_id
 _symmetry_equiv_pos_as_xyz
  1  'x, y, z'
loop_
 _atom_site_type_symbol
 _atom_site_label
 _atom_site_symmetry_multiplicity
 _atom_site_fract_x
 _atom_site_fract_y
 _atom_site_fract_z
 _atom_site_occupancy
  Sr  Sr0  1  0.125000  0.125000  0.125000  1
  Dy  Dy1  1  0.625000  0.125000  0.125000  1
  Dy  Dy2  1  0.125000  0.625000  0.125000  1
  Dy  Dy3  1  0.125000  0.125000  0.625000  1
  Ir  Ir4  1  0.125000  0.625000  0.625000  1
  Ir  Ir5  1  0.625000  0.125000  0.625000  1
  Ir  Ir6  1  0.625000  0.625000  0.125000  1
  Ir  Ir7  1  0.625000  0.625000  0.625000  1
  O  O8  1  0.708384  0.708384  0.292895  1
  O  O9  1  0.293736  0.293736  0.691805  1
  O  O10  1  0.708384  0.292895  0.708384  1
  O  O11  1  0.293736  0.691805  0.293736  1
  O  O12  1  0.292895  0.708384  0.708384  1
  O  O13  1  0.691805  0.293736  0.293736  1
  O  O14  1  0.541616  0.541616  0.957105  1
  O  O15  1  0.956264  0.956264  0.558195  1
  O  O16  1  0.541616  0.957105  0.541616  1
  O  O17  1  0.956264  0.558195  0.956264  1
  O  O18  1  0.957105  0.541616  0.541616  1
  O  O19  1  0.558195  0.956264  0.956264  1
  O  O20  1  0.257262  0.257262  0.257262  1
  O  O21  1  0.992738  0.992738  0.992738  1
