# generated using pymatgen
data_Dy3Ga5Rh6
_symmetry_space_group_name_H-M   'P 1'
_cell_length_a   7.94108200
_cell_length_b   7.94108314
_cell_length_c   7.94108300
_cell_angle_alpha   148.56181548
_cell_angle_beta   113.62256388
_cell_angle_gamma   75.29080165
_symmetry_Int_Tables_number   1
_chemical_formula_structural   Dy3Ga5Rh6
_chemical_formula_sum   'Dy3 Ga5 Rh6'
_cell_volume   235.21471177
_cell_formula_units_Z   1
loop_
 _symmetry_equiv_pos_site_id
 _symmetry_equiv_pos_as_xyz
  1  'x, y, z'
loop_
 _atom_site_type_symbol
 _atom_site_label
 _atom_site_symmetry_multiplicity
 _atom_site_fract_x
 _atom_site_fract_y
 _atom_site_fract_z
 _atom_site_occupancy
  Dy  Dy0  1  0.000000  0.000000  0.000000  1
  Dy  Dy1  1  0.696200  0.696200  0.000000  1
  Dy  Dy2  1  0.303800  0.303800  0.000000  1
  Ga  Ga3  1  0.292142  0.649117  0.643026  1
  Ga  Ga4  1  0.500000  0.000000  0.500000  1
  Ga  Ga5  1  0.707858  0.350883  0.356974  1
  Ga  Ga6  1  0.993909  0.350883  0.643026  1
  Ga  Ga7  1  0.006091  0.649117  0.356974  1
  Rh  Rh8  1  0.324176  0.500000  0.824176  1
  Rh  Rh9  1  0.675824  0.500000  0.175824  1
  Rh  Rh10  1  0.441312  0.156095  0.285216  1
  Rh  Rh11  1  0.870879  0.156095  0.714784  1
  Rh  Rh12  1  0.129121  0.843905  0.285216  1
  Rh  Rh13  1  0.558688  0.843905  0.714784  1
