# generated using pymatgen
data_Sc10As4IrRu
_symmetry_space_group_name_H-M   'P 1'
_cell_length_a   5.80131800
_cell_length_b   7.86920879
_cell_length_c   7.98878448
_cell_angle_alpha   119.50608791
_cell_angle_beta   90.00000000
_cell_angle_gamma   90.00000000
_symmetry_Int_Tables_number   1
_chemical_formula_structural   Sc10As4IrRu
_chemical_formula_sum   'Sc10 As4 Ir1 Ru1'
_cell_volume   317.40159886
_cell_formula_units_Z   1
loop_
 _symmetry_equiv_pos_site_id
 _symmetry_equiv_pos_as_xyz
  1  'x, y, z'
loop_
 _atom_site_type_symbol
 _atom_site_label
 _atom_site_symmetry_multiplicity
 _atom_site_fract_x
 _atom_site_fract_y
 _atom_site_fract_z
 _atom_site_occupancy
  Sc  Sc0  1  0.999624  0.663303  0.326500  1
  Sc  Sc1  1  0.999624  0.336802  0.673500  1
  Sc  Sc2  1  0.500376  0.336802  0.673500  1
  Sc  Sc3  1  0.500376  0.663303  0.326500  1
  Sc  Sc4  1  0.750000  0.745562  0.765802  1
  Sc  Sc5  1  0.250000  0.255804  0.232496  1
  Sc  Sc6  1  0.750000  0.979761  0.234198  1
  Sc  Sc7  1  0.250000  0.023306  0.767504  1
  Sc  Sc8  1  0.750000  0.247565  0.000000  1
  Sc  Sc9  1  0.250000  0.749947  0.000000  1
  As  As10  1  0.750000  0.378938  0.388311  1
  As  As11  1  0.250000  0.620332  0.611892  1
  As  As12  1  0.750000  0.990627  0.611689  1
  As  As13  1  0.250000  0.008440  0.388108  1
  Ir  Ir14  1  0.750000  0.591668  0.000000  1
  Ru  Ru15  1  0.250000  0.407838  0.000000  1
