# generated using pymatgen
data_Lu12Fe3CuPb
_symmetry_space_group_name_H-M   'P 1'
_cell_length_a   8.10976288
_cell_length_b   8.10976072
_cell_length_c   8.10976223
_cell_angle_alpha   107.02924895
_cell_angle_beta   110.64317067
_cell_angle_gamma   110.76852303
_symmetry_Int_Tables_number   1
_chemical_formula_structural   Lu12Fe3CuPb
_chemical_formula_sum   'Lu12 Fe3 Cu1 Pb1'
_cell_volume   410.02747886
_cell_formula_units_Z   1
loop_
 _symmetry_equiv_pos_site_id
 _symmetry_equiv_pos_as_xyz
  1  'x, y, z'
loop_
 _atom_site_type_symbol
 _atom_site_label
 _atom_site_symmetry_multiplicity
 _atom_site_fract_x
 _atom_site_fract_y
 _atom_site_fract_z
 _atom_site_occupancy
  Lu  Lu0  1  0.311530  0.306519  0.618049  1
  Lu  Lu1  1  0.688470  0.693481  0.381951  1
  Lu  Lu2  1  0.688470  0.306519  0.994989  1
  Lu  Lu3  1  0.311530  0.693481  0.005011  1
  Lu  Lu4  1  0.189514  0.411993  0.222478  1
  Lu  Lu5  1  0.810486  0.588007  0.777522  1
  Lu  Lu6  1  0.189514  0.967036  0.777522  1
  Lu  Lu7  1  0.929849  0.189357  0.740493  1
  Lu  Lu8  1  0.810486  0.032964  0.222478  1
  Lu  Lu9  1  0.070151  0.810643  0.259507  1
  Lu  Lu10  1  0.448863  0.189357  0.259507  1
  Lu  Lu11  1  0.551137  0.810643  0.740493  1
  Fe  Fe12  1  0.381561  0.381561  0.000000  1
  Fe  Fe13  1  0.618439  0.618439  0.000000  1
  Fe  Fe14  1  0.000000  0.000000  0.000000  1
  Cu  Cu15  1  0.500000  0.000000  0.500000  1
  Pb  Pb16  1  0.000000  0.500000  0.500000  1
