# generated using pymatgen
data_Zr6Nb4AlGa(Si2C)2
_symmetry_space_group_name_H-M   'P 1'
_cell_length_a   7.96288400
_cell_length_b   7.96288352
_cell_length_c   5.45661000
_cell_angle_alpha   90.00000000
_cell_angle_beta   90.00000000
_cell_angle_gamma   120.01460937
_symmetry_Int_Tables_number   1
_chemical_formula_structural   Zr6Nb4AlGa(Si2C)2
_chemical_formula_sum   'Zr6 Nb4 Al1 Ga1 Si4 C2'
_cell_volume   299.59209205
_cell_formula_units_Z   1
loop_
 _symmetry_equiv_pos_site_id
 _symmetry_equiv_pos_as_xyz
  1  'x, y, z'
loop_
 _atom_site_type_symbol
 _atom_site_label
 _atom_site_symmetry_multiplicity
 _atom_site_fract_x
 _atom_site_fract_y
 _atom_site_fract_z
 _atom_site_occupancy
  Zr  Zr0  1  0.239162  0.998103  0.250000  1
  Zr  Zr1  1  0.760960  0.002598  0.750000  1
  Zr  Zr2  1  0.998103  0.239162  0.250000  1
  Zr  Zr3  1  0.002598  0.760960  0.750000  1
  Zr  Zr4  1  0.766128  0.766128  0.250000  1
  Zr  Zr5  1  0.232828  0.232828  0.750000  1
  Nb  Nb6  1  0.328413  0.671416  0.999472  1
  Nb  Nb7  1  0.671416  0.328413  0.999472  1
  Nb  Nb8  1  0.671416  0.328413  0.500528  1
  Nb  Nb9  1  0.328413  0.671416  0.500528  1
  Al  Al10  1  0.589139  0.589139  0.750000  1
  Ga  Ga11  1  0.410858  0.410858  0.250000  1
  Si  Si12  1  0.592416  0.997720  0.250000  1
  Si  Si13  1  0.407625  0.002326  0.750000  1
  Si  Si14  1  0.997720  0.592416  0.250000  1
  Si  Si15  1  0.002326  0.407625  0.750000  1
  C  C16  1  0.000240  0.000240  0.000001  1
  C  C17  1  0.000240  0.000240  0.499999  1
