# generated using pymatgen
data_YEr7In3Pt
_symmetry_space_group_name_H-M   'P 1'
_cell_length_a   10.42638185
_cell_length_b   10.42638049
_cell_length_c   6.95204752
_cell_angle_alpha   90.08408735
_cell_angle_beta   89.91591433
_cell_angle_gamma   119.92792716
_symmetry_Int_Tables_number   1
_chemical_formula_structural   YEr7In3Pt
_chemical_formula_sum   'Y2 Er14 In6 Pt2'
_cell_volume   654.97524404
_cell_formula_units_Z   2
loop_
 _symmetry_equiv_pos_site_id
 _symmetry_equiv_pos_as_xyz
  1  'x, y, z'
loop_
 _atom_site_type_symbol
 _atom_site_label
 _atom_site_symmetry_multiplicity
 _atom_site_fract_x
 _atom_site_fract_y
 _atom_site_fract_z
 _atom_site_occupancy
  Y  Y0  1  0.530145  0.059253  0.795075  1
  Y  Y1  1  0.940747  0.469855  0.795075  1
  Er  Er2  1  0.530739  0.469261  0.795016  1
  Er  Er3  1  0.468836  0.938338  0.294466  1
  Er  Er4  1  0.061662  0.531164  0.294466  1
  Er  Er5  1  0.469527  0.530473  0.295242  1
  Er  Er6  1  0.824491  0.650047  0.501992  1
  Er  Er7  1  0.349953  0.175509  0.501992  1
  Er  Er8  1  0.824188  0.175812  0.499918  1
  Er  Er9  1  0.176281  0.350678  0.003555  1
  Er  Er10  1  0.649322  0.823719  0.003555  1
  Er  Er11  1  0.175111  0.824889  0.003566  1
  Er  Er12  1  0.666203  0.333797  0.169319  1
  Er  Er13  1  0.334071  0.665929  0.668912  1
  Er  Er14  1  0.999668  0.000332  0.775454  1
  Er  Er15  1  0.000059  0.999941  0.275706  1
  In  In16  1  0.837740  0.674986  0.037966  1
  In  In17  1  0.325014  0.162260  0.037966  1
  In  In18  1  0.837898  0.162102  0.038104  1
  In  In19  1  0.161653  0.325076  0.538090  1
  In  In20  1  0.674924  0.838347  0.538090  1
  In  In21  1  0.162817  0.837183  0.538420  1
  Pt  Pt22  1  0.665556  0.334444  0.565673  1
  Pt  Pt23  1  0.333397  0.666603  0.068283  1
