# generated using pymatgen
data_Tb3(Zn2Pt)2
_symmetry_space_group_name_H-M   'P 1'
_cell_length_a   7.39129900
_cell_length_b   7.39129987
_cell_length_c   3.81756600
_cell_angle_alpha   90.00000000
_cell_angle_beta   90.00000000
_cell_angle_gamma   119.99999161
_symmetry_Int_Tables_number   1
_chemical_formula_structural   Tb3(Zn2Pt)2
_chemical_formula_sum   'Tb3 Zn4 Pt2'
_cell_volume   180.61707973
_cell_formula_units_Z   1
loop_
 _symmetry_equiv_pos_site_id
 _symmetry_equiv_pos_as_xyz
  1  'x, y, z'
loop_
 _atom_site_type_symbol
 _atom_site_label
 _atom_site_symmetry_multiplicity
 _atom_site_fract_x
 _atom_site_fract_y
 _atom_site_fract_z
 _atom_site_occupancy
  Tb  Tb0  1  0.000000  0.410223  0.000000  1
  Tb  Tb1  1  0.589777  0.589777  0.000000  1
  Tb  Tb2  1  0.410223  0.000000  0.000000  1
  Zn  Zn3  1  0.000000  0.748465  0.500000  1
  Zn  Zn4  1  0.251535  0.251535  0.500000  1
  Zn  Zn5  1  0.748465  0.000000  0.500000  1
  Zn  Zn6  1  0.000000  0.000000  0.000000  1
  Pt  Pt7  1  0.333333  0.666667  0.500000  1
  Pt  Pt8  1  0.666667  0.333333  0.500000  1
