# generated using pymatgen
data_TmLu9(RuPb3)2
_symmetry_space_group_name_H-M   'P 1'
_cell_length_a   9.16809900
_cell_length_b   9.16809906
_cell_length_c   6.46243300
_cell_angle_alpha   90.00000000
_cell_angle_beta   90.00000000
_cell_angle_gamma   119.99999616
_symmetry_Int_Tables_number   1
_chemical_formula_structural   TmLu9(RuPb3)2
_chemical_formula_sum   'Tm1 Lu9 Ru2 Pb6'
_cell_volume   470.41947576
_cell_formula_units_Z   1
loop_
 _symmetry_equiv_pos_site_id
 _symmetry_equiv_pos_as_xyz
  1  'x, y, z'
loop_
 _atom_site_type_symbol
 _atom_site_label
 _atom_site_symmetry_multiplicity
 _atom_site_fract_x
 _atom_site_fract_y
 _atom_site_fract_z
 _atom_site_occupancy
  Tm  Tm0  1  0.666667  0.333333  0.000000  1
  Lu  Lu1  1  0.764476  0.764490  0.750019  1
  Lu  Lu2  1  0.235510  0.999986  0.750019  1
  Lu  Lu3  1  0.000014  0.235524  0.750019  1
  Lu  Lu4  1  0.235510  0.235524  0.249981  1
  Lu  Lu5  1  0.764476  0.999986  0.249981  1
  Lu  Lu6  1  0.000014  0.764490  0.249981  1
  Lu  Lu7  1  0.333333  0.666667  0.000000  1
  Lu  Lu8  1  0.333333  0.666667  0.500000  1
  Lu  Lu9  1  0.666667  0.333333  0.500000  1
  Ru  Ru10  1  0.000000  0.000000  0.000000  1
  Ru  Ru11  1  0.000000  0.000000  0.500000  1
  Pb  Pb12  1  0.403389  0.403441  0.749988  1
  Pb  Pb13  1  0.596559  0.999948  0.749988  1
  Pb  Pb14  1  0.000052  0.596611  0.749988  1
  Pb  Pb15  1  0.596559  0.596611  0.250012  1
  Pb  Pb16  1  0.403389  0.999948  0.250012  1
  Pb  Pb17  1  0.000052  0.403441  0.250012  1
