# generated using pymatgen
data_CsKSe12
_symmetry_space_group_name_H-M   'P 1'
_cell_length_a   11.64739566
_cell_length_b   11.64739689
_cell_length_c   11.64739624
_cell_angle_alpha   129.73475652
_cell_angle_beta   121.56771225
_cell_angle_gamma   80.63400657
_symmetry_Int_Tables_number   1
_chemical_formula_structural   CsKSe12
_chemical_formula_sum   'Cs2 K2 Se24'
_cell_volume   999.04317246
_cell_formula_units_Z   2
loop_
 _symmetry_equiv_pos_site_id
 _symmetry_equiv_pos_as_xyz
  1  'x, y, z'
loop_
 _atom_site_type_symbol
 _atom_site_label
 _atom_site_symmetry_multiplicity
 _atom_site_fract_x
 _atom_site_fract_y
 _atom_site_fract_z
 _atom_site_occupancy
  Cs  Cs0  1  0.750000  0.250000  0.500000  1
  Cs  Cs1  1  0.250000  0.750000  0.500000  1
  K  K2  1  0.500000  0.500000  0.000000  1
  K  K3  1  0.000000  0.000000  0.000000  1
  Se  Se4  1  0.647670  0.750000  0.897670  1
  Se  Se5  1  0.852330  0.750000  0.102330  1
  Se  Se6  1  0.352330  0.250000  0.102330  1
  Se  Se7  1  0.147670  0.250000  0.897670  1
  Se  Se8  1  0.251587  0.159696  0.696468  1
  Se  Se9  1  0.248413  0.944881  0.908109  1
  Se  Se10  1  0.036773  0.340304  0.091891  1
  Se  Se11  1  0.463227  0.555119  0.303532  1
  Se  Se12  1  0.748413  0.840304  0.303532  1
  Se  Se13  1  0.751587  0.055119  0.091891  1
  Se  Se14  1  0.963227  0.659696  0.908109  1
  Se  Se15  1  0.536773  0.444881  0.696468  1
  Se  Se16  1  0.911800  0.814124  0.513082  1
  Se  Se17  1  0.588200  0.101283  0.902326  1
  Se  Se18  1  0.198958  0.685876  0.097674  1
  Se  Se19  1  0.301042  0.398717  0.486918  1
  Se  Se20  1  0.088200  0.185876  0.486918  1
  Se  Se21  1  0.411800  0.898717  0.097674  1
  Se  Se22  1  0.801043  0.314124  0.902326  1
  Se  Se23  1  0.698958  0.601283  0.513082  1
  Se  Se24  1  0.670291  0.063476  0.733767  1
  Se  Se25  1  0.829709  0.563476  0.393184  1
  Se  Se26  1  0.170291  0.436524  0.606816  1
  Se  Se27  1  0.329709  0.936524  0.266233  1
