# generated using pymatgen
data_Y2Sc2ReB12Ru
_symmetry_space_group_name_H-M   'P 1'
_cell_length_a   3.58053600
_cell_length_b   8.99358240
_cell_length_c   11.38802730
_cell_angle_alpha   90.09961462
_cell_angle_beta   90.00000000
_cell_angle_gamma   90.00000000
_symmetry_Int_Tables_number   1
_chemical_formula_structural   Y2Sc2ReB12Ru
_chemical_formula_sum   'Y4 Sc4 Re2 B24 Ru2'
_cell_volume   366.71494203
_cell_formula_units_Z   2
loop_
 _symmetry_equiv_pos_site_id
 _symmetry_equiv_pos_as_xyz
  1  'x, y, z'
loop_
 _atom_site_type_symbol
 _atom_site_label
 _atom_site_symmetry_multiplicity
 _atom_site_fract_x
 _atom_site_fract_y
 _atom_site_fract_z
 _atom_site_occupancy
  Y  Y0  1  0.000000  0.319761  0.413663  1
  Y  Y1  1  0.000000  0.680239  0.586337  1
  Y  Y2  1  0.000000  0.822368  0.085073  1
  Y  Y3  1  0.000000  0.177632  0.914927  1
  Sc  Sc4  1  0.000000  0.945491  0.371369  1
  Sc  Sc5  1  0.000000  0.054509  0.628631  1
  Sc  Sc6  1  0.000000  0.443588  0.128514  1
  Sc  Sc7  1  0.000000  0.556412  0.871486  1
  Re  Re8  1  0.000000  0.140679  0.181969  1
  Re  Re9  1  0.000000  0.859321  0.818031  1
  B  B10  1  0.500000  0.555337  0.432451  1
  B  B11  1  0.500000  0.444663  0.567549  1
  B  B12  1  0.500000  0.054558  0.067326  1
  B  B13  1  0.500000  0.945442  0.932674  1
  B  B14  1  0.500000  0.753824  0.417898  1
  B  B15  1  0.500000  0.246176  0.582102  1
  B  B16  1  0.500000  0.254116  0.081730  1
  B  B17  1  0.500000  0.745884  0.918270  1
  B  B18  1  0.500000  0.793874  0.265276  1
  B  B19  1  0.500000  0.206126  0.734724  1
  B  B20  1  0.500000  0.295229  0.235430  1
  B  B21  1  0.500000  0.704771  0.764570  1
  B  B22  1  0.500000  0.628778  0.183371  1
  B  B23  1  0.500000  0.371222  0.816629  1
  B  B24  1  0.500000  0.129225  0.317260  1
  B  B25  1  0.500000  0.870775  0.682740  1
  B  B26  1  0.500000  0.981485  0.214317  1
  B  B27  1  0.500000  0.018515  0.785683  1
  B  B28  1  0.500000  0.482413  0.286172  1
  B  B29  1  0.500000  0.517587  0.713828  1
  B  B30  1  0.500000  0.596929  0.026443  1
  B  B31  1  0.500000  0.403071  0.973557  1
  B  B32  1  0.500000  0.097621  0.473840  1
  B  B33  1  0.500000  0.902379  0.526160  1
  Ru  Ru34  1  0.000000  0.640415  0.318627  1
  Ru  Ru35  1  0.000000  0.359585  0.681373  1
