# generated using pymatgen
data_Er16Tm4Ir5Au7
_symmetry_space_group_name_H-M   'P 1'
_cell_length_a   11.16163065
_cell_length_b   11.16163065
_cell_length_c   6.31704185
_cell_angle_alpha   89.83736032
_cell_angle_beta   89.83736032
_cell_angle_gamma   90.31222474
_symmetry_Int_Tables_number   1
_chemical_formula_structural   Er16Tm4Ir5Au7
_chemical_formula_sum   'Er16 Tm4 Ir5 Au7'
_cell_volume   786.97163984
_cell_formula_units_Z   1
loop_
 _symmetry_equiv_pos_site_id
 _symmetry_equiv_pos_as_xyz
  1  'x, y, z'
loop_
 _atom_site_type_symbol
 _atom_site_label
 _atom_site_symmetry_multiplicity
 _atom_site_fract_x
 _atom_site_fract_y
 _atom_site_fract_z
 _atom_site_occupancy
  Er  Er0  1  0.299850  0.080727  0.364292  1
  Er  Er1  1  0.299368  0.906529  0.865109  1
  Er  Er2  1  0.700340  0.082583  0.863716  1
  Er  Er3  1  0.699101  0.916071  0.362714  1
  Er  Er4  1  0.575835  0.793904  0.862820  1
  Er  Er5  1  0.583465  0.202906  0.365975  1
  Er  Er6  1  0.411438  0.792465  0.376827  1
  Er  Er7  1  0.416033  0.199107  0.864876  1
  Er  Er8  1  0.206096  0.424165  0.637180  1
  Er  Er9  1  0.207535  0.588562  0.123173  1
  Er  Er10  1  0.797094  0.416535  0.134025  1
  Er  Er11  1  0.800893  0.583967  0.635124  1
  Er  Er12  1  0.919273  0.700150  0.135708  1
  Er  Er13  1  0.917417  0.299660  0.636284  1
  Er  Er14  1  0.093471  0.700632  0.634891  1
  Er  Er15  1  0.083929  0.300899  0.137286  1
  Tm  Tm16  1  0.999172  0.999687  0.500684  1
  Tm  Tm17  1  0.000313  0.000828  0.999316  1
  Tm  Tm18  1  0.493917  0.504045  0.998010  1
  Tm  Tm19  1  0.495955  0.506083  0.501990  1
  Ir  Ir20  1  0.348096  0.651904  0.750000  1
  Ir  Ir21  1  0.499823  0.999875  0.114777  1
  Ir  Ir22  1  0.499849  0.000276  0.612256  1
  Ir  Ir23  1  0.999724  0.500151  0.887744  1
  Ir  Ir24  1  0.000125  0.500177  0.385223  1
  Au  Au25  1  0.845018  0.154982  0.250000  1
  Au  Au26  1  0.843956  0.844940  0.750556  1
  Au  Au27  1  0.155060  0.156044  0.749444  1
  Au  Au28  1  0.154175  0.845825  0.250000  1
  Au  Au29  1  0.653184  0.346816  0.750000  1
  Au  Au30  1  0.655764  0.655270  0.248932  1
  Au  Au31  1  0.344730  0.344236  0.251068  1
