# generated using pymatgen
data_Er10Pb6C
_symmetry_space_group_name_H-M   'P 1'
_cell_length_a   8.98649600
_cell_length_b   8.98649565
_cell_length_c   6.58826800
_cell_angle_alpha   90.00000000
_cell_angle_beta   90.00000000
_cell_angle_gamma   119.99999393
_symmetry_Int_Tables_number   1
_chemical_formula_structural   Er10Pb6C
_chemical_formula_sum   'Er10 Pb6 C1'
_cell_volume   460.76838114
_cell_formula_units_Z   1
loop_
 _symmetry_equiv_pos_site_id
 _symmetry_equiv_pos_as_xyz
  1  'x, y, z'
loop_
 _atom_site_type_symbol
 _atom_site_label
 _atom_site_symmetry_multiplicity
 _atom_site_fract_x
 _atom_site_fract_y
 _atom_site_fract_z
 _atom_site_occupancy
  Er  Er0  1  0.000000  0.776724  0.276117  1
  Er  Er1  1  0.223276  0.223276  0.276117  1
  Er  Er2  1  0.776724  0.000000  0.276117  1
  Er  Er3  1  0.000000  0.223276  0.723883  1
  Er  Er4  1  0.776724  0.776724  0.723883  1
  Er  Er5  1  0.223276  0.000000  0.723883  1
  Er  Er6  1  0.333333  0.666667  0.000000  1
  Er  Er7  1  0.666667  0.333333  0.000000  1
  Er  Er8  1  0.666667  0.333333  0.500000  1
  Er  Er9  1  0.333333  0.666667  0.500000  1
  Pb  Pb10  1  0.000000  0.400258  0.249993  1
  Pb  Pb11  1  0.599742  0.599742  0.249993  1
  Pb  Pb12  1  0.400258  0.000000  0.249993  1
  Pb  Pb13  1  0.000000  0.599742  0.750007  1
  Pb  Pb14  1  0.400258  0.400258  0.750007  1
  Pb  Pb15  1  0.599742  0.000000  0.750007  1
  C  C16  1  0.000000  0.000000  0.500000  1
