# generated using pymatgen
data_Cs6K2SnPbI12
_symmetry_space_group_name_H-M   'P 1'
_cell_length_a   10.47099051
_cell_length_b   10.47099073
_cell_length_c   10.47099140
_cell_angle_alpha   91.45793420
_cell_angle_beta   91.45793560
_cell_angle_gamma   91.45794101
_symmetry_Int_Tables_number   1
_chemical_formula_structural   Cs6K2SnPbI12
_chemical_formula_sum   'Cs6 K2 Sn1 Pb1 I12'
_cell_volume   1146.92245873
_cell_formula_units_Z   1
loop_
 _symmetry_equiv_pos_site_id
 _symmetry_equiv_pos_as_xyz
  1  'x, y, z'
loop_
 _atom_site_type_symbol
 _atom_site_label
 _atom_site_symmetry_multiplicity
 _atom_site_fract_x
 _atom_site_fract_y
 _atom_site_fract_z
 _atom_site_occupancy
  Cs  Cs0  1  0.249812  0.629763  0.870424  1
  Cs  Cs1  1  0.870424  0.249812  0.629763  1
  Cs  Cs2  1  0.629763  0.870424  0.249812  1
  Cs  Cs3  1  0.750188  0.370237  0.129576  1
  Cs  Cs4  1  0.129576  0.750188  0.370237  1
  Cs  Cs5  1  0.370237  0.129576  0.750188  1
  K  K6  1  0.249787  0.249787  0.249787  1
  K  K7  1  0.750213  0.750213  0.750213  1
  Sn  Sn8  1  0.000000  0.000000  0.000000  1
  Pb  Pb9  1  0.500000  0.500000  0.500000  1
  I  I10  1  0.548834  0.201551  0.418631  1
  I  I11  1  0.418631  0.548834  0.201551  1
  I  I12  1  0.201551  0.418631  0.548834  1
  I  I13  1  0.951709  0.080363  0.295054  1
  I  I14  1  0.295054  0.951709  0.080363  1
  I  I15  1  0.080363  0.295054  0.951709  1
  I  I16  1  0.451166  0.798449  0.581369  1
  I  I17  1  0.581369  0.451166  0.798449  1
  I  I18  1  0.798449  0.581369  0.451166  1
  I  I19  1  0.048291  0.919637  0.704946  1
  I  I20  1  0.919637  0.704946  0.048291  1
  I  I21  1  0.704946  0.048291  0.919637  1
