# generated using pymatgen
data_Sr3La(BPd4)4
_symmetry_space_group_name_H-M   'P 1'
_cell_length_a   5.57205700
_cell_length_b   6.15992616
_cell_length_c   11.98284328
_cell_angle_alpha   90.07056026
_cell_angle_beta   90.00000000
_cell_angle_gamma   90.00000000
_symmetry_Int_Tables_number   1
_chemical_formula_structural   Sr3La(BPd4)4
_chemical_formula_sum   'Sr3 La1 B4 Pd16'
_cell_volume   411.29232651
_cell_formula_units_Z   1
loop_
 _symmetry_equiv_pos_site_id
 _symmetry_equiv_pos_as_xyz
  1  'x, y, z'
loop_
 _atom_site_type_symbol
 _atom_site_label
 _atom_site_symmetry_multiplicity
 _atom_site_fract_x
 _atom_site_fract_y
 _atom_site_fract_z
 _atom_site_occupancy
  Sr  Sr0  1  0.750000  0.811579  0.341106  1
  Sr  Sr1  1  0.250000  0.688141  0.838601  1
  Sr  Sr2  1  0.250000  0.188397  0.660316  1
  La  La3  1  0.750000  0.311709  0.157193  1
  B  B4  1  0.750000  0.401753  0.551851  1
  B  B5  1  0.750000  0.901843  0.948141  1
  B  B6  1  0.250000  0.597349  0.448500  1
  B  B7  1  0.250000  0.097174  0.051280  1
  Pd  Pd8  1  0.750000  0.386248  0.733665  1
  Pd  Pd9  1  0.750000  0.886100  0.767167  1
  Pd  Pd10  1  0.250000  0.613723  0.266548  1
  Pd  Pd11  1  0.250000  0.117147  0.233279  1
  Pd  Pd12  1  0.750000  0.062580  0.557884  1
  Pd  Pd13  1  0.750000  0.558962  0.944441  1
  Pd  Pd14  1  0.250000  0.937531  0.441740  1
  Pd  Pd15  1  0.250000  0.437910  0.059310  1
  Pd  Pd16  1  0.997378  0.163489  0.915056  1
  Pd  Pd17  1  0.502670  0.662566  0.585507  1
  Pd  Pd18  1  0.498838  0.837807  0.086615  1
  Pd  Pd19  1  0.000855  0.337066  0.412312  1
  Pd  Pd20  1  0.001162  0.837807  0.086615  1
  Pd  Pd21  1  0.499145  0.337066  0.412312  1
  Pd  Pd22  1  0.502622  0.163489  0.915056  1
  Pd  Pd23  1  0.997330  0.662566  0.585507  1
