# generated using pymatgen
data_Nd4Al18RePt5
_symmetry_space_group_name_H-M   'P 1'
_cell_length_a   7.62777765
_cell_length_b   7.62777779
_cell_length_c   9.48328000
_cell_angle_alpha   90.14859195
_cell_angle_beta   90.14859946
_cell_angle_gamma   119.86852767
_symmetry_Int_Tables_number   1
_chemical_formula_structural   Nd4Al18RePt5
_chemical_formula_sum   'Nd4 Al18 Re1 Pt5'
_cell_volume   478.46841599
_cell_formula_units_Z   1
loop_
 _symmetry_equiv_pos_site_id
 _symmetry_equiv_pos_as_xyz
  1  'x, y, z'
loop_
 _atom_site_type_symbol
 _atom_site_label
 _atom_site_symmetry_multiplicity
 _atom_site_fract_x
 _atom_site_fract_y
 _atom_site_fract_z
 _atom_site_occupancy
  Nd  Nd0  1  0.993383  0.667170  0.248722  1
  Nd  Nd1  1  0.003586  0.330923  0.750678  1
  Nd  Nd2  1  0.669077  0.996414  0.249322  1
  Nd  Nd3  1  0.332830  0.006617  0.751278  1
  Al  Al4  1  0.131171  0.132763  0.249867  1
  Al  Al5  1  0.867237  0.868829  0.750133  1
  Al  Al6  1  0.999837  0.333582  0.073211  1
  Al  Al7  1  0.994563  0.660616  0.925975  1
  Al  Al8  1  0.998094  0.668131  0.577347  1
  Al  Al9  1  0.331869  0.001906  0.422653  1
  Al  Al10  1  0.002351  0.334940  0.424342  1
  Al  Al11  1  0.665060  0.997649  0.575658  1
  Al  Al12  1  0.666418  0.000163  0.926789  1
  Al  Al13  1  0.339384  0.005437  0.074025  1
  Al  Al14  1  0.334804  0.336302  0.557386  1
  Al  Al15  1  0.663698  0.665196  0.442614  1
  Al  Al16  1  0.666874  0.660122  0.049988  1
  Al  Al17  1  0.339878  0.333126  0.950012  1
  Al  Al18  1  0.338212  0.543610  0.249884  1
  Al  Al19  1  0.660252  0.455921  0.753463  1
  Al  Al20  1  0.544079  0.339748  0.246537  1
  Al  Al21  1  0.456390  0.661788  0.750116  1
  Re  Re22  1  0.672603  0.327397  0.000000  1
  Pt  Pt23  1  0.329288  0.670712  0.000000  1
  Pt  Pt24  1  0.327506  0.672494  0.500000  1
  Pt  Pt25  1  0.671130  0.328870  0.500000  1
  Pt  Pt26  1  0.001079  0.998921  0.000000  1
  Pt  Pt27  1  0.999341  0.000659  0.500000  1
