# generated using pymatgen
data_La7Y13Si15Ru
_symmetry_space_group_name_H-M   'P 1'
_cell_length_a   7.89044658
_cell_length_b   7.92330354
_cell_length_c   14.58475600
_cell_angle_alpha   89.75443879
_cell_angle_beta   89.86912747
_cell_angle_gamma   90.19419232
_symmetry_Int_Tables_number   1
_chemical_formula_structural   La7Y13Si15Ru
_chemical_formula_sum   'La7 Y13 Si15 Ru1'
_cell_volume   911.79963814
_cell_formula_units_Z   1
loop_
 _symmetry_equiv_pos_site_id
 _symmetry_equiv_pos_as_xyz
  1  'x, y, z'
loop_
 _atom_site_type_symbol
 _atom_site_label
 _atom_site_symmetry_multiplicity
 _atom_site_fract_x
 _atom_site_fract_y
 _atom_site_fract_z
 _atom_site_occupancy
  La  La0  1  0.361290  0.007194  0.955807  1
  La  La1  1  0.993886  0.642530  0.539959  1
  La  La2  1  0.490496  0.859131  0.209203  1
  La  La3  1  0.499316  0.126262  0.695884  1
  La  La4  1  0.858249  0.488033  0.792671  1
  La  La5  1  0.140017  0.507729  0.294909  1
  La  La6  1  0.010827  0.358703  0.042892  1
  Y  Y7  1  0.490414  0.361553  0.125921  1
  Y  Y8  1  0.991140  0.136855  0.624355  1
  Y  Y9  1  0.858684  0.009384  0.874730  1
  Y  Y10  1  0.140914  0.987648  0.381792  1
  Y  Y11  1  0.508551  0.642423  0.619877  1
  Y  Y12  1  0.361415  0.491436  0.875355  1
  Y  Y13  1  0.639618  0.507125  0.374758  1
  Y  Y14  1  0.008165  0.863757  0.126119  1
  Y  Y15  1  0.630449  0.997393  0.455106  1
  Y  Y16  1  0.317788  0.308707  0.502505  1
  Y  Y17  1  0.185647  0.821940  0.744200  1
  Y  Y18  1  0.819489  0.180337  0.252286  1
  Y  Y19  1  0.683611  0.683307  0.001142  1
  Si  Si20  1  0.711024  0.066845  0.062684  1
  Si  Si21  1  0.930155  0.290053  0.437841  1
  Si  Si22  1  0.435514  0.209549  0.311775  1
  Si  Si23  1  0.568036  0.785558  0.811108  1
  Si  Si24  1  0.209259  0.436283  0.689901  1
  Si  Si25  1  0.789877  0.568814  0.189163  1
  Si  Si26  1  0.063284  0.710865  0.938333  1
  Si  Si27  1  0.798461  0.841126  0.693575  1
  Si  Si28  1  0.204787  0.152465  0.193549  1
  Si  Si29  1  0.842287  0.799731  0.311483  1
  Si  Si30  1  0.358330  0.709609  0.439221  1
  Si  Si31  1  0.655066  0.298806  0.946001  1
  Si  Si32  1  0.704394  0.345275  0.556055  1
  Si  Si33  1  0.296315  0.655065  0.057799  1
  Si  Si34  1  0.149522  0.208038  0.809997  1
  Ru  Ru35  1  0.293722  0.940470  0.562042  1
