# generated using pymatgen
data_Zr4In2CuNi2Ir
_symmetry_space_group_name_H-M   'P 1'
_cell_length_a   7.36117584
_cell_length_b   7.36117556
_cell_length_c   6.72619064
_cell_angle_alpha   90.16977793
_cell_angle_beta   89.83021831
_cell_angle_gamma   90.42850628
_symmetry_Int_Tables_number   1
_chemical_formula_structural   Zr4In2CuNi2Ir
_chemical_formula_sum   'Zr8 In4 Cu2 Ni4 Ir2'
_cell_volume   364.45810193
_cell_formula_units_Z   2
loop_
 _symmetry_equiv_pos_site_id
 _symmetry_equiv_pos_as_xyz
  1  'x, y, z'
loop_
 _atom_site_type_symbol
 _atom_site_label
 _atom_site_symmetry_multiplicity
 _atom_site_fract_x
 _atom_site_fract_y
 _atom_site_fract_z
 _atom_site_occupancy
  Zr  Zr0  1  0.664259  0.664259  0.500000  1
  Zr  Zr1  1  0.826358  0.173642  0.496863  1
  Zr  Zr2  1  0.684237  0.684237  0.000000  1
  Zr  Zr3  1  0.844418  0.155582  0.006644  1
  Zr  Zr4  1  0.173642  0.826358  0.503137  1
  Zr  Zr5  1  0.315763  0.315763  0.000000  1
  Zr  Zr6  1  0.155582  0.844418  0.993356  1
  Zr  Zr7  1  0.335741  0.335741  0.500000  1
  In  In8  1  0.001882  0.502349  0.249592  1
  In  In9  1  0.502349  0.001882  0.750408  1
  In  In10  1  0.497651  0.998118  0.249592  1
  In  In11  1  0.998118  0.497651  0.750408  1
  Cu  Cu12  1  0.631679  0.368321  0.778765  1
  Cu  Cu13  1  0.368321  0.631679  0.221235  1
  Ni  Ni14  1  0.877551  0.876965  0.726847  1
  Ni  Ni15  1  0.122449  0.123035  0.273153  1
  Ni  Ni16  1  0.876965  0.877551  0.273153  1
  Ni  Ni17  1  0.123035  0.122449  0.726847  1
  Ir  Ir18  1  0.621490  0.378510  0.235297  1
  Ir  Ir19  1  0.378510  0.621490  0.764703  1
