# generated using pymatgen
data_Tb2Gd7Lu(SiB4)4
_symmetry_space_group_name_H-M   'P 1'
_cell_length_a   7.26191714
_cell_length_b   7.26186603
_cell_length_c   8.18195101
_cell_angle_alpha   90.00155125
_cell_angle_beta   89.99111345
_cell_angle_gamma   90.01030479
_symmetry_Int_Tables_number   1
_chemical_formula_structural   Tb2Gd7Lu(SiB4)4
_chemical_formula_sum   'Tb2 Gd7 Lu1 Si4 B16'
_cell_volume   431.47574144
_cell_formula_units_Z   1
loop_
 _symmetry_equiv_pos_site_id
 _symmetry_equiv_pos_as_xyz
  1  'x, y, z'
loop_
 _atom_site_type_symbol
 _atom_site_label
 _atom_site_symmetry_multiplicity
 _atom_site_fract_x
 _atom_site_fract_y
 _atom_site_fract_z
 _atom_site_occupancy
  Tb  Tb0  1  0.179999  0.319347  0.223797  1
  Tb  Tb1  1  0.500110  0.499893  0.499973  1
  Gd  Gd2  1  0.680901  0.180311  0.225641  1
  Gd  Gd3  1  0.319193  0.819811  0.774616  1
  Gd  Gd4  1  0.319053  0.819747  0.225683  1
  Gd  Gd5  1  0.819840  0.680773  0.225526  1
  Gd  Gd6  1  0.819848  0.680824  0.774663  1
  Gd  Gd7  1  0.680827  0.180160  0.774624  1
  Gd  Gd8  1  0.180143  0.319263  0.774458  1
  Lu  Lu9  1  0.000070  0.999957  0.499899  1
  Si  Si10  1  0.112908  0.617081  0.499571  1
  Si  Si11  1  0.887789  0.382334  0.499474  1
  Si  Si12  1  0.382132  0.112945  0.499865  1
  Si  Si13  1  0.617166  0.887611  0.499674  1
  B  B14  1  0.172501  0.039283  0.000084  1
  B  B15  1  0.827610  0.960874  0.000221  1
  B  B16  1  0.960937  0.172480  0.000018  1
  B  B17  1  0.327537  0.539305  0.000027  1
  B  B18  1  0.039171  0.827617  0.000217  1
  B  B19  1  0.672325  0.460650  0.000245  1
  B  B20  1  0.539264  0.672396  0.000229  1
  B  B21  1  0.460539  0.327556  0.000122  1
  B  B22  1  0.090192  0.589973  0.000197  1
  B  B23  1  0.909888  0.409924  0.000267  1
  B  B24  1  0.410036  0.090111  0.000079  1
  B  B25  1  0.589920  0.909945  0.000079  1
  B  B26  1  0.000084  0.000051  0.160685  1
  B  B27  1  0.000040  0.999876  0.839670  1
  B  B28  1  0.500101  0.500030  0.840447  1
  B  B29  1  0.499875  0.499874  0.159949  1
