# generated using pymatgen
data_Mn6Co11Si6Tc
_symmetry_space_group_name_H-M   'P 1'
_cell_length_a   4.00435900
_cell_length_b   5.67411400
_cell_length_c   12.00672300
_cell_angle_alpha   90.00023570
_cell_angle_beta   89.99991413
_cell_angle_gamma   89.99965664
_symmetry_Int_Tables_number   1
_chemical_formula_structural   Mn6Co11Si6Tc
_chemical_formula_sum   'Mn6 Co11 Si6 Tc1'
_cell_volume   272.80702811
_cell_formula_units_Z   1
loop_
 _symmetry_equiv_pos_site_id
 _symmetry_equiv_pos_as_xyz
  1  'x, y, z'
loop_
 _atom_site_type_symbol
 _atom_site_label
 _atom_site_symmetry_multiplicity
 _atom_site_fract_x
 _atom_site_fract_y
 _atom_site_fract_z
 _atom_site_occupancy
  Mn  Mn0  1  0.000003  0.003049  0.004061  1
  Mn  Mn1  1  0.499851  0.500529  0.167591  1
  Mn  Mn2  1  0.999845  0.000160  0.333329  1
  Mn  Mn3  1  0.500000  0.500528  0.499073  1
  Mn  Mn4  1  0.000151  0.003038  0.662609  1
  Mn  Mn5  1  0.500147  0.492433  0.833333  1
  Co  Co6  1  0.500002  0.250283  0.001175  1
  Co  Co7  1  0.500010  0.750290  0.000893  1
  Co  Co8  1  0.999853  0.251076  0.168683  1
  Co  Co9  1  0.999856  0.750275  0.167208  1
  Co  Co10  1  0.499854  0.249494  0.333333  1
  Co  Co11  1  0.499855  0.750125  0.333333  1
  Co  Co12  1  0.999997  0.251073  0.497982  1
  Co  Co13  1  0.999999  0.750280  0.499462  1
  Co  Co14  1  0.500148  0.250280  0.665499  1
  Co  Co15  1  0.500141  0.750292  0.665768  1
  Co  Co16  1  0.000145  0.247784  0.833335  1
  Si  Si17  1  0.999991  0.494006  0.005248  1
  Si  Si18  1  0.499862  0.999342  0.167081  1
  Si  Si19  1  0.999863  0.501832  0.333332  1
  Si  Si20  1  0.500003  0.999336  0.499586  1
  Si  Si21  1  0.000134  0.494035  0.661423  1
  Si  Si22  1  0.500146  0.013701  0.833332  1
  Tc  Tc23  1  0.000141  0.746757  0.833327  1
