# generated using pymatgen
data_Ce3Al8(SiTc)4
_symmetry_space_group_name_H-M   'P 1'
_cell_length_a   8.82200181
_cell_length_b   8.81221470
_cell_length_c   9.54749200
_cell_angle_alpha   90.00000000
_cell_angle_beta   90.00000000
_cell_angle_gamma   119.96331560
_symmetry_Int_Tables_number   1
_chemical_formula_structural   Ce3Al8(SiTc)4
_chemical_formula_sum   'Ce6 Al16 Si8 Tc8'
_cell_volume   643.03197402
_cell_formula_units_Z   2
loop_
 _symmetry_equiv_pos_site_id
 _symmetry_equiv_pos_as_xyz
  1  'x, y, z'
loop_
 _atom_site_type_symbol
 _atom_site_label
 _atom_site_symmetry_multiplicity
 _atom_site_fract_x
 _atom_site_fract_y
 _atom_site_fract_z
 _atom_site_occupancy
  Ce  Ce0  1  0.805417  0.614621  0.750000  1
  Ce  Ce1  1  0.194583  0.809204  0.250000  1
  Ce  Ce2  1  0.612517  0.807973  0.250000  1
  Ce  Ce3  1  0.387483  0.195455  0.750000  1
  Ce  Ce4  1  0.806976  0.192688  0.750000  1
  Ce  Ce5  1  0.193024  0.385714  0.250000  1
  Al  Al6  1  0.164590  0.330579  0.579273  1
  Al  Al7  1  0.668635  0.835528  0.578770  1
  Al  Al8  1  0.166241  0.834677  0.578560  1
  Al  Al9  1  0.835410  0.165989  0.079273  1
  Al  Al10  1  0.835410  0.165989  0.420727  1
  Al  Al11  1  0.833759  0.668436  0.078560  1
  Al  Al12  1  0.331365  0.166893  0.078770  1
  Al  Al13  1  0.668635  0.835528  0.921230  1
  Al  Al14  1  0.164590  0.330579  0.920727  1
  Al  Al15  1  0.833759  0.668436  0.421440  1
  Al  Al16  1  0.130231  0.562357  0.750000  1
  Al  Al17  1  0.869769  0.432126  0.250000  1
  Al  Al18  1  0.560711  0.432915  0.250000  1
  Al  Al19  1  0.439289  0.872204  0.750000  1
  Al  Al20  1  0.166241  0.834677  0.921440  1
  Al  Al21  1  0.331365  0.166893  0.421230  1
  Si  Si22  1  0.331722  0.666135  0.465959  1
  Si  Si23  1  0.668278  0.334413  0.965959  1
  Si  Si24  1  0.668278  0.334413  0.534041  1
  Si  Si25  1  0.331722  0.666135  0.034041  1
  Si  Si26  1  0.999668  0.000957  0.250000  1
  Si  Si27  1  0.000332  0.001289  0.750000  1
  Si  Si28  1  0.562269  0.125769  0.250000  1
  Si  Si29  1  0.437731  0.563500  0.750000  1
  Tc  Tc30  1  0.000000  0.999892  0.500000  1
  Tc  Tc31  1  0.000000  0.999892  0.000000  1
  Tc  Tc32  1  0.500210  0.999892  0.494464  1
  Tc  Tc33  1  0.499790  0.499681  0.994464  1
  Tc  Tc34  1  0.000000  0.499499  0.000000  1
  Tc  Tc35  1  0.000000  0.499499  0.500000  1
  Tc  Tc36  1  0.499790  0.499681  0.505536  1
  Tc  Tc37  1  0.500210  0.999892  0.005536  1
