# generated using pymatgen
data_K3DyV2O8
_symmetry_space_group_name_H-M   'P 1'
_cell_length_a   6.01098500
_cell_length_b   6.01098500
_cell_length_c   7.75867800
_cell_angle_alpha   90.00000000
_cell_angle_beta   90.00000000
_cell_angle_gamma   119.99999450
_symmetry_Int_Tables_number   1
_chemical_formula_structural   K3DyV2O8
_chemical_formula_sum   'K3 Dy1 V2 O8'
_cell_volume   242.77819173
_cell_formula_units_Z   1
loop_
 _symmetry_equiv_pos_site_id
 _symmetry_equiv_pos_as_xyz
  1  'x, y, z'
loop_
 _atom_site_type_symbol
 _atom_site_label
 _atom_site_symmetry_multiplicity
 _atom_site_fract_x
 _atom_site_fract_y
 _atom_site_fract_z
 _atom_site_occupancy
  K  K0  1  0.333333  0.666667  0.697507  1
  K  K1  1  0.666667  0.333333  0.302493  1
  K  K2  1  0.000000  0.000000  0.000000  1
  Dy  Dy3  1  0.000000  0.000000  0.500000  1
  V  V4  1  0.333333  0.666667  0.246538  1
  V  V5  1  0.666667  0.333333  0.753462  1
  O  O6  1  0.333333  0.666667  0.029716  1
  O  O7  1  0.666667  0.333333  0.970284  1
  O  O8  1  0.173930  0.826070  0.325130  1
  O  O9  1  0.826070  0.173930  0.674870  1
  O  O10  1  0.173930  0.347861  0.325130  1
  O  O11  1  0.826070  0.652139  0.674870  1
  O  O12  1  0.652139  0.826070  0.325130  1
  O  O13  1  0.347861  0.173930  0.674870  1
