# generated using pymatgen
data_Rb4Zr3Np5Se16
_symmetry_space_group_name_H-M   'P 1'
_cell_length_a   7.09320692
_cell_length_b   8.10502055
_cell_length_c   16.85647395
_cell_angle_alpha   90.00128656
_cell_angle_beta   89.66594784
_cell_angle_gamma   89.93102027
_symmetry_Int_Tables_number   1
_chemical_formula_structural   Rb4Zr3Np5Se16
_chemical_formula_sum   'Rb4 Zr3 Np5 Se16'
_cell_volume   969.07142323
_cell_formula_units_Z   1
loop_
 _symmetry_equiv_pos_site_id
 _symmetry_equiv_pos_as_xyz
  1  'x, y, z'
loop_
 _atom_site_type_symbol
 _atom_site_label
 _atom_site_symmetry_multiplicity
 _atom_site_fract_x
 _atom_site_fract_y
 _atom_site_fract_z
 _atom_site_occupancy
  Rb  Rb0  1  0.349664  0.999416  0.000679  1
  Rb  Rb1  1  0.650336  0.500584  0.499321  1
  Rb  Rb2  1  0.028603  0.998953  0.499826  1
  Rb  Rb3  1  0.971397  0.501047  0.000174  1
  Zr  Zr4  1  0.500000  0.750000  0.750000  1
  Zr  Zr5  1  0.500000  0.750000  0.250000  1
  Zr  Zr6  1  0.500000  0.250000  0.750000  1
  Np  Np7  1  0.000386  0.995623  0.247004  1
  Np  Np8  1  0.000769  0.000047  0.752887  1
  Np  Np9  1  0.999614  0.504377  0.252996  1
  Np  Np10  1  0.999231  0.499953  0.747113  1
  Np  Np11  1  0.500000  0.250000  0.250000  1
  Se  Se12  1  0.834165  0.246347  0.346768  1
  Se  Se13  1  0.816562  0.754149  0.656076  1
  Se  Se14  1  0.185521  0.745372  0.154593  1
  Se  Se15  1  0.183449  0.253869  0.843946  1
  Se  Se16  1  0.165835  0.253653  0.153232  1
  Se  Se17  1  0.183438  0.745851  0.843924  1
  Se  Se18  1  0.814479  0.754628  0.345407  1
  Se  Se19  1  0.816551  0.246131  0.656054  1
  Se  Se20  1  0.658407  0.988265  0.156343  1
  Se  Se21  1  0.652126  0.999855  0.840782  1
  Se  Se22  1  0.341593  0.511735  0.343657  1
  Se  Se23  1  0.347874  0.500145  0.659218  1
  Se  Se24  1  0.340704  0.988460  0.341917  1
  Se  Se25  1  0.347380  0.000156  0.660361  1
  Se  Se26  1  0.659296  0.511540  0.158083  1
  Se  Se27  1  0.652620  0.499844  0.839639  1
