# generated using pymatgen
data_Ta7NbFe(CoSi2)7
_symmetry_space_group_name_H-M   'P 1'
_cell_length_a   9.21153206
_cell_length_b   9.20839995
_cell_length_c   9.21377055
_cell_angle_alpha   94.20744796
_cell_angle_beta   94.21057139
_cell_angle_gamma   148.55148505
_symmetry_Int_Tables_number   1
_chemical_formula_structural   Ta7NbFe(CoSi2)7
_chemical_formula_sum   'Ta7 Nb1 Fe1 Co7 Si14'
_cell_volume   392.51852668
_cell_formula_units_Z   1
loop_
 _symmetry_equiv_pos_site_id
 _symmetry_equiv_pos_as_xyz
  1  'x, y, z'
loop_
 _atom_site_type_symbol
 _atom_site_label
 _atom_site_symmetry_multiplicity
 _atom_site_fract_x
 _atom_site_fract_y
 _atom_site_fract_z
 _atom_site_occupancy
  Ta  Ta0  1  0.309204  0.499943  0.808986  1
  Ta  Ta1  1  0.689634  0.499802  0.190168  1
  Ta  Ta2  1  0.501005  0.690819  0.191100  1
  Ta  Ta3  1  0.500151  0.309479  0.809833  1
  Ta  Ta4  1  0.133707  0.133022  0.266599  1
  Ta  Ta5  1  0.866778  0.866141  0.732819  1
  Ta  Ta6  1  0.133518  0.866484  0.999445  1
  Nb  Nb7  1  0.866219  0.133108  0.999527  1
  Fe  Fe8  1  0.398923  0.899462  0.798668  1
  Co  Co9  1  0.100839  0.601330  0.202093  1
  Co  Co10  1  0.899415  0.101947  0.500590  1
  Co  Co11  1  0.601283  0.398598  0.500609  1
  Co  Co12  1  0.600614  0.101172  0.201948  1
  Co  Co13  1  0.898951  0.399570  0.798570  1
  Co  Co14  1  0.100128  0.899038  0.499008  1
  Co  Co15  1  0.398915  0.599876  0.498968  1
  Si  Si16  1  0.291783  0.291771  0.583452  1
  Si  Si17  1  0.708657  0.708606  0.417293  1
  Si  Si18  1  0.291842  0.708402  0.000203  1
  Si  Si19  1  0.708592  0.291714  0.000248  1
  Si  Si20  1  0.097020  0.504207  0.594577  1
  Si  Si21  1  0.904396  0.498469  0.405645  1
  Si  Si22  1  0.501307  0.907048  0.405656  1
  Si  Si23  1  0.497594  0.090231  0.594588  1
  Si  Si24  1  0.249010  0.249236  0.999857  1
  Si  Si25  1  0.750570  0.750990  0.999849  1
  Si  Si26  1  0.296339  0.999148  0.296877  1
  Si  Si27  1  0.700672  0.997952  0.703399  1
  Si  Si28  1  0.002534  0.705087  0.702942  1
  Si  Si29  1  0.000403  0.297347  0.296481  1
