# generated using pymatgen
data_Sr11Tm9Sn16
_symmetry_space_group_name_H-M   'P 1'
_cell_length_a   8.07288721
_cell_length_b   8.63158775
_cell_length_c   16.40055300
_cell_angle_alpha   90.00805180
_cell_angle_beta   90.03142689
_cell_angle_gamma   90.23670441
_symmetry_Int_Tables_number   1
_chemical_formula_structural   Sr11Tm9Sn16
_chemical_formula_sum   'Sr11 Tm9 Sn16'
_cell_volume   1142.81068160
_cell_formula_units_Z   1
loop_
 _symmetry_equiv_pos_site_id
 _symmetry_equiv_pos_as_xyz
  1  'x, y, z'
loop_
 _atom_site_type_symbol
 _atom_site_label
 _atom_site_symmetry_multiplicity
 _atom_site_fract_x
 _atom_site_fract_y
 _atom_site_fract_z
 _atom_site_occupancy
  Sr  Sr0  1  0.178830  0.330289  0.619235  1
  Sr  Sr1  1  0.503198  0.681118  0.593913  1
  Sr  Sr2  1  0.002730  0.819791  0.910339  1
  Sr  Sr3  1  0.495457  0.318286  0.091571  1
  Sr  Sr4  1  0.995196  0.181873  0.404709  1
  Sr  Sr5  1  0.496334  0.317925  0.407168  1
  Sr  Sr6  1  0.994331  0.180422  0.093008  1
  Sr  Sr7  1  0.503923  0.681138  0.908695  1
  Sr  Sr8  1  0.004035  0.817306  0.591294  1
  Sr  Sr9  1  0.332066  0.988938  0.750562  1
  Sr  Sr10  1  0.167304  0.486212  0.248356  1
  Tm  Tm11  1  0.664127  0.006813  0.249968  1
  Tm  Tm12  1  0.674666  0.166053  0.622546  1
  Tm  Tm13  1  0.172316  0.333328  0.879390  1
  Tm  Tm14  1  0.326434  0.833557  0.122300  1
  Tm  Tm15  1  0.825581  0.665357  0.375934  1
  Tm  Tm16  1  0.328135  0.834035  0.375078  1
  Tm  Tm17  1  0.825643  0.666576  0.121632  1
  Tm  Tm18  1  0.671831  0.166265  0.880886  1
  Tm  Tm19  1  0.839300  0.507130  0.750196  1
  Sn  Sn20  1  0.669811  0.958551  0.455252  1
  Sn  Sn21  1  0.163107  0.541893  0.039208  1
  Sn  Sn22  1  0.335124  0.042147  0.962064  1
  Sn  Sn23  1  0.825203  0.464245  0.541070  1
  Sn  Sn24  1  0.348844  0.031710  0.535873  1
  Sn  Sn25  1  0.834910  0.461698  0.955866  1
  Sn  Sn26  1  0.663736  0.960199  0.044636  1
  Sn  Sn27  1  0.157682  0.549076  0.454915  1
  Sn  Sn28  1  0.484129  0.380096  0.757007  1
  Sn  Sn29  1  0.956941  0.138676  0.754558  1
  Sn  Sn30  1  0.537068  0.647586  0.248824  1
  Sn  Sn31  1  0.022861  0.873144  0.247969  1
  Sn  Sn32  1  0.726236  0.871198  0.751634  1
  Sn  Sn33  1  0.208249  0.613958  0.756385  1
  Sn  Sn34  1  0.293808  0.110339  0.248991  1
  Sn  Sn35  1  0.770850  0.373075  0.248970  1
