# generated using pymatgen
data_La11Pr8Si16Ag
_symmetry_space_group_name_H-M   'P 1'
_cell_length_a   7.99280210
_cell_length_b   7.99280300
_cell_length_c   15.40918700
_cell_angle_alpha   89.99081725
_cell_angle_beta   90.00918275
_cell_angle_gamma   89.95119885
_symmetry_Int_Tables_number   1
_chemical_formula_structural   La11Pr8Si16Ag
_chemical_formula_sum   'La11 Pr8 Si16 Ag1'
_cell_volume   984.41387479
_cell_formula_units_Z   1
loop_
 _symmetry_equiv_pos_site_id
 _symmetry_equiv_pos_as_xyz
  1  'x, y, z'
loop_
 _atom_site_type_symbol
 _atom_site_label
 _atom_site_symmetry_multiplicity
 _atom_site_fract_x
 _atom_site_fract_y
 _atom_site_fract_z
 _atom_site_occupancy
  La  La0  1  0.307048  0.307048  0.000000  1
  La  La1  1  0.189819  0.806731  0.250230  1
  La  La2  1  0.806731  0.189819  0.749770  1
  La  La3  1  0.386222  0.002061  0.450369  1
  La  La4  1  0.496021  0.877440  0.690078  1
  La  La5  1  0.511070  0.125183  0.201800  1
  La  La6  1  0.877440  0.496021  0.309922  1
  La  La7  1  0.125183  0.511070  0.798200  1
  La  La8  1  0.621296  0.987736  0.947663  1
  La  La9  1  0.002061  0.386222  0.549631  1
  La  La10  1  0.987736  0.621296  0.052337  1
  Pr  Pr11  1  0.129218  0.983005  0.874185  1
  Pr  Pr12  1  0.519562  0.624891  0.126256  1
  Pr  Pr13  1  0.491467  0.380282  0.623074  1
  Pr  Pr14  1  0.624891  0.519562  0.873744  1
  Pr  Pr15  1  0.380282  0.491467  0.376926  1
  Pr  Pr16  1  0.868362  0.005019  0.380395  1
  Pr  Pr17  1  0.983005  0.129218  0.125815  1
  Pr  Pr18  1  0.005019  0.868362  0.619605  1
  Si  Si19  1  0.198669  0.167305  0.695328  1
  Si  Si20  1  0.330669  0.697208  0.951791  1
  Si  Si21  1  0.662320  0.292543  0.447409  1
  Si  Si22  1  0.697208  0.330669  0.048209  1
  Si  Si23  1  0.292543  0.662320  0.552591  1
  Si  Si24  1  0.803369  0.831199  0.203201  1
  Si  Si25  1  0.167305  0.198669  0.304672  1
  Si  Si26  1  0.831199  0.803369  0.796799  1
  Si  Si27  1  0.288926  0.920529  0.059674  1
  Si  Si28  1  0.578834  0.789998  0.308507  1
  Si  Si29  1  0.417437  0.212559  0.805095  1
  Si  Si30  1  0.789998  0.578834  0.691493  1
  Si  Si31  1  0.212559  0.417437  0.194905  1
  Si  Si32  1  0.717226  0.093479  0.560901  1
  Si  Si33  1  0.920529  0.288926  0.940326  1
  Si  Si34  1  0.093479  0.717226  0.439099  1
  Ag  Ag35  1  0.685295  0.685295  0.500000  1
