# generated using pymatgen
data_Dy3LuAl24CoPt8
_symmetry_space_group_name_H-M   'P 1'
_cell_length_a   7.50106699
_cell_length_b   7.50035350
_cell_length_c   13.13536705
_cell_angle_alpha   84.42039732
_cell_angle_beta   79.02606786
_cell_angle_gamma   60.05129297
_symmetry_Int_Tables_number   1
_chemical_formula_structural   Dy3LuAl24CoPt8
_chemical_formula_sum   'Dy3 Lu1 Al24 Co1 Pt8'
_cell_volume   628.61588505
_cell_formula_units_Z   1
loop_
 _symmetry_equiv_pos_site_id
 _symmetry_equiv_pos_as_xyz
  1  'x, y, z'
loop_
 _atom_site_type_symbol
 _atom_site_label
 _atom_site_symmetry_multiplicity
 _atom_site_fract_x
 _atom_site_fract_y
 _atom_site_fract_z
 _atom_site_occupancy
  Dy  Dy0  1  0.396327  0.165289  0.809551  1
  Dy  Dy1  1  0.603649  0.834895  0.190572  1
  Dy  Dy2  1  0.730582  0.497666  0.809550  1
  Lu  Lu3  1  0.268850  0.502155  0.191514  1
  Al  Al4  1  0.692010  0.823893  0.947424  1
  Al  Al5  1  0.308002  0.176771  0.053397  1
  Al  Al6  1  0.146506  0.832194  0.561477  1
  Al  Al7  1  0.853639  0.167773  0.438145  1
  Al  Al8  1  0.480268  0.166947  0.558952  1
  Al  Al9  1  0.519721  0.833128  0.440695  1
  Al  Al10  1  0.216663  0.166722  0.326546  1
  Al  Al11  1  0.783525  0.833409  0.672669  1
  Al  Al12  1  0.435103  0.506921  0.672406  1
  Al  Al13  1  0.564887  0.493059  0.326824  1
  Al  Al14  1  0.109279  0.160033  0.670517  1
  Al  Al15  1  0.891177  0.839819  0.328689  1
  Al  Al16  1  0.343158  0.498305  0.948286  1
  Al  Al17  1  0.655523  0.501808  0.053192  1
  Al  Al18  1  0.014590  0.178891  0.956834  1
  Al  Al19  1  0.985884  0.820333  0.044248  1
  Al  Al20  1  0.186705  0.498975  0.440860  1
  Al  Al21  1  0.813432  0.501018  0.558812  1
  Al  Al22  1  0.735469  0.166125  0.182024  1
  Al  Al23  1  0.263793  0.834733  0.817960  1
  Al  Al24  1  0.059564  0.621485  0.822263  1
  Al  Al25  1  0.941531  0.378527  0.177739  1
  Al  Al26  1  0.857142  0.038827  0.817619  1
  Al  Al27  1  0.142649  0.960142  0.182282  1
  Co  Co28  1  0.999972  0.500182  0.000261  1
  Pt  Pt29  1  0.119762  0.492482  0.639413  1
  Pt  Pt30  1  0.880650  0.507733  0.360074  1
  Pt  Pt31  1  0.656914  0.171417  0.000001  1
  Pt  Pt32  1  0.343036  0.828532  0.000372  1
  Pt  Pt33  1  0.537230  0.167205  0.360584  1
  Pt  Pt34  1  0.462368  0.833215  0.638862  1
  Pt  Pt35  1  0.778619  0.175184  0.637623  1
  Pt  Pt36  1  0.221822  0.824208  0.361761  1
