# generated using pymatgen
data_Ho4LuGa2Bi
_symmetry_space_group_name_H-M   'P 1'
_cell_length_a   8.67405062
_cell_length_b   8.67405079
_cell_length_c   8.67405104
_cell_angle_alpha   125.06502554
_cell_angle_beta   125.06503288
_cell_angle_gamma   81.43035128
_symmetry_Int_Tables_number   1
_chemical_formula_structural   Ho4LuGa2Bi
_chemical_formula_sum   'Ho8 Lu2 Ga4 Bi2'
_cell_volume   420.95603792
_cell_formula_units_Z   2
loop_
 _symmetry_equiv_pos_site_id
 _symmetry_equiv_pos_as_xyz
  1  'x, y, z'
loop_
 _atom_site_type_symbol
 _atom_site_label
 _atom_site_symmetry_multiplicity
 _atom_site_fract_x
 _atom_site_fract_y
 _atom_site_fract_z
 _atom_site_occupancy
  Ho  Ho0  1  0.013835  0.513835  0.810187  1
  Ho  Ho1  1  0.703648  0.203648  0.189813  1
  Ho  Ho2  1  0.513835  0.703648  0.500000  1
  Ho  Ho3  1  0.203648  0.013835  0.500000  1
  Ho  Ho4  1  0.986165  0.486165  0.189813  1
  Ho  Ho5  1  0.296352  0.796352  0.810187  1
  Ho  Ho6  1  0.486165  0.296352  0.500000  1
  Ho  Ho7  1  0.796352  0.986165  0.500000  1
  Lu  Lu8  1  0.000000  0.000000  0.000000  1
  Lu  Lu9  1  0.500000  0.500000  0.000000  1
  Ga  Ga10  1  0.643834  0.143834  0.787669  1
  Ga  Ga11  1  0.356166  0.856166  0.212331  1
  Ga  Ga12  1  0.143834  0.356166  0.500000  1
  Ga  Ga13  1  0.856166  0.643834  0.500000  1
  Bi  Bi14  1  0.750000  0.750000  0.000000  1
  Bi  Bi15  1  0.250000  0.250000  0.000000  1
