# generated using pymatgen
data_Tb3YEr4(OsC2)4
_symmetry_space_group_name_H-M   'P 1'
_cell_length_a   5.13071100
_cell_length_b   6.45068097
_cell_length_c   9.75187547
_cell_angle_alpha   90.06298496
_cell_angle_beta   90.00000000
_cell_angle_gamma   90.00000000
_symmetry_Int_Tables_number   1
_chemical_formula_structural   Tb3YEr4(OsC2)4
_chemical_formula_sum   'Tb3 Y1 Er4 Os4 C8'
_cell_volume   322.75353010
_cell_formula_units_Z   1
loop_
 _symmetry_equiv_pos_site_id
 _symmetry_equiv_pos_as_xyz
  1  'x, y, z'
loop_
 _atom_site_type_symbol
 _atom_site_label
 _atom_site_symmetry_multiplicity
 _atom_site_fract_x
 _atom_site_fract_y
 _atom_site_fract_z
 _atom_site_occupancy
  Tb  Tb0  1  0.250000  0.526990  0.217462  1
  Tb  Tb1  1  0.750000  0.472990  0.782542  1
  Tb  Tb2  1  0.750000  0.973009  0.717528  1
  Y  Y3  1  0.250000  0.027431  0.282308  1
  Er  Er4  1  0.250000  0.680681  0.553115  1
  Er  Er5  1  0.750000  0.318962  0.446811  1
  Er  Er6  1  0.750000  0.819320  0.053184  1
  Er  Er7  1  0.250000  0.180928  0.946856  1
  Os  Os8  1  0.250000  0.725419  0.865799  1
  Os  Os9  1  0.750000  0.274615  0.134373  1
  Os  Os10  1  0.750000  0.774485  0.365693  1
  Os  Os11  1  0.250000  0.225319  0.634302  1
  C  C12  1  0.250000  0.460663  0.758479  1
  C  C13  1  0.750000  0.539502  0.241500  1
  C  C14  1  0.750000  0.039335  0.258592  1
  C  C15  1  0.250000  0.960650  0.741496  1
  C  C16  1  0.250000  0.828668  0.053072  1
  C  C17  1  0.750000  0.171238  0.947033  1
  C  C18  1  0.750000  0.671389  0.552894  1
  C  C19  1  0.250000  0.328406  0.446961  1
