# generated using pymatgen
data_TbYb3Y4(B6Os)4
_symmetry_space_group_name_H-M   'P 1'
_cell_length_a   3.65328300
_cell_length_b   9.17117889
_cell_length_c   11.56156901
_cell_angle_alpha   89.91353720
_cell_angle_beta   90.00000000
_cell_angle_gamma   90.00000000
_symmetry_Int_Tables_number   1
_chemical_formula_structural   TbYb3Y4(B6Os)4
_chemical_formula_sum   'Tb1 Yb3 Y4 B24 Os4'
_cell_volume   387.36891049
_cell_formula_units_Z   1
loop_
 _symmetry_equiv_pos_site_id
 _symmetry_equiv_pos_as_xyz
  1  'x, y, z'
loop_
 _atom_site_type_symbol
 _atom_site_label
 _atom_site_symmetry_multiplicity
 _atom_site_fract_x
 _atom_site_fract_y
 _atom_site_fract_z
 _atom_site_occupancy
  Tb  Tb0  1  0.000000  0.175769  0.914759  1
  Yb  Yb1  1  0.000000  0.324991  0.414340  1
  Yb  Yb2  1  0.000000  0.675045  0.585125  1
  Yb  Yb3  1  0.000000  0.823517  0.086447  1
  Y  Y4  1  0.000000  0.941061  0.367877  1
  Y  Y5  1  0.000000  0.057998  0.630354  1
  Y  Y6  1  0.000000  0.443117  0.132143  1
  Y  Y7  1  0.000000  0.558715  0.868713  1
  B  B8  1  0.500000  0.553089  0.433285  1
  B  B9  1  0.500000  0.446518  0.567341  1
  B  B10  1  0.500000  0.053326  0.067066  1
  B  B11  1  0.500000  0.945867  0.933444  1
  B  B12  1  0.500000  0.747381  0.417519  1
  B  B13  1  0.500000  0.252476  0.582264  1
  B  B14  1  0.500000  0.247999  0.082373  1
  B  B15  1  0.500000  0.752573  0.917963  1
  B  B16  1  0.500000  0.790057  0.264498  1
  B  B17  1  0.500000  0.209576  0.735253  1
  B  B18  1  0.500000  0.290383  0.234891  1
  B  B19  1  0.500000  0.710662  0.765059  1
  B  B20  1  0.500000  0.631484  0.186712  1
  B  B21  1  0.500000  0.368867  0.814039  1
  B  B22  1  0.500000  0.131323  0.313041  1
  B  B23  1  0.500000  0.868859  0.685835  1
  B  B24  1  0.500000  0.982957  0.210578  1
  B  B25  1  0.500000  0.016481  0.788548  1
  B  B26  1  0.500000  0.483845  0.289403  1
  B  B27  1  0.500000  0.516187  0.711234  1
  B  B28  1  0.500000  0.600399  0.028019  1
  B  B29  1  0.500000  0.399487  0.972252  1
  B  B30  1  0.500000  0.098106  0.472053  1
  B  B31  1  0.500000  0.901634  0.526834  1
  Os  Os32  1  0.000000  0.638059  0.321437  1
  Os  Os33  1  0.000000  0.360786  0.679903  1
  Os  Os34  1  0.000000  0.137923  0.178484  1
  Os  Os35  1  0.000000  0.863479  0.820917  1
