# generated using pymatgen
data_Pr7Y(HoBi)12
_symmetry_space_group_name_H-M   'P 1'
_cell_length_a   8.38841301
_cell_length_b   9.58554500
_cell_length_c   12.32849001
_cell_angle_alpha   90.00000000
_cell_angle_beta   89.99568400
_cell_angle_gamma   90.00000000
_symmetry_Int_Tables_number   1
_chemical_formula_structural   Pr7Y(HoBi)12
_chemical_formula_sum   'Pr7 Y1 Ho12 Bi12'
_cell_volume   991.30318515
_cell_formula_units_Z   1
loop_
 _symmetry_equiv_pos_site_id
 _symmetry_equiv_pos_as_xyz
  1  'x, y, z'
loop_
 _atom_site_type_symbol
 _atom_site_label
 _atom_site_symmetry_multiplicity
 _atom_site_fract_x
 _atom_site_fract_y
 _atom_site_fract_z
 _atom_site_occupancy
  Pr  Pr0  1  0.184285  0.750000  0.720998  1
  Pr  Pr1  1  0.685323  0.750000  0.778859  1
  Pr  Pr2  1  0.816983  0.250000  0.280101  1
  Pr  Pr3  1  0.315469  0.250000  0.221366  1
  Pr  Pr4  1  0.352389  0.750000  0.214594  1
  Pr  Pr5  1  0.852625  0.750000  0.285314  1
  Pr  Pr6  1  0.646950  0.250000  0.785100  1
  Y  Y7  1  0.147370  0.250000  0.715436  1
  Ho  Ho8  1  0.025262  0.750000  0.987558  1
  Ho  Ho9  1  0.524645  0.750000  0.512194  1
  Ho  Ho10  1  0.975374  0.250000  0.010118  1
  Ho  Ho11  1  0.474490  0.250000  0.488790  1
  Ho  Ho12  1  0.307019  0.436438  0.940666  1
  Ho  Ho13  1  0.807072  0.063263  0.558973  1
  Ho  Ho14  1  0.692939  0.936950  0.057584  1
  Ho  Ho15  1  0.192712  0.563383  0.442178  1
  Ho  Ho16  1  0.692939  0.563050  0.057584  1
  Ho  Ho17  1  0.192712  0.936617  0.442178  1
  Ho  Ho18  1  0.307019  0.063562  0.940666  1
  Ho  Ho19  1  0.807072  0.436737  0.558973  1
  Bi  Bi20  1  0.432805  0.006254  0.667945  1
  Bi  Bi21  1  0.938654  0.492840  0.829683  1
  Bi  Bi22  1  0.564096  0.504360  0.332567  1
  Bi  Bi23  1  0.064286  0.995844  0.167379  1
  Bi  Bi24  1  0.564096  0.995640  0.332567  1
  Bi  Bi25  1  0.064286  0.504156  0.167379  1
  Bi  Bi26  1  0.432805  0.493746  0.667945  1
  Bi  Bi27  1  0.938654  0.007160  0.829683  1
  Bi  Bi28  1  0.408107  0.750000  0.957846  1
  Bi  Bi29  1  0.907715  0.750000  0.542206  1
  Bi  Bi30  1  0.591399  0.250000  0.042267  1
  Bi  Bi31  1  0.092447  0.250000  0.463299  1
