# generated using pymatgen
data_Hf8Co11Si16Au
_symmetry_space_group_name_H-M   'P 1'
_cell_length_a   5.24554901
_cell_length_b   6.78929481
_cell_length_c   13.83907148
_cell_angle_alpha   89.97001190
_cell_angle_beta   90.00136729
_cell_angle_gamma   89.78301412
_symmetry_Int_Tables_number   1
_chemical_formula_structural   Hf8Co11Si16Au
_chemical_formula_sum   'Hf8 Co11 Si16 Au1'
_cell_volume   492.85525866
_cell_formula_units_Z   1
loop_
 _symmetry_equiv_pos_site_id
 _symmetry_equiv_pos_as_xyz
  1  'x, y, z'
loop_
 _atom_site_type_symbol
 _atom_site_label
 _atom_site_symmetry_multiplicity
 _atom_site_fract_x
 _atom_site_fract_y
 _atom_site_fract_z
 _atom_site_occupancy
  Hf  Hf0  1  0.234425  0.398385  0.153235  1
  Hf  Hf1  1  0.729724  0.101652  0.150913  1
  Hf  Hf2  1  0.270814  0.099430  0.642864  1
  Hf  Hf3  1  0.765527  0.400964  0.642800  1
  Hf  Hf4  1  0.230893  0.600516  0.355319  1
  Hf  Hf5  1  0.732728  0.898610  0.355020  1
  Hf  Hf6  1  0.263577  0.898932  0.850132  1
  Hf  Hf7  1  0.773524  0.602230  0.847790  1
  Co  Co8  1  0.506361  0.224237  0.481014  1
  Co  Co9  1  0.772943  0.999628  0.748868  1
  Co  Co10  1  0.491631  0.217005  0.982670  1
  Co  Co11  1  0.723333  0.500788  0.251444  1
  Co  Co12  1  0.494523  0.775453  0.518308  1
  Co  Co13  1  0.006191  0.275814  0.481307  1
  Co  Co14  1  0.005619  0.729942  0.018888  1
  Co  Co15  1  0.224727  0.998413  0.252331  1
  Co  Co16  1  0.278940  0.501878  0.749453  1
  Co  Co17  1  0.506126  0.775022  0.019994  1
  Co  Co18  1  0.994109  0.724288  0.518209  1
  Si  Si19  1  0.233116  0.008119  0.078815  1
  Si  Si20  1  0.718214  0.519936  0.431953  1
  Si  Si21  1  0.782975  0.019255  0.567217  1
  Si  Si22  1  0.481365  0.754959  0.190560  1
  Si  Si23  1  0.020197  0.253935  0.799815  1
  Si  Si24  1  0.516799  0.245383  0.811684  1
  Si  Si25  1  0.218139  0.980235  0.432112  1
  Si  Si26  1  0.301374  0.533608  0.929940  1
  Si  Si27  1  0.980744  0.745367  0.189001  1
  Si  Si28  1  0.706015  0.493582  0.076581  1
  Si  Si29  1  0.281357  0.480716  0.567438  1
  Si  Si30  1  0.481583  0.245514  0.314316  1
  Si  Si31  1  0.019825  0.746568  0.685365  1
  Si  Si32  1  0.762075  0.964556  0.925698  1
  Si  Si33  1  0.519016  0.754577  0.685902  1
  Si  Si34  1  0.980548  0.253813  0.314188  1
  Au  Au35  1  0.990941  0.276690  0.978854  1
