# generated using pymatgen
data_Pr4P4Ir3Rh
_symmetry_space_group_name_H-M   'P 1'
_cell_length_a   6.29582501
_cell_length_b   6.29582501
_cell_length_c   6.29582501
_cell_angle_alpha   90.00447758
_cell_angle_beta   89.99552242
_cell_angle_gamma   90.00447758
_symmetry_Int_Tables_number   1
_chemical_formula_structural   Pr4P4Ir3Rh
_chemical_formula_sum   'Pr4 P4 Ir3 Rh1'
_cell_volume   249.55021097
_cell_formula_units_Z   1
loop_
 _symmetry_equiv_pos_site_id
 _symmetry_equiv_pos_as_xyz
  1  'x, y, z'
loop_
 _atom_site_type_symbol
 _atom_site_label
 _atom_site_symmetry_multiplicity
 _atom_site_fract_x
 _atom_site_fract_y
 _atom_site_fract_z
 _atom_site_occupancy
  Pr  Pr0  1  0.091167  0.091717  0.091805  1
  Pr  Pr1  1  0.908884  0.591116  0.408883  1
  Pr  Pr2  1  0.408283  0.908196  0.591166  1
  Pr  Pr3  1  0.591804  0.408833  0.908284  1
  P  P4  1  0.320507  0.679160  0.179209  1
  P  P5  1  0.679208  0.179494  0.320840  1
  P  P6  1  0.179313  0.320688  0.679312  1
  P  P7  1  0.820840  0.820792  0.820507  1
  Ir  Ir8  1  0.418821  0.419005  0.418648  1
  Ir  Ir9  1  0.918647  0.081180  0.580996  1
  Ir  Ir10  1  0.080996  0.581353  0.918820  1
  Rh  Rh11  1  0.581532  0.918468  0.081532  1
