# generated using pymatgen
data_Y2Er13Tm(Ga3Co)2
_symmetry_space_group_name_H-M   'P 1'
_cell_length_a   9.93139909
_cell_length_b   9.93140007
_cell_length_c   6.89076002
_cell_angle_alpha   90.00415618
_cell_angle_beta   89.99584338
_cell_angle_gamma   120.00180261
_symmetry_Int_Tables_number   1
_chemical_formula_structural   Y2Er13Tm(Ga3Co)2
_chemical_formula_sum   'Y2 Er13 Tm1 Ga6 Co2'
_cell_volume   588.58715119
_cell_formula_units_Z   1
loop_
 _symmetry_equiv_pos_site_id
 _symmetry_equiv_pos_as_xyz
  1  'x, y, z'
loop_
 _atom_site_type_symbol
 _atom_site_label
 _atom_site_symmetry_multiplicity
 _atom_site_fract_x
 _atom_site_fract_y
 _atom_site_fract_z
 _atom_site_occupancy
  Y  Y0  1  0.000121  0.999879  0.269361  1
  Y  Y1  1  0.000066  0.999934  0.769857  1
  Er  Er2  1  0.826264  0.173736  0.490590  1
  Er  Er3  1  0.173729  0.347435  0.990528  1
  Er  Er4  1  0.652565  0.826271  0.990528  1
  Er  Er5  1  0.347460  0.173717  0.490520  1
  Er  Er6  1  0.826283  0.652540  0.490520  1
  Er  Er7  1  0.333228  0.666772  0.673155  1
  Er  Er8  1  0.666673  0.333327  0.172937  1
  Er  Er9  1  0.463490  0.536510  0.292958  1
  Er  Er10  1  0.536508  0.463492  0.793012  1
  Er  Er11  1  0.463274  0.926957  0.292717  1
  Er  Er12  1  0.073043  0.536726  0.292717  1
  Er  Er13  1  0.927217  0.463770  0.793104  1
  Er  Er14  1  0.536230  0.072783  0.793104  1
  Tm  Tm15  1  0.173768  0.826232  0.990504  1
  Ga  Ga16  1  0.163649  0.836351  0.541272  1
  Ga  Ga17  1  0.836341  0.163659  0.040759  1
  Ga  Ga18  1  0.163711  0.327378  0.540762  1
  Ga  Ga19  1  0.672622  0.836289  0.540762  1
  Ga  Ga20  1  0.326969  0.163042  0.040678  1
  Ga  Ga21  1  0.836958  0.673031  0.040678  1
  Co  Co22  1  0.333158  0.666842  0.057520  1
  Co  Co23  1  0.666674  0.333326  0.557576  1
