# generated using pymatgen
data_Nb2Zn(CoAs)3
_symmetry_space_group_name_H-M   'P 1'
_cell_length_a   7.01462214
_cell_length_b   7.01123387
_cell_length_c   7.01093600
_cell_angle_alpha   119.97822425
_cell_angle_beta   99.59973704
_cell_angle_gamma   99.60365822
_symmetry_Int_Tables_number   1
_chemical_formula_structural   Nb2Zn(CoAs)3
_chemical_formula_sum   'Nb4 Zn2 Co6 As6'
_cell_volume   281.57848300
_cell_formula_units_Z   2
loop_
 _symmetry_equiv_pos_site_id
 _symmetry_equiv_pos_as_xyz
  1  'x, y, z'
loop_
 _atom_site_type_symbol
 _atom_site_label
 _atom_site_symmetry_multiplicity
 _atom_site_fract_x
 _atom_site_fract_y
 _atom_site_fract_z
 _atom_site_occupancy
  Nb  Nb0  1  0.999573  0.499755  0.000564  1
  Nb  Nb1  1  0.499177  0.331263  0.165466  1
  Nb  Nb2  1  0.999244  0.165485  0.331272  1
  Nb  Nb3  1  0.499483  0.000511  0.499692  1
  Zn  Zn4  1  0.001754  0.836145  0.666812  1
  Zn  Zn5  1  0.501792  0.666842  0.836149  1
  Co  Co6  1  0.370395  0.622434  0.133878  1
  Co  Co7  1  0.870020  0.447472  0.281051  1
  Co  Co8  1  0.370036  0.281106  0.447527  1
  Co  Co9  1  0.870361  0.133928  0.622433  1
  Co  Co10  1  0.383706  0.971312  0.793101  1
  Co  Co11  1  0.883769  0.793127  0.971405  1
  As  As12  1  0.252637  0.911365  0.072990  1
  As  As13  1  0.748497  0.749592  0.251286  1
  As  As14  1  0.249209  0.588180  0.427226  1
  As  As15  1  0.749196  0.427240  0.588200  1
  As  As16  1  0.248511  0.251272  0.749593  1
  As  As17  1  0.752642  0.072965  0.911351  1
