# generated using pymatgen
data_Th4CoSi12Ni19
_symmetry_space_group_name_H-M   'P 1'
_cell_length_a   3.87982400
_cell_length_b   6.63130983
_cell_length_c   19.02252602
_cell_angle_alpha   90.11975129
_cell_angle_beta   90.00000000
_cell_angle_gamma   90.00000000
_symmetry_Int_Tables_number   1
_chemical_formula_structural   Th4CoSi12Ni19
_chemical_formula_sum   'Th4 Co1 Si12 Ni19'
_cell_volume   489.41647343
_cell_formula_units_Z   1
loop_
 _symmetry_equiv_pos_site_id
 _symmetry_equiv_pos_as_xyz
  1  'x, y, z'
loop_
 _atom_site_type_symbol
 _atom_site_label
 _atom_site_symmetry_multiplicity
 _atom_site_fract_x
 _atom_site_fract_y
 _atom_site_fract_z
 _atom_site_occupancy
  Th  Th0  1  0.250000  0.874685  0.356006  1
  Th  Th1  1  0.750000  0.124090  0.643831  1
  Th  Th2  1  0.750000  0.373787  0.144561  1
  Th  Th3  1  0.250000  0.624454  0.856072  1
  Co  Co4  1  0.250000  0.071756  0.205984  1
  Si  Si5  1  0.250000  0.070755  0.086463  1
  Si  Si6  1  0.750000  0.930877  0.913257  1
  Si  Si7  1  0.750000  0.567018  0.413414  1
  Si  Si8  1  0.250000  0.431097  0.587043  1
  Si  Si9  1  0.250000  0.661745  0.071534  1
  Si  Si10  1  0.750000  0.341905  0.929670  1
  Si  Si11  1  0.750000  0.160176  0.429152  1
  Si  Si12  1  0.250000  0.839940  0.570180  1
  Si  Si13  1  0.250000  0.377821  0.265534  1
  Si  Si14  1  0.750000  0.616539  0.732798  1
  Si  Si15  1  0.750000  0.885063  0.233738  1
  Si  Si16  1  0.250000  0.116988  0.766942  1
  Ni  Ni17  1  0.750000  0.924425  0.792145  1
  Ni  Ni18  1  0.750000  0.574991  0.292578  1
  Ni  Ni19  1  0.250000  0.423990  0.708228  1
  Ni  Ni20  1  0.250000  0.606915  0.482451  1
  Ni  Ni21  1  0.750000  0.391732  0.517679  1
  Ni  Ni22  1  0.750000  0.109946  0.016932  1
  Ni  Ni23  1  0.250000  0.892609  0.982726  1
  Ni  Ni24  1  0.250000  0.685048  0.198672  1
  Ni  Ni25  1  0.750000  0.312036  0.802444  1
  Ni  Ni26  1  0.750000  0.187090  0.301363  1
  Ni  Ni27  1  0.250000  0.811490  0.697725  1
  Ni  Ni28  1  0.250000  0.348872  0.385482  1
  Ni  Ni29  1  0.750000  0.651661  0.613175  1
  Ni  Ni30  1  0.750000  0.855390  0.114847  1
  Ni  Ni31  1  0.250000  0.151110  0.886747  1
  Ni  Ni32  1  0.250000  0.362686  0.006516  1
  Ni  Ni33  1  0.750000  0.641079  0.994630  1
  Ni  Ni34  1  0.750000  0.861100  0.493045  1
  Ni  Ni35  1  0.250000  0.139133  0.506438  1
