# generated using pymatgen
data_Pr3In3Cu2Ir
_symmetry_space_group_name_H-M   'P 1'
_cell_length_a   7.70101800
_cell_length_b   7.70101881
_cell_length_c   4.08621700
_cell_angle_alpha   90.00000000
_cell_angle_beta   90.00000000
_cell_angle_gamma   120.00001372
_symmetry_Int_Tables_number   1
_chemical_formula_structural   Pr3In3Cu2Ir
_chemical_formula_sum   'Pr3 In3 Cu2 Ir1'
_cell_volume   209.86901318
_cell_formula_units_Z   1
loop_
 _symmetry_equiv_pos_site_id
 _symmetry_equiv_pos_as_xyz
  1  'x, y, z'
loop_
 _atom_site_type_symbol
 _atom_site_label
 _atom_site_symmetry_multiplicity
 _atom_site_fract_x
 _atom_site_fract_y
 _atom_site_fract_z
 _atom_site_occupancy
  Pr  Pr0  1  0.420239  0.407162  0.500000  1
  Pr  Pr1  1  0.592838  0.013077  0.500000  1
  Pr  Pr2  1  0.986923  0.579761  0.500000  1
  In  In3  1  0.752389  0.754395  0.000000  1
  In  In4  1  0.245605  0.997994  0.000000  1
  In  In5  1  0.002006  0.247611  0.000000  1
  Cu  Cu6  1  0.333333  0.666667  0.000000  1
  Cu  Cu7  1  0.000000  0.000000  0.500000  1
  Ir  Ir8  1  0.666667  0.333333  0.000000  1
