# generated using pymatgen
data_Tm8Ga3Rh
_symmetry_space_group_name_H-M   'P 1'
_cell_length_a   9.94461900
_cell_length_b   9.94461866
_cell_length_c   6.88353900
_cell_angle_alpha   90.00000000
_cell_angle_beta   90.00000000
_cell_angle_gamma   120.00000447
_symmetry_Int_Tables_number   1
_chemical_formula_structural   Tm8Ga3Rh
_chemical_formula_sum   'Tm16 Ga6 Rh2'
_cell_volume   589.54732414
_cell_formula_units_Z   2
loop_
 _symmetry_equiv_pos_site_id
 _symmetry_equiv_pos_as_xyz
  1  'x, y, z'
loop_
 _atom_site_type_symbol
 _atom_site_label
 _atom_site_symmetry_multiplicity
 _atom_site_fract_x
 _atom_site_fract_y
 _atom_site_fract_z
 _atom_site_occupancy
  Tm  Tm0  1  0.171253  0.828747  0.989241  1
  Tm  Tm1  1  0.342504  0.171253  0.489241  1
  Tm  Tm2  1  0.828747  0.657496  0.489241  1
  Tm  Tm3  1  0.171253  0.342504  0.989241  1
  Tm  Tm4  1  0.657496  0.828747  0.989241  1
  Tm  Tm5  1  0.828747  0.171253  0.489241  1
  Tm  Tm6  1  0.333333  0.666667  0.664182  1
  Tm  Tm7  1  0.666667  0.333333  0.164182  1
  Tm  Tm8  1  0.465742  0.534258  0.295100  1
  Tm  Tm9  1  0.931484  0.465742  0.795100  1
  Tm  Tm10  1  0.534258  0.068516  0.795100  1
  Tm  Tm11  1  0.465742  0.931484  0.295100  1
  Tm  Tm12  1  0.068516  0.534258  0.295100  1
  Tm  Tm13  1  0.534258  0.465742  0.795100  1
  Tm  Tm14  1  0.000000  0.000000  0.266938  1
  Tm  Tm15  1  0.000000  0.000000  0.766938  1
  Ga  Ga16  1  0.163308  0.836692  0.540538  1
  Ga  Ga17  1  0.326616  0.163308  0.040538  1
  Ga  Ga18  1  0.836692  0.673384  0.040538  1
  Ga  Ga19  1  0.163308  0.326616  0.540538  1
  Ga  Ga20  1  0.673384  0.836692  0.540538  1
  Ga  Ga21  1  0.836692  0.163308  0.040538  1
  Rh  Rh22  1  0.333333  0.666667  0.056246  1
  Rh  Rh23  1  0.666667  0.333333  0.556246  1
