# generated using pymatgen
data_Er16Mg2CdInPdPt3
_symmetry_space_group_name_H-M   'P 1'
_cell_length_a   9.64449686
_cell_length_b   9.65016747
_cell_length_c   9.65657400
_cell_angle_alpha   59.97803669
_cell_angle_beta   59.95856786
_cell_angle_gamma   59.88637411
_symmetry_Int_Tables_number   1
_chemical_formula_structural   Er16Mg2CdInPdPt3
_chemical_formula_sum   'Er16 Mg2 Cd1 In1 Pd1 Pt3'
_cell_volume   634.65873646
_cell_formula_units_Z   1
loop_
 _symmetry_equiv_pos_site_id
 _symmetry_equiv_pos_as_xyz
  1  'x, y, z'
loop_
 _atom_site_type_symbol
 _atom_site_label
 _atom_site_symmetry_multiplicity
 _atom_site_fract_x
 _atom_site_fract_y
 _atom_site_fract_z
 _atom_site_occupancy
  Er  Er0  1  0.350121  0.352655  0.349679  1
  Er  Er1  1  0.350121  0.352655  0.947544  1
  Er  Er2  1  0.350612  0.944693  0.352346  1
  Er  Er3  1  0.944074  0.351103  0.352410  1
  Er  Er4  1  0.811951  0.190856  0.188960  1
  Er  Er5  1  0.190629  0.811499  0.810478  1
  Er  Er6  1  0.190629  0.811499  0.187394  1
  Er  Er7  1  0.811951  0.190856  0.808233  1
  Er  Er8  1  0.193130  0.193338  0.806767  1
  Er  Er9  1  0.812671  0.811190  0.188070  1
  Er  Er10  1  0.937295  0.564195  0.564171  1
  Er  Er11  1  0.564987  0.934797  0.934505  1
  Er  Er12  1  0.564987  0.934797  0.565711  1
  Er  Er13  1  0.937295  0.564195  0.934338  1
  Er  Er14  1  0.568418  0.567839  0.931871  1
  Er  Er15  1  0.939294  0.933461  0.563622  1
  Mg  Mg16  1  0.574956  0.577772  0.581480  1
  Mg  Mg17  1  0.574956  0.577772  0.265794  1
  Cd  Cd18  1  0.251336  0.583636  0.582513  1
  In  In19  1  0.582190  0.251668  0.583070  1
  Pd  Pd20  1  0.571249  0.142320  0.143215  1
  Pt  Pt21  1  0.143424  0.142878  0.143666  1
  Pt  Pt22  1  0.143424  0.142878  0.570034  1
  Pt  Pt23  1  0.140303  0.571444  0.144127  1
