# generated using pymatgen
data_Tb6Y2Hf3Si16W9
_symmetry_space_group_name_H-M   'P 1'
_cell_length_a   6.97614237
_cell_length_b   6.97686959
_cell_length_c   12.94221608
_cell_angle_alpha   89.98030220
_cell_angle_beta   90.03792352
_cell_angle_gamma   89.89912481
_symmetry_Int_Tables_number   1
_chemical_formula_structural   Tb6Y2Hf3Si16W9
_chemical_formula_sum   'Tb6 Y2 Hf3 Si16 W9'
_cell_volume   629.91767310
_cell_formula_units_Z   1
loop_
 _symmetry_equiv_pos_site_id
 _symmetry_equiv_pos_as_xyz
  1  'x, y, z'
loop_
 _atom_site_type_symbol
 _atom_site_label
 _atom_site_symmetry_multiplicity
 _atom_site_fract_x
 _atom_site_fract_y
 _atom_site_fract_z
 _atom_site_occupancy
  Tb  Tb0  1  0.162245  0.498014  0.468574  1
  Tb  Tb1  1  0.500192  0.839169  0.030827  1
  Tb  Tb2  1  0.839131  0.500145  0.969144  1
  Tb  Tb3  1  0.498033  0.162241  0.531382  1
  Tb  Tb4  1  0.336339  0.001006  0.783096  1
  Tb  Tb5  1  0.662769  0.003678  0.279612  1
  Y  Y6  1  0.001031  0.336389  0.216912  1
  Y  Y7  1  0.003594  0.662708  0.720429  1
  Hf  Hf8  1  0.832625  0.832635  0.500009  1
  Hf  Hf9  1  0.331007  0.667492  0.247737  1
  Hf  Hf10  1  0.667406  0.330827  0.752273  1
  Si  Si11  1  0.372812  0.294931  0.317437  1
  Si  Si12  1  0.625603  0.706916  0.817524  1
  Si  Si13  1  0.205060  0.873575  0.568146  1
  Si  Si14  1  0.124547  0.802061  0.933651  1
  Si  Si15  1  0.802141  0.124615  0.066347  1
  Si  Si16  1  0.873686  0.205121  0.431886  1
  Si  Si17  1  0.294839  0.373059  0.682510  1
  Si  Si18  1  0.706897  0.625330  0.182419  1
  Si  Si19  1  0.289222  0.043758  0.184238  1
  Si  Si20  1  0.708314  0.959512  0.688583  1
  Si  Si21  1  0.458436  0.790944  0.437575  1
  Si  Si22  1  0.210312  0.532080  0.059224  1
  Si  Si23  1  0.532166  0.210327  0.940778  1
  Si  Si24  1  0.790928  0.458483  0.562438  1
  Si  Si25  1  0.043682  0.289455  0.815681  1
  Si  Si26  1  0.959558  0.708118  0.311379  1
  W  W27  1  0.166385  0.166308  0.000080  1
  W  W28  1  0.162053  0.994856  0.375018  1
  W  W29  1  0.833609  0.005701  0.876883  1
  W  W30  1  0.506056  0.661724  0.626714  1
  W  W31  1  0.340147  0.497112  0.873703  1
  W  W32  1  0.496943  0.340174  0.126323  1
  W  W33  1  0.661843  0.505923  0.373266  1
  W  W34  1  0.994928  0.162062  0.625020  1
  W  W35  1  0.005464  0.833553  0.123182  1
