# generated using pymatgen
data_Th5Sn2BiSe
_symmetry_space_group_name_H-M   'P 1'
_cell_length_a   9.55554900
_cell_length_b   9.54025694
_cell_length_c   6.67220800
_cell_angle_alpha   90.00000000
_cell_angle_beta   90.00000000
_cell_angle_gamma   120.05303416
_symmetry_Int_Tables_number   1
_chemical_formula_structural   Th5Sn2BiSe
_chemical_formula_sum   'Th10 Sn4 Bi2 Se2'
_cell_volume   526.48206979
_cell_formula_units_Z   2
loop_
 _symmetry_equiv_pos_site_id
 _symmetry_equiv_pos_as_xyz
  1  'x, y, z'
loop_
 _atom_site_type_symbol
 _atom_site_label
 _atom_site_symmetry_multiplicity
 _atom_site_fract_x
 _atom_site_fract_y
 _atom_site_fract_z
 _atom_site_occupancy
  Th  Th0  1  0.004079  0.738565  0.750000  1
  Th  Th1  1  0.265514  0.261435  0.750000  1
  Th  Th2  1  0.333995  0.669445  0.494803  1
  Th  Th3  1  0.664550  0.330555  0.494803  1
  Th  Th4  1  0.736200  0.736446  0.250000  1
  Th  Th5  1  0.732338  0.000000  0.750000  1
  Th  Th6  1  0.999754  0.263554  0.250000  1
  Th  Th7  1  0.265466  0.000000  0.250000  1
  Th  Th8  1  0.333995  0.669445  0.005197  1
  Th  Th9  1  0.664550  0.330555  0.005197  1
  Sn  Sn10  1  0.389070  0.000000  0.750000  1
  Sn  Sn11  1  0.612289  0.000000  0.250000  1
  Sn  Sn12  1  0.387041  0.386730  0.250000  1
  Sn  Sn13  1  0.000311  0.613270  0.250000  1
  Bi  Bi14  1  0.611728  0.611369  0.750000  1
  Bi  Bi15  1  0.000359  0.388631  0.750000  1
  Se  Se16  1  0.999379  0.000000  0.999453  1
  Se  Se17  1  0.999379  0.000000  0.500547  1
