# generated using pymatgen
data_Yb3DyBi3
_symmetry_space_group_name_H-M   'P 1'
_cell_length_a   8.18147970
_cell_length_b   8.36930890
_cell_length_c   8.36930873
_cell_angle_alpha   109.92137157
_cell_angle_beta   109.01722816
_cell_angle_gamma   109.01722972
_symmetry_Int_Tables_number   1
_chemical_formula_structural   Yb3DyBi3
_chemical_formula_sum   'Yb6 Dy2 Bi6'
_cell_volume   443.60029812
_cell_formula_units_Z   2
loop_
 _symmetry_equiv_pos_site_id
 _symmetry_equiv_pos_as_xyz
  1  'x, y, z'
loop_
 _atom_site_type_symbol
 _atom_site_label
 _atom_site_symmetry_multiplicity
 _atom_site_fract_x
 _atom_site_fract_y
 _atom_site_fract_z
 _atom_site_occupancy
  Yb  Yb0  1  0.500825  0.999107  0.647351  1
  Yb  Yb1  1  0.353474  0.351756  0.352649  1
  Yb  Yb2  1  0.501719  0.000893  0.148244  1
  Yb  Yb3  1  0.001719  0.648244  0.500893  1
  Yb  Yb4  1  0.853474  0.852649  0.851756  1
  Yb  Yb5  1  0.000825  0.147351  0.499107  1
  Dy  Dy6  1  0.142111  0.500000  0.000000  1
  Dy  Dy7  1  0.642111  0.500000  0.000000  1
  Bi  Bi8  1  0.376910  0.622935  0.755923  1
  Bi  Bi9  1  0.876910  0.255923  0.122935  1
  Bi  Bi10  1  0.620986  0.744077  0.367011  1
  Bi  Bi11  1  0.120986  0.867011  0.244077  1
  Bi  Bi12  1  0.253975  0.132989  0.877065  1
  Bi  Bi13  1  0.753975  0.377065  0.632989  1
