# generated using pymatgen
data_Eu5IrPt2
_symmetry_space_group_name_H-M   'P 1'
_cell_length_a   11.47154800
_cell_length_b   11.47154800
_cell_length_c   6.61337000
_cell_angle_alpha   90.00000000
_cell_angle_beta   90.00000000
_cell_angle_gamma   90.00000000
_symmetry_Int_Tables_number   1
_chemical_formula_structural   Eu5IrPt2
_chemical_formula_sum   'Eu20 Ir4 Pt8'
_cell_volume   870.29577326
_cell_formula_units_Z   4
loop_
 _symmetry_equiv_pos_site_id
 _symmetry_equiv_pos_as_xyz
  1  'x, y, z'
loop_
 _atom_site_type_symbol
 _atom_site_label
 _atom_site_symmetry_multiplicity
 _atom_site_fract_x
 _atom_site_fract_y
 _atom_site_fract_z
 _atom_site_occupancy
  Eu  Eu0  1  0.295213  0.086587  0.375041  1
  Eu  Eu1  1  0.295213  0.913413  0.875041  1
  Eu  Eu2  1  0.704787  0.086587  0.875041  1
  Eu  Eu3  1  0.704787  0.913413  0.375041  1
  Eu  Eu4  1  0.586587  0.795213  0.875041  1
  Eu  Eu5  1  0.586587  0.204787  0.375041  1
  Eu  Eu6  1  0.413413  0.795213  0.375041  1
  Eu  Eu7  1  0.413413  0.204787  0.875041  1
  Eu  Eu8  1  0.204787  0.413413  0.624959  1
  Eu  Eu9  1  0.204787  0.586587  0.124959  1
  Eu  Eu10  1  0.795213  0.413413  0.124959  1
  Eu  Eu11  1  0.795213  0.586587  0.624959  1
  Eu  Eu12  1  0.913413  0.704787  0.124959  1
  Eu  Eu13  1  0.913413  0.295213  0.624959  1
  Eu  Eu14  1  0.086587  0.704787  0.624959  1
  Eu  Eu15  1  0.086587  0.295213  0.124959  1
  Eu  Eu16  1  0.000000  0.000000  0.500000  1
  Eu  Eu17  1  0.000000  0.000000  0.000000  1
  Eu  Eu18  1  0.500000  0.500000  0.000000  1
  Eu  Eu19  1  0.500000  0.500000  0.500000  1
  Ir  Ir20  1  0.500000  0.000000  0.120519  1
  Ir  Ir21  1  0.500000  0.000000  0.620519  1
  Ir  Ir22  1  0.000000  0.500000  0.879481  1
  Ir  Ir23  1  0.000000  0.500000  0.379481  1
  Pt  Pt24  1  0.846280  0.153720  0.250000  1
  Pt  Pt25  1  0.846280  0.846280  0.750000  1
  Pt  Pt26  1  0.153720  0.153720  0.750000  1
  Pt  Pt27  1  0.153720  0.846280  0.250000  1
  Pt  Pt28  1  0.653720  0.346280  0.750000  1
  Pt  Pt29  1  0.653720  0.653720  0.250000  1
  Pt  Pt30  1  0.346280  0.346280  0.250000  1
  Pt  Pt31  1  0.346280  0.653720  0.750000  1
