# generated using pymatgen
data_Y5Co2Pd
_symmetry_space_group_name_H-M   'P 1'
_cell_length_a   8.77843882
_cell_length_b   8.77844037
_cell_length_c   8.77843910
_cell_angle_alpha   131.12289114
_cell_angle_beta   131.12288620
_cell_angle_gamma   71.61790683
_symmetry_Int_Tables_number   1
_chemical_formula_structural   Y5Co2Pd
_chemical_formula_sum   'Y10 Co4 Pd2'
_cell_volume   375.59956327
_cell_formula_units_Z   2
loop_
 _symmetry_equiv_pos_site_id
 _symmetry_equiv_pos_as_xyz
  1  'x, y, z'
loop_
 _atom_site_type_symbol
 _atom_site_label
 _atom_site_symmetry_multiplicity
 _atom_site_fract_x
 _atom_site_fract_y
 _atom_site_fract_z
 _atom_site_occupancy
  Y  Y0  1  0.000000  0.000000  0.000000  1
  Y  Y1  1  0.500000  0.500000  0.000000  1
  Y  Y2  1  0.813256  0.313256  0.846845  1
  Y  Y3  1  0.186744  0.686744  0.153155  1
  Y  Y4  1  0.466412  0.966412  0.153155  1
  Y  Y5  1  0.313256  0.466412  0.500000  1
  Y  Y6  1  0.033588  0.186744  0.500000  1
  Y  Y7  1  0.533588  0.033588  0.846845  1
  Y  Y8  1  0.686744  0.533588  0.500000  1
  Y  Y9  1  0.966412  0.813256  0.500000  1
  Co  Co10  1  0.112132  0.612132  0.724264  1
  Co  Co11  1  0.887868  0.387868  0.275736  1
  Co  Co12  1  0.612132  0.887868  0.500000  1
  Co  Co13  1  0.387868  0.112132  0.500000  1
  Pd  Pd14  1  0.250000  0.250000  0.000000  1
  Pd  Pd15  1  0.750000  0.750000  0.000000  1
