# generated using pymatgen
data_Rh2PbF9
_symmetry_space_group_name_H-M   'P 1'
_cell_length_a   5.22202600
_cell_length_b   5.22183876
_cell_length_c   7.69135300
_cell_angle_alpha   90.00092173
_cell_angle_beta   90.00078156
_cell_angle_gamma   119.99910071
_symmetry_Int_Tables_number   1
_chemical_formula_structural   Rh2PbF9
_chemical_formula_sum   'Rh2 Pb1 F9'
_cell_volume   181.63510876
_cell_formula_units_Z   1
loop_
 _symmetry_equiv_pos_site_id
 _symmetry_equiv_pos_as_xyz
  1  'x, y, z'
loop_
 _atom_site_type_symbol
 _atom_site_label
 _atom_site_symmetry_multiplicity
 _atom_site_fract_x
 _atom_site_fract_y
 _atom_site_fract_z
 _atom_site_occupancy
  Rh  Rh0  1  0.666655  0.333334  0.359295  1
  Rh  Rh1  1  0.333346  0.666690  0.640904  1
  Pb  Pb2  1  0.999970  0.999909  0.999797  1
  F  F3  1  0.369353  0.336332  0.207235  1
  F  F4  1  0.966982  0.630676  0.207268  1
  F  F5  1  0.663711  0.032999  0.207272  1
  F  F6  1  0.000059  0.342461  0.500029  1
  F  F7  1  0.657525  0.657619  0.500017  1
  F  F8  1  0.342419  0.999987  0.500032  1
  F  F9  1  0.336306  0.369364  0.792707  1
  F  F10  1  0.033077  0.663706  0.792712  1
  F  F11  1  0.630602  0.966930  0.792735  1
