# generated using pymatgen
data_Tb13Sm3(ErSn4)4
_symmetry_space_group_name_H-M   'P 1'
_cell_length_a   8.05361075
_cell_length_b   8.20622525
_cell_length_c   15.52345729
_cell_angle_alpha   90.00599769
_cell_angle_beta   90.19555926
_cell_angle_gamma   89.89481814
_symmetry_Int_Tables_number   1
_chemical_formula_structural   Tb13Sm3(ErSn4)4
_chemical_formula_sum   'Tb13 Sm3 Er4 Sn16'
_cell_volume   1025.93360702
_cell_formula_units_Z   1
loop_
 _symmetry_equiv_pos_site_id
 _symmetry_equiv_pos_as_xyz
  1  'x, y, z'
loop_
 _atom_site_type_symbol
 _atom_site_label
 _atom_site_symmetry_multiplicity
 _atom_site_fract_x
 _atom_site_fract_y
 _atom_site_fract_z
 _atom_site_occupancy
  Tb  Tb0  1  0.366205  0.836733  0.877913  1
  Tb  Tb1  1  0.864415  0.663556  0.622520  1
  Tb  Tb2  1  0.635391  0.162858  0.376498  1
  Tb  Tb3  1  0.133819  0.337152  0.122049  1
  Tb  Tb4  1  0.633409  0.162984  0.122524  1
  Tb  Tb5  1  0.134614  0.337055  0.376943  1
  Tb  Tb6  1  0.366024  0.836990  0.622880  1
  Tb  Tb7  1  0.867962  0.662701  0.877959  1
  Tb  Tb8  1  0.521673  0.321947  0.902086  1
  Tb  Tb9  1  0.020033  0.179291  0.597679  1
  Tb  Tb10  1  0.480835  0.678998  0.402527  1
  Tb  Tb11  1  0.979402  0.820077  0.098119  1
  Tb  Tb12  1  0.479614  0.678144  0.096716  1
  Sm  Sm13  1  0.982897  0.821151  0.403177  1
  Sm  Sm14  1  0.516495  0.321413  0.595825  1
  Sm  Sm15  1  0.017355  0.178756  0.904478  1
  Er  Er16  1  0.197986  0.502974  0.750411  1
  Er  Er17  1  0.697770  0.997174  0.750370  1
  Er  Er18  1  0.802150  0.497358  0.249288  1
  Er  Er19  1  0.302350  0.002593  0.249521  1
  Sn  Sn20  1  0.294904  0.034451  0.043248  1
  Sn  Sn21  1  0.795865  0.462634  0.457327  1
  Sn  Sn22  1  0.704599  0.964099  0.542387  1
  Sn  Sn23  1  0.208150  0.537214  0.958327  1
  Sn  Sn24  1  0.703212  0.959581  0.959328  1
  Sn  Sn25  1  0.202027  0.540873  0.540804  1
  Sn  Sn26  1  0.297964  0.039869  0.458719  1
  Sn  Sn27  1  0.793219  0.462853  0.041863  1
  Sn  Sn28  1  0.563750  0.618743  0.750700  1
  Sn  Sn29  1  0.063401  0.881018  0.750013  1
  Sn  Sn30  1  0.436711  0.381756  0.249726  1
  Sn  Sn31  1  0.936813  0.118679  0.249418  1
  Sn  Sn32  1  0.328065  0.147692  0.750820  1
  Sn  Sn33  1  0.828424  0.352395  0.749435  1
  Sn  Sn34  1  0.669609  0.850619  0.249310  1
  Sn  Sn35  1  0.172890  0.647617  0.249102  1
