# generated using pymatgen
data_Rb2Cu(BrF)2
_symmetry_space_group_name_H-M   'P 1'
_cell_length_a   8.68885016
_cell_length_b   8.68885083
_cell_length_c   6.82616700
_cell_angle_alpha   89.99944324
_cell_angle_beta   89.99944461
_cell_angle_gamma   133.76263277
_symmetry_Int_Tables_number   1
_chemical_formula_structural   Rb2Cu(BrF)2
_chemical_formula_sum   'Rb4 Cu2 Br4 F4'
_cell_volume   372.19106566
_cell_formula_units_Z   2
loop_
 _symmetry_equiv_pos_site_id
 _symmetry_equiv_pos_as_xyz
  1  'x, y, z'
loop_
 _atom_site_type_symbol
 _atom_site_label
 _atom_site_symmetry_multiplicity
 _atom_site_fract_x
 _atom_site_fract_y
 _atom_site_fract_z
 _atom_site_occupancy
  Rb  Rb0  1  0.117667  0.882333  0.500000  1
  Rb  Rb1  1  0.617667  0.382333  0.000000  1
  Rb  Rb2  1  0.882333  0.117667  0.500000  1
  Rb  Rb3  1  0.382333  0.617667  0.000000  1
  Cu  Cu4  1  0.000000  0.000000  0.000000  1
  Cu  Cu5  1  0.500000  0.500000  0.500000  1
  Br  Br6  1  0.155939  0.844061  0.000000  1
  Br  Br7  1  0.844061  0.155939  0.000000  1
  Br  Br8  1  0.655940  0.344060  0.500000  1
  Br  Br9  1  0.344060  0.655940  0.500000  1
  F  F10  1  0.196570  0.196570  0.196666  1
  F  F11  1  0.803430  0.803430  0.803334  1
  F  F12  1  0.696572  0.696572  0.303332  1
  F  F13  1  0.303428  0.303428  0.696668  1
