# generated using pymatgen
data_KGa3Sn
_symmetry_space_group_name_H-M   'P 1'
_cell_length_a   6.61085813
_cell_length_b   6.61085887
_cell_length_c   6.61085852
_cell_angle_alpha   138.50392376
_cell_angle_beta   138.50392589
_cell_angle_gamma   60.13208258
_symmetry_Int_Tables_number   1
_chemical_formula_structural   KGa3Sn
_chemical_formula_sum   'K1 Ga3 Sn1'
_cell_volume   125.52106581
_cell_formula_units_Z   1
loop_
 _symmetry_equiv_pos_site_id
 _symmetry_equiv_pos_as_xyz
  1  'x, y, z'
loop_
 _atom_site_type_symbol
 _atom_site_label
 _atom_site_symmetry_multiplicity
 _atom_site_fract_x
 _atom_site_fract_y
 _atom_site_fract_z
 _atom_site_occupancy
  K  K0  1  0.997537  0.997537  0.000000  1
  Ga  Ga1  1  0.371682  0.371682  0.000000  1
  Ga  Ga2  1  0.757827  0.257827  0.500000  1
  Ga  Ga3  1  0.257827  0.757827  0.500000  1
  Sn  Sn4  1  0.615126  0.615126  0.000000  1
