# generated using pymatgen
data_LuZr5(Ti2Sn3)2
_symmetry_space_group_name_H-M   'P 1'
_cell_length_a   8.35501200
_cell_length_b   8.40593048
_cell_length_c   5.63696100
_cell_angle_alpha   90.00000000
_cell_angle_beta   90.00000000
_cell_angle_gamma   119.79982274
_symmetry_Int_Tables_number   1
_chemical_formula_structural   LuZr5(Ti2Sn3)2
_chemical_formula_sum   'Lu1 Zr5 Ti4 Sn6'
_cell_volume   343.54294005
_cell_formula_units_Z   1
loop_
 _symmetry_equiv_pos_site_id
 _symmetry_equiv_pos_as_xyz
  1  'x, y, z'
loop_
 _atom_site_type_symbol
 _atom_site_label
 _atom_site_symmetry_multiplicity
 _atom_site_fract_x
 _atom_site_fract_y
 _atom_site_fract_z
 _atom_site_occupancy
  Lu  Lu0  1  0.235197  0.000000  0.250000  1
  Zr  Zr1  1  0.242778  0.243125  0.750000  1
  Zr  Zr2  1  0.999653  0.756875  0.750000  1
  Zr  Zr3  1  0.998661  0.243026  0.250000  1
  Zr  Zr4  1  0.755635  0.756974  0.250000  1
  Zr  Zr5  1  0.762443  0.000000  0.750000  1
  Ti  Ti6  1  0.334453  0.666862  0.999575  1
  Ti  Ti7  1  0.667592  0.333138  0.500425  1
  Ti  Ti8  1  0.667592  0.333138  0.999575  1
  Ti  Ti9  1  0.334453  0.666862  0.500425  1
  Sn  Sn10  1  0.599889  0.000000  0.250000  1
  Sn  Sn11  1  0.600779  0.600631  0.750000  1
  Sn  Sn12  1  0.000148  0.399369  0.750000  1
  Sn  Sn13  1  0.998843  0.597906  0.250000  1
  Sn  Sn14  1  0.400936  0.402094  0.250000  1
  Sn  Sn15  1  0.400948  0.000000  0.750000  1
