# generated using pymatgen
data_Er7Pa(CdFe)2
_symmetry_space_group_name_H-M   'P 1'
_cell_length_a   9.38246308
_cell_length_b   9.38246266
_cell_length_c   9.49160000
_cell_angle_alpha   59.61446287
_cell_angle_beta   59.61446437
_cell_angle_gamma   59.76579703
_symmetry_Int_Tables_number   1
_chemical_formula_structural   Er7Pa(CdFe)2
_chemical_formula_sum   'Er14 Pa2 Cd4 Fe4'
_cell_volume   586.32318297
_cell_formula_units_Z   2
loop_
 _symmetry_equiv_pos_site_id
 _symmetry_equiv_pos_as_xyz
  1  'x, y, z'
loop_
 _atom_site_type_symbol
 _atom_site_label
 _atom_site_symmetry_multiplicity
 _atom_site_fract_x
 _atom_site_fract_y
 _atom_site_fract_z
 _atom_site_occupancy
  Er  Er0  1  0.349552  0.952442  0.349003  1
  Er  Er1  1  0.952442  0.349552  0.349003  1
  Er  Er2  1  0.809610  0.189890  0.189030  1
  Er  Er3  1  0.189890  0.809610  0.811470  1
  Er  Er4  1  0.189890  0.809610  0.189030  1
  Er  Er5  1  0.809610  0.189890  0.811470  1
  Er  Er6  1  0.189516  0.189516  0.810484  1
  Er  Er7  1  0.814374  0.814374  0.185626  1
  Er  Er8  1  0.937917  0.561258  0.563124  1
  Er  Er9  1  0.561258  0.937917  0.937702  1
  Er  Er10  1  0.561258  0.937917  0.563124  1
  Er  Er11  1  0.937917  0.561258  0.937702  1
  Er  Er12  1  0.556288  0.556288  0.943712  1
  Er  Er13  1  0.937223  0.937223  0.562777  1
  Pa  Pa14  1  0.329188  0.329188  0.347073  1
  Pa  Pa15  1  0.329188  0.329188  0.994551  1
  Cd  Cd16  1  0.578651  0.578651  0.583426  1
  Cd  Cd17  1  0.578651  0.578651  0.259271  1
  Cd  Cd18  1  0.579088  0.257904  0.581504  1
  Cd  Cd19  1  0.257904  0.579088  0.581504  1
  Fe  Fe20  1  0.162487  0.162487  0.114495  1
  Fe  Fe21  1  0.162487  0.162487  0.560532  1
  Fe  Fe22  1  0.167968  0.557642  0.137195  1
  Fe  Fe23  1  0.557642  0.167968  0.137195  1
