# generated using pymatgen
data_Np4Sc4Re3B24Ru
_symmetry_space_group_name_H-M   'P 1'
_cell_length_a   3.58113100
_cell_length_b   8.99201799
_cell_length_c   11.35937677
_cell_angle_alpha   90.09341873
_cell_angle_beta   90.00000000
_cell_angle_gamma   90.00000000
_symmetry_Int_Tables_number   1
_chemical_formula_structural   Np4Sc4Re3B24Ru
_chemical_formula_sum   'Np4 Sc4 Re3 B24 Ru1'
_cell_volume   365.78955698
_cell_formula_units_Z   1
loop_
 _symmetry_equiv_pos_site_id
 _symmetry_equiv_pos_as_xyz
  1  'x, y, z'
loop_
 _atom_site_type_symbol
 _atom_site_label
 _atom_site_symmetry_multiplicity
 _atom_site_fract_x
 _atom_site_fract_y
 _atom_site_fract_z
 _atom_site_occupancy
  Np  Np0  1  0.000000  0.319482  0.415375  1
  Np  Np1  1  0.000000  0.678253  0.588017  1
  Np  Np2  1  0.000000  0.822668  0.084331  1
  Np  Np3  1  0.000000  0.179534  0.913934  1
  Sc  Sc4  1  0.000000  0.944970  0.373810  1
  Sc  Sc5  1  0.000000  0.054347  0.625585  1
  Sc  Sc6  1  0.000000  0.445295  0.125931  1
  Sc  Sc7  1  0.000000  0.554549  0.874602  1
  Re  Re8  1  0.000000  0.360316  0.679476  1
  Re  Re9  1  0.000000  0.139714  0.180233  1
  Re  Re10  1  0.000000  0.860010  0.820018  1
  B  B11  1  0.500000  0.554282  0.432630  1
  B  B12  1  0.500000  0.446817  0.566136  1
  B  B13  1  0.500000  0.053573  0.066558  1
  B  B14  1  0.500000  0.946569  0.933511  1
  B  B15  1  0.500000  0.753076  0.419922  1
  B  B16  1  0.500000  0.246380  0.579999  1
  B  B17  1  0.500000  0.253502  0.079871  1
  B  B18  1  0.500000  0.746600  0.920182  1
  B  B19  1  0.500000  0.794205  0.265401  1
  B  B20  1  0.500000  0.204866  0.734887  1
  B  B21  1  0.500000  0.295756  0.235233  1
  B  B22  1  0.500000  0.705020  0.765113  1
  B  B23  1  0.500000  0.630607  0.182286  1
  B  B24  1  0.500000  0.369539  0.817616  1
  B  B25  1  0.500000  0.130571  0.317592  1
  B  B26  1  0.500000  0.869463  0.682515  1
  B  B27  1  0.500000  0.980323  0.214383  1
  B  B28  1  0.500000  0.019360  0.785764  1
  B  B29  1  0.500000  0.481760  0.286087  1
  B  B30  1  0.500000  0.519039  0.714296  1
  B  B31  1  0.500000  0.600395  0.028110  1
  B  B32  1  0.500000  0.399840  0.972638  1
  B  B33  1  0.500000  0.099720  0.472288  1
  B  B34  1  0.500000  0.898816  0.527077  1
  Ru  Ru35  1  0.000000  0.640785  0.318592  1
