# generated using pymatgen
data_DyHo2ZnCd3Ga2
_symmetry_space_group_name_H-M   'P 1'
_cell_length_a   7.25481022
_cell_length_b   7.25395109
_cell_length_c   4.36268700
_cell_angle_alpha   90.00000000
_cell_angle_beta   90.00000000
_cell_angle_gamma   119.99609571
_symmetry_Int_Tables_number   1
_chemical_formula_structural   DyHo2ZnCd3Ga2
_chemical_formula_sum   'Dy1 Ho2 Zn1 Cd3 Ga2'
_cell_volume   198.83940313
_cell_formula_units_Z   1
loop_
 _symmetry_equiv_pos_site_id
 _symmetry_equiv_pos_as_xyz
  1  'x, y, z'
loop_
 _atom_site_type_symbol
 _atom_site_label
 _atom_site_symmetry_multiplicity
 _atom_site_fract_x
 _atom_site_fract_y
 _atom_site_fract_z
 _atom_site_occupancy
  Dy  Dy0  1  0.000000  0.577477  0.500000  1
  Ho  Ho1  1  0.422813  0.422785  0.500000  1
  Ho  Ho2  1  0.577187  0.999973  0.500000  1
  Zn  Zn3  1  0.000000  0.999965  0.500000  1
  Cd  Cd4  1  0.754706  0.754760  0.000000  1
  Cd  Cd5  1  0.245294  0.000054  0.000000  1
  Cd  Cd6  1  0.000000  0.245136  0.000000  1
  Ga  Ga7  1  0.666335  0.333091  0.000000  1
  Ga  Ga8  1  0.333665  0.666757  0.000000  1
