# generated using pymatgen
data_Zr8Co8Si13P
_symmetry_space_group_name_H-M   'P 1'
_cell_length_a   9.50146164
_cell_length_b   9.50148134
_cell_length_c   9.50429600
_cell_angle_alpha   94.16178874
_cell_angle_beta   94.16093766
_cell_angle_gamma   148.73918462
_symmetry_Int_Tables_number   1
_chemical_formula_structural   Zr8Co8Si13P
_chemical_formula_sum   'Zr8 Co8 Si13 P1'
_cell_volume   428.80746701
_cell_formula_units_Z   1
loop_
 _symmetry_equiv_pos_site_id
 _symmetry_equiv_pos_as_xyz
  1  'x, y, z'
loop_
 _atom_site_type_symbol
 _atom_site_label
 _atom_site_symmetry_multiplicity
 _atom_site_fract_x
 _atom_site_fract_y
 _atom_site_fract_z
 _atom_site_occupancy
  Zr  Zr0  1  0.139342  0.139342  0.278798  1
  Zr  Zr1  1  0.861310  0.861309  0.722540  1
  Zr  Zr2  1  0.137146  0.862426  0.999578  1
  Zr  Zr3  1  0.862420  0.137150  0.999575  1
  Zr  Zr4  1  0.303428  0.498361  0.801797  1
  Zr  Zr5  1  0.696100  0.499944  0.195955  1
  Zr  Zr6  1  0.499867  0.696035  0.195937  1
  Zr  Zr7  1  0.498336  0.303411  0.801795  1
  Co  Co8  1  0.102568  0.602573  0.205160  1
  Co  Co9  1  0.397692  0.897697  0.795375  1
  Co  Co10  1  0.901183  0.103091  0.501152  1
  Co  Co11  1  0.599957  0.398058  0.501152  1
  Co  Co12  1  0.602571  0.102555  0.205137  1
  Co  Co13  1  0.897730  0.397716  0.795439  1
  Co  Co14  1  0.103141  0.901238  0.501166  1
  Co  Co15  1  0.398008  0.599913  0.501172  1
  Si  Si16  1  0.708511  0.708523  0.416821  1
  Si  Si17  1  0.289451  0.710670  0.999899  1
  Si  Si18  1  0.710435  0.289235  0.999897  1
  Si  Si19  1  0.091216  0.500415  0.591673  1
  Si  Si20  1  0.908253  0.500559  0.408858  1
  Si  Si21  1  0.500653  0.908326  0.408872  1
  Si  Si22  1  0.500423  0.091208  0.591683  1
  Si  Si23  1  0.250977  0.250967  0.999555  1
  Si  Si24  1  0.748586  0.748565  0.999541  1
  Si  Si25  1  0.302412  0.999751  0.302175  1
  Si  Si26  1  0.697454  0.000147  0.697638  1
  Si  Si27  1  0.000279  0.697594  0.697670  1
  Si  Si28  1  0.999690  0.302356  0.302200  1
  P  P29  1  0.290862  0.290862  0.581791  1
