# generated using pymatgen
data_Hf17ScMnRe8P
_symmetry_space_group_name_H-M   'P 1'
_cell_length_a   8.54567918
_cell_length_b   8.54567919
_cell_length_c   8.56373900
_cell_angle_alpha   90.00000000
_cell_angle_beta   90.00000000
_cell_angle_gamma   119.83201929
_symmetry_Int_Tables_number   1
_chemical_formula_structural   Hf17ScMnRe8P
_chemical_formula_sum   'Hf17 Sc1 Mn1 Re8 P1'
_cell_volume   542.52513324
_cell_formula_units_Z   1
loop_
 _symmetry_equiv_pos_site_id
 _symmetry_equiv_pos_as_xyz
  1  'x, y, z'
loop_
 _atom_site_type_symbol
 _atom_site_label
 _atom_site_symmetry_multiplicity
 _atom_site_fract_x
 _atom_site_fract_y
 _atom_site_fract_z
 _atom_site_occupancy
  Hf  Hf0  1  0.201704  0.798296  0.444473  1
  Hf  Hf1  1  0.201719  0.402809  0.443787  1
  Hf  Hf2  1  0.597191  0.798281  0.443787  1
  Hf  Hf3  1  0.805295  0.194705  0.548509  1
  Hf  Hf4  1  0.804838  0.610337  0.548790  1
  Hf  Hf5  1  0.389663  0.195162  0.548790  1
  Hf  Hf6  1  0.805295  0.194705  0.951491  1
  Hf  Hf7  1  0.804838  0.610337  0.951210  1
  Hf  Hf8  1  0.389663  0.195162  0.951210  1
  Hf  Hf9  1  0.201704  0.798296  0.055527  1
  Hf  Hf10  1  0.201719  0.402809  0.056213  1
  Hf  Hf11  1  0.597191  0.798281  0.056213  1
  Hf  Hf12  1  0.540361  0.459639  0.250000  1
  Hf  Hf13  1  0.539532  0.080050  0.250000  1
  Hf  Hf14  1  0.919950  0.460468  0.250000  1
  Hf  Hf15  1  0.460802  0.921324  0.750000  1
  Hf  Hf16  1  0.078676  0.539198  0.750000  1
  Sc  Sc17  1  0.459585  0.540415  0.750000  1
  Mn  Mn18  1  0.333146  0.666854  0.250000  1
  Re  Re19  1  0.889567  0.110433  0.250000  1
  Re  Re20  1  0.889672  0.778700  0.250000  1
  Re  Re21  1  0.221300  0.110328  0.250000  1
  Re  Re22  1  0.110118  0.889882  0.750000  1
  Re  Re23  1  0.109272  0.220365  0.750000  1
  Re  Re24  1  0.779635  0.890728  0.750000  1
  Re  Re25  1  0.000029  0.999971  0.498920  1
  Re  Re26  1  0.000029  0.999971  0.001080  1
  P  P27  1  0.667513  0.332487  0.750000  1
