# generated using pymatgen
data_Ho20Ir10OsRh
_symmetry_space_group_name_H-M   'P 1'
_cell_length_a   10.81221300
_cell_length_b   10.81221300
_cell_length_c   6.37702500
_cell_angle_alpha   90.00000000
_cell_angle_beta   90.00000000
_cell_angle_gamma   90.00000000
_symmetry_Int_Tables_number   1
_chemical_formula_structural   Ho20Ir10OsRh
_chemical_formula_sum   'Ho20 Ir10 Os1 Rh1'
_cell_volume   745.49941148
_cell_formula_units_Z   1
loop_
 _symmetry_equiv_pos_site_id
 _symmetry_equiv_pos_as_xyz
  1  'x, y, z'
loop_
 _atom_site_type_symbol
 _atom_site_label
 _atom_site_symmetry_multiplicity
 _atom_site_fract_x
 _atom_site_fract_y
 _atom_site_fract_z
 _atom_site_occupancy
  Ho  Ho0  1  0.292531  0.087090  0.375971  1
  Ho  Ho1  1  0.292967  0.912845  0.879653  1
  Ho  Ho2  1  0.707033  0.087155  0.879653  1
  Ho  Ho3  1  0.707469  0.912910  0.375971  1
  Ho  Ho4  1  0.587155  0.792967  0.879653  1
  Ho  Ho5  1  0.587090  0.207469  0.375971  1
  Ho  Ho6  1  0.412910  0.792531  0.375971  1
  Ho  Ho7  1  0.412845  0.207033  0.879653  1
  Ho  Ho8  1  0.209250  0.411813  0.620843  1
  Ho  Ho9  1  0.209332  0.588082  0.122579  1
  Ho  Ho10  1  0.790668  0.411918  0.122579  1
  Ho  Ho11  1  0.790750  0.588187  0.620843  1
  Ho  Ho12  1  0.911918  0.709332  0.122579  1
  Ho  Ho13  1  0.911813  0.290750  0.620843  1
  Ho  Ho14  1  0.088187  0.709250  0.620843  1
  Ho  Ho15  1  0.088082  0.290668  0.122579  1
  Ho  Ho16  1  0.000000  0.000000  0.499337  1
  Ho  Ho17  1  0.000000  0.000000  0.999190  1
  Ho  Ho18  1  0.500000  0.500000  0.999190  1
  Ho  Ho19  1  0.500000  0.500000  0.499337  1
  Ir  Ir20  1  0.847666  0.154215  0.250406  1
  Ir  Ir21  1  0.847758  0.845932  0.750152  1
  Ir  Ir22  1  0.152242  0.154068  0.750152  1
  Ir  Ir23  1  0.152334  0.845785  0.250406  1
  Ir  Ir24  1  0.654068  0.347758  0.750152  1
  Ir  Ir25  1  0.654215  0.652334  0.250406  1
  Ir  Ir26  1  0.345785  0.347666  0.250406  1
  Ir  Ir27  1  0.345932  0.652242  0.750152  1
  Ir  Ir28  1  0.500000  0.000000  0.622696  1
  Ir  Ir29  1  0.000000  0.500000  0.378602  1
  Os  Os30  1  0.500000  0.000000  0.124238  1
  Rh  Rh31  1  0.000000  0.500000  0.878992  1
