# generated using pymatgen
data_Ho3Lu9(TcRu)2
_symmetry_space_group_name_H-M   'P 1'
_cell_length_a   6.17492765
_cell_length_b   7.31923206
_cell_length_c   8.90038600
_cell_angle_alpha   90.00000000
_cell_angle_beta   90.00000000
_cell_angle_gamma   90.10546181
_symmetry_Int_Tables_number   1
_chemical_formula_structural   Ho3Lu9(TcRu)2
_chemical_formula_sum   'Ho3 Lu9 Tc2 Ru2'
_cell_volume   402.25874702
_cell_formula_units_Z   1
loop_
 _symmetry_equiv_pos_site_id
 _symmetry_equiv_pos_as_xyz
  1  'x, y, z'
loop_
 _atom_site_type_symbol
 _atom_site_label
 _atom_site_symmetry_multiplicity
 _atom_site_fract_x
 _atom_site_fract_y
 _atom_site_fract_z
 _atom_site_occupancy
  Ho  Ho0  1  0.877574  0.538327  0.250000  1
  Ho  Ho1  1  0.621412  0.036871  0.250000  1
  Ho  Ho2  1  0.370774  0.958888  0.750000  1
  Lu  Lu3  1  0.338597  0.674788  0.062643  1
  Lu  Lu4  1  0.160630  0.177490  0.437037  1
  Lu  Lu5  1  0.660914  0.325530  0.563082  1
  Lu  Lu6  1  0.841136  0.824204  0.937169  1
  Lu  Lu7  1  0.660914  0.325530  0.936918  1
  Lu  Lu8  1  0.841136  0.824204  0.562831  1
  Lu  Lu9  1  0.338597  0.674788  0.437357  1
  Lu  Lu10  1  0.160630  0.177490  0.062963  1
  Lu  Lu11  1  0.129463  0.458073  0.750000  1
  Tc  Tc12  1  0.041079  0.883495  0.250000  1
  Tc  Tc13  1  0.459769  0.383284  0.250000  1
  Ru  Ru14  1  0.957909  0.119411  0.750000  1
  Ru  Ru15  1  0.539468  0.617626  0.750000  1
