# generated using pymatgen
data_Dy11HoRu4
_symmetry_space_group_name_H-M   'P 1'
_cell_length_a   7.30550401
_cell_length_b   9.19003706
_cell_length_c   6.30936605
_cell_angle_alpha   90.01296778
_cell_angle_beta   90.00696926
_cell_angle_gamma   90.00139589
_symmetry_Int_Tables_number   1
_chemical_formula_structural   Dy11HoRu4
_chemical_formula_sum   'Dy11 Ho1 Ru4'
_cell_volume   423.59727407
_cell_formula_units_Z   1
loop_
 _symmetry_equiv_pos_site_id
 _symmetry_equiv_pos_as_xyz
  1  'x, y, z'
loop_
 _atom_site_type_symbol
 _atom_site_label
 _atom_site_symmetry_multiplicity
 _atom_site_fract_x
 _atom_site_fract_y
 _atom_site_fract_z
 _atom_site_occupancy
  Dy  Dy0  1  0.459560  0.750032  0.134342  1
  Dy  Dy1  1  0.177241  0.435392  0.168647  1
  Dy  Dy2  1  0.677249  0.064545  0.331284  1
  Dy  Dy3  1  0.677231  0.435440  0.331311  1
  Dy  Dy4  1  0.959628  0.750046  0.365630  1
  Dy  Dy5  1  0.040448  0.249955  0.634300  1
  Dy  Dy6  1  0.322753  0.564542  0.668676  1
  Dy  Dy7  1  0.322734  0.935498  0.668677  1
  Dy  Dy8  1  0.822769  0.564536  0.831360  1
  Dy  Dy9  1  0.822821  0.935499  0.831390  1
  Dy  Dy10  1  0.540393  0.249971  0.865730  1
  Ho  Ho11  1  0.177191  0.064575  0.168622  1
  Ru  Ru12  1  0.885032  0.249964  0.040378  1
  Ru  Ru13  1  0.384919  0.249959  0.459591  1
  Ru  Ru14  1  0.615000  0.749986  0.540359  1
  Ru  Ru15  1  0.115029  0.750061  0.959703  1
