# generated using pymatgen
data_Al2PdPt5
_symmetry_space_group_name_H-M   'P 1'
_cell_length_a   5.51735332
_cell_length_b   5.51671244
_cell_length_c   7.96342872
_cell_angle_alpha   90.03811791
_cell_angle_beta   89.96983725
_cell_angle_gamma   89.97471692
_symmetry_Int_Tables_number   1
_chemical_formula_structural   Al2PdPt5
_chemical_formula_sum   'Al4 Pd2 Pt10'
_cell_volume   242.38795895
_cell_formula_units_Z   2
loop_
 _symmetry_equiv_pos_site_id
 _symmetry_equiv_pos_as_xyz
  1  'x, y, z'
loop_
 _atom_site_type_symbol
 _atom_site_label
 _atom_site_symmetry_multiplicity
 _atom_site_fract_x
 _atom_site_fract_y
 _atom_site_fract_z
 _atom_site_occupancy
  Al  Al0  1  0.499299  0.001161  0.234606  1
  Al  Al1  1  0.998584  0.498574  0.235400  1
  Al  Al2  1  0.501824  0.001172  0.764714  1
  Al  Al3  1  0.998086  0.497950  0.764569  1
  Pd  Pd4  1  0.000387  0.999319  0.254380  1
  Pd  Pd5  1  0.688486  0.187805  0.499488  1
  Pt  Pt6  1  0.261618  0.236566  0.000146  1
  Pt  Pt7  1  0.761844  0.261608  0.000506  1
  Pt  Pt8  1  0.235589  0.736274  0.000031  1
  Pt  Pt9  1  0.736547  0.762338  0.000138  1
  Pt  Pt10  1  0.499509  0.501037  0.254146  1
  Pt  Pt11  1  0.187911  0.313351  0.499953  1
  Pt  Pt12  1  0.814459  0.687622  0.500286  1
  Pt  Pt13  1  0.315319  0.815537  0.500279  1
  Pt  Pt14  1  0.000813  0.999659  0.745727  1
  Pt  Pt15  1  0.499726  0.500027  0.745631  1
