# generated using pymatgen
data_CeTm9(Sn3C)2
_symmetry_space_group_name_H-M   'P 1'
_cell_length_a   8.88520238
_cell_length_b   8.88520247
_cell_length_c   6.47152900
_cell_angle_alpha   90.00000000
_cell_angle_beta   90.00000000
_cell_angle_gamma   120.31409347
_symmetry_Int_Tables_number   1
_chemical_formula_structural   CeTm9(Sn3C)2
_chemical_formula_sum   'Ce1 Tm9 Sn6 C2'
_cell_volume   441.05110939
_cell_formula_units_Z   1
loop_
 _symmetry_equiv_pos_site_id
 _symmetry_equiv_pos_as_xyz
  1  'x, y, z'
loop_
 _atom_site_type_symbol
 _atom_site_label
 _atom_site_symmetry_multiplicity
 _atom_site_fract_x
 _atom_site_fract_y
 _atom_site_fract_z
 _atom_site_occupancy
  Ce  Ce0  1  0.786734  0.786734  0.250000  1
  Tm  Tm1  1  0.666504  0.332891  0.500768  1
  Tm  Tm2  1  0.332891  0.666504  0.500768  1
  Tm  Tm3  1  0.332891  0.666504  0.999232  1
  Tm  Tm4  1  0.666504  0.332891  0.999232  1
  Tm  Tm5  1  0.214599  0.001524  0.250000  1
  Tm  Tm6  1  0.001524  0.214599  0.250000  1
  Tm  Tm7  1  0.213018  0.213018  0.750000  1
  Tm  Tm8  1  0.789024  0.001504  0.750000  1
  Tm  Tm9  1  0.001504  0.789024  0.750000  1
  Sn  Sn10  1  0.406984  0.406984  0.250000  1
  Sn  Sn11  1  0.590989  0.002516  0.250000  1
  Sn  Sn12  1  0.002516  0.590989  0.250000  1
  Sn  Sn13  1  0.592631  0.592631  0.750000  1
  Sn  Sn14  1  0.406711  0.000537  0.750000  1
  Sn  Sn15  1  0.000537  0.406711  0.750000  1
  C  C16  1  0.997219  0.997219  0.499655  1
  C  C17  1  0.997219  0.997219  0.000345  1
