# generated using pymatgen
data_Y3Sn3HgIr2
_symmetry_space_group_name_H-M   'P 1'
_cell_length_a   7.63194600
_cell_length_b   7.63194540
_cell_length_c   4.02523600
_cell_angle_alpha   90.00000000
_cell_angle_beta   90.00000000
_cell_angle_gamma   119.99999394
_symmetry_Int_Tables_number   1
_chemical_formula_structural   Y3Sn3HgIr2
_chemical_formula_sum   'Y3 Sn3 Hg1 Ir2'
_cell_volume   203.04511712
_cell_formula_units_Z   1
loop_
 _symmetry_equiv_pos_site_id
 _symmetry_equiv_pos_as_xyz
  1  'x, y, z'
loop_
 _atom_site_type_symbol
 _atom_site_label
 _atom_site_symmetry_multiplicity
 _atom_site_fract_x
 _atom_site_fract_y
 _atom_site_fract_z
 _atom_site_occupancy
  Y  Y0  1  0.389755  0.411303  0.500000  1
  Y  Y1  1  0.588697  0.978452  0.500000  1
  Y  Y2  1  0.021548  0.610245  0.500000  1
  Sn  Sn3  1  0.744554  0.752733  0.000000  1
  Sn  Sn4  1  0.247267  0.991821  0.000000  1
  Sn  Sn5  1  0.008179  0.255446  0.000000  1
  Hg  Hg6  1  0.666667  0.333333  0.000000  1
  Ir  Ir7  1  0.333333  0.666667  0.000000  1
  Ir  Ir8  1  0.000000  0.000000  0.500000  1
