# generated using pymatgen
data_Ac5(RuO6)2
_symmetry_space_group_name_H-M   'P 1'
_cell_length_a   7.37094428
_cell_length_b   7.37094400
_cell_length_c   8.10296290
_cell_angle_alpha   74.24218135
_cell_angle_beta   74.24217931
_cell_angle_gamma   49.69102523
_symmetry_Int_Tables_number   1
_chemical_formula_structural   Ac5(RuO6)2
_chemical_formula_sum   'Ac5 Ru2 O12'
_cell_volume   320.32659682
_cell_formula_units_Z   1
loop_
 _symmetry_equiv_pos_site_id
 _symmetry_equiv_pos_as_xyz
  1  'x, y, z'
loop_
 _atom_site_type_symbol
 _atom_site_label
 _atom_site_symmetry_multiplicity
 _atom_site_fract_x
 _atom_site_fract_y
 _atom_site_fract_z
 _atom_site_occupancy
  Ac  Ac0  1  0.311841  0.311841  0.353899  1
  Ac  Ac1  1  0.688159  0.688159  0.646101  1
  Ac  Ac2  1  0.689627  0.689627  0.165576  1
  Ac  Ac3  1  0.310373  0.310373  0.834424  1
  Ac  Ac4  1  0.000000  0.000000  0.500000  1
  Ru  Ru5  1  0.766192  0.233808  0.000000  1
  Ru  Ru6  1  0.233808  0.766192  0.000000  1
  O  O7  1  0.094363  0.594586  0.579622  1
  O  O8  1  0.999091  0.999091  0.176143  1
  O  O9  1  0.405414  0.905637  0.420378  1
  O  O10  1  0.500724  0.500724  0.160207  1
  O  O11  1  0.098300  0.593530  0.075092  1
  O  O12  1  0.905637  0.405414  0.420378  1
  O  O13  1  0.000909  0.000909  0.823857  1
  O  O14  1  0.594586  0.094362  0.579622  1
  O  O15  1  0.499276  0.499276  0.839793  1
  O  O16  1  0.593530  0.098300  0.075092  1
  O  O17  1  0.406470  0.901700  0.924908  1
  O  O18  1  0.901700  0.406470  0.924908  1
