# generated using pymatgen
data_TaTi11Al8(CuC)4
_symmetry_space_group_name_H-M   'P 1'
_cell_length_a   8.16476680
_cell_length_b   8.16778580
_cell_length_c   8.16476538
_cell_angle_alpha   59.98777337
_cell_angle_beta   60.15394165
_cell_angle_gamma   59.98776982
_symmetry_Int_Tables_number   1
_chemical_formula_structural   TaTi11Al8(CuC)4
_chemical_formula_sum   'Ta1 Ti11 Al8 Cu4 C4'
_cell_volume   385.38878371
_cell_formula_units_Z   1
loop_
 _symmetry_equiv_pos_site_id
 _symmetry_equiv_pos_as_xyz
  1  'x, y, z'
loop_
 _atom_site_type_symbol
 _atom_site_label
 _atom_site_symmetry_multiplicity
 _atom_site_fract_x
 _atom_site_fract_y
 _atom_site_fract_z
 _atom_site_occupancy
  Ta  Ta0  1  0.934471  0.565529  0.934471  1
  Ti  Ti1  1  0.564934  0.935066  0.564934  1
  Ti  Ti2  1  0.316078  0.685293  0.684515  1
  Ti  Ti3  1  0.684515  0.314114  0.316078  1
  Ti  Ti4  1  0.314970  0.685030  0.314970  1
  Ti  Ti5  1  0.684515  0.685293  0.316078  1
  Ti  Ti6  1  0.316078  0.314114  0.684515  1
  Ti  Ti7  1  0.567618  0.564013  0.933575  1
  Ti  Ti8  1  0.933575  0.564013  0.567618  1
  Ti  Ti9  1  0.567618  0.934794  0.933575  1
  Ti  Ti10  1  0.933575  0.934794  0.567618  1
  Ti  Ti11  1  0.684621  0.315379  0.684621  1
  Al  Al12  1  0.915670  0.918195  0.915670  1
  Al  Al13  1  0.997489  0.334257  0.333995  1
  Al  Al14  1  0.333836  0.998654  0.333836  1
  Al  Al15  1  0.333995  0.334257  0.997489  1
  Al  Al16  1  0.915670  0.250468  0.915670  1
  Al  Al17  1  0.915885  0.915727  0.252663  1
  Al  Al18  1  0.252663  0.915727  0.915885  1
  Al  Al19  1  0.333836  0.333672  0.333836  1
  Cu  Cu20  1  0.124338  0.126037  0.124338  1
  Cu  Cu21  1  0.624810  0.125076  0.125038  1
  Cu  Cu22  1  0.124338  0.625288  0.124338  1
  Cu  Cu23  1  0.125038  0.125076  0.624810  1
  C  C24  1  0.625339  0.625314  0.625339  1
  C  C25  1  0.127968  0.625407  0.621218  1
  C  C26  1  0.625339  0.124008  0.625339  1
  C  C27  1  0.621218  0.625407  0.127968  1
