# generated using pymatgen
data_Ho2AlNiRu
_symmetry_space_group_name_H-M   'P 1'
_cell_length_a   5.43684775
_cell_length_b   5.43684827
_cell_length_c   5.43684869
_cell_angle_alpha   135.56452999
_cell_angle_beta   117.84601342
_cell_angle_gamma   79.56404492
_symmetry_Int_Tables_number   1
_chemical_formula_structural   Ho2AlNiRu
_chemical_formula_sum   'Ho2 Al1 Ni1 Ru1'
_cell_volume   96.42371759
_cell_formula_units_Z   1
loop_
 _symmetry_equiv_pos_site_id
 _symmetry_equiv_pos_as_xyz
  1  'x, y, z'
loop_
 _atom_site_type_symbol
 _atom_site_label
 _atom_site_symmetry_multiplicity
 _atom_site_fract_x
 _atom_site_fract_y
 _atom_site_fract_z
 _atom_site_occupancy
  Ho  Ho0  1  0.696061  0.202710  0.493351  1
  Ho  Ho1  1  0.290640  0.797290  0.493351  1
  Al  Al2  1  0.998184  0.000000  0.998184  1
  Ni  Ni3  1  0.740969  0.500000  0.240969  1
  Ru  Ru4  1  0.274145  0.500000  0.774145  1
