# generated using pymatgen
data_Sr3Y(Er3Sn4)2
_symmetry_space_group_name_H-M   'P 1'
_cell_length_a   8.01512400
_cell_length_b   8.38826729
_cell_length_c   15.78318900
_cell_angle_alpha   90.22606171
_cell_angle_beta   90.00000000
_cell_angle_gamma   90.00000000
_symmetry_Int_Tables_number   1
_chemical_formula_structural   Sr3Y(Er3Sn4)2
_chemical_formula_sum   'Sr6 Y2 Er12 Sn16'
_cell_volume   1061.14292563
_cell_formula_units_Z   2
loop_
 _symmetry_equiv_pos_site_id
 _symmetry_equiv_pos_as_xyz
  1  'x, y, z'
loop_
 _atom_site_type_symbol
 _atom_site_label
 _atom_site_symmetry_multiplicity
 _atom_site_fract_x
 _atom_site_fract_y
 _atom_site_fract_z
 _atom_site_occupancy
  Sr  Sr0  1  0.505878  0.326449  0.904738  1
  Sr  Sr1  1  0.005878  0.173551  0.595262  1
  Sr  Sr2  1  0.499275  0.674724  0.410320  1
  Sr  Sr3  1  0.999275  0.825276  0.089680  1
  Sr  Sr4  1  0.497721  0.676979  0.089520  1
  Sr  Sr5  1  0.997721  0.823021  0.410480  1
  Y  Y6  1  0.500932  0.317075  0.603385  1
  Y  Y7  1  0.000932  0.182925  0.896615  1
  Er  Er8  1  0.330921  0.840210  0.871720  1
  Er  Er9  1  0.830921  0.659790  0.628280  1
  Er  Er10  1  0.665316  0.165895  0.376485  1
  Er  Er11  1  0.165316  0.334105  0.123515  1
  Er  Er12  1  0.667122  0.161233  0.123161  1
  Er  Er13  1  0.167122  0.338767  0.376839  1
  Er  Er14  1  0.330122  0.837671  0.628283  1
  Er  Er15  1  0.830122  0.662329  0.871717  1
  Er  Er16  1  0.169331  0.497164  0.750421  1
  Er  Er17  1  0.669331  0.002836  0.749579  1
  Er  Er18  1  0.829124  0.502948  0.249597  1
  Er  Er19  1  0.329124  0.997052  0.250403  1
  Sn  Sn20  1  0.328800  0.046372  0.037619  1
  Sn  Sn21  1  0.828800  0.453628  0.462381  1
  Sn  Sn22  1  0.663661  0.966368  0.546157  1
  Sn  Sn23  1  0.163661  0.533632  0.953843  1
  Sn  Sn24  1  0.676808  0.964296  0.952939  1
  Sn  Sn25  1  0.176808  0.535704  0.547061  1
  Sn  Sn26  1  0.336347  0.050627  0.463012  1
  Sn  Sn27  1  0.836347  0.449373  0.036988  1
  Sn  Sn28  1  0.527519  0.627344  0.748922  1
  Sn  Sn29  1  0.027519  0.872656  0.751078  1
  Sn  Sn30  1  0.466506  0.369380  0.248747  1
  Sn  Sn31  1  0.966506  0.130620  0.251253  1
  Sn  Sn32  1  0.306763  0.146545  0.750973  1
  Sn  Sn33  1  0.806763  0.353455  0.749027  1
  Sn  Sn34  1  0.697853  0.863992  0.249256  1
  Sn  Sn35  1  0.197853  0.636008  0.250744  1
