# generated using pymatgen
data_Ca3Ho2P12IrRu18
_symmetry_space_group_name_H-M   'P 1'
_cell_length_a   12.54012800
_cell_length_b   12.54012801
_cell_length_c   4.00810500
_cell_angle_alpha   90.00000000
_cell_angle_beta   90.00000000
_cell_angle_gamma   119.99999471
_symmetry_Int_Tables_number   1
_chemical_formula_structural   Ca3Ho2P12IrRu18
_chemical_formula_sum   'Ca3 Ho2 P12 Ir1 Ru18'
_cell_volume   545.85046450
_cell_formula_units_Z   1
loop_
 _symmetry_equiv_pos_site_id
 _symmetry_equiv_pos_as_xyz
  1  'x, y, z'
loop_
 _atom_site_type_symbol
 _atom_site_label
 _atom_site_symmetry_multiplicity
 _atom_site_fract_x
 _atom_site_fract_y
 _atom_site_fract_z
 _atom_site_occupancy
  Ca  Ca0  1  0.816873  0.000000  0.500000  1
  Ca  Ca1  1  0.000000  0.816873  0.500000  1
  Ca  Ca2  1  0.183127  0.183127  0.500000  1
  Ho  Ho3  1  0.333333  0.666667  0.000000  1
  Ho  Ho4  1  0.666667  0.333333  0.000000  1
  P  P5  1  0.186418  0.000000  0.000000  1
  P  P6  1  0.000000  0.186418  0.000000  1
  P  P7  1  0.813582  0.813582  0.000000  1
  P  P8  1  0.172013  0.476457  0.500000  1
  P  P9  1  0.523543  0.695556  0.500000  1
  P  P10  1  0.304444  0.827987  0.500000  1
  P  P11  1  0.695556  0.523543  0.500000  1
  P  P12  1  0.827987  0.304444  0.500000  1
  P  P13  1  0.476457  0.172013  0.500000  1
  P  P14  1  0.625352  0.000000  0.000000  1
  P  P15  1  0.000000  0.625352  0.000000  1
  P  P16  1  0.374648  0.374648  0.000000  1
  Ir  Ir17  1  0.000000  0.000000  0.000000  1
  Ru  Ru18  1  0.444866  0.000000  0.000000  1
  Ru  Ru19  1  0.000000  0.444866  0.000000  1
  Ru  Ru20  1  0.555134  0.555134  0.000000  1
  Ru  Ru21  1  0.367587  0.493945  0.500000  1
  Ru  Ru22  1  0.506055  0.873642  0.500000  1
  Ru  Ru23  1  0.126358  0.632413  0.500000  1
  Ru  Ru24  1  0.873642  0.506055  0.500000  1
  Ru  Ru25  1  0.632413  0.126358  0.500000  1
  Ru  Ru26  1  0.493945  0.367587  0.500000  1
  Ru  Ru27  1  0.186692  0.379656  0.000000  1
  Ru  Ru28  1  0.620344  0.807037  0.000000  1
  Ru  Ru29  1  0.192963  0.813308  0.000000  1
  Ru  Ru30  1  0.807037  0.620344  0.000000  1
  Ru  Ru31  1  0.813308  0.192963  0.000000  1
  Ru  Ru32  1  0.379656  0.186692  0.000000  1
  Ru  Ru33  1  0.283200  0.000000  0.500000  1
  Ru  Ru34  1  0.000000  0.283200  0.500000  1
  Ru  Ru35  1  0.716800  0.716800  0.500000  1
