# generated using pymatgen
data_Yb5PdRhPb4
_symmetry_space_group_name_H-M   'P 1'
_cell_length_a   8.16992500
_cell_length_b   18.42645364
_cell_length_c   3.77195300
_cell_angle_alpha   90.00000000
_cell_angle_beta   90.00000000
_cell_angle_gamma   89.92534877
_symmetry_Int_Tables_number   1
_chemical_formula_structural   Yb5PdRhPb4
_chemical_formula_sum   'Yb10 Pd2 Rh2 Pb8'
_cell_volume   567.83967385
_cell_formula_units_Z   2
loop_
 _symmetry_equiv_pos_site_id
 _symmetry_equiv_pos_as_xyz
  1  'x, y, z'
loop_
 _atom_site_type_symbol
 _atom_site_label
 _atom_site_symmetry_multiplicity
 _atom_site_fract_x
 _atom_site_fract_y
 _atom_site_fract_z
 _atom_site_occupancy
  Yb  Yb0  1  0.500000  0.500000  0.000000  1
  Yb  Yb1  1  0.000000  0.000000  0.000000  1
  Yb  Yb2  1  0.726875  0.279998  0.000000  1
  Yb  Yb3  1  0.273125  0.720002  0.000000  1
  Yb  Yb4  1  0.749125  0.783994  0.000000  1
  Yb  Yb5  1  0.250875  0.216006  0.000000  1
  Yb  Yb6  1  0.616859  0.091586  0.000000  1
  Yb  Yb7  1  0.383141  0.908414  0.000000  1
  Yb  Yb8  1  0.880209  0.588354  0.000000  1
  Yb  Yb9  1  0.119791  0.411646  0.000000  1
  Pd  Pd10  1  0.978579  0.696342  0.500000  1
  Pd  Pd11  1  0.021421  0.303658  0.500000  1
  Rh  Rh12  1  0.515065  0.193963  0.500000  1
  Rh  Rh13  1  0.484935  0.806037  0.500000  1
  Pb  Pb14  1  0.698852  0.934634  0.500000  1
  Pb  Pb15  1  0.301148  0.065366  0.500000  1
  Pb  Pb16  1  0.799904  0.435312  0.500000  1
  Pb  Pb17  1  0.200096  0.564688  0.500000  1
  Pb  Pb18  1  0.581314  0.656194  0.500000  1
  Pb  Pb19  1  0.418686  0.343806  0.500000  1
  Pb  Pb20  1  0.917472  0.155158  0.500000  1
  Pb  Pb21  1  0.082528  0.844842  0.500000  1
