# generated using pymatgen
data_Yb5SmY2(Cu2Sn5)2
_symmetry_space_group_name_H-M   'P 1'
_cell_length_a   4.45117300
_cell_length_b   8.78045400
_cell_length_c   14.09995600
_cell_angle_alpha   90.00000000
_cell_angle_beta   90.00000000
_cell_angle_gamma   90.00000000
_symmetry_Int_Tables_number   1
_chemical_formula_structural   Yb5SmY2(Cu2Sn5)2
_chemical_formula_sum   'Yb5 Sm1 Y2 Cu4 Sn10'
_cell_volume   551.07308913
_cell_formula_units_Z   1
loop_
 _symmetry_equiv_pos_site_id
 _symmetry_equiv_pos_as_xyz
  1  'x, y, z'
loop_
 _atom_site_type_symbol
 _atom_site_label
 _atom_site_symmetry_multiplicity
 _atom_site_fract_x
 _atom_site_fract_y
 _atom_site_fract_z
 _atom_site_occupancy
  Yb  Yb0  1  0.500000  0.792160  0.741793  1
  Yb  Yb1  1  0.000000  0.205764  0.754822  1
  Yb  Yb2  1  0.000000  0.205764  0.245178  1
  Yb  Yb3  1  0.000000  0.866074  0.500000  1
  Yb  Yb4  1  0.500000  0.792160  0.258207  1
  Sm  Sm5  1  0.500000  0.137479  0.000000  1
  Y  Y6  1  0.500000  0.696247  0.000000  1
  Y  Y7  1  0.000000  0.298001  0.500000  1
  Cu  Cu8  1  0.500000  0.379448  0.644506  1
  Cu  Cu9  1  0.000000  0.622326  0.854718  1
  Cu  Cu10  1  0.000000  0.622326  0.145282  1
  Cu  Cu11  1  0.500000  0.379448  0.355494  1
  Sn  Sn12  1  0.500000  0.084484  0.395649  1
  Sn  Sn13  1  0.000000  0.554193  0.663074  1
  Sn  Sn14  1  0.000000  0.409950  0.000000  1
  Sn  Sn15  1  0.500000  0.443695  0.164045  1
  Sn  Sn16  1  0.500000  0.594585  0.500000  1
  Sn  Sn17  1  0.500000  0.443695  0.835955  1
  Sn  Sn18  1  0.000000  0.916763  0.896213  1
  Sn  Sn19  1  0.000000  0.554193  0.336926  1
  Sn  Sn20  1  0.500000  0.084484  0.604351  1
  Sn  Sn21  1  0.000000  0.916763  0.103787  1
