# generated using pymatgen
data_Gd3Ga3Cu2Pt
_symmetry_space_group_name_H-M   'P 1'
_cell_length_a   7.13011800
_cell_length_b   7.13011772
_cell_length_c   3.82052300
_cell_angle_alpha   90.00000000
_cell_angle_beta   90.00000000
_cell_angle_gamma   120.00000129
_symmetry_Int_Tables_number   1
_chemical_formula_structural   Gd3Ga3Cu2Pt
_chemical_formula_sum   'Gd3 Ga3 Cu2 Pt1'
_cell_volume   168.20808335
_cell_formula_units_Z   1
loop_
 _symmetry_equiv_pos_site_id
 _symmetry_equiv_pos_as_xyz
  1  'x, y, z'
loop_
 _atom_site_type_symbol
 _atom_site_label
 _atom_site_symmetry_multiplicity
 _atom_site_fract_x
 _atom_site_fract_y
 _atom_site_fract_z
 _atom_site_occupancy
  Gd  Gd0  1  0.589154  0.000000  0.499999  1
  Gd  Gd1  1  0.410847  0.410846  0.499999  1
  Gd  Gd2  1  0.000000  0.589155  0.499999  1
  Ga  Ga3  1  0.248696  0.000000  0.000000  1
  Ga  Ga4  1  0.000000  0.248696  0.000000  1
  Ga  Ga5  1  0.751304  0.751303  0.000000  1
  Cu  Cu6  1  0.666666  0.333333  0.000000  1
  Cu  Cu7  1  0.000000  0.000000  0.499999  1
  Pt  Pt8  1  0.333333  0.666667  0.000000  1
