# generated using pymatgen
data_Nb3Al(GaRu3)2
_symmetry_space_group_name_H-M   'P 1'
_cell_length_a   4.39999903
_cell_length_b   6.20926104
_cell_length_c   13.14895117
_cell_angle_alpha   90.01265203
_cell_angle_beta   90.01339920
_cell_angle_gamma   90.00255802
_symmetry_Int_Tables_number   1
_chemical_formula_structural   Nb3Al(GaRu3)2
_chemical_formula_sum   'Nb6 Al2 Ga4 Ru12'
_cell_volume   359.23909088
_cell_formula_units_Z   2
loop_
 _symmetry_equiv_pos_site_id
 _symmetry_equiv_pos_as_xyz
  1  'x, y, z'
loop_
 _atom_site_type_symbol
 _atom_site_label
 _atom_site_symmetry_multiplicity
 _atom_site_fract_x
 _atom_site_fract_y
 _atom_site_fract_z
 _atom_site_occupancy
  Nb  Nb0  1  0.000014  0.500023  0.000564  1
  Nb  Nb1  1  0.499846  0.999970  0.166778  1
  Nb  Nb2  1  0.999835  0.500016  0.333223  1
  Nb  Nb3  1  0.500001  0.000006  0.499432  1
  Nb  Nb4  1  0.000158  0.499987  0.666210  1
  Nb  Nb5  1  0.500169  0.000004  0.833792  1
  Al  Al6  1  0.000148  0.000004  0.666736  1
  Al  Al7  1  0.500143  0.499998  0.833264  1
  Ga  Ga8  1  0.000006  0.999999  0.999849  1
  Ga  Ga9  1  0.499837  0.499998  0.166595  1
  Ga  Ga10  1  0.999832  0.000001  0.333402  1
  Ga  Ga11  1  0.500002  0.500001  0.500152  1
  Ru  Ru12  1  0.500027  0.251714  0.999136  1
  Ru  Ru13  1  0.499989  0.748292  0.999111  1
  Ru  Ru14  1  0.999813  0.249500  0.166697  1
  Ru  Ru15  1  0.999849  0.750497  0.166721  1
  Ru  Ru16  1  0.499847  0.250503  0.333304  1
  Ru  Ru17  1  0.499812  0.749499  0.333281  1
  Ru  Ru18  1  0.999987  0.248285  0.500864  1
  Ru  Ru19  1  0.000025  0.751708  0.500889  1
  Ru  Ru20  1  0.500180  0.249093  0.667528  1
  Ru  Ru21  1  0.500149  0.750899  0.667506  1
  Ru  Ru22  1  0.000149  0.250906  0.832471  1
  Ru  Ru23  1  0.000184  0.749101  0.832494  1
