# generated using pymatgen
data_CaSc2V2Si7Pt9
_symmetry_space_group_name_H-M   'P 1'
_cell_length_a   9.90550400
_cell_length_b   9.93792054
_cell_length_c   3.89865200
_cell_angle_alpha   90.00000000
_cell_angle_beta   90.00000000
_cell_angle_gamma   120.05344389
_symmetry_Int_Tables_number   1
_chemical_formula_structural   CaSc2V2Si7Pt9
_chemical_formula_sum   'Ca1 Sc2 V2 Si7 Pt9'
_cell_volume   332.18733100
_cell_formula_units_Z   1
loop_
 _symmetry_equiv_pos_site_id
 _symmetry_equiv_pos_as_xyz
  1  'x, y, z'
loop_
 _atom_site_type_symbol
 _atom_site_label
 _atom_site_symmetry_multiplicity
 _atom_site_fract_x
 _atom_site_fract_y
 _atom_site_fract_z
 _atom_site_occupancy
  Ca  Ca0  1  0.333014  0.668728  0.500000  1
  Sc  Sc1  1  0.997259  0.995773  0.000000  1
  Sc  Sc2  1  0.543572  0.433409  0.500000  1
  V  V3  1  0.886742  0.453241  0.500000  1
  V  V4  1  0.573505  0.114071  0.500000  1
  Si  Si5  1  0.239563  0.196916  0.500000  1
  Si  Si6  1  0.794097  0.046160  0.500000  1
  Si  Si7  1  0.955955  0.742972  0.500000  1
  Si  Si8  1  0.551513  0.642470  0.000000  1
  Si  Si9  1  0.366435  0.918274  0.000000  1
  Si  Si10  1  0.083144  0.450820  0.000000  1
  Si  Si11  1  0.670502  0.329133  0.000000  1
  Pt  Pt12  1  0.223163  0.943758  0.500000  1
  Pt  Pt13  1  0.053448  0.279641  0.500000  1
  Pt  Pt14  1  0.726865  0.781206  0.500000  1
  Pt  Pt15  1  0.304826  0.406910  0.000000  1
  Pt  Pt16  1  0.597199  0.904136  0.000000  1
  Pt  Pt17  1  0.099380  0.696553  0.000000  1
  Pt  Pt18  1  0.389644  0.174437  0.000000  1
  Pt  Pt19  1  0.827424  0.214548  0.000000  1
  Pt  Pt20  1  0.782747  0.606847  0.000000  1
