# generated using pymatgen
data_EuSeBr
_symmetry_space_group_name_H-M   'P 1'
_cell_length_a   8.14904700
_cell_length_b   7.64942714
_cell_length_c   5.61470805
_cell_angle_alpha   89.97655194
_cell_angle_beta   90.00000000
_cell_angle_gamma   90.00000000
_symmetry_Int_Tables_number   1
_chemical_formula_structural   EuSeBr
_chemical_formula_sum   'Eu4 Se4 Br4'
_cell_volume   349.99583612
_cell_formula_units_Z   4
loop_
 _symmetry_equiv_pos_site_id
 _symmetry_equiv_pos_as_xyz
  1  'x, y, z'
loop_
 _atom_site_type_symbol
 _atom_site_label
 _atom_site_symmetry_multiplicity
 _atom_site_fract_x
 _atom_site_fract_y
 _atom_site_fract_z
 _atom_site_occupancy
  Eu  Eu0  1  0.951870  0.226487  0.248668  1
  Eu  Eu1  1  0.451870  0.773513  0.251332  1
  Eu  Eu2  1  0.048130  0.773513  0.751332  1
  Eu  Eu3  1  0.548130  0.226487  0.748668  1
  Se  Se4  1  0.750208  0.936043  0.500086  1
  Se  Se5  1  0.250208  0.063957  0.999914  1
  Se  Se6  1  0.249792  0.063957  0.499914  1
  Se  Se7  1  0.749792  0.936043  0.000086  1
  Br  Br8  1  0.899884  0.390539  0.748873  1
  Br  Br9  1  0.399884  0.609461  0.751127  1
  Br  Br10  1  0.100116  0.609461  0.251127  1
  Br  Br11  1  0.600116  0.390539  0.248873  1
