# generated using pymatgen
data_Hf2ZrSn(SeO3)8
_symmetry_space_group_name_H-M   'P 1'
_cell_length_a   8.62218806
_cell_length_b   8.62038721
_cell_length_c   8.62324207
_cell_angle_alpha   89.78644113
_cell_angle_beta   90.21423161
_cell_angle_gamma   89.73435887
_symmetry_Int_Tables_number   1
_chemical_formula_structural   Hf2ZrSn(SeO3)8
_chemical_formula_sum   'Hf2 Zr1 Sn1 Se8 O24'
_cell_volume   640.92039889
_cell_formula_units_Z   1
loop_
 _symmetry_equiv_pos_site_id
 _symmetry_equiv_pos_as_xyz
  1  'x, y, z'
loop_
 _atom_site_type_symbol
 _atom_site_label
 _atom_site_symmetry_multiplicity
 _atom_site_fract_x
 _atom_site_fract_y
 _atom_site_fract_z
 _atom_site_occupancy
  Hf  Hf0  1  0.500000  0.000000  0.500000  1
  Hf  Hf1  1  0.000000  0.000000  0.000000  1
  Zr  Zr2  1  0.500000  0.500000  0.000000  1
  Sn  Sn3  1  0.000000  0.500000  0.500000  1
  Se  Se4  1  0.822212  0.195442  0.677558  1
  Se  Se5  1  0.177788  0.804558  0.322442  1
  Se  Se6  1  0.696257  0.678233  0.675901  1
  Se  Se7  1  0.175770  0.678351  0.803714  1
  Se  Se8  1  0.314794  0.182921  0.814843  1
  Se  Se9  1  0.824230  0.321649  0.196286  1
  Se  Se10  1  0.685206  0.817079  0.185157  1
  Se  Se11  1  0.303743  0.321767  0.324099  1
  O  O12  1  0.234446  0.452209  0.461945  1
  O  O13  1  0.946814  0.222097  0.075476  1
  O  O14  1  0.039630  0.735195  0.452667  1
  O  O15  1  0.453253  0.271207  0.928363  1
  O  O16  1  0.277421  0.925260  0.445313  1
  O  O17  1  0.575388  0.554937  0.774241  1
  O  O18  1  0.935002  0.061626  0.775327  1
  O  O19  1  0.546747  0.728793  0.071637  1
  O  O20  1  0.571981  0.954808  0.275061  1
  O  O21  1  0.428019  0.045192  0.724939  1
  O  O22  1  0.775034  0.929847  0.047002  1
  O  O23  1  0.272035  0.565207  0.937884  1
  O  O24  1  0.045995  0.539855  0.734383  1
  O  O25  1  0.064998  0.938374  0.224673  1
  O  O26  1  0.224966  0.070153  0.952998  1
  O  O27  1  0.424612  0.445063  0.225759  1
  O  O28  1  0.765554  0.547791  0.538055  1
  O  O29  1  0.954005  0.460145  0.265617  1
  O  O30  1  0.053186  0.777903  0.924524  1
  O  O31  1  0.438031  0.224192  0.436247  1
  O  O32  1  0.561969  0.775808  0.563753  1
  O  O33  1  0.960370  0.264805  0.547333  1
  O  O34  1  0.722579  0.074740  0.554687  1
  O  O35  1  0.727965  0.434793  0.062116  1
