# generated using pymatgen
data_Ce2Ho6Si12PtRh3
_symmetry_space_group_name_H-M   'P 1'
_cell_length_a   8.16548500
_cell_length_b   8.16548487
_cell_length_c   8.00755600
_cell_angle_alpha   90.00000000
_cell_angle_beta   90.00000000
_cell_angle_gamma   120.00000460
_symmetry_Int_Tables_number   1
_chemical_formula_structural   Ce2Ho6Si12PtRh3
_chemical_formula_sum   'Ce2 Ho6 Si12 Pt1 Rh3'
_cell_volume   462.37522924
_cell_formula_units_Z   1
loop_
 _symmetry_equiv_pos_site_id
 _symmetry_equiv_pos_as_xyz
  1  'x, y, z'
loop_
 _atom_site_type_symbol
 _atom_site_label
 _atom_site_symmetry_multiplicity
 _atom_site_fract_x
 _atom_site_fract_y
 _atom_site_fract_z
 _atom_site_occupancy
  Ce  Ce0  1  0.000000  0.000000  0.249143  1
  Ce  Ce1  1  0.000000  0.000000  0.751355  1
  Ho  Ho2  1  0.509650  0.490350  0.247801  1
  Ho  Ho3  1  0.509650  0.019301  0.247801  1
  Ho  Ho4  1  0.980699  0.490350  0.247801  1
  Ho  Ho5  1  0.491987  0.508013  0.752024  1
  Ho  Ho6  1  0.491987  0.983974  0.752024  1
  Ho  Ho7  1  0.016026  0.508013  0.752024  1
  Si  Si8  1  0.164997  0.835003  0.500384  1
  Si  Si9  1  0.164997  0.329992  0.500384  1
  Si  Si10  1  0.670008  0.835003  0.500384  1
  Si  Si11  1  0.831764  0.168236  0.499330  1
  Si  Si12  1  0.831764  0.663531  0.499330  1
  Si  Si13  1  0.336469  0.168236  0.499330  1
  Si  Si14  1  0.832616  0.167384  0.000170  1
  Si  Si15  1  0.832616  0.665233  0.000170  1
  Si  Si16  1  0.334767  0.167384  0.000170  1
  Si  Si17  1  0.167469  0.832531  0.999890  1
  Si  Si18  1  0.167469  0.334936  0.999890  1
  Si  Si19  1  0.665064  0.832531  0.999890  1
  Pt  Pt20  1  0.333333  0.666667  0.469137  1
  Rh  Rh21  1  0.666667  0.333333  0.532997  1
  Rh  Rh22  1  0.666667  0.333333  0.966651  1
  Rh  Rh23  1  0.333333  0.666667  0.031918  1
