# generated using pymatgen
data_LaDyCo3P7Ru9
_symmetry_space_group_name_H-M   'P 1'
_cell_length_a   9.37915700
_cell_length_b   9.37915669
_cell_length_c   3.84654300
_cell_angle_alpha   90.00000000
_cell_angle_beta   90.00000000
_cell_angle_gamma   120.00000558
_symmetry_Int_Tables_number   1
_chemical_formula_structural   LaDyCo3P7Ru9
_chemical_formula_sum   'La1 Dy1 Co3 P7 Ru9'
_cell_volume   293.04127541
_cell_formula_units_Z   1
loop_
 _symmetry_equiv_pos_site_id
 _symmetry_equiv_pos_as_xyz
  1  'x, y, z'
loop_
 _atom_site_type_symbol
 _atom_site_label
 _atom_site_symmetry_multiplicity
 _atom_site_fract_x
 _atom_site_fract_y
 _atom_site_fract_z
 _atom_site_occupancy
  La  La0  1  0.333333  0.666667  0.000000  1
  Dy  Dy1  1  0.666667  0.333333  0.500000  1
  Co  Co2  1  0.157695  0.889562  0.000000  1
  Co  Co3  1  0.110438  0.268133  0.000000  1
  Co  Co4  1  0.731867  0.842305  0.000000  1
  P  P5  1  0.412672  0.108531  0.000000  1
  P  P6  1  0.891469  0.304141  0.000000  1
  P  P7  1  0.695859  0.587328  0.000000  1
  P  P8  1  0.110786  0.716372  0.500000  1
  P  P9  1  0.283628  0.394414  0.500000  1
  P  P10  1  0.605586  0.889214  0.500000  1
  P  P11  1  0.000000  0.000000  0.000000  1
  Ru  Ru12  1  0.424040  0.360207  0.000000  1
  Ru  Ru13  1  0.639793  0.063833  0.000000  1
  Ru  Ru14  1  0.936167  0.575960  0.000000  1
  Ru  Ru15  1  0.384541  0.951898  0.500000  1
  Ru  Ru16  1  0.048102  0.432643  0.500000  1
  Ru  Ru17  1  0.567357  0.615459  0.500000  1
  Ru  Ru18  1  0.203813  0.118113  0.500000  1
  Ru  Ru19  1  0.881887  0.085700  0.500000  1
  Ru  Ru20  1  0.914300  0.796187  0.500000  1
