# generated using pymatgen
data_Co4Os7RuO24
_symmetry_space_group_name_H-M   'P 1'
_cell_length_a   4.59790035
_cell_length_b   10.42592004
_cell_length_c   9.18087978
_cell_angle_alpha   63.88287640
_cell_angle_beta   90.06692702
_cell_angle_gamma   90.02956455
_symmetry_Int_Tables_number   1
_chemical_formula_structural   Co4Os7RuO24
_chemical_formula_sum   'Co4 Os7 Ru1 O24'
_cell_volume   395.17004111
_cell_formula_units_Z   1
loop_
 _symmetry_equiv_pos_site_id
 _symmetry_equiv_pos_as_xyz
  1  'x, y, z'
loop_
 _atom_site_type_symbol
 _atom_site_label
 _atom_site_symmetry_multiplicity
 _atom_site_fract_x
 _atom_site_fract_y
 _atom_site_fract_z
 _atom_site_occupancy
  Co  Co0  1  0.500783  0.500186  0.997510  1
  Co  Co1  1  0.000009  0.999751  0.500125  1
  Co  Co2  1  0.499201  0.500181  0.502307  1
  Co  Co3  1  0.000008  0.001031  0.999487  1
  Os  Os4  1  0.498666  0.170503  0.162810  1
  Os  Os5  1  0.501361  0.170513  0.666690  1
  Os  Os6  1  0.999989  0.669460  0.165263  1
  Os  Os7  1  0.999996  0.666930  0.666516  1
  Os  Os8  1  0.500349  0.831370  0.834064  1
  Os  Os9  1  0.499629  0.831362  0.334568  1
  Os  Os10  1  0.000007  0.330437  0.334778  1
  Ru  Ru11  1  0.000014  0.330238  0.834924  1
  O  O12  1  0.186246  0.502455  0.842299  1
  O  O13  1  0.184819  0.500276  0.341923  1
  O  O14  1  0.815176  0.500261  0.157793  1
  O  O15  1  0.813755  0.502421  0.655276  1
  O  O16  1  0.316715  0.000276  0.342707  1
  O  O17  1  0.314884  0.000179  0.841770  1
  O  O18  1  0.685125  0.000162  0.158051  1
  O  O19  1  0.683277  0.000271  0.657021  1
  O  O20  1  0.204625  0.172575  0.016239  1
  O  O21  1  0.203675  0.174516  0.514607  1
  O  O22  1  0.796358  0.174497  0.310881  1
  O  O23  1  0.795380  0.172587  0.811212  1
  O  O24  1  0.297989  0.676122  0.014667  1
  O  O25  1  0.295551  0.676038  0.513420  1
  O  O26  1  0.704434  0.676050  0.810511  1
  O  O27  1  0.701987  0.676107  0.309197  1
  O  O28  1  0.797134  0.824551  0.985428  1
  O  O29  1  0.796219  0.822906  0.486599  1
  O  O30  1  0.203775  0.822912  0.690477  1
  O  O31  1  0.202851  0.824549  0.190012  1
  O  O32  1  0.698020  0.325340  0.987983  1
  O  O33  1  0.704400  0.323823  0.485776  1
  O  O34  1  0.295621  0.323815  0.190402  1
  O  O35  1  0.301971  0.325351  0.686709  1
