# generated using pymatgen
data_Er19Tm(Bi2Ir)4
_symmetry_space_group_name_H-M   'P 1'
_cell_length_a   7.92828055
_cell_length_b   8.96789680
_cell_length_c   12.41227618
_cell_angle_alpha   89.99259040
_cell_angle_beta   90.01757995
_cell_angle_gamma   89.90974318
_symmetry_Int_Tables_number   1
_chemical_formula_structural   Er19Tm(Bi2Ir)4
_chemical_formula_sum   'Er19 Tm1 Bi8 Ir4'
_cell_volume   882.51171425
_cell_formula_units_Z   1
loop_
 _symmetry_equiv_pos_site_id
 _symmetry_equiv_pos_as_xyz
  1  'x, y, z'
loop_
 _atom_site_type_symbol
 _atom_site_label
 _atom_site_symmetry_multiplicity
 _atom_site_fract_x
 _atom_site_fract_y
 _atom_site_fract_z
 _atom_site_occupancy
  Er  Er0  1  0.661828  0.749859  0.707006  1
  Er  Er1  1  0.338276  0.250057  0.293163  1
  Er  Er2  1  0.161639  0.250107  0.792964  1
  Er  Er3  1  0.838484  0.749984  0.206851  1
  Er  Er4  1  0.122436  0.749769  0.808514  1
  Er  Er5  1  0.877078  0.250273  0.191260  1
  Er  Er6  1  0.622587  0.249934  0.691595  1
  Er  Er7  1  0.377304  0.750082  0.308560  1
  Er  Er8  1  0.555875  0.749714  0.998793  1
  Er  Er9  1  0.444953  0.250163  0.001098  1
  Er  Er10  1  0.055117  0.250306  0.501149  1
  Er  Er11  1  0.944831  0.749746  0.498853  1
  Er  Er12  1  0.174703  0.542638  0.066167  1
  Er  Er13  1  0.324963  0.542837  0.566438  1
  Er  Er14  1  0.174818  0.957556  0.066074  1
  Er  Er15  1  0.674879  0.457258  0.433748  1
  Er  Er16  1  0.825208  0.042668  0.933594  1
  Er  Er17  1  0.674698  0.042904  0.433799  1
  Er  Er18  1  0.325209  0.957227  0.566337  1
  Tm  Tm19  1  0.826339  0.457170  0.933864  1
  Bi  Bi20  1  0.932955  0.009601  0.672466  1
  Bi  Bi21  1  0.066801  0.990506  0.327413  1
  Bi  Bi22  1  0.432908  0.990269  0.827598  1
  Bi  Bi23  1  0.066925  0.509557  0.327422  1
  Bi  Bi24  1  0.566897  0.009555  0.172479  1
  Bi  Bi25  1  0.932823  0.490296  0.672642  1
  Bi  Bi26  1  0.566690  0.490424  0.172692  1
  Bi  Bi27  1  0.433540  0.509490  0.827628  1
  Ir  Ir28  1  0.927575  0.749615  0.991346  1
  Ir  Ir29  1  0.071805  0.250329  0.008335  1
  Ir  Ir30  1  0.427465  0.250193  0.508720  1
  Ir  Ir31  1  0.572387  0.749914  0.491433  1
