# generated using pymatgen
data_Sc22TcRu5Rh2
_symmetry_space_group_name_H-M   'P 1'
_cell_length_a   9.50153861
_cell_length_b   9.48661092
_cell_length_c   9.43493109
_cell_angle_alpha   60.28454509
_cell_angle_beta   60.12722063
_cell_angle_gamma   60.41926239
_symmetry_Int_Tables_number   1
_chemical_formula_structural   Sc22TcRu5Rh2
_chemical_formula_sum   'Sc22 Tc1 Ru5 Rh2'
_cell_volume   605.11432911
_cell_formula_units_Z   1
loop_
 _symmetry_equiv_pos_site_id
 _symmetry_equiv_pos_as_xyz
  1  'x, y, z'
loop_
 _atom_site_type_symbol
 _atom_site_label
 _atom_site_symmetry_multiplicity
 _atom_site_fract_x
 _atom_site_fract_y
 _atom_site_fract_z
 _atom_site_occupancy
  Sc  Sc0  1  0.803250  0.803250  0.196750  1
  Sc  Sc1  1  0.199788  0.800212  0.196390  1
  Sc  Sc2  1  0.801008  0.198992  0.195747  1
  Sc  Sc3  1  0.196750  0.196750  0.803250  1
  Sc  Sc4  1  0.800212  0.199788  0.803610  1
  Sc  Sc5  1  0.198992  0.801008  0.804253  1
  Sc  Sc6  1  0.613470  0.616637  0.149368  1
  Sc  Sc7  1  0.615887  0.152525  0.617149  1
  Sc  Sc8  1  0.152525  0.615887  0.614441  1
  Sc  Sc9  1  0.616637  0.613470  0.620526  1
  Sc  Sc10  1  0.386530  0.383363  0.850632  1
  Sc  Sc11  1  0.384113  0.847475  0.382851  1
  Sc  Sc12  1  0.847475  0.384113  0.385559  1
  Sc  Sc13  1  0.383363  0.386530  0.379474  1
  Sc  Sc14  1  0.846389  0.843743  0.470091  1
  Sc  Sc15  1  0.846284  0.469693  0.840360  1
  Sc  Sc16  1  0.469693  0.846284  0.843662  1
  Sc  Sc17  1  0.843743  0.846389  0.839775  1
  Sc  Sc18  1  0.153611  0.156257  0.529909  1
  Sc  Sc19  1  0.153716  0.530307  0.159640  1
  Sc  Sc20  1  0.530307  0.153716  0.156338  1
  Sc  Sc21  1  0.156257  0.153611  0.160225  1
  Tc  Tc22  1  0.500000  0.500000  0.000000  1
  Ru  Ru23  1  0.000000  0.000000  0.000000  1
  Ru  Ru24  1  0.500000  0.500000  0.500000  1
  Ru  Ru25  1  0.000000  0.000000  0.500000  1
  Ru  Ru26  1  0.000000  0.500000  0.500000  1
  Ru  Ru27  1  0.500000  0.000000  0.000000  1
  Rh  Rh28  1  0.500000  0.000000  0.500000  1
  Rh  Rh29  1  0.000000  0.500000  0.000000  1
