# generated using pymatgen
data_Dy11Y4Ho5(CoSb2)4
_symmetry_space_group_name_H-M   'P 1'
_cell_length_a   7.90341105
_cell_length_b   8.75610207
_cell_length_c   12.21758905
_cell_angle_alpha   89.99110211
_cell_angle_beta   89.99380975
_cell_angle_gamma   90.01106041
_symmetry_Int_Tables_number   1
_chemical_formula_structural   Dy11Y4Ho5(CoSb2)4
_chemical_formula_sum   'Dy11 Y4 Ho5 Co4 Sb8'
_cell_volume   845.49468634
_cell_formula_units_Z   1
loop_
 _symmetry_equiv_pos_site_id
 _symmetry_equiv_pos_as_xyz
  1  'x, y, z'
loop_
 _atom_site_type_symbol
 _atom_site_label
 _atom_site_symmetry_multiplicity
 _atom_site_fract_x
 _atom_site_fract_y
 _atom_site_fract_z
 _atom_site_occupancy
  Dy  Dy0  1  0.454216  0.749891  0.998255  1
  Dy  Dy1  1  0.045367  0.749916  0.498312  1
  Dy  Dy2  1  0.544990  0.250197  0.001701  1
  Dy  Dy3  1  0.954660  0.249938  0.501734  1
  Dy  Dy4  1  0.622167  0.750140  0.306627  1
  Dy  Dy5  1  0.877999  0.749713  0.806731  1
  Dy  Dy6  1  0.377825  0.250036  0.693446  1
  Dy  Dy7  1  0.122360  0.250123  0.193193  1
  Dy  Dy8  1  0.321685  0.035213  0.435164  1
  Dy  Dy9  1  0.821640  0.965069  0.064747  1
  Dy  Dy10  1  0.678327  0.535275  0.564894  1
  Y  Y11  1  0.155077  0.749873  0.204137  1
  Y  Y12  1  0.344906  0.750038  0.704135  1
  Y  Y13  1  0.845019  0.250061  0.795956  1
  Y  Y14  1  0.655141  0.250064  0.295855  1
  Ho  Ho15  1  0.822627  0.535035  0.064667  1
  Ho  Ho16  1  0.677465  0.964644  0.564774  1
  Ho  Ho17  1  0.177472  0.035454  0.935181  1
  Ho  Ho18  1  0.322564  0.464870  0.435242  1
  Ho  Ho19  1  0.177435  0.464464  0.935168  1
  Co  Co20  1  0.434898  0.750150  0.489808  1
  Co  Co21  1  0.065305  0.749707  0.989807  1
  Co  Co22  1  0.565112  0.250143  0.510221  1
  Co  Co23  1  0.935591  0.250147  0.010031  1
  Sb  Sb24  1  0.928801  0.508081  0.327094  1
  Sb  Sb25  1  0.571308  0.991876  0.827157  1
  Sb  Sb26  1  0.071215  0.008098  0.672893  1
  Sb  Sb27  1  0.428977  0.491921  0.172930  1
  Sb  Sb28  1  0.071676  0.491726  0.672948  1
  Sb  Sb29  1  0.428489  0.008204  0.172808  1
  Sb  Sb30  1  0.928566  0.991825  0.327099  1
  Sb  Sb31  1  0.571120  0.508109  0.827286  1
