# generated using pymatgen
data_Y18ErTmSn16
_symmetry_space_group_name_H-M   'P 1'
_cell_length_a   8.04972200
_cell_length_b   8.19300380
_cell_length_c   15.49973500
_cell_angle_alpha   90.00000000
_cell_angle_beta   90.00000000
_cell_angle_gamma   89.97471238
_symmetry_Int_Tables_number   1
_chemical_formula_structural   Y18ErTmSn16
_chemical_formula_sum   'Y18 Er1 Tm1 Sn16'
_cell_volume   1022.22916856
_cell_formula_units_Z   1
loop_
 _symmetry_equiv_pos_site_id
 _symmetry_equiv_pos_as_xyz
  1  'x, y, z'
loop_
 _atom_site_type_symbol
 _atom_site_label
 _atom_site_symmetry_multiplicity
 _atom_site_fract_x
 _atom_site_fract_y
 _atom_site_fract_z
 _atom_site_occupancy
  Y  Y0  1  0.367505  0.836308  0.877813  1
  Y  Y1  1  0.867994  0.663464  0.622326  1
  Y  Y2  1  0.632277  0.163432  0.377980  1
  Y  Y3  1  0.132348  0.336407  0.121839  1
  Y  Y4  1  0.632277  0.163432  0.122020  1
  Y  Y5  1  0.132348  0.336407  0.378161  1
  Y  Y6  1  0.367505  0.836308  0.622187  1
  Y  Y7  1  0.867994  0.663464  0.877674  1
  Y  Y8  1  0.520926  0.320609  0.902177  1
  Y  Y9  1  0.021299  0.179644  0.597781  1
  Y  Y10  1  0.478845  0.679566  0.402429  1
  Y  Y11  1  0.978881  0.820532  0.097617  1
  Y  Y12  1  0.478845  0.679566  0.097571  1
  Y  Y13  1  0.978881  0.820532  0.402383  1
  Y  Y14  1  0.520926  0.320609  0.597823  1
  Y  Y15  1  0.021299  0.179644  0.902219  1
  Y  Y16  1  0.698723  0.997470  0.750000  1
  Y  Y17  1  0.801040  0.497434  0.250000  1
  Er  Er18  1  0.198949  0.502951  0.750000  1
  Tm  Tm19  1  0.300953  0.002829  0.250000  1
  Sn  Sn20  1  0.292666  0.035479  0.042131  1
  Sn  Sn21  1  0.792436  0.464157  0.458479  1
  Sn  Sn22  1  0.707440  0.964160  0.541804  1
  Sn  Sn23  1  0.207329  0.535508  0.957701  1
  Sn  Sn24  1  0.707440  0.964160  0.958196  1
  Sn  Sn25  1  0.207329  0.535508  0.542299  1
  Sn  Sn26  1  0.292666  0.035479  0.457869  1
  Sn  Sn27  1  0.792436  0.464157  0.041521  1
  Sn  Sn28  1  0.564621  0.618098  0.750000  1
  Sn  Sn29  1  0.065749  0.881224  0.750000  1
  Sn  Sn30  1  0.434006  0.380789  0.250000  1
  Sn  Sn31  1  0.935673  0.118117  0.250000  1
  Sn  Sn32  1  0.329601  0.148016  0.750000  1
  Sn  Sn33  1  0.830859  0.353122  0.750000  1
  Sn  Sn34  1  0.669402  0.853210  0.250000  1
  Sn  Sn35  1  0.170533  0.648204  0.250000  1
