# generated using pymatgen
data_ZrNb5(ZnIr2)6
_symmetry_space_group_name_H-M   'P 1'
_cell_length_a   4.14143500
_cell_length_b   7.19141700
_cell_length_c   12.42912700
_cell_angle_alpha   90.00000000
_cell_angle_beta   90.00210252
_cell_angle_gamma   90.00000000
_symmetry_Int_Tables_number   1
_chemical_formula_structural   ZrNb5(ZnIr2)6
_chemical_formula_sum   'Zr1 Nb5 Zn6 Ir12'
_cell_volume   370.17403027
_cell_formula_units_Z   1
loop_
 _symmetry_equiv_pos_site_id
 _symmetry_equiv_pos_as_xyz
  1  'x, y, z'
loop_
 _atom_site_type_symbol
 _atom_site_label
 _atom_site_symmetry_multiplicity
 _atom_site_fract_x
 _atom_site_fract_y
 _atom_site_fract_z
 _atom_site_occupancy
  Zr  Zr0  1  0.500070  0.500000  0.833347  1
  Nb  Nb1  1  0.000007  0.000000  0.002961  1
  Nb  Nb2  1  0.499946  0.500000  0.166232  1
  Nb  Nb3  1  0.999918  0.000000  0.333324  1
  Nb  Nb4  1  0.499991  0.500000  0.500436  1
  Nb  Nb5  1  0.000058  0.000000  0.663719  1
  Zn  Zn6  1  0.000023  0.500000  0.000946  1
  Zn  Zn7  1  0.499925  0.000000  0.170202  1
  Zn  Zn8  1  0.999912  0.500000  0.333307  1
  Zn  Zn9  1  0.499978  0.000000  0.496441  1
  Zn  Zn10  1  0.000075  0.500000  0.665760  1
  Zn  Zn11  1  0.500094  0.000000  0.833341  1
  Ir  Ir12  1  0.500004  0.243799  0.003546  1
  Ir  Ir13  1  0.500004  0.756202  0.003546  1
  Ir  Ir14  1  0.999952  0.250931  0.167796  1
  Ir  Ir15  1  0.999952  0.749069  0.167796  1
  Ir  Ir16  1  0.499933  0.253207  0.333329  1
  Ir  Ir17  1  0.499933  0.746794  0.333329  1
  Ir  Ir18  1  0.999988  0.250947  0.498866  1
  Ir  Ir19  1  0.999988  0.749050  0.498866  1
  Ir  Ir20  1  0.500053  0.243823  0.663122  1
  Ir  Ir21  1  0.500053  0.756178  0.663122  1
  Ir  Ir22  1  0.000070  0.238785  0.833335  1
  Ir  Ir23  1  0.000070  0.761215  0.833335  1
