# generated using pymatgen
data_YEr7Ga3Os
_symmetry_space_group_name_H-M   'P 1'
_cell_length_a   9.94925900
_cell_length_b   9.94925921
_cell_length_c   7.03172300
_cell_angle_alpha   90.00000000
_cell_angle_beta   90.00000000
_cell_angle_gamma   120.00000262
_symmetry_Int_Tables_number   1
_chemical_formula_structural   YEr7Ga3Os
_chemical_formula_sum   'Y2 Er14 Ga6 Os2'
_cell_volume   602.80085138
_cell_formula_units_Z   2
loop_
 _symmetry_equiv_pos_site_id
 _symmetry_equiv_pos_as_xyz
  1  'x, y, z'
loop_
 _atom_site_type_symbol
 _atom_site_label
 _atom_site_symmetry_multiplicity
 _atom_site_fract_x
 _atom_site_fract_y
 _atom_site_fract_z
 _atom_site_occupancy
  Y  Y0  1  0.000000  0.000000  0.267175  1
  Y  Y1  1  0.000000  0.000000  0.767175  1
  Er  Er2  1  0.172289  0.827711  0.990312  1
  Er  Er3  1  0.827711  0.172289  0.490312  1
  Er  Er4  1  0.172289  0.344579  0.990312  1
  Er  Er5  1  0.655421  0.827711  0.990312  1
  Er  Er6  1  0.344579  0.172289  0.490312  1
  Er  Er7  1  0.827711  0.655421  0.490312  1
  Er  Er8  1  0.333333  0.666667  0.661284  1
  Er  Er9  1  0.666667  0.333333  0.161284  1
  Er  Er10  1  0.465494  0.534506  0.295672  1
  Er  Er11  1  0.534506  0.465494  0.795672  1
  Er  Er12  1  0.465494  0.930988  0.295672  1
  Er  Er13  1  0.069012  0.534506  0.295672  1
  Er  Er14  1  0.930988  0.465494  0.795672  1
  Er  Er15  1  0.534506  0.069012  0.795672  1
  Ga  Ga16  1  0.164089  0.835911  0.543368  1
  Ga  Ga17  1  0.835911  0.164089  0.043368  1
  Ga  Ga18  1  0.164089  0.328179  0.543368  1
  Ga  Ga19  1  0.671821  0.835911  0.543368  1
  Ga  Ga20  1  0.328179  0.164089  0.043368  1
  Ga  Ga21  1  0.835911  0.671821  0.043368  1
  Os  Os22  1  0.333333  0.666667  0.056546  1
  Os  Os23  1  0.666667  0.333333  0.556546  1
