# generated using pymatgen
data_Li(LaP)2
_symmetry_space_group_name_H-M   'P 1'
_cell_length_a   4.25602300
_cell_length_b   4.25602408
_cell_length_c   14.97199500
_cell_angle_alpha   90.00000000
_cell_angle_beta   90.00000000
_cell_angle_gamma   119.99999935
_symmetry_Int_Tables_number   1
_chemical_formula_structural   Li(LaP)2
_chemical_formula_sum   'Li2 La4 P4'
_cell_volume   234.86502641
_cell_formula_units_Z   2
loop_
 _symmetry_equiv_pos_site_id
 _symmetry_equiv_pos_as_xyz
  1  'x, y, z'
loop_
 _atom_site_type_symbol
 _atom_site_label
 _atom_site_symmetry_multiplicity
 _atom_site_fract_x
 _atom_site_fract_y
 _atom_site_fract_z
 _atom_site_occupancy
  Li  Li0  1  0.000000  0.000000  0.250000  1
  Li  Li1  1  0.000000  0.000000  0.750000  1
  La  La2  1  0.333333  0.666667  0.110072  1
  La  La3  1  0.333333  0.666667  0.389928  1
  La  La4  1  0.666667  0.333332  0.610072  1
  La  La5  1  0.666667  0.333332  0.889928  1
  P  P6  1  0.000000  0.000000  0.000000  1
  P  P7  1  0.666667  0.333332  0.250000  1
  P  P8  1  0.000000  0.000000  0.500000  1
  P  P9  1  0.333333  0.666667  0.750000  1
