# generated using pymatgen
data_Y2ErNi6B2Ru
_symmetry_space_group_name_H-M   'P 1'
_cell_length_a   5.07264302
_cell_length_b   5.07300473
_cell_length_c   14.64958300
_cell_angle_alpha   90.00000000
_cell_angle_beta   90.00000000
_cell_angle_gamma   119.98653525
_symmetry_Int_Tables_number   1
_chemical_formula_structural   Y2ErNi6B2Ru
_chemical_formula_sum   'Y4 Er2 Ni12 B4 Ru2'
_cell_volume   326.52344626
_cell_formula_units_Z   2
loop_
 _symmetry_equiv_pos_site_id
 _symmetry_equiv_pos_as_xyz
  1  'x, y, z'
loop_
 _atom_site_type_symbol
 _atom_site_label
 _atom_site_symmetry_multiplicity
 _atom_site_fract_x
 _atom_site_fract_y
 _atom_site_fract_z
 _atom_site_occupancy
  Y  Y0  1  0.333281  0.666651  0.469436  1
  Y  Y1  1  0.666719  0.333349  0.969436  1
  Y  Y2  1  0.666719  0.333349  0.530564  1
  Y  Y3  1  0.333281  0.666651  0.030564  1
  Er  Er4  1  0.666788  0.333396  0.750000  1
  Er  Er5  1  0.333212  0.666604  0.250000  1
  Ni  Ni6  1  0.835019  0.164730  0.346316  1
  Ni  Ni7  1  0.835035  0.670339  0.346319  1
  Ni  Ni8  1  0.835035  0.670339  0.153681  1
  Ni  Ni9  1  0.164981  0.835270  0.653684  1
  Ni  Ni10  1  0.670685  0.835335  0.653821  1
  Ni  Ni11  1  0.329315  0.164665  0.153821  1
  Ni  Ni12  1  0.835019  0.164730  0.153684  1
  Ni  Ni13  1  0.164965  0.329661  0.846319  1
  Ni  Ni14  1  0.164981  0.835270  0.846316  1
  Ni  Ni15  1  0.164965  0.329661  0.653681  1
  Ni  Ni16  1  0.670685  0.835335  0.846179  1
  Ni  Ni17  1  0.329315  0.164665  0.346179  1
  B  B18  1  0.666800  0.333375  0.250000  1
  B  B19  1  0.333200  0.666625  0.750000  1
  B  B20  1  0.000502  0.000213  0.750000  1
  B  B21  1  0.999498  0.999787  0.250000  1
  Ru  Ru22  1  0.000000  0.000000  0.000000  1
  Ru  Ru23  1  0.000000  0.000000  0.500000  1
