# generated using pymatgen
data_Tb2SmNi2Rh7
_symmetry_space_group_name_H-M   'P 1'
_cell_length_a   5.27022148
_cell_length_b   5.27022039
_cell_length_c   8.99756269
_cell_angle_alpha   72.97018357
_cell_angle_beta   72.97018847
_cell_angle_gamma   60.00000136
_symmetry_Int_Tables_number   1
_chemical_formula_structural   Tb2SmNi2Rh7
_chemical_formula_sum   'Tb2 Sm1 Ni2 Rh7'
_cell_volume   203.67652871
_cell_formula_units_Z   1
loop_
 _symmetry_equiv_pos_site_id
 _symmetry_equiv_pos_as_xyz
  1  'x, y, z'
loop_
 _atom_site_type_symbol
 _atom_site_label
 _atom_site_symmetry_multiplicity
 _atom_site_fract_x
 _atom_site_fract_y
 _atom_site_fract_z
 _atom_site_occupancy
  Tb  Tb0  1  0.139447  0.139447  0.581660  1
  Tb  Tb1  1  0.860553  0.860553  0.418340  1
  Sm  Sm2  1  0.000000  0.000000  0.000000  1
  Ni  Ni3  1  0.333336  0.333336  0.999990  1
  Ni  Ni4  1  0.666664  0.666664  0.000010  1
  Rh  Rh5  1  0.078092  0.580966  0.759975  1
  Rh  Rh6  1  0.580966  0.580966  0.759975  1
  Rh  Rh7  1  0.580966  0.078092  0.759975  1
  Rh  Rh8  1  0.921908  0.419034  0.240025  1
  Rh  Rh9  1  0.419034  0.419034  0.240025  1
  Rh  Rh10  1  0.419034  0.921908  0.240025  1
  Rh  Rh11  1  0.500000  0.500000  0.500000  1
