# generated using pymatgen
data_Tb4Yb3Sn23Ir6
_symmetry_space_group_name_H-M   'P 1'
_cell_length_a   9.90884591
_cell_length_b   9.90884655
_cell_length_c   10.09917360
_cell_angle_alpha   89.96588472
_cell_angle_beta   90.03411290
_cell_angle_gamma   120.08099901
_symmetry_Int_Tables_number   1
_chemical_formula_structural   Tb4Yb3Sn23Ir6
_chemical_formula_sum   'Tb4 Yb3 Sn23 Ir6'
_cell_volume   858.03992163
_cell_formula_units_Z   1
loop_
 _symmetry_equiv_pos_site_id
 _symmetry_equiv_pos_as_xyz
  1  'x, y, z'
loop_
 _atom_site_type_symbol
 _atom_site_label
 _atom_site_symmetry_multiplicity
 _atom_site_fract_x
 _atom_site_fract_y
 _atom_site_fract_z
 _atom_site_occupancy
  Tb  Tb0  1  0.481053  0.964113  0.304208  1
  Tb  Tb1  1  0.518947  0.035887  0.695792  1
  Tb  Tb2  1  0.035887  0.518947  0.304208  1
  Tb  Tb3  1  0.964113  0.481053  0.695792  1
  Yb  Yb4  1  0.000000  0.000000  0.000000  1
  Yb  Yb5  1  0.481622  0.518378  0.302270  1
  Yb  Yb6  1  0.518378  0.481622  0.697730  1
  Sn  Sn7  1  0.351110  0.999712  0.999236  1
  Sn  Sn8  1  0.648890  0.000288  0.000764  1
  Sn  Sn9  1  0.999712  0.351110  0.000764  1
  Sn  Sn10  1  0.000288  0.648890  0.999236  1
  Sn  Sn11  1  0.650035  0.650035  0.000000  1
  Sn  Sn12  1  0.349965  0.349965  0.000000  1
  Sn  Sn13  1  0.334072  0.665928  0.823927  1
  Sn  Sn14  1  0.665928  0.334072  0.176073  1
  Sn  Sn15  1  0.000000  0.000000  0.500000  1
  Sn  Sn16  1  0.776238  0.223762  0.459006  1
  Sn  Sn17  1  0.223762  0.776238  0.540994  1
  Sn  Sn18  1  0.774563  0.553698  0.458692  1
  Sn  Sn19  1  0.225437  0.446302  0.541308  1
  Sn  Sn20  1  0.446302  0.225437  0.458692  1
  Sn  Sn21  1  0.553698  0.774563  0.541308  1
  Sn  Sn22  1  0.332349  0.667651  0.121307  1
  Sn  Sn23  1  0.667651  0.332349  0.878693  1
  Sn  Sn24  1  0.116891  0.883109  0.284805  1
  Sn  Sn25  1  0.883109  0.116891  0.715195  1
  Sn  Sn26  1  0.117678  0.234401  0.283492  1
  Sn  Sn27  1  0.882322  0.765599  0.716508  1
  Sn  Sn28  1  0.765599  0.882322  0.283492  1
  Sn  Sn29  1  0.234401  0.117678  0.716508  1
  Ir  Ir30  1  0.829607  0.170393  0.201937  1
  Ir  Ir31  1  0.170393  0.829607  0.798063  1
  Ir  Ir32  1  0.832118  0.661003  0.200685  1
  Ir  Ir33  1  0.167882  0.338997  0.799315  1
  Ir  Ir34  1  0.338997  0.167882  0.200685  1
  Ir  Ir35  1  0.661003  0.832118  0.799315  1
