# generated using pymatgen
data_Dy7Ho3(Pb3Cl)2
_symmetry_space_group_name_H-M   'P 1'
_cell_length_a   9.19048600
_cell_length_b   9.19048570
_cell_length_c   6.60217700
_cell_angle_alpha   90.00000000
_cell_angle_beta   90.00000000
_cell_angle_gamma   120.00000109
_symmetry_Int_Tables_number   1
_chemical_formula_structural   Dy7Ho3(Pb3Cl)2
_chemical_formula_sum   'Dy7 Ho3 Pb6 Cl2'
_cell_volume   482.94172786
_cell_formula_units_Z   1
loop_
 _symmetry_equiv_pos_site_id
 _symmetry_equiv_pos_as_xyz
  1  'x, y, z'
loop_
 _atom_site_type_symbol
 _atom_site_label
 _atom_site_symmetry_multiplicity
 _atom_site_fract_x
 _atom_site_fract_y
 _atom_site_fract_z
 _atom_site_occupancy
  Dy  Dy0  1  0.260474  0.000030  0.750050  1
  Dy  Dy1  1  0.739555  0.000030  0.249950  1
  Dy  Dy2  1  0.999970  0.260445  0.750050  1
  Dy  Dy3  1  0.999970  0.739526  0.249950  1
  Dy  Dy4  1  0.739555  0.739526  0.750050  1
  Dy  Dy5  1  0.260474  0.260445  0.249950  1
  Dy  Dy6  1  0.333333  0.666667  0.500000  1
  Ho  Ho7  1  0.666667  0.333333  0.500000  1
  Ho  Ho8  1  0.666667  0.333333  0.000000  1
  Ho  Ho9  1  0.333333  0.666667  0.000000  1
  Pb  Pb10  1  0.610099  0.000236  0.750143  1
  Pb  Pb11  1  0.390136  0.000236  0.249857  1
  Pb  Pb12  1  0.999764  0.609864  0.750143  1
  Pb  Pb13  1  0.999764  0.389901  0.249857  1
  Pb  Pb14  1  0.390136  0.389901  0.750143  1
  Pb  Pb15  1  0.610099  0.609864  0.249857  1
  Cl  Cl16  1  0.000000  0.000000  0.500000  1
  Cl  Cl17  1  0.000000  0.000000  0.000000  1
