# generated using pymatgen
data_CaTaB4(Ru5W2)2
_symmetry_space_group_name_H-M   'P 1'
_cell_length_a   9.59816098
_cell_length_b   9.59816022
_cell_length_c   2.93409100
_cell_angle_alpha   90.00000000
_cell_angle_beta   90.00000000
_cell_angle_gamma   91.43520631
_symmetry_Int_Tables_number   1
_chemical_formula_structural   CaTaB4(Ru5W2)2
_chemical_formula_sum   'Ca1 Ta1 B4 Ru10 W4'
_cell_volume   270.21741769
_cell_formula_units_Z   1
loop_
 _symmetry_equiv_pos_site_id
 _symmetry_equiv_pos_as_xyz
  1  'x, y, z'
loop_
 _atom_site_type_symbol
 _atom_site_label
 _atom_site_symmetry_multiplicity
 _atom_site_fract_x
 _atom_site_fract_y
 _atom_site_fract_z
 _atom_site_occupancy
  Ca  Ca0  1  0.823444  0.676556  0.000000  1
  Ta  Ta1  1  0.178697  0.321303  0.000000  1
  B  B2  1  0.616908  0.883092  0.000000  1
  B  B3  1  0.374555  0.125445  0.000000  1
  B  B4  1  0.124195  0.616962  0.000000  1
  B  B5  1  0.883038  0.375805  0.000000  1
  Ru  Ru6  1  0.547860  0.732953  0.500000  1
  Ru  Ru7  1  0.430145  0.283356  0.500000  1
  Ru  Ru8  1  0.092732  0.781306  0.500000  1
  Ru  Ru9  1  0.929313  0.212041  0.500000  1
  Ru  Ru10  1  0.287959  0.570687  0.500000  1
  Ru  Ru11  1  0.718694  0.407268  0.500000  1
  Ru  Ru12  1  0.216644  0.069855  0.500000  1
  Ru  Ru13  1  0.767047  0.952140  0.500000  1
  Ru  Ru14  1  0.492401  0.007599  0.500000  1
  Ru  Ru15  1  0.010900  0.489100  0.500000  1
  W  W16  1  0.324444  0.824055  0.000000  1
  W  W17  1  0.675945  0.175556  0.000000  1
  W  W18  1  0.508613  0.503533  0.000000  1
  W  W19  1  0.996467  0.991387  0.000000  1
