# generated using pymatgen
data_Ca(RuO3)2
_symmetry_space_group_name_H-M   'P 1'
_cell_length_a   5.31904600
_cell_length_b   7.35660100
_cell_length_c   10.97997000
_cell_angle_alpha   90.00000000
_cell_angle_beta   90.00000000
_cell_angle_gamma   90.00000000
_symmetry_Int_Tables_number   1
_chemical_formula_structural   Ca(RuO3)2
_chemical_formula_sum   'Ca4 Ru8 O24'
_cell_volume   429.64731446
_cell_formula_units_Z   4
loop_
 _symmetry_equiv_pos_site_id
 _symmetry_equiv_pos_as_xyz
  1  'x, y, z'
loop_
 _atom_site_type_symbol
 _atom_site_label
 _atom_site_symmetry_multiplicity
 _atom_site_fract_x
 _atom_site_fract_y
 _atom_site_fract_z
 _atom_site_occupancy
  Ca  Ca0  1  0.456509  0.750000  0.043821  1
  Ca  Ca1  1  0.956509  0.250000  0.456179  1
  Ca  Ca2  1  0.543491  0.250000  0.956179  1
  Ca  Ca3  1  0.043491  0.750000  0.543821  1
  Ru  Ru4  1  0.558776  0.499663  0.640473  1
  Ru  Ru5  1  0.058776  0.500337  0.859527  1
  Ru  Ru6  1  0.441224  0.999663  0.359527  1
  Ru  Ru7  1  0.941224  0.000337  0.140473  1
  Ru  Ru8  1  0.058776  0.999663  0.859527  1
  Ru  Ru9  1  0.558776  0.000337  0.640473  1
  Ru  Ru10  1  0.941224  0.499663  0.140473  1
  Ru  Ru11  1  0.441224  0.500337  0.359527  1
  O  O12  1  0.674790  0.250000  0.626693  1
  O  O13  1  0.174790  0.750000  0.873307  1
  O  O14  1  0.325210  0.750000  0.373307  1
  O  O15  1  0.825210  0.250000  0.126693  1
  O  O16  1  0.439444  0.750000  0.645626  1
  O  O17  1  0.939444  0.250000  0.854374  1
  O  O18  1  0.560556  0.250000  0.354374  1
  O  O19  1  0.060556  0.750000  0.145626  1
  O  O20  1  0.134210  0.435252  0.281532  1
  O  O21  1  0.634210  0.564748  0.218468  1
  O  O22  1  0.865790  0.935252  0.718468  1
  O  O23  1  0.365790  0.064748  0.781532  1
  O  O24  1  0.775180  0.958068  0.977729  1
  O  O25  1  0.275180  0.041932  0.522271  1
  O  O26  1  0.224820  0.458068  0.022271  1
  O  O27  1  0.724820  0.541932  0.477729  1
  O  O28  1  0.224820  0.041932  0.022271  1
  O  O29  1  0.724820  0.958068  0.477729  1
  O  O30  1  0.775180  0.541932  0.977729  1
  O  O31  1  0.275180  0.458068  0.522271  1
  O  O32  1  0.634210  0.935252  0.218468  1
  O  O33  1  0.134210  0.064748  0.281532  1
  O  O34  1  0.365790  0.435252  0.781532  1
  O  O35  1  0.865790  0.564748  0.718468  1
