# generated using pymatgen
data_Y20Cd3Pd3Pt2
_symmetry_space_group_name_H-M   'P 1'
_cell_length_a   9.65295308
_cell_length_b   9.65250519
_cell_length_c   9.60698800
_cell_angle_alpha   90.00000000
_cell_angle_beta   90.00000000
_cell_angle_gamma   119.98721648
_symmetry_Int_Tables_number   1
_chemical_formula_structural   Y20Cd3Pd3Pt2
_chemical_formula_sum   'Y20 Cd3 Pd3 Pt2'
_cell_volume   775.30761236
_cell_formula_units_Z   1
loop_
 _symmetry_equiv_pos_site_id
 _symmetry_equiv_pos_as_xyz
  1  'x, y, z'
loop_
 _atom_site_type_symbol
 _atom_site_label
 _atom_site_symmetry_multiplicity
 _atom_site_fract_x
 _atom_site_fract_y
 _atom_site_fract_z
 _atom_site_occupancy
  Y  Y0  1  0.207222  0.792795  0.942486  1
  Y  Y1  1  0.207202  0.414414  0.942477  1
  Y  Y2  1  0.585572  0.792799  0.942490  1
  Y  Y3  1  0.794009  0.205973  0.055221  1
  Y  Y4  1  0.794035  0.588042  0.055227  1
  Y  Y5  1  0.411966  0.205960  0.055223  1
  Y  Y6  1  0.794009  0.205973  0.444779  1
  Y  Y7  1  0.794035  0.588042  0.444773  1
  Y  Y8  1  0.411966  0.205960  0.444777  1
  Y  Y9  1  0.207222  0.792795  0.557514  1
  Y  Y10  1  0.207202  0.414414  0.557523  1
  Y  Y11  1  0.585572  0.792799  0.557510  1
  Y  Y12  1  0.542542  0.457418  0.750000  1
  Y  Y13  1  0.542552  0.085092  0.750000  1
  Y  Y14  1  0.914900  0.457423  0.750000  1
  Y  Y15  1  0.457964  0.542057  0.250000  1
  Y  Y16  1  0.457978  0.915939  0.250000  1
  Y  Y17  1  0.084068  0.542037  0.250000  1
  Y  Y18  1  0.999993  0.000030  0.946860  1
  Y  Y19  1  0.999993  0.000030  0.553140  1
  Cd  Cd20  1  0.108448  0.891548  0.250000  1
  Cd  Cd21  1  0.108451  0.216895  0.250000  1
  Cd  Cd22  1  0.783092  0.891540  0.250000  1
  Pd  Pd23  1  0.867865  0.132163  0.750000  1
  Pd  Pd24  1  0.867867  0.735725  0.750000  1
  Pd  Pd25  1  0.264288  0.132158  0.750000  1
  Pt  Pt26  1  0.333330  0.666689  0.750000  1
  Pt  Pt27  1  0.666658  0.333289  0.250000  1
