# generated using pymatgen
data_Tb4Tm4B24IrRu3
_symmetry_space_group_name_H-M   'P 1'
_cell_length_a   3.64731200
_cell_length_b   9.12118672
_cell_length_c   11.48383206
_cell_angle_alpha   90.01664609
_cell_angle_beta   90.00000000
_cell_angle_gamma   90.00000000
_symmetry_Int_Tables_number   1
_chemical_formula_structural   Tb4Tm4B24IrRu3
_chemical_formula_sum   'Tb4 Tm4 B24 Ir1 Ru3'
_cell_volume   382.04197030
_cell_formula_units_Z   1
loop_
 _symmetry_equiv_pos_site_id
 _symmetry_equiv_pos_as_xyz
  1  'x, y, z'
loop_
 _atom_site_type_symbol
 _atom_site_label
 _atom_site_symmetry_multiplicity
 _atom_site_fract_x
 _atom_site_fract_y
 _atom_site_fract_z
 _atom_site_occupancy
  Tb  Tb0  1  0.000000  0.319006  0.414385  1
  Tb  Tb1  1  0.000000  0.679099  0.588949  1
  Tb  Tb2  1  0.000000  0.823112  0.084308  1
  Tb  Tb3  1  0.000000  0.178736  0.913122  1
  Tm  Tm4  1  0.000000  0.945901  0.373239  1
  Tm  Tm5  1  0.000000  0.055767  0.626922  1
  Tm  Tm6  1  0.000000  0.441876  0.125559  1
  Tm  Tm7  1  0.000000  0.555752  0.873344  1
  B  B8  1  0.500000  0.554395  0.433331  1
  B  B9  1  0.500000  0.445494  0.567439  1
  B  B10  1  0.500000  0.054839  0.067418  1
  B  B11  1  0.500000  0.945645  0.932226  1
  B  B12  1  0.500000  0.750451  0.420773  1
  B  B13  1  0.500000  0.250537  0.580514  1
  B  B14  1  0.500000  0.248851  0.080303  1
  B  B15  1  0.500000  0.751134  0.919561  1
  B  B16  1  0.500000  0.792503  0.265794  1
  B  B17  1  0.500000  0.208627  0.733592  1
  B  B18  1  0.500000  0.291737  0.234128  1
  B  B19  1  0.500000  0.708410  0.766382  1
  B  B20  1  0.500000  0.631095  0.183464  1
  B  B21  1  0.500000  0.369135  0.815007  1
  B  B22  1  0.500000  0.131110  0.315234  1
  B  B23  1  0.500000  0.868746  0.685078  1
  B  B24  1  0.500000  0.983164  0.213511  1
  B  B25  1  0.500000  0.016729  0.786216  1
  B  B26  1  0.500000  0.482056  0.285888  1
  B  B27  1  0.500000  0.516674  0.713896  1
  B  B28  1  0.500000  0.606984  0.029634  1
  B  B29  1  0.500000  0.393114  0.970694  1
  B  B30  1  0.500000  0.106316  0.470842  1
  B  B31  1  0.500000  0.892990  0.529005  1
  Ir  Ir32  1  0.000000  0.638068  0.320914  1
  Ru  Ru33  1  0.000000  0.361840  0.679027  1
  Ru  Ru34  1  0.000000  0.138482  0.180020  1
  Ru  Ru35  1  0.000000  0.861623  0.820276  1
