# generated using pymatgen
data_Np5PaF24
_symmetry_space_group_name_H-M   'P 1'
_cell_length_a   8.38329403
_cell_length_b   8.43759819
_cell_length_c   8.42345403
_cell_angle_alpha   62.90605964
_cell_angle_beta   63.07716928
_cell_angle_gamma   80.50095547
_symmetry_Int_Tables_number   1
_chemical_formula_structural   Np5PaF24
_chemical_formula_sum   'Np5 Pa1 F24'
_cell_volume   472.31739210
_cell_formula_units_Z   1
loop_
 _symmetry_equiv_pos_site_id
 _symmetry_equiv_pos_as_xyz
  1  'x, y, z'
loop_
 _atom_site_type_symbol
 _atom_site_label
 _atom_site_symmetry_multiplicity
 _atom_site_fract_x
 _atom_site_fract_y
 _atom_site_fract_z
 _atom_site_occupancy
  Np  Np0  1  0.785940  0.208830  0.255331  1
  Np  Np1  1  0.216891  0.784061  0.755812  1
  Np  Np2  1  0.781766  0.627924  0.671179  1
  Np  Np3  1  0.364778  0.225845  0.828684  1
  Np  Np4  1  0.222029  0.359658  0.332162  1
  Pa  Pa5  1  0.632971  0.776006  0.167498  1
  F  F6  1  0.735283  0.682864  0.390159  1
  F  F7  1  0.598479  0.186613  0.572315  1
  F  F8  1  0.733896  0.503688  0.216936  1
  F  F9  1  0.318046  0.256643  0.104867  1
  F  F10  1  0.062771  0.176423  0.043704  1
  F  F11  1  0.187490  0.598128  0.072558  1
  F  F12  1  0.410040  0.810038  0.419088  1
  F  F13  1  0.403703  0.609555  0.250510  1
  F  F14  1  0.604082  0.399071  0.747392  1
  F  F15  1  0.501021  0.742737  0.712862  1
  F  F16  1  0.822838  0.930524  0.453778  1
  F  F17  1  0.178621  0.061331  0.543731  1
  F  F18  1  0.260675  0.504354  0.781970  1
  F  F19  1  0.258936  0.320827  0.602011  1
  F  F20  1  0.722213  0.023562  0.147450  1
  F  F21  1  0.001267  0.503113  0.494272  1
  F  F22  1  0.969056  0.274243  0.351054  1
  F  F23  1  0.811669  0.402962  0.932955  1
  F  F24  1  0.502817  0.260968  0.283044  1
  F  F25  1  0.926316  0.827424  0.961659  1
  F  F26  1  0.273015  0.972050  0.852493  1
  F  F27  1  0.679960  0.745848  0.898259  1
  F  F28  1  0.027040  0.727357  0.654375  1
  F  F29  1  0.506390  0.997349  0.001894  1
