# generated using pymatgen
data_Sc8Ta5Nb7Si15As
_symmetry_space_group_name_H-M   'P 1'
_cell_length_a   6.71721292
_cell_length_b   6.90718714
_cell_length_c   13.15202665
_cell_angle_alpha   89.97299919
_cell_angle_beta   90.24801620
_cell_angle_gamma   90.13534292
_symmetry_Int_Tables_number   1
_chemical_formula_structural   Sc8Ta5Nb7Si15As
_chemical_formula_sum   'Sc8 Ta5 Nb7 Si15 As1'
_cell_volume   610.20771117
_cell_formula_units_Z   1
loop_
 _symmetry_equiv_pos_site_id
 _symmetry_equiv_pos_as_xyz
  1  'x, y, z'
loop_
 _atom_site_type_symbol
 _atom_site_label
 _atom_site_symmetry_multiplicity
 _atom_site_fract_x
 _atom_site_fract_y
 _atom_site_fract_z
 _atom_site_occupancy
  Sc  Sc0  1  0.499325  0.674261  0.595331  1
  Sc  Sc1  1  0.001346  0.825876  0.904237  1
  Sc  Sc2  1  0.498952  0.325178  0.094954  1
  Sc  Sc3  1  0.003166  0.176528  0.403536  1
  Sc  Sc4  1  0.498835  0.325578  0.404804  1
  Sc  Sc5  1  0.998914  0.174062  0.095230  1
  Sc  Sc6  1  0.501421  0.674640  0.904787  1
  Sc  Sc7  1  0.000982  0.824079  0.596543  1
  Ta  Ta8  1  0.660186  0.175003  0.626022  1
  Ta  Ta9  1  0.838005  0.493750  0.749537  1
  Ta  Ta10  1  0.338255  0.005211  0.749486  1
  Ta  Ta11  1  0.161905  0.506251  0.250255  1
  Ta  Ta12  1  0.662548  0.993974  0.248953  1
  Nb  Nb13  1  0.163059  0.325969  0.875102  1
  Nb  Nb14  1  0.336765  0.826410  0.125059  1
  Nb  Nb15  1  0.839253  0.670103  0.374519  1
  Nb  Nb16  1  0.337613  0.826782  0.376149  1
  Nb  Nb17  1  0.836694  0.674030  0.124732  1
  Nb  Nb18  1  0.662618  0.174080  0.874771  1
  Nb  Nb19  1  0.161802  0.326667  0.624951  1
  Si  Si20  1  0.168591  0.532188  0.039592  1
  Si  Si21  1  0.331362  0.031834  0.959884  1
  Si  Si22  1  0.830013  0.467428  0.540080  1
  Si  Si23  1  0.320687  0.033676  0.541433  1
  Si  Si24  1  0.831608  0.468259  0.959989  1
  Si  Si25  1  0.668345  0.968360  0.039862  1
  Si  Si26  1  0.169818  0.532385  0.460346  1
  Si  Si27  1  0.458620  0.386571  0.750630  1
  Si  Si28  1  0.959362  0.113371  0.750054  1
  Si  Si29  1  0.540114  0.613991  0.249908  1
  Si  Si30  1  0.040980  0.886033  0.249894  1
  Si  Si31  1  0.705219  0.860869  0.750131  1
  Si  Si32  1  0.205338  0.638474  0.750374  1
  Si  Si33  1  0.295362  0.139342  0.249710  1
  Si  Si34  1  0.795269  0.361065  0.249216  1
  As  As35  1  0.677670  0.967717  0.459940  1
