# generated using pymatgen
data_HfZr3Sc2(SiRu)6
_symmetry_space_group_name_H-M   'P 1'
_cell_length_a   7.65518061
_cell_length_b   7.65150261
_cell_length_c   7.65518050
_cell_angle_alpha   127.58795030
_cell_angle_beta   123.33484560
_cell_angle_gamma   80.83413545
_symmetry_Int_Tables_number   1
_chemical_formula_structural   HfZr3Sc2(SiRu)6
_chemical_formula_sum   'Hf1 Zr3 Sc2 Si6 Ru6'
_cell_volume   286.18436008
_cell_formula_units_Z   1
loop_
 _symmetry_equiv_pos_site_id
 _symmetry_equiv_pos_as_xyz
  1  'x, y, z'
loop_
 _atom_site_type_symbol
 _atom_site_label
 _atom_site_symmetry_multiplicity
 _atom_site_fract_x
 _atom_site_fract_y
 _atom_site_fract_z
 _atom_site_occupancy
  Hf  Hf0  1  0.948108  0.651541  0.203434  1
  Zr  Zr1  1  0.748153  0.837452  0.589298  1
  Zr  Zr2  1  0.252118  0.841239  0.089121  1
  Zr  Zr3  1  0.051634  0.256090  0.704454  1
  Sc  Sc4  1  0.464070  0.685006  0.720936  1
  Sc  Sc5  1  0.535745  0.256823  0.221078  1
  Si  Si6  1  0.268378  0.269880  0.501502  1
  Si  Si7  1  0.731279  0.231427  0.000149  1
  Si  Si8  1  0.328402  0.586046  0.251884  1
  Si  Si9  1  0.671441  0.921700  0.255991  1
  Si  Si10  1  0.165710  0.921700  0.750259  1
  Si  Si11  1  0.834162  0.586046  0.757645  1
  Ru  Ru12  1  0.502302  0.499667  0.001201  1
  Ru  Ru13  1  0.998465  0.499667  0.497364  1
  Ru  Ru14  1  0.100510  0.252209  0.107075  1
  Ru  Ru15  1  0.899645  0.005450  0.150707  1
  Ru  Ru16  1  0.354743  0.005450  0.605804  1
  Ru  Ru17  1  0.645135  0.252209  0.651700  1
