# generated using pymatgen
data_LiY16Ag3Rh4
_symmetry_space_group_name_H-M   'P 1'
_cell_length_a   9.57291826
_cell_length_b   9.58306143
_cell_length_c   9.58287395
_cell_angle_alpha   60.49283705
_cell_angle_beta   60.42760136
_cell_angle_gamma   60.42800558
_symmetry_Int_Tables_number   1
_chemical_formula_structural   LiY16Ag3Rh4
_chemical_formula_sum   'Li1 Y16 Ag3 Rh4'
_cell_volume   627.94249958
_cell_formula_units_Z   1
loop_
 _symmetry_equiv_pos_site_id
 _symmetry_equiv_pos_as_xyz
  1  'x, y, z'
loop_
 _atom_site_type_symbol
 _atom_site_label
 _atom_site_symmetry_multiplicity
 _atom_site_fract_x
 _atom_site_fract_y
 _atom_site_fract_z
 _atom_site_occupancy
  Li  Li0  1  0.551740  0.816272  0.816252  1
  Y  Y1  1  0.600668  0.601396  0.601424  1
  Y  Y2  1  0.601847  0.599348  0.200074  1
  Y  Y3  1  0.601840  0.200070  0.599336  1
  Y  Y4  1  0.183252  0.605707  0.605723  1
  Y  Y5  1  0.058944  0.438786  0.438762  1
  Y  Y6  1  0.434183  0.064302  0.064316  1
  Y  Y7  1  0.434367  0.064077  0.435096  1
  Y  Y8  1  0.058087  0.438196  0.061706  1
  Y  Y9  1  0.434371  0.435109  0.064062  1
  Y  Y10  1  0.058091  0.061693  0.438182  1
  Y  Y11  1  0.182672  0.813129  0.813131  1
  Y  Y12  1  0.815150  0.184586  0.184549  1
  Y  Y13  1  0.814209  0.185704  0.814219  1
  Y  Y14  1  0.186401  0.813095  0.186132  1
  Y  Y15  1  0.814193  0.814259  0.185693  1
  Y  Y16  1  0.186399  0.186149  0.813093  1
  Ag  Ag17  1  0.832922  0.834568  0.834570  1
  Ag  Ag18  1  0.832412  0.835781  0.501011  1
  Ag  Ag19  1  0.832423  0.501034  0.835757  1
  Rh  Rh20  1  0.387357  0.395149  0.395124  1
  Rh  Rh21  1  0.389167  0.396743  0.820267  1
  Rh  Rh22  1  0.389136  0.820268  0.396867  1
  Rh  Rh23  1  0.820168  0.394580  0.394653  1
