# generated using pymatgen
data_Y16Er4Ru5Rh7
_symmetry_space_group_name_H-M   'P 1'
_cell_length_a   10.83570462
_cell_length_b   10.83570393
_cell_length_c   6.43095400
_cell_angle_alpha   89.95315111
_cell_angle_beta   89.95315112
_cell_angle_gamma   90.05665094
_symmetry_Int_Tables_number   1
_chemical_formula_structural   Y16Er4Ru5Rh7
_chemical_formula_sum   'Y16 Er4 Ru5 Rh7'
_cell_volume   755.07342926
_cell_formula_units_Z   1
loop_
 _symmetry_equiv_pos_site_id
 _symmetry_equiv_pos_as_xyz
  1  'x, y, z'
loop_
 _atom_site_type_symbol
 _atom_site_label
 _atom_site_symmetry_multiplicity
 _atom_site_fract_x
 _atom_site_fract_y
 _atom_site_fract_z
 _atom_site_occupancy
  Y  Y0  1  0.293410  0.086465  0.377357  1
  Y  Y1  1  0.292933  0.913502  0.877623  1
  Y  Y2  1  0.707979  0.087097  0.878256  1
  Y  Y3  1  0.707710  0.914446  0.376318  1
  Y  Y4  1  0.586713  0.793382  0.877120  1
  Y  Y5  1  0.588088  0.206772  0.376933  1
  Y  Y6  1  0.413259  0.793505  0.377207  1
  Y  Y7  1  0.413047  0.206528  0.876603  1
  Y  Y8  1  0.206618  0.413287  0.622880  1
  Y  Y9  1  0.206495  0.586741  0.122793  1
  Y  Y10  1  0.793228  0.411912  0.123067  1
  Y  Y11  1  0.793472  0.586953  0.623397  1
  Y  Y12  1  0.913535  0.706590  0.122643  1
  Y  Y13  1  0.912903  0.292021  0.621744  1
  Y  Y14  1  0.086498  0.707067  0.622377  1
  Y  Y15  1  0.085554  0.292290  0.123682  1
  Er  Er16  1  0.999430  0.001133  0.499140  1
  Er  Er17  1  0.998867  0.000570  0.000860  1
  Er  Er18  1  0.500064  0.500129  0.999923  1
  Er  Er19  1  0.499871  0.499936  0.500077  1
  Ru  Ru20  1  0.849897  0.150103  0.250000  1
  Ru  Ru21  1  0.499790  0.000018  0.122929  1
  Ru  Ru22  1  0.499351  0.999750  0.623248  1
  Ru  Ru23  1  0.000250  0.500649  0.876752  1
  Ru  Ru24  1  0.999982  0.500210  0.377071  1
  Rh  Rh25  1  0.849302  0.848585  0.749898  1
  Rh  Rh26  1  0.151415  0.150698  0.750102  1
  Rh  Rh27  1  0.150655  0.849345  0.250000  1
  Rh  Rh28  1  0.649387  0.350613  0.750000  1
  Rh  Rh29  1  0.650662  0.650068  0.249370  1
  Rh  Rh30  1  0.349932  0.349338  0.250630  1
  Rh  Rh31  1  0.349705  0.650295  0.750000  1
