# generated using pymatgen
data_DyY3(HoPt)4
_symmetry_space_group_name_H-M   'P 1'
_cell_length_a   4.75606700
_cell_length_b   7.15986417
_cell_length_c   8.80300801
_cell_angle_alpha   89.89283071
_cell_angle_beta   90.00000000
_cell_angle_gamma   90.00000000
_symmetry_Int_Tables_number   1
_chemical_formula_structural   DyY3(HoPt)4
_chemical_formula_sum   'Dy1 Y3 Ho4 Pt4'
_cell_volume   299.76649136
_cell_formula_units_Z   1
loop_
 _symmetry_equiv_pos_site_id
 _symmetry_equiv_pos_as_xyz
  1  'x, y, z'
loop_
 _atom_site_type_symbol
 _atom_site_label
 _atom_site_symmetry_multiplicity
 _atom_site_fract_x
 _atom_site_fract_y
 _atom_site_fract_z
 _atom_site_occupancy
  Dy  Dy0  1  0.250000  0.990920  0.332278  1
  Y  Y1  1  0.250000  0.490240  0.168903  1
  Y  Y2  1  0.750000  0.009416  0.669107  1
  Y  Y3  1  0.750000  0.509449  0.831322  1
  Ho  Ho4  1  0.250000  0.855525  0.920059  1
  Ho  Ho5  1  0.250000  0.355140  0.579722  1
  Ho  Ho6  1  0.750000  0.144075  0.080071  1
  Ho  Ho7  1  0.750000  0.645010  0.419875  1
  Pt  Pt8  1  0.250000  0.256405  0.906521  1
  Pt  Pt9  1  0.250000  0.757617  0.592549  1
  Pt  Pt10  1  0.750000  0.743646  0.093493  1
  Pt  Pt11  1  0.750000  0.242555  0.406101  1
