# generated using pymatgen
data_Tb8Ga3Ir
_symmetry_space_group_name_H-M   'P 1'
_cell_length_a   10.12017700
_cell_length_b   10.12017643
_cell_length_c   7.07710100
_cell_angle_alpha   90.00000000
_cell_angle_beta   90.00000000
_cell_angle_gamma   119.99999860
_symmetry_Int_Tables_number   1
_chemical_formula_structural   Tb8Ga3Ir
_chemical_formula_sum   'Tb16 Ga6 Ir2'
_cell_volume   627.71459052
_cell_formula_units_Z   2
loop_
 _symmetry_equiv_pos_site_id
 _symmetry_equiv_pos_as_xyz
  1  'x, y, z'
loop_
 _atom_site_type_symbol
 _atom_site_label
 _atom_site_symmetry_multiplicity
 _atom_site_fract_x
 _atom_site_fract_y
 _atom_site_fract_z
 _atom_site_occupancy
  Tb  Tb0  1  0.829507  0.659016  0.489280  1
  Tb  Tb1  1  0.340984  0.170493  0.489280  1
  Tb  Tb2  1  0.829507  0.170493  0.489280  1
  Tb  Tb3  1  0.170493  0.340984  0.989280  1
  Tb  Tb4  1  0.659016  0.829507  0.989280  1
  Tb  Tb5  1  0.170493  0.829507  0.989280  1
  Tb  Tb6  1  0.666667  0.333333  0.162514  1
  Tb  Tb7  1  0.333333  0.666667  0.662514  1
  Tb  Tb8  1  0.535004  0.070006  0.794321  1
  Tb  Tb9  1  0.929994  0.464996  0.794321  1
  Tb  Tb10  1  0.535004  0.464996  0.794321  1
  Tb  Tb11  1  0.464996  0.929994  0.294321  1
  Tb  Tb12  1  0.070006  0.535004  0.294321  1
  Tb  Tb13  1  0.464996  0.535004  0.294321  1
  Tb  Tb14  1  0.000000  0.000000  0.766584  1
  Tb  Tb15  1  0.000000  0.000000  0.266584  1
  Ga  Ga16  1  0.836235  0.672472  0.042976  1
  Ga  Ga17  1  0.327528  0.163765  0.042976  1
  Ga  Ga18  1  0.836235  0.163765  0.042976  1
  Ga  Ga19  1  0.163765  0.327528  0.542976  1
  Ga  Ga20  1  0.672472  0.836235  0.542976  1
  Ga  Ga21  1  0.163765  0.836235  0.542976  1
  Ir  Ir22  1  0.666667  0.333333  0.554205  1
  Ir  Ir23  1  0.333333  0.666667  0.054205  1
