# generated using pymatgen
data_Dy6Ho2Sc12Si15Ru
_symmetry_space_group_name_H-M   'P 1'
_cell_length_a   7.07392548
_cell_length_b   7.44179159
_cell_length_c   13.93916987
_cell_angle_alpha   89.96291614
_cell_angle_beta   89.98384876
_cell_angle_gamma   90.11596636
_symmetry_Int_Tables_number   1
_chemical_formula_structural   Dy6Ho2Sc12Si15Ru
_chemical_formula_sum   'Dy6 Ho2 Sc12 Si15 Ru1'
_cell_volume   733.79356122
_cell_formula_units_Z   1
loop_
 _symmetry_equiv_pos_site_id
 _symmetry_equiv_pos_as_xyz
  1  'x, y, z'
loop_
 _atom_site_type_symbol
 _atom_site_label
 _atom_site_symmetry_multiplicity
 _atom_site_fract_x
 _atom_site_fract_y
 _atom_site_fract_z
 _atom_site_occupancy
  Dy  Dy0  1  0.489034  0.676795  0.904470  1
  Dy  Dy1  1  0.991076  0.826999  0.595538  1
  Dy  Dy2  1  0.511223  0.322750  0.095986  1
  Dy  Dy3  1  0.011193  0.178733  0.404086  1
  Dy  Dy4  1  0.511037  0.322783  0.403921  1
  Dy  Dy5  1  0.489144  0.676671  0.595691  1
  Ho  Ho6  1  0.011399  0.178931  0.096059  1
  Ho  Ho7  1  0.990978  0.826644  0.904208  1
  Sc  Sc8  1  0.157494  0.501802  0.750101  1
  Sc  Sc9  1  0.838422  0.495155  0.249866  1
  Sc  Sc10  1  0.339197  0.005629  0.249866  1
  Sc  Sc11  1  0.669878  0.998825  0.750132  1
  Sc  Sc12  1  0.316297  0.171775  0.628084  1
  Sc  Sc13  1  0.671802  0.825782  0.373994  1
  Sc  Sc14  1  0.171326  0.677917  0.373973  1
  Sc  Sc15  1  0.671941  0.825915  0.125834  1
  Sc  Sc16  1  0.837815  0.319526  0.627795  1
  Sc  Sc17  1  0.315702  0.171514  0.872069  1
  Sc  Sc18  1  0.837993  0.319257  0.872358  1
  Sc  Sc19  1  0.171162  0.678054  0.125821  1
  Si  Si20  1  0.968911  0.885278  0.249837  1
  Si  Si21  1  0.469333  0.614558  0.249980  1
  Si  Si22  1  0.529391  0.387647  0.750059  1
  Si  Si23  1  0.286130  0.867164  0.750268  1
  Si  Si24  1  0.713491  0.129574  0.249742  1
  Si  Si25  1  0.213548  0.370760  0.249720  1
  Si  Si26  1  0.780357  0.627301  0.750215  1
  Si  Si27  1  0.159773  0.468176  0.537437  1
  Si  Si28  1  0.844087  0.535965  0.461480  1
  Si  Si29  1  0.344406  0.965688  0.460190  1
  Si  Si30  1  0.844403  0.535859  0.038533  1
  Si  Si31  1  0.655802  0.034893  0.538853  1
  Si  Si32  1  0.159474  0.468274  0.962607  1
  Si  Si33  1  0.656642  0.034586  0.961085  1
  Si  Si34  1  0.343510  0.965945  0.039875  1
  Ru  Ru35  1  0.026629  0.106875  0.750266  1
