# generated using pymatgen
data_Gd(ThH5)3
_symmetry_space_group_name_H-M   'P 1'
_cell_length_a   7.82412296
_cell_length_b   7.82058811
_cell_length_c   7.78974600
_cell_angle_alpha   109.44760178
_cell_angle_beta   109.46603236
_cell_angle_gamma   109.66892193
_symmetry_Int_Tables_number   1
_chemical_formula_structural   Gd(ThH5)3
_chemical_formula_sum   'Gd2 Th6 H30'
_cell_volume   366.15624181
_cell_formula_units_Z   2
loop_
 _symmetry_equiv_pos_site_id
 _symmetry_equiv_pos_as_xyz
  1  'x, y, z'
loop_
 _atom_site_type_symbol
 _atom_site_label
 _atom_site_symmetry_multiplicity
 _atom_site_fract_x
 _atom_site_fract_y
 _atom_site_fract_z
 _atom_site_occupancy
  Gd  Gd0  1  0.915453  0.916055  0.916485  1
  Gd  Gd1  1  0.498967  0.999569  0.083515  1
  Th  Th2  1  0.994503  0.079919  0.495437  1
  Th  Th3  1  0.084909  0.504293  0.000853  1
  Th  Th4  1  0.999068  0.584483  0.504563  1
  Th  Th5  1  0.584057  0.503441  0.999147  1
  Th  Th6  1  0.503825  0.998810  0.587289  1
  Th  Th7  1  0.416536  0.411522  0.412711  1
  H  H8  1  0.650969  0.964570  0.370593  1
  H  H9  1  0.218129  0.316512  0.846168  1
  H  H10  1  0.186371  0.403692  0.534211  1
  H  H11  1  0.096570  0.280964  0.125999  1
  H  H12  1  0.281698  0.123793  0.094051  1
  H  H13  1  0.125389  0.094117  0.277976  1
  H  H14  1  0.470573  0.154965  0.874001  1
  H  H15  1  0.719214  0.350334  0.813604  1
  H  H16  1  0.627477  0.380536  0.251354  1
  H  H17  1  0.250269  0.624284  0.376155  1
  H  H18  1  0.750297  0.872576  0.127175  1
  H  H19  1  0.123124  0.745403  0.872825  1
  H  H20  1  0.374115  0.248130  0.623845  1
  H  H21  1  0.876124  0.129183  0.748646  1
  H  H22  1  0.780376  0.593977  0.629407  1
  H  H23  1  0.317396  0.848447  0.221683  1
  H  H24  1  0.373060  0.656474  0.967108  1
  H  H25  1  0.964264  0.368975  0.651052  1
  H  H26  1  0.536427  0.185939  0.406589  1
  H  H27  1  0.405610  0.536730  0.186396  1
  H  H28  1  0.842525  0.218454  0.313716  1
  H  H29  1  0.905951  0.689366  0.032892  1
  H  H30  1  0.813211  0.717924  0.348948  1
  H  H31  1  0.152160  0.869481  0.465789  1
  H  H32  1  0.687648  0.029742  0.905949  1
  H  H33  1  0.347415  0.816142  0.722024  1
  H  H34  1  0.871961  0.470344  0.153832  1
  H  H35  1  0.629839  0.779350  0.593411  1
  H  H36  1  0.595712  0.626763  0.778317  1
  H  H37  1  0.028809  0.904739  0.686284  1
