# generated using pymatgen
data_Tb2Tm(Ga2Ni3)3
_symmetry_space_group_name_H-M   'P 1'
_cell_length_a   4.09200900
_cell_length_b   8.74371862
_cell_length_c   8.74371692
_cell_angle_alpha   59.87717495
_cell_angle_beta   90.00000000
_cell_angle_gamma   90.00000000
_symmetry_Int_Tables_number   1
_chemical_formula_structural   Tb2Tm(Ga2Ni3)3
_chemical_formula_sum   'Tb2 Tm1 Ga6 Ni9'
_cell_volume   270.59553755
_cell_formula_units_Z   1
loop_
 _symmetry_equiv_pos_site_id
 _symmetry_equiv_pos_as_xyz
  1  'x, y, z'
loop_
 _atom_site_type_symbol
 _atom_site_label
 _atom_site_symmetry_multiplicity
 _atom_site_fract_x
 _atom_site_fract_y
 _atom_site_fract_z
 _atom_site_occupancy
  Tb  Tb0  1  0.500000  0.333312  0.333374  1
  Tb  Tb1  1  0.500000  0.666626  0.666688  1
  Tm  Tm2  1  0.000000  0.999746  0.000254  1
  Ga  Ga3  1  0.500000  0.731048  0.268952  1
  Ga  Ga4  1  0.500000  0.268794  0.999971  1
  Ga  Ga5  1  0.500000  0.000029  0.731206  1
  Ga  Ga6  1  0.000000  0.481947  0.518053  1
  Ga  Ga7  1  0.000000  0.518105  0.999892  1
  Ga  Ga8  1  0.000000  0.000108  0.481895  1
  Ni  Ni9  1  0.000000  0.197338  0.173177  1
  Ni  Ni10  1  0.000000  0.173219  0.629515  1
  Ni  Ni11  1  0.000000  0.629229  0.197440  1
  Ni  Ni12  1  0.000000  0.826822  0.802662  1
  Ni  Ni13  1  0.000000  0.370485  0.826781  1
  Ni  Ni14  1  0.000000  0.802560  0.370771  1
  Ni  Ni15  1  0.500000  0.294291  0.705709  1
  Ni  Ni16  1  0.500000  0.706163  0.999921  1
  Ni  Ni17  1  0.500000  0.000079  0.293837  1
