# generated using pymatgen
data_Hf6Si2Tc5Ge4Os
_symmetry_space_group_name_H-M   'P 1'
_cell_length_a   7.82048704
_cell_length_b   7.82050025
_cell_length_c   7.82050016
_cell_angle_alpha   126.51630026
_cell_angle_beta   128.47770332
_cell_angle_gamma   77.45180692
_symmetry_Int_Tables_number   1
_chemical_formula_structural   Hf6Si2Tc5Ge4Os
_chemical_formula_sum   'Hf6 Si2 Tc5 Ge4 Os1'
_cell_volume   291.90047191
_cell_formula_units_Z   1
loop_
 _symmetry_equiv_pos_site_id
 _symmetry_equiv_pos_as_xyz
  1  'x, y, z'
loop_
 _atom_site_type_symbol
 _atom_site_label
 _atom_site_symmetry_multiplicity
 _atom_site_fract_x
 _atom_site_fract_y
 _atom_site_fract_z
 _atom_site_occupancy
  Hf  Hf0  1  0.549159  0.097450  0.047361  1
  Hf  Hf1  1  0.450841  0.498202  0.548291  1
  Hf  Hf2  1  0.950381  0.498164  0.046894  1
  Hf  Hf3  1  0.049619  0.096512  0.547784  1
  Hf  Hf4  1  0.749462  0.895537  0.644581  1
  Hf  Hf5  1  0.250538  0.895119  0.146074  1
  Si  Si6  1  0.748551  0.497997  0.246068  1
  Si  Si7  1  0.251449  0.497517  0.749447  1
  Tc  Tc8  1  0.125089  0.746296  0.621631  1
  Tc  Tc9  1  0.874911  0.496542  0.621207  1
  Tc  Tc10  1  0.625690  0.748121  0.122062  1
  Tc  Tc11  1  0.374310  0.496371  0.122431  1
  Tc  Tc12  1  0.500000  0.245006  0.745006  1
  Ge  Ge13  1  0.333664  0.830483  0.497388  1
  Ge  Ge14  1  0.666336  0.163724  0.496818  1
  Ge  Ge15  1  0.833186  0.830515  0.996677  1
  Ge  Ge16  1  0.166814  0.163491  0.997327  1
  Os  Os17  1  0.000000  0.246957  0.246957  1
