# generated using pymatgen
data_Ce12ZnSi5Ru6
_symmetry_space_group_name_H-M   'P 1'
_cell_length_a   7.64574612
_cell_length_b   7.64975977
_cell_length_c   9.78981520
_cell_angle_alpha   89.97798488
_cell_angle_beta   90.01704515
_cell_angle_gamma   119.99363035
_symmetry_Int_Tables_number   1
_chemical_formula_structural   Ce12ZnSi5Ru6
_chemical_formula_sum   'Ce12 Zn1 Si5 Ru6'
_cell_volume   495.90744877
_cell_formula_units_Z   1
loop_
 _symmetry_equiv_pos_site_id
 _symmetry_equiv_pos_as_xyz
  1  'x, y, z'
loop_
 _atom_site_type_symbol
 _atom_site_label
 _atom_site_symmetry_multiplicity
 _atom_site_fract_x
 _atom_site_fract_y
 _atom_site_fract_z
 _atom_site_occupancy
  Ce  Ce0  1  0.000125  0.593160  0.503285  1
  Ce  Ce1  1  0.593484  0.000154  0.503349  1
  Ce  Ce2  1  0.406442  0.406466  0.503253  1
  Ce  Ce3  1  0.999900  0.410550  0.004651  1
  Ce  Ce4  1  0.410572  0.999904  0.004701  1
  Ce  Ce5  1  0.589612  0.589603  0.004637  1
  Ce  Ce6  1  0.999962  0.733852  0.174563  1
  Ce  Ce7  1  0.733893  0.000021  0.174636  1
  Ce  Ce8  1  0.265999  0.266060  0.174569  1
  Ce  Ce9  1  0.999782  0.261819  0.672455  1
  Ce  Ce10  1  0.262415  0.000140  0.672393  1
  Ce  Ce11  1  0.737947  0.738311  0.672442  1
  Zn  Zn12  1  0.000050  0.000016  0.921212  1
  Si  Si13  1  0.666657  0.333288  0.275934  1
  Si  Si14  1  0.333363  0.666755  0.275933  1
  Si  Si15  1  0.333169  0.666531  0.772293  1
  Si  Si16  1  0.666665  0.333448  0.772289  1
  Si  Si17  1  0.000016  0.000005  0.418079  1
  Ru  Ru18  1  0.999948  0.340093  0.339858  1
  Ru  Ru19  1  0.340324  0.999956  0.339956  1
  Ru  Ru20  1  0.659807  0.659804  0.339893  1
  Ru  Ru21  1  0.999975  0.649171  0.836294  1
  Ru  Ru22  1  0.649104  0.000043  0.836324  1
  Ru  Ru23  1  0.350791  0.350851  0.836255  1
