# generated using pymatgen
data_Nd4Al9Ga15CoPd
_symmetry_space_group_name_H-M   'P 1'
_cell_length_a   6.01931882
_cell_length_b   6.01931882
_cell_length_c   15.73637557
_cell_angle_alpha   90.12639304
_cell_angle_beta   90.12639304
_cell_angle_gamma   89.98515525
_symmetry_Int_Tables_number   1
_chemical_formula_structural   Nd4Al9Ga15CoPd
_chemical_formula_sum   'Nd4 Al9 Ga15 Co1 Pd1'
_cell_volume   570.16069947
_cell_formula_units_Z   1
loop_
 _symmetry_equiv_pos_site_id
 _symmetry_equiv_pos_as_xyz
  1  'x, y, z'
loop_
 _atom_site_type_symbol
 _atom_site_label
 _atom_site_symmetry_multiplicity
 _atom_site_fract_x
 _atom_site_fract_y
 _atom_site_fract_z
 _atom_site_occupancy
  Nd  Nd0  1  0.751372  0.251372  0.248355  1
  Nd  Nd1  1  0.250740  0.750740  0.245627  1
  Nd  Nd2  1  0.249233  0.749233  0.754482  1
  Nd  Nd3  1  0.749603  0.249603  0.751165  1
  Al  Al4  1  0.509129  0.009129  0.915451  1
  Al  Al5  1  0.990734  0.009440  0.915770  1
  Al  Al6  1  0.509440  0.490734  0.915770  1
  Al  Al7  1  0.990378  0.490378  0.915485  1
  Al  Al8  1  0.509447  0.009447  0.084175  1
  Al  Al9  1  0.990402  0.009279  0.084459  1
  Al  Al10  1  0.509279  0.490402  0.084459  1
  Al  Al11  1  0.991003  0.491003  0.084167  1
  Al  Al12  1  0.581653  0.081653  0.433375  1
  Ga  Ga13  1  0.250019  0.250271  0.186102  1
  Ga  Ga14  1  0.750271  0.750019  0.186102  1
  Ga  Ga15  1  0.749783  0.749518  0.813915  1
  Ga  Ga16  1  0.249518  0.249783  0.813915  1
  Ga  Ga17  1  0.252551  0.249679  0.342769  1
  Ga  Ga18  1  0.749679  0.752551  0.342769  1
  Ga  Ga19  1  0.749720  0.748975  0.657155  1
  Ga  Ga20  1  0.248975  0.249720  0.657155  1
  Ga  Ga21  1  0.081573  0.920079  0.430606  1
  Ga  Ga22  1  0.420079  0.581573  0.430606  1
  Ga  Ga23  1  0.919474  0.419474  0.431623  1
  Ga  Ga24  1  0.418109  0.918109  0.569683  1
  Ga  Ga25  1  0.918618  0.078422  0.567901  1
  Ga  Ga26  1  0.578422  0.418618  0.567901  1
  Ga  Ga27  1  0.080879  0.580879  0.569016  1
  Co  Co28  1  0.749879  0.249879  0.000024  1
  Pd  Pd29  1  0.250038  0.750038  0.000017  1
