# generated using pymatgen
data_Nd3Si4
_symmetry_space_group_name_H-M   'P 1'
_cell_length_a   9.43791205
_cell_length_b   9.43791194
_cell_length_c   9.43791164
_cell_angle_alpha   155.49949493
_cell_angle_beta   153.05616259
_cell_angle_gamma   36.73516253
_symmetry_Int_Tables_number   1
_chemical_formula_structural   Nd3Si4
_chemical_formula_sum   'Nd3 Si4'
_cell_volume   157.75570570
_cell_formula_units_Z   1
loop_
 _symmetry_equiv_pos_site_id
 _symmetry_equiv_pos_as_xyz
  1  'x, y, z'
loop_
 _atom_site_type_symbol
 _atom_site_label
 _atom_site_symmetry_multiplicity
 _atom_site_fract_x
 _atom_site_fract_y
 _atom_site_fract_z
 _atom_site_occupancy
  Nd  Nd0  1  0.991115  0.000000  0.991115  1
  Nd  Nd1  1  0.812293  0.317673  0.494620  1
  Nd  Nd2  1  0.176948  0.682327  0.494620  1
  Si  Si3  1  0.639722  0.144184  0.495538  1
  Si  Si4  1  0.351353  0.855816  0.495538  1
  Si  Si5  1  0.426402  0.434117  0.992285  1
  Si  Si6  1  0.558167  0.565883  0.992285  1
