# generated using pymatgen
data_Y2Ho4TcSb2
_symmetry_space_group_name_H-M   'P 1'
_cell_length_a   8.17249277
_cell_length_b   8.15719330
_cell_length_c   4.24022000
_cell_angle_alpha   90.00000000
_cell_angle_beta   90.00000000
_cell_angle_gamma   119.93808927
_symmetry_Int_Tables_number   1
_chemical_formula_structural   Y2Ho4TcSb2
_chemical_formula_sum   'Y2 Ho4 Tc1 Sb2'
_cell_volume   244.95421629
_cell_formula_units_Z   1
loop_
 _symmetry_equiv_pos_site_id
 _symmetry_equiv_pos_as_xyz
  1  'x, y, z'
loop_
 _atom_site_type_symbol
 _atom_site_label
 _atom_site_symmetry_multiplicity
 _atom_site_fract_x
 _atom_site_fract_y
 _atom_site_fract_z
 _atom_site_occupancy
  Y  Y0  1  0.601687  0.000109  0.500000  1
  Y  Y1  1  0.398313  0.398423  0.500000  1
  Ho  Ho2  1  0.235457  0.999440  0.000000  1
  Ho  Ho3  1  0.764543  0.763983  0.000000  1
  Ho  Ho4  1  0.000000  0.236135  0.000000  1
  Ho  Ho5  1  0.000000  0.602388  0.500000  1
  Tc  Tc6  1  0.000000  0.999175  0.500000  1
  Sb  Sb7  1  0.333185  0.666766  0.000000  1
  Sb  Sb8  1  0.666815  0.333580  0.000000  1
