# generated using pymatgen
data_DyEr9(In2Rh)4
_symmetry_space_group_name_H-M   'P 1'
_cell_length_a   3.60582600
_cell_length_b   7.97198311
_cell_length_c   18.25291524
_cell_angle_alpha   90.01864230
_cell_angle_beta   90.00000000
_cell_angle_gamma   90.00000000
_symmetry_Int_Tables_number   1
_chemical_formula_structural   DyEr9(In2Rh)4
_chemical_formula_sum   'Dy1 Er9 In8 Rh4'
_cell_volume   524.69067970
_cell_formula_units_Z   1
loop_
 _symmetry_equiv_pos_site_id
 _symmetry_equiv_pos_as_xyz
  1  'x, y, z'
loop_
 _atom_site_type_symbol
 _atom_site_label
 _atom_site_symmetry_multiplicity
 _atom_site_fract_x
 _atom_site_fract_y
 _atom_site_fract_z
 _atom_site_occupancy
  Dy  Dy0  1  0.500000  0.000000  0.500000  1
  Er  Er1  1  0.500000  0.382914  0.588331  1
  Er  Er2  1  0.500000  0.882943  0.911693  1
  Er  Er3  1  0.500000  0.117057  0.088307  1
  Er  Er4  1  0.500000  0.753658  0.721426  1
  Er  Er5  1  0.500000  0.253537  0.778610  1
  Er  Er6  1  0.500000  0.500000  0.000000  1
  Er  Er7  1  0.500000  0.746463  0.221390  1
  Er  Er8  1  0.500000  0.246342  0.278574  1
  Er  Er9  1  0.500000  0.617086  0.411669  1
  In  In10  1  0.000000  0.792453  0.068597  1
  In  In11  1  0.000000  0.927459  0.349117  1
  In  In12  1  0.000000  0.072541  0.650883  1
  In  In13  1  0.000000  0.572496  0.849305  1
  In  In14  1  0.000000  0.707137  0.568752  1
  In  In15  1  0.000000  0.207547  0.931403  1
  In  In16  1  0.000000  0.292863  0.431248  1
  In  In17  1  0.000000  0.427504  0.150695  1
  Rh  Rh18  1  0.000000  0.975496  0.805336  1
  Rh  Rh19  1  0.000000  0.524454  0.305320  1
  Rh  Rh20  1  0.000000  0.475546  0.694680  1
  Rh  Rh21  1  0.000000  0.024504  0.194664  1
