# generated using pymatgen
data_Zr8Co7Si14Au
_symmetry_space_group_name_H-M   'P 1'
_cell_length_a   9.55035400
_cell_length_b   9.57708752
_cell_length_c   9.55530206
_cell_angle_alpha   94.25780966
_cell_angle_beta   94.10879259
_cell_angle_gamma   148.67515551
_symmetry_Int_Tables_number   1
_chemical_formula_structural   Zr8Co7Si14Au
_chemical_formula_sum   'Zr8 Co7 Si14 Au1'
_cell_volume   437.46684938
_cell_formula_units_Z   1
loop_
 _symmetry_equiv_pos_site_id
 _symmetry_equiv_pos_as_xyz
  1  'x, y, z'
loop_
 _atom_site_type_symbol
 _atom_site_label
 _atom_site_symmetry_multiplicity
 _atom_site_fract_x
 _atom_site_fract_y
 _atom_site_fract_z
 _atom_site_occupancy
  Zr  Zr0  1  0.137836  0.137836  0.275674  1
  Zr  Zr1  1  0.863233  0.863233  0.726466  1
  Zr  Zr2  1  0.860207  0.133149  0.002022  1
  Zr  Zr3  1  0.141815  0.868872  0.002022  1
  Zr  Zr4  1  0.497809  0.303959  0.804444  1
  Zr  Zr5  1  0.499954  0.694043  0.197476  1
  Zr  Zr6  1  0.697522  0.503433  0.197476  1
  Zr  Zr7  1  0.306635  0.500485  0.804444  1
  Co  Co8  1  0.107543  0.607543  0.215084  1
  Co  Co9  1  0.107555  0.897839  0.502900  1
  Co  Co10  1  0.395346  0.605061  0.502900  1
  Co  Co11  1  0.597792  0.399170  0.494078  1
  Co  Co12  1  0.896286  0.094909  0.494078  1
  Co  Co13  1  0.895216  0.395216  0.790434  1
  Co  Co14  1  0.600059  0.100059  0.200117  1
  Si  Si15  1  0.531397  0.129910  0.579572  1
  Si  Si16  1  0.502261  0.909383  0.409439  1
  Si  Si17  1  0.907179  0.500057  0.409439  1
  Si  Si18  1  0.048175  0.449662  0.579572  1
  Si  Si19  1  0.749390  0.749387  0.000838  1
  Si  Si20  1  0.251448  0.251450  0.000838  1
  Si  Si21  1  0.289306  0.289306  0.578611  1
  Si  Si22  1  0.710559  0.710559  0.421120  1
  Si  Si23  1  0.741484  0.324327  0.010491  1
  Si  Si24  1  0.269008  0.686165  0.010491  1
  Si  Si25  1  0.995861  0.296957  0.301021  1
  Si  Si26  1  0.972655  0.682905  0.695287  1
  Si  Si27  1  0.722632  0.012382  0.695287  1
  Si  Si28  1  0.305160  0.004063  0.301021  1
  Au  Au29  1  0.398678  0.898678  0.797357  1
