# generated using pymatgen
data_Dy20Ir3(RuPt2)3
_symmetry_space_group_name_H-M   'P 1'
_cell_length_a   10.96686501
_cell_length_b   10.96496501
_cell_length_c   6.41869400
_cell_angle_alpha   90.00187115
_cell_angle_beta   89.99665954
_cell_angle_gamma   90.00377763
_symmetry_Int_Tables_number   1
_chemical_formula_structural   Dy20Ir3(RuPt2)3
_chemical_formula_sum   'Dy20 Ir3 Ru3 Pt6'
_cell_volume   771.85623760
_cell_formula_units_Z   1
loop_
 _symmetry_equiv_pos_site_id
 _symmetry_equiv_pos_as_xyz
  1  'x, y, z'
loop_
 _atom_site_type_symbol
 _atom_site_label
 _atom_site_symmetry_multiplicity
 _atom_site_fract_x
 _atom_site_fract_y
 _atom_site_fract_z
 _atom_site_occupancy
  Dy  Dy0  1  0.297056  0.088967  0.374603  1
  Dy  Dy1  1  0.297221  0.911274  0.874840  1
  Dy  Dy2  1  0.702440  0.085715  0.874207  1
  Dy  Dy3  1  0.702736  0.914006  0.374004  1
  Dy  Dy4  1  0.583230  0.794822  0.874682  1
  Dy  Dy5  1  0.583325  0.205326  0.374659  1
  Dy  Dy6  1  0.411898  0.794984  0.379483  1
  Dy  Dy7  1  0.412065  0.204824  0.879434  1
  Dy  Dy8  1  0.208190  0.413998  0.623098  1
  Dy  Dy9  1  0.207826  0.586044  0.121231  1
  Dy  Dy10  1  0.795942  0.412398  0.122787  1
  Dy  Dy11  1  0.795679  0.587478  0.625317  1
  Dy  Dy12  1  0.913597  0.703700  0.123988  1
  Dy  Dy13  1  0.913563  0.295823  0.626815  1
  Dy  Dy14  1  0.091313  0.704283  0.627719  1
  Dy  Dy15  1  0.091258  0.296245  0.125209  1
  Dy  Dy16  1  0.000048  0.999658  0.499261  1
  Dy  Dy17  1  0.999985  0.000403  0.998997  1
  Dy  Dy18  1  0.496941  0.499617  0.998735  1
  Dy  Dy19  1  0.496962  0.500448  0.498967  1
  Ir  Ir20  1  0.346457  0.346307  0.249429  1
  Ir  Ir21  1  0.346539  0.653938  0.749639  1
  Ir  Ir22  1  0.999442  0.499923  0.376652  1
  Ru  Ru23  1  0.500589  0.999867  0.127671  1
  Ru  Ru24  1  0.500595  0.000060  0.627152  1
  Ru  Ru25  1  0.999145  0.500179  0.873692  1
  Pt  Pt26  1  0.846171  0.153426  0.250171  1
  Pt  Pt27  1  0.845855  0.846660  0.750217  1
  Pt  Pt28  1  0.152878  0.153641  0.749120  1
  Pt  Pt29  1  0.152561  0.846357  0.248929  1
  Pt  Pt30  1  0.654185  0.346297  0.749766  1
  Pt  Pt31  1  0.654310  0.653334  0.249527  1
