# generated using pymatgen
data_Nd3Th(Re2Si)8
_symmetry_space_group_name_H-M   'P 1'
_cell_length_a   4.16237500
_cell_length_b   7.35735443
_cell_length_c   15.52925374
_cell_angle_alpha   89.79881782
_cell_angle_beta   90.00000000
_cell_angle_gamma   90.00000000
_symmetry_Int_Tables_number   1
_chemical_formula_structural   Nd3Th(Re2Si)8
_chemical_formula_sum   'Nd3 Th1 Re16 Si8'
_cell_volume   475.56599313
_cell_formula_units_Z   1
loop_
 _symmetry_equiv_pos_site_id
 _symmetry_equiv_pos_as_xyz
  1  'x, y, z'
loop_
 _atom_site_type_symbol
 _atom_site_label
 _atom_site_symmetry_multiplicity
 _atom_site_fract_x
 _atom_site_fract_y
 _atom_site_fract_z
 _atom_site_occupancy
  Nd  Nd0  1  0.000000  0.422657  0.880922  1
  Nd  Nd1  1  0.500000  0.077634  0.382606  1
  Nd  Nd2  1  0.500000  0.922454  0.618139  1
  Th  Th3  1  0.000000  0.578002  0.118218  1
  Re  Re4  1  0.000000  0.137690  0.051852  1
  Re  Re5  1  0.000000  0.860915  0.948834  1
  Re  Re6  1  0.500000  0.637992  0.447724  1
  Re  Re7  1  0.500000  0.362846  0.551901  1
  Re  Re8  1  0.000000  0.731760  0.321522  1
  Re  Re9  1  0.000000  0.268248  0.678825  1
  Re  Re10  1  0.500000  0.233868  0.178503  1
  Re  Re11  1  0.500000  0.768833  0.820673  1
  Re  Re12  1  0.000000  0.431656  0.417990  1
  Re  Re13  1  0.000000  0.568520  0.581711  1
  Re  Re14  1  0.500000  0.928010  0.081553  1
  Re  Re15  1  0.500000  0.067773  0.918171  1
  Re  Re16  1  0.000000  0.989168  0.206540  1
  Re  Re17  1  0.000000  0.011247  0.793535  1
  Re  Re18  1  0.500000  0.487890  0.293539  1
  Re  Re19  1  0.500000  0.511934  0.706257  1
  Si  Si20  1  0.000000  0.828053  0.476039  1
  Si  Si21  1  0.000000  0.172304  0.524317  1
  Si  Si22  1  0.500000  0.326577  0.023373  1
  Si  Si23  1  0.500000  0.671646  0.974719  1
  Si  Si24  1  0.000000  0.288288  0.274282  1
  Si  Si25  1  0.000000  0.710036  0.726366  1
  Si  Si26  1  0.500000  0.794297  0.228614  1
  Si  Si27  1  0.500000  0.209700  0.773277  1
