# generated using pymatgen
data_Tb3ZnGa7Ag3
_symmetry_space_group_name_H-M   'P 1'
_cell_length_a   4.33824465
_cell_length_b   8.34719588
_cell_length_c   8.36010476
_cell_angle_alpha   70.14041188
_cell_angle_beta   74.96189867
_cell_angle_gamma   74.93809579
_symmetry_Int_Tables_number   1
_chemical_formula_structural   Tb3ZnGa7Ag3
_chemical_formula_sum   'Tb3 Zn1 Ga7 Ag3'
_cell_volume   270.02334066
_cell_formula_units_Z   1
loop_
 _symmetry_equiv_pos_site_id
 _symmetry_equiv_pos_as_xyz
  1  'x, y, z'
loop_
 _atom_site_type_symbol
 _atom_site_label
 _atom_site_symmetry_multiplicity
 _atom_site_fract_x
 _atom_site_fract_y
 _atom_site_fract_z
 _atom_site_occupancy
  Tb  Tb0  1  0.498628  0.500297  0.502446  1
  Tb  Tb1  1  0.201568  0.796814  0.800050  1
  Tb  Tb2  1  0.799349  0.202909  0.198393  1
  Zn  Zn3  1  0.356797  0.365863  0.920542  1
  Ga  Ga4  1  0.643031  0.638852  0.075088  1
  Ga  Ga5  1  0.356317  0.926418  0.360947  1
  Ga  Ga6  1  0.641831  0.075472  0.640868  1
  Ga  Ga7  1  0.162806  0.469269  0.205119  1
  Ga  Ga8  1  0.842178  0.524352  0.791291  1
  Ga  Ga9  1  0.158121  0.211003  0.472755  1
  Ga  Ga10  1  0.841340  0.788026  0.529294  1
  Ag  Ag11  1  0.498750  0.001651  0.000850  1
  Ag  Ag12  1  0.000338  0.803648  0.195677  1
  Ag  Ag13  1  0.998946  0.195428  0.806680  1
