# generated using pymatgen
data_Tb3Er3Al24(RuRh)4
_symmetry_space_group_name_H-M   'P 1'
_cell_length_a   8.81965963
_cell_length_b   8.76326408
_cell_length_c   9.54260400
_cell_angle_alpha   90.00000000
_cell_angle_beta   90.00000000
_cell_angle_gamma   119.78869949
_symmetry_Int_Tables_number   1
_chemical_formula_structural   Tb3Er3Al24(RuRh)4
_chemical_formula_sum   'Tb3 Er3 Al24 Ru4 Rh4'
_cell_volume   640.08260829
_cell_formula_units_Z   1
loop_
 _symmetry_equiv_pos_site_id
 _symmetry_equiv_pos_as_xyz
  1  'x, y, z'
loop_
 _atom_site_type_symbol
 _atom_site_label
 _atom_site_symmetry_multiplicity
 _atom_site_fract_x
 _atom_site_fract_y
 _atom_site_fract_z
 _atom_site_occupancy
  Tb  Tb0  1  0.616642  0.808321  0.750000  1
  Tb  Tb1  1  0.189328  0.804430  0.750000  1
  Tb  Tb2  1  0.189328  0.384898  0.750000  1
  Er  Er3  1  0.384741  0.192370  0.250000  1
  Er  Er4  1  0.810052  0.196425  0.250000  1
  Er  Er5  1  0.810052  0.613627  0.250000  1
  Al  Al6  1  0.439659  0.877576  0.250000  1
  Al  Al7  1  0.123456  0.561729  0.250000  1
  Al  Al8  1  0.439659  0.562083  0.250000  1
  Al  Al9  1  0.560993  0.123705  0.750000  1
  Al  Al10  1  0.875506  0.437753  0.750000  1
  Al  Al11  1  0.560993  0.437288  0.750000  1
  Al  Al12  1  0.161976  0.835829  0.421881  1
  Al  Al13  1  0.161976  0.326148  0.421881  1
  Al  Al14  1  0.675629  0.837815  0.421911  1
  Al  Al15  1  0.837857  0.164472  0.576773  1
  Al  Al16  1  0.837857  0.673384  0.576773  1
  Al  Al17  1  0.324843  0.162422  0.576717  1
  Al  Al18  1  0.837857  0.164472  0.923227  1
  Al  Al19  1  0.837857  0.673384  0.923227  1
  Al  Al20  1  0.324843  0.162422  0.923283  1
  Al  Al21  1  0.161976  0.835829  0.078119  1
  Al  Al22  1  0.161976  0.326148  0.078119  1
  Al  Al23  1  0.675629  0.837815  0.078089  1
  Al  Al24  1  0.330964  0.665482  0.523090  1
  Al  Al25  1  0.668863  0.334432  0.475384  1
  Al  Al26  1  0.668863  0.334432  0.024616  1
  Al  Al27  1  0.330964  0.665482  0.976910  1
  Al  Al28  1  0.002177  0.001088  0.250000  1
  Al  Al29  1  0.997836  0.998919  0.750000  1
  Ru  Ru30  1  0.000060  0.000030  0.499941  1
  Ru  Ru31  1  0.000060  0.000030  0.000059  1
  Ru  Ru32  1  0.999316  0.499658  0.499313  1
  Ru  Ru33  1  0.999316  0.499658  0.000687  1
  Rh  Rh34  1  0.500223  0.000373  0.499638  1
  Rh  Rh35  1  0.500223  0.499850  0.499638  1
  Rh  Rh36  1  0.500223  0.000373  0.000362  1
  Rh  Rh37  1  0.500223  0.499850  0.000362  1
