# generated using pymatgen
data_Ho3PdRh2Pb3
_symmetry_space_group_name_H-M   'P 1'
_cell_length_a   7.89628900
_cell_length_b   7.89628936
_cell_length_c   3.70849000
_cell_angle_alpha   90.00000000
_cell_angle_beta   90.00000000
_cell_angle_gamma   120.00000267
_symmetry_Int_Tables_number   1
_chemical_formula_structural   Ho3PdRh2Pb3
_chemical_formula_sum   'Ho3 Pd1 Rh2 Pb3'
_cell_volume   200.25059817
_cell_formula_units_Z   1
loop_
 _symmetry_equiv_pos_site_id
 _symmetry_equiv_pos_as_xyz
  1  'x, y, z'
loop_
 _atom_site_type_symbol
 _atom_site_label
 _atom_site_symmetry_multiplicity
 _atom_site_fract_x
 _atom_site_fract_y
 _atom_site_fract_z
 _atom_site_occupancy
  Ho  Ho0  1  0.404141  0.391532  0.500000  1
  Ho  Ho1  1  0.608468  0.012609  0.500000  1
  Ho  Ho2  1  0.987391  0.595859  0.500000  1
  Pd  Pd3  1  0.333333  0.666667  0.000000  1
  Rh  Rh4  1  0.666667  0.333333  0.000000  1
  Rh  Rh5  1  0.000000  0.000000  0.500000  1
  Pb  Pb6  1  0.729051  0.732527  0.000000  1
  Pb  Pb7  1  0.267473  0.996525  0.000000  1
  Pb  Pb8  1  0.003475  0.270949  0.000000  1
