# generated using pymatgen
data_IrBr35
_symmetry_space_group_name_H-M   'P 1'
_cell_length_a   15.98197694
_cell_length_b   11.40028128
_cell_length_c   10.79188300
_cell_angle_alpha   88.81408278
_cell_angle_beta   66.02770512
_cell_angle_gamma   92.31545406
_symmetry_Int_Tables_number   1
_chemical_formula_structural   IrBr35
_chemical_formula_sum   'Ir1 Br35'
_cell_volume   1793.71352310
_cell_formula_units_Z   1
loop_
 _symmetry_equiv_pos_site_id
 _symmetry_equiv_pos_as_xyz
  1  'x, y, z'
loop_
 _atom_site_type_symbol
 _atom_site_label
 _atom_site_symmetry_multiplicity
 _atom_site_fract_x
 _atom_site_fract_y
 _atom_site_fract_z
 _atom_site_occupancy
  Ir  Ir0  1  0.236580  0.444390  0.449632  1
  Br  Br1  1  0.515064  0.260849  0.518904  1
  Br  Br2  1  0.764751  0.580704  0.560514  1
  Br  Br3  1  0.485356  0.682168  0.743443  1
  Br  Br4  1  0.051861  0.888237  0.863395  1
  Br  Br5  1  0.891215  0.161735  0.010037  1
  Br  Br6  1  0.648886  0.320803  0.290898  1
  Br  Br7  1  0.621547  0.345448  0.834267  1
  Br  Br8  1  0.346346  0.753014  0.708937  1
  Br  Br9  1  0.331448  0.580057  0.236744  1
  Br  Br10  1  0.647870  0.142029  0.807609  1
  Br  Br11  1  0.910062  0.543389  0.364376  1
  Br  Br12  1  0.056333  0.952319  0.635037  1
  Br  Br13  1  0.896022  0.113731  0.246293  1
  Br  Br14  1  0.887582  0.214871  0.788201  1
  Br  Br15  1  0.648134  0.048240  0.220704  1
  Br  Br16  1  0.023666  0.819288  0.108172  1
  Br  Br17  1  0.364853  0.974319  0.722665  1
  Br  Br18  1  0.900841  0.323126  0.311855  1
  Br  Br19  1  0.873581  0.927415  0.715638  1
  Br  Br20  1  0.899796  0.660349  0.791930  1
  Br  Br21  1  0.310431  0.023022  0.296406  1
  Br  Br22  1  0.336727  0.301993  0.295755  1
  Br  Br23  1  0.621643  0.613817  0.787174  1
  Br  Br24  1  0.125776  0.409998  0.348742  1
  Br  Br25  1  0.706274  0.906610  0.796878  1
  Br  Br26  1  0.872979  0.452036  0.800977  1
  Br  Br27  1  0.487212  0.036429  0.257576  1
  Br  Br28  1  0.155553  0.303074  0.635885  1
  Br  Br29  1  0.675129  0.771815  0.267990  1
  Br  Br30  1  0.848934  0.798277  0.190948  1
  Br  Br31  1  0.380942  0.198039  0.739375  1
  Br  Br32  1  0.354887  0.488913  0.534179  1
  Br  Br33  1  0.656233  0.544753  0.274084  1
  Br  Br34  1  0.154154  0.614297  0.564401  1
  Br  Br35  1  0.311329  0.800449  0.280381  1
