# generated using pymatgen
data_Pa3CdPt12
_symmetry_space_group_name_H-M   'P 1'
_cell_length_a   5.81665800
_cell_length_b   5.81665835
_cell_length_c   9.72545000
_cell_angle_alpha   90.00000000
_cell_angle_beta   90.00000000
_cell_angle_gamma   119.99999800
_symmetry_Int_Tables_number   1
_chemical_formula_structural   Pa3CdPt12
_chemical_formula_sum   'Pa3 Cd1 Pt12'
_cell_volume   284.96231558
_cell_formula_units_Z   1
loop_
 _symmetry_equiv_pos_site_id
 _symmetry_equiv_pos_as_xyz
  1  'x, y, z'
loop_
 _atom_site_type_symbol
 _atom_site_label
 _atom_site_symmetry_multiplicity
 _atom_site_fract_x
 _atom_site_fract_y
 _atom_site_fract_z
 _atom_site_occupancy
  Pa  Pa0  1  0.000000  0.000000  0.491740  1
  Pa  Pa1  1  0.000000  0.000000  0.008260  1
  Pa  Pa2  1  0.666667  0.333333  0.750000  1
  Cd  Cd3  1  0.333333  0.666667  0.250000  1
  Pt  Pt4  1  0.500942  0.499058  0.500450  1
  Pt  Pt5  1  0.500942  0.001883  0.500450  1
  Pt  Pt6  1  0.998117  0.499058  0.500450  1
  Pt  Pt7  1  0.500942  0.499058  0.999550  1
  Pt  Pt8  1  0.500942  0.001883  0.999550  1
  Pt  Pt9  1  0.998117  0.499058  0.999550  1
  Pt  Pt10  1  0.828693  0.657387  0.250000  1
  Pt  Pt11  1  0.342613  0.171307  0.250000  1
  Pt  Pt12  1  0.828693  0.171307  0.250000  1
  Pt  Pt13  1  0.168200  0.336398  0.750000  1
  Pt  Pt14  1  0.663602  0.831800  0.750000  1
  Pt  Pt15  1  0.168200  0.831800  0.750000  1
