# generated using pymatgen
data_SmDySn5Rh3
_symmetry_space_group_name_H-M   'P 1'
_cell_length_a   13.50465337
_cell_length_b   13.50465401
_cell_length_c   7.28132000
_cell_angle_alpha   90.00000000
_cell_angle_beta   90.00000000
_cell_angle_gamma   161.01029054
_symmetry_Int_Tables_number   1
_chemical_formula_structural   SmDySn5Rh3
_chemical_formula_sum   'Sm2 Dy2 Sn10 Rh6'
_cell_volume   432.10803470
_cell_formula_units_Z   2
loop_
 _symmetry_equiv_pos_site_id
 _symmetry_equiv_pos_as_xyz
  1  'x, y, z'
loop_
 _atom_site_type_symbol
 _atom_site_label
 _atom_site_symmetry_multiplicity
 _atom_site_fract_x
 _atom_site_fract_y
 _atom_site_fract_z
 _atom_site_occupancy
  Sm  Sm0  1  0.172329  0.827671  0.753975  1
  Sm  Sm1  1  0.827671  0.172329  0.253975  1
  Dy  Dy2  1  0.476174  0.523826  0.738183  1
  Dy  Dy3  1  0.523826  0.476174  0.238183  1
  Sn  Sn4  1  0.880845  0.119155  0.730578  1
  Sn  Sn5  1  0.119155  0.880845  0.230578  1
  Sn  Sn6  1  0.704384  0.295616  0.050000  1
  Sn  Sn7  1  0.295616  0.704384  0.550000  1
  Sn  Sn8  1  0.595701  0.404299  0.613759  1
  Sn  Sn9  1  0.404299  0.595701  0.113759  1
  Sn  Sn10  1  0.952671  0.047329  0.399023  1
  Sn  Sn11  1  0.047329  0.952671  0.899023  1
  Sn  Sn12  1  0.290604  0.709396  0.976239  1
  Sn  Sn13  1  0.709396  0.290604  0.476239  1
  Rh  Rh14  1  0.050257  0.949743  0.517900  1
  Rh  Rh15  1  0.949743  0.050257  0.017900  1
  Rh  Rh16  1  0.777529  0.222471  0.763236  1
  Rh  Rh17  1  0.222471  0.777529  0.263236  1
  Rh  Rh18  1  0.394737  0.605263  0.485104  1
  Rh  Rh19  1  0.605263  0.394737  0.985104  1
