# generated using pymatgen
data_LaNd2Sn6Ru
_symmetry_space_group_name_H-M   'P 1'
_cell_length_a   8.74355141
_cell_length_b   8.74355123
_cell_length_c   13.49918391
_cell_angle_alpha   89.72463739
_cell_angle_beta   90.27536156
_cell_angle_gamma   148.52786098
_symmetry_Int_Tables_number   1
_chemical_formula_structural   LaNd2Sn6Ru
_chemical_formula_sum   'La2 Nd4 Sn12 Ru2'
_cell_volume   538.78825773
_cell_formula_units_Z   2
loop_
 _symmetry_equiv_pos_site_id
 _symmetry_equiv_pos_as_xyz
  1  'x, y, z'
loop_
 _atom_site_type_symbol
 _atom_site_label
 _atom_site_symmetry_multiplicity
 _atom_site_fract_x
 _atom_site_fract_y
 _atom_site_fract_z
 _atom_site_occupancy
  La  La0  1  0.399424  0.600576  0.404313  1
  La  La1  1  0.600576  0.399424  0.595687  1
  Nd  Nd2  1  0.602265  0.397735  0.249958  1
  Nd  Nd3  1  0.397735  0.602265  0.750042  1
  Nd  Nd4  1  0.399169  0.600831  0.095138  1
  Nd  Nd5  1  0.600831  0.399169  0.904862  1
  Sn  Sn6  1  0.927209  0.072791  0.924437  1
  Sn  Sn7  1  0.072791  0.927209  0.075563  1
  Sn  Sn8  1  0.926775  0.073225  0.577186  1
  Sn  Sn9  1  0.073225  0.926775  0.422814  1
  Sn  Sn10  1  0.959649  0.040351  0.248857  1
  Sn  Sn11  1  0.040351  0.959649  0.751143  1
  Sn  Sn12  1  0.745277  0.254724  0.432270  1
  Sn  Sn13  1  0.254724  0.745276  0.567730  1
  Sn  Sn14  1  0.745226  0.254775  0.067237  1
  Sn  Sn15  1  0.254775  0.745225  0.932763  1
  Sn  Sn16  1  0.233578  0.766422  0.249765  1
  Sn  Sn17  1  0.766422  0.233578  0.750235  1
  Ru  Ru18  1  0.801220  0.198780  0.249802  1
  Ru  Ru19  1  0.198780  0.801220  0.750198  1
