# generated using pymatgen
data_Dy2CoNiOs2
_symmetry_space_group_name_H-M   'P 1'
_cell_length_a   5.19248328
_cell_length_b   5.28349595
_cell_length_c   5.19248400
_cell_angle_alpha   120.05199237
_cell_angle_beta   121.46815579
_cell_angle_gamma   88.22104094
_symmetry_Int_Tables_number   1
_chemical_formula_structural   Dy2CoNiOs2
_chemical_formula_sum   'Dy2 Co1 Ni1 Os2'
_cell_volume   99.91750236
_cell_formula_units_Z   1
loop_
 _symmetry_equiv_pos_site_id
 _symmetry_equiv_pos_as_xyz
  1  'x, y, z'
loop_
 _atom_site_type_symbol
 _atom_site_label
 _atom_site_symmetry_multiplicity
 _atom_site_fract_x
 _atom_site_fract_y
 _atom_site_fract_z
 _atom_site_occupancy
  Dy  Dy0  1  0.378735  0.132027  0.253291  1
  Dy  Dy1  1  0.621265  0.867973  0.746709  1
  Co  Co2  1  0.000000  0.500000  0.000000  1
  Ni  Ni3  1  0.000000  0.000000  0.500000  1
  Os  Os4  1  0.000000  0.500000  0.500000  1
  Os  Os5  1  0.500000  0.500000  0.000000  1
