# generated using pymatgen
data_Dy5Er15Sn16
_symmetry_space_group_name_H-M   'P 1'
_cell_length_a   8.00402288
_cell_length_b   8.12284270
_cell_length_c   15.36645897
_cell_angle_alpha   90.00448021
_cell_angle_beta   89.85706641
_cell_angle_gamma   89.87111425
_symmetry_Int_Tables_number   1
_chemical_formula_structural   Dy5Er15Sn16
_chemical_formula_sum   'Dy5 Er15 Sn16'
_cell_volume   999.05112637
_cell_formula_units_Z   1
loop_
 _symmetry_equiv_pos_site_id
 _symmetry_equiv_pos_as_xyz
  1  'x, y, z'
loop_
 _atom_site_type_symbol
 _atom_site_label
 _atom_site_symmetry_multiplicity
 _atom_site_fract_x
 _atom_site_fract_y
 _atom_site_fract_z
 _atom_site_occupancy
  Dy  Dy0  1  0.978676  0.820454  0.097111  1
  Dy  Dy1  1  0.478776  0.678847  0.096596  1
  Dy  Dy2  1  0.978324  0.820799  0.403146  1
  Dy  Dy3  1  0.521482  0.320975  0.596702  1
  Dy  Dy4  1  0.020889  0.179525  0.903368  1
  Er  Er5  1  0.367186  0.837064  0.877096  1
  Er  Er6  1  0.867947  0.662809  0.622612  1
  Er  Er7  1  0.631825  0.163030  0.377373  1
  Er  Er8  1  0.132487  0.337250  0.122814  1
  Er  Er9  1  0.632266  0.162975  0.122888  1
  Er  Er10  1  0.131737  0.337053  0.377604  1
  Er  Er11  1  0.368450  0.837160  0.622618  1
  Er  Er12  1  0.867430  0.662591  0.877095  1
  Er  Er13  1  0.522302  0.320829  0.902589  1
  Er  Er14  1  0.022703  0.179069  0.597441  1
  Er  Er15  1  0.477179  0.678747  0.402736  1
  Er  Er16  1  0.198586  0.503892  0.749910  1
  Er  Er17  1  0.698483  0.996196  0.749805  1
  Er  Er18  1  0.801347  0.496106  0.250341  1
  Er  Er19  1  0.301703  0.003990  0.250284  1
  Sn  Sn20  1  0.294141  0.037323  0.041669  1
  Sn  Sn21  1  0.792041  0.463823  0.458169  1
  Sn  Sn22  1  0.707823  0.964155  0.541902  1
  Sn  Sn23  1  0.207311  0.536378  0.958133  1
  Sn  Sn24  1  0.705163  0.962975  0.958295  1
  Sn  Sn25  1  0.206685  0.537664  0.541194  1
  Sn  Sn26  1  0.293372  0.037104  0.458795  1
  Sn  Sn27  1  0.793522  0.461548  0.041049  1
  Sn  Sn28  1  0.564793  0.618931  0.749867  1
  Sn  Sn29  1  0.064700  0.880815  0.749879  1
  Sn  Sn30  1  0.435195  0.380734  0.250078  1
  Sn  Sn31  1  0.935323  0.119863  0.250108  1
  Sn  Sn32  1  0.331299  0.148742  0.750391  1
  Sn  Sn33  1  0.831227  0.351138  0.749654  1
  Sn  Sn34  1  0.668107  0.851233  0.250457  1
  Sn  Sn35  1  0.169519  0.648212  0.250231  1
