# generated using pymatgen
data_Eu8Be3Si13
_symmetry_space_group_name_H-M   'P 1'
_cell_length_a   8.00913100
_cell_length_b   8.00913083
_cell_length_c   8.84582200
_cell_angle_alpha   90.00000000
_cell_angle_beta   90.00000000
_cell_angle_gamma   119.99999657
_symmetry_Int_Tables_number   1
_chemical_formula_structural   Eu8Be3Si13
_chemical_formula_sum   'Eu8 Be3 Si13'
_cell_volume   491.40506424
_cell_formula_units_Z   1
loop_
 _symmetry_equiv_pos_site_id
 _symmetry_equiv_pos_as_xyz
  1  'x, y, z'
loop_
 _atom_site_type_symbol
 _atom_site_label
 _atom_site_symmetry_multiplicity
 _atom_site_fract_x
 _atom_site_fract_y
 _atom_site_fract_z
 _atom_site_occupancy
  Eu  Eu0  1  0.501772  0.498228  0.749181  1
  Eu  Eu1  1  0.501981  0.498019  0.251080  1
  Eu  Eu2  1  0.996457  0.498228  0.749181  1
  Eu  Eu3  1  0.996040  0.498019  0.251080  1
  Eu  Eu4  1  0.501772  0.003543  0.749181  1
  Eu  Eu5  1  0.501981  0.003960  0.251080  1
  Eu  Eu6  1  0.000000  0.000000  0.752661  1
  Eu  Eu7  1  0.000000  0.000000  0.246908  1
  Be  Be8  1  0.666667  0.333333  0.999398  1
  Be  Be9  1  0.333333  0.666667  0.000976  1
  Be  Be10  1  0.333333  0.666667  0.499309  1
  Si  Si11  1  0.827825  0.172175  0.999971  1
  Si  Si12  1  0.172447  0.827553  0.999888  1
  Si  Si13  1  0.344350  0.172175  0.999971  1
  Si  Si14  1  0.174938  0.825062  0.500086  1
  Si  Si15  1  0.655107  0.827553  0.999888  1
  Si  Si16  1  0.836962  0.163038  0.499849  1
  Si  Si17  1  0.827825  0.655650  0.999971  1
  Si  Si18  1  0.650122  0.825062  0.500086  1
  Si  Si19  1  0.172447  0.344893  0.999888  1
  Si  Si20  1  0.326076  0.163038  0.499849  1
  Si  Si21  1  0.174938  0.349878  0.500086  1
  Si  Si22  1  0.836962  0.673924  0.499849  1
  Si  Si23  1  0.666667  0.333333  0.500586  1
