# generated using pymatgen
data_Tb2YMg3Si2Pd
_symmetry_space_group_name_H-M   'P 1'
_cell_length_a   7.27378300
_cell_length_b   7.26452443
_cell_length_c   4.26533200
_cell_angle_alpha   90.00000000
_cell_angle_beta   90.00000000
_cell_angle_gamma   120.04216423
_symmetry_Int_Tables_number   1
_chemical_formula_structural   Tb2YMg3Si2Pd
_chemical_formula_sum   'Tb2 Y1 Mg3 Si2 Pd1'
_cell_volume   195.10406773
_cell_formula_units_Z   1
loop_
 _symmetry_equiv_pos_site_id
 _symmetry_equiv_pos_as_xyz
  1  'x, y, z'
loop_
 _atom_site_type_symbol
 _atom_site_label
 _atom_site_symmetry_multiplicity
 _atom_site_fract_x
 _atom_site_fract_y
 _atom_site_fract_z
 _atom_site_occupancy
  Tb  Tb0  1  0.417577  0.417706  0.500000  1
  Tb  Tb1  1  0.999871  0.582294  0.500000  1
  Y  Y2  1  0.582087  0.000000  0.500000  1
  Mg  Mg3  1  0.755677  0.755721  0.000000  1
  Mg  Mg4  1  0.244411  0.000000  0.000000  1
  Mg  Mg5  1  0.999956  0.244279  0.000000  1
  Si  Si6  1  0.666752  0.333343  0.000000  1
  Si  Si7  1  0.333408  0.666657  0.000000  1
  Pd  Pd8  1  0.000260  0.000000  0.500000  1
