# generated using pymatgen
data_Dy2PaTc2
_symmetry_space_group_name_H-M   'P 1'
_cell_length_a   5.92121452
_cell_length_b   5.92121367
_cell_length_c   5.92121500
_cell_angle_alpha   137.76662601
_cell_angle_beta   121.94059390
_cell_angle_gamma   74.36829646
_symmetry_Int_Tables_number   1
_chemical_formula_structural   Dy2PaTc2
_chemical_formula_sum   'Dy2 Pa1 Tc2'
_cell_volume   115.66156781
_cell_formula_units_Z   1
loop_
 _symmetry_equiv_pos_site_id
 _symmetry_equiv_pos_as_xyz
  1  'x, y, z'
loop_
 _atom_site_type_symbol
 _atom_site_label
 _atom_site_symmetry_multiplicity
 _atom_site_fract_x
 _atom_site_fract_y
 _atom_site_fract_z
 _atom_site_occupancy
  Dy  Dy0  1  0.696095  0.196096  0.499999  1
  Dy  Dy1  1  0.303904  0.803905  0.500001  1
  Pa  Pa2  1  0.000000  0.000000  0.000000  1
  Tc  Tc3  1  0.744781  0.500000  0.244781  1
  Tc  Tc4  1  0.255218  0.500001  0.755219  1
