# generated using pymatgen
data_Yb6TmPt7
_symmetry_space_group_name_H-M   'P 1'
_cell_length_a   5.94390464
_cell_length_b   7.69711750
_cell_length_c   7.69711740
_cell_angle_alpha   113.61641487
_cell_angle_beta   104.91633225
_cell_angle_gamma   104.91632396
_symmetry_Int_Tables_number   1
_chemical_formula_structural   Yb6TmPt7
_chemical_formula_sum   'Yb6 Tm1 Pt7'
_cell_volume   284.76403124
_cell_formula_units_Z   1
loop_
 _symmetry_equiv_pos_site_id
 _symmetry_equiv_pos_as_xyz
  1  'x, y, z'
loop_
 _atom_site_type_symbol
 _atom_site_label
 _atom_site_symmetry_multiplicity
 _atom_site_fract_x
 _atom_site_fract_y
 _atom_site_fract_z
 _atom_site_occupancy
  Yb  Yb0  1  0.352932  0.434601  0.143408  1
  Yb  Yb1  1  0.209524  0.856592  0.291194  1
  Yb  Yb2  1  0.081669  0.291193  0.434601  1
  Yb  Yb3  1  0.918331  0.708807  0.565399  1
  Yb  Yb4  1  0.790476  0.143408  0.708807  1
  Yb  Yb5  1  0.647068  0.565399  0.856592  1
  Tm  Tm6  1  0.500000  0.000000  0.000000  1
  Pt  Pt7  1  0.000000  0.000000  0.000000  1
  Pt  Pt8  1  0.847882  0.414877  0.137778  1
  Pt  Pt9  1  0.710104  0.862222  0.277099  1
  Pt  Pt10  1  0.566995  0.277099  0.414877  1
  Pt  Pt11  1  0.433007  0.722901  0.585124  1
  Pt  Pt12  1  0.289896  0.137778  0.722902  1
  Pt  Pt13  1  0.152118  0.585123  0.862222  1
