# generated using pymatgen
data_Ta20Al9Rh
_symmetry_space_group_name_H-M   'P 1'
_cell_length_a   9.91919581
_cell_length_b   9.91919581
_cell_length_c   5.22554400
_cell_angle_alpha   90.00000000
_cell_angle_beta   90.00000000
_cell_angle_gamma   89.73860124
_symmetry_Int_Tables_number   1
_chemical_formula_structural   Ta20Al9Rh
_chemical_formula_sum   'Ta20 Al9 Rh1'
_cell_volume   514.13825122
_cell_formula_units_Z   1
loop_
 _symmetry_equiv_pos_site_id
 _symmetry_equiv_pos_as_xyz
  1  'x, y, z'
loop_
 _atom_site_type_symbol
 _atom_site_label
 _atom_site_symmetry_multiplicity
 _atom_site_fract_x
 _atom_site_fract_y
 _atom_site_fract_z
 _atom_site_occupancy
  Ta  Ta0  1  0.463679  0.129538  0.000000  1
  Ta  Ta1  1  0.398389  0.398389  0.000000  1
  Ta  Ta2  1  0.129538  0.463679  0.000000  1
  Ta  Ta3  1  0.870463  0.536321  0.000000  1
  Ta  Ta4  1  0.601611  0.601611  0.000000  1
  Ta  Ta5  1  0.536321  0.870463  0.000000  1
  Ta  Ta6  1  0.681989  0.318011  0.248065  1
  Ta  Ta7  1  0.318011  0.681989  0.248065  1
  Ta  Ta8  1  0.180725  0.180725  0.250337  1
  Ta  Ta9  1  0.819275  0.819275  0.250337  1
  Ta  Ta10  1  0.629819  0.036754  0.500001  1
  Ta  Ta11  1  0.899043  0.100957  0.500001  1
  Ta  Ta12  1  0.963246  0.370181  0.500001  1
  Ta  Ta13  1  0.036754  0.629819  0.500001  1
  Ta  Ta14  1  0.100957  0.899043  0.500001  1
  Ta  Ta15  1  0.370181  0.963246  0.500001  1
  Ta  Ta16  1  0.180725  0.180725  0.749663  1
  Ta  Ta17  1  0.819275  0.819275  0.749663  1
  Ta  Ta18  1  0.681989  0.318011  0.751936  1
  Ta  Ta19  1  0.318011  0.681989  0.751936  1
  Al  Al20  1  0.743219  0.065358  0.000000  1
  Al  Al21  1  0.934643  0.256781  0.000000  1
  Al  Al22  1  0.065358  0.743219  0.000000  1
  Al  Al23  1  0.256781  0.934643  0.000000  1
  Al  Al24  1  0.432710  0.237896  0.500001  1
  Al  Al25  1  0.237896  0.432710  0.500001  1
  Al  Al26  1  0.500000  0.500000  0.500001  1
  Al  Al27  1  0.762105  0.567289  0.500001  1
  Al  Al28  1  0.567289  0.762105  0.500001  1
  Rh  Rh29  1  0.000000  0.000000  0.000000  1
