# generated using pymatgen
data_Pr16Co4AgHg3
_symmetry_space_group_name_H-M   'P 1'
_cell_length_a   9.86700736
_cell_length_b   9.86571058
_cell_length_c   9.90919590
_cell_angle_alpha   60.18150808
_cell_angle_beta   60.18601583
_cell_angle_gamma   60.16389157
_symmetry_Int_Tables_number   1
_chemical_formula_structural   Pr16Co4AgHg3
_chemical_formula_sum   'Pr16 Co4 Ag1 Hg3'
_cell_volume   684.81925360
_cell_formula_units_Z   1
loop_
 _symmetry_equiv_pos_site_id
 _symmetry_equiv_pos_as_xyz
  1  'x, y, z'
loop_
 _atom_site_type_symbol
 _atom_site_label
 _atom_site_symmetry_multiplicity
 _atom_site_fract_x
 _atom_site_fract_y
 _atom_site_fract_z
 _atom_site_occupancy
  Pr  Pr0  1  0.293188  0.902251  0.902571  1
  Pr  Pr1  1  0.689014  0.689060  0.307899  1
  Pr  Pr2  1  0.902851  0.902790  0.292333  1
  Pr  Pr3  1  0.312002  0.689629  0.308987  1
  Pr  Pr4  1  0.689630  0.311996  0.308979  1
  Pr  Pr5  1  0.059198  0.440773  0.441795  1
  Pr  Pr6  1  0.440388  0.060691  0.060577  1
  Pr  Pr7  1  0.059920  0.059947  0.440521  1
  Pr  Pr8  1  0.310345  0.310329  0.688858  1
  Pr  Pr9  1  0.440725  0.059205  0.441845  1
  Pr  Pr10  1  0.903436  0.903327  0.903550  1
  Pr  Pr11  1  0.440422  0.440472  0.061475  1
  Pr  Pr12  1  0.310023  0.689126  0.688540  1
  Pr  Pr13  1  0.689122  0.310012  0.688566  1
  Pr  Pr14  1  0.060684  0.440475  0.060554  1
  Pr  Pr15  1  0.902303  0.293252  0.902542  1
  Co  Co16  1  0.109835  0.109792  0.108737  1
  Co  Co17  1  0.108200  0.108182  0.672273  1
  Co  Co18  1  0.672277  0.108073  0.108032  1
  Co  Co19  1  0.108092  0.672279  0.108012  1
  Ag  Ag20  1  0.667957  0.667980  0.995570  1
  Hg  Hg21  1  0.996169  0.667260  0.668967  1
  Hg  Hg22  1  0.667267  0.996143  0.668978  1
  Hg  Hg23  1  0.666951  0.666957  0.669836  1
