# generated using pymatgen
data_RbSb13Ru3
_symmetry_space_group_name_H-M   'P 1'
_cell_length_a   8.39001489
_cell_length_b   8.39001346
_cell_length_c   8.39001416
_cell_angle_alpha   109.66606848
_cell_angle_beta   109.66607410
_cell_angle_gamma   109.66606696
_symmetry_Int_Tables_number   1
_chemical_formula_structural   RbSb13Ru3
_chemical_formula_sum   'Rb1 Sb13 Ru3'
_cell_volume   451.32888547
_cell_formula_units_Z   1
loop_
 _symmetry_equiv_pos_site_id
 _symmetry_equiv_pos_as_xyz
  1  'x, y, z'
loop_
 _atom_site_type_symbol
 _atom_site_label
 _atom_site_symmetry_multiplicity
 _atom_site_fract_x
 _atom_site_fract_y
 _atom_site_fract_z
 _atom_site_occupancy
  Rb  Rb0  1  0.000000  0.000000  0.000000  1
  Sb  Sb1  1  0.500000  0.500000  0.500000  1
  Sb  Sb2  1  0.160956  0.823174  0.664360  1
  Sb  Sb3  1  0.120294  0.501959  0.332238  1
  Sb  Sb4  1  0.498041  0.667762  0.879706  1
  Sb  Sb5  1  0.335640  0.839044  0.176826  1
  Sb  Sb6  1  0.823174  0.664360  0.160956  1
  Sb  Sb7  1  0.667762  0.879706  0.498041  1
  Sb  Sb8  1  0.176826  0.335640  0.839044  1
  Sb  Sb9  1  0.664360  0.160956  0.823174  1
  Sb  Sb10  1  0.332238  0.120294  0.501959  1
  Sb  Sb11  1  0.501959  0.332238  0.120294  1
  Sb  Sb12  1  0.879706  0.498041  0.667762  1
  Sb  Sb13  1  0.839044  0.176826  0.335640  1
  Ru  Ru14  1  0.000000  0.000000  0.500000  1
  Ru  Ru15  1  0.500000  0.000000  0.000000  1
  Ru  Ru16  1  0.000000  0.500000  0.000000  1
