# generated using pymatgen
data_SmEr9In4(HgPd)4
_symmetry_space_group_name_H-M   'P 1'
_cell_length_a   3.64233200
_cell_length_b   7.92922765
_cell_length_c   18.25630939
_cell_angle_alpha   89.95448990
_cell_angle_beta   90.00000000
_cell_angle_gamma   90.00000000
_symmetry_Int_Tables_number   1
_chemical_formula_structural   SmEr9In4(HgPd)4
_chemical_formula_sum   'Sm1 Er9 In4 Hg4 Pd4'
_cell_volume   527.25810701
_cell_formula_units_Z   1
loop_
 _symmetry_equiv_pos_site_id
 _symmetry_equiv_pos_as_xyz
  1  'x, y, z'
loop_
 _atom_site_type_symbol
 _atom_site_label
 _atom_site_symmetry_multiplicity
 _atom_site_fract_x
 _atom_site_fract_y
 _atom_site_fract_z
 _atom_site_occupancy
  Sm  Sm0  1  0.000000  0.500000  0.500000  1
  Er  Er1  1  0.000000  0.000000  0.000000  1
  Er  Er2  1  0.000000  0.742232  0.282868  1
  Er  Er3  1  0.000000  0.257768  0.717132  1
  Er  Er4  1  0.000000  0.757762  0.783496  1
  Er  Er5  1  0.000000  0.242238  0.216504  1
  Er  Er6  1  0.000000  0.609865  0.084133  1
  Er  Er7  1  0.000000  0.390135  0.915867  1
  Er  Er8  1  0.000000  0.889431  0.584485  1
  Er  Er9  1  0.000000  0.110569  0.415515  1
  In  In10  1  0.500000  0.581174  0.650631  1
  In  In11  1  0.500000  0.418826  0.349369  1
  In  In12  1  0.500000  0.919308  0.148649  1
  In  In13  1  0.500000  0.080692  0.851351  1
  Hg  Hg14  1  0.500000  0.713794  0.933355  1
  Hg  Hg15  1  0.500000  0.286206  0.066645  1
  Hg  Hg16  1  0.500000  0.790459  0.431620  1
  Hg  Hg17  1  0.500000  0.209541  0.568380  1
  Pd  Pd18  1  0.500000  0.529353  0.197113  1
  Pd  Pd19  1  0.500000  0.470647  0.802887  1
  Pd  Pd20  1  0.500000  0.970285  0.697697  1
  Pd  Pd21  1  0.500000  0.029715  0.302303  1
