# generated using pymatgen
data_Ta2Mn2GeOs
_symmetry_space_group_name_H-M   'P 1'
_cell_length_a   4.95325919
_cell_length_b   4.94731261
_cell_length_c   8.18213600
_cell_angle_alpha   90.00000000
_cell_angle_beta   90.00000000
_cell_angle_gamma   119.96029879
_symmetry_Int_Tables_number   1
_chemical_formula_structural   Ta2Mn2GeOs
_chemical_formula_sum   'Ta4 Mn4 Ge2 Os2'
_cell_volume   173.71260617
_cell_formula_units_Z   2
loop_
 _symmetry_equiv_pos_site_id
 _symmetry_equiv_pos_as_xyz
  1  'x, y, z'
loop_
 _atom_site_type_symbol
 _atom_site_label
 _atom_site_symmetry_multiplicity
 _atom_site_fract_x
 _atom_site_fract_y
 _atom_site_fract_z
 _atom_site_occupancy
  Ta  Ta0  1  0.333756  0.671118  0.066513  1
  Ta  Ta1  1  0.666244  0.337361  0.566513  1
  Ta  Ta2  1  0.666244  0.337361  0.933487  1
  Ta  Ta3  1  0.333756  0.671118  0.433487  1
  Mn  Mn4  1  0.656391  0.824726  0.750000  1
  Mn  Mn5  1  0.343609  0.168335  0.250000  1
  Mn  Mn6  1  0.831504  0.166934  0.250000  1
  Mn  Mn7  1  0.168496  0.335429  0.750000  1
  Ge  Ge8  1  0.824119  0.646862  0.250000  1
  Ge  Ge9  1  0.175881  0.822743  0.750000  1
  Os  Os10  1  0.000000  0.009007  0.000000  1
  Os  Os11  1  0.000000  0.009007  0.500000  1
