# generated using pymatgen
data_Tb3Th(B4Rh)4
_symmetry_space_group_name_H-M   'P 1'
_cell_length_a   7.03684271
_cell_length_b   7.03684321
_cell_length_c   7.03684286
_cell_angle_alpha   105.21401342
_cell_angle_beta   111.64085159
_cell_angle_gamma   111.64085062
_symmetry_Int_Tables_number   1
_chemical_formula_structural   Tb3Th(B4Rh)4
_chemical_formula_sum   'Tb3 Th1 B16 Rh4'
_cell_volume   267.13283993
_cell_formula_units_Z   1
loop_
 _symmetry_equiv_pos_site_id
 _symmetry_equiv_pos_as_xyz
  1  'x, y, z'
loop_
 _atom_site_type_symbol
 _atom_site_label
 _atom_site_symmetry_multiplicity
 _atom_site_fract_x
 _atom_site_fract_y
 _atom_site_fract_z
 _atom_site_occupancy
  Tb  Tb0  1  0.500000  0.750980  0.250979  1
  Tb  Tb1  1  0.500000  0.250980  0.750980  1
  Tb  Tb2  1  0.000000  0.782601  0.782602  1
  Th  Th3  1  0.000000  0.216255  0.216256  1
  B  B4  1  0.841644  0.733731  0.107047  1
  B  B5  1  0.373316  0.265403  0.107049  1
  B  B6  1  0.000000  0.586627  0.110701  1
  B  B7  1  0.524075  0.110703  0.110703  1
  B  B8  1  0.158356  0.892088  0.265404  1
  B  B9  1  0.373316  0.107048  0.265404  1
  B  B10  1  0.000000  0.889121  0.413581  1
  B  B11  1  0.524461  0.413583  0.413583  1
  B  B12  1  0.000000  0.110702  0.586627  1
  B  B13  1  0.475925  0.586627  0.586628  1
  B  B14  1  0.841644  0.107048  0.733732  1
  B  B15  1  0.626685  0.892086  0.733733  1
  B  B16  1  0.475539  0.889120  0.889120  1
  B  B17  1  0.000000  0.413582  0.889120  1
  B  B18  1  0.158356  0.265404  0.892088  1
  B  B19  1  0.626685  0.733733  0.892088  1
  Rh  Rh20  1  0.758902  0.500647  0.259547  1
  Rh  Rh21  1  0.241101  0.741746  0.500646  1
  Rh  Rh22  1  0.758902  0.259548  0.500646  1
  Rh  Rh23  1  0.241100  0.500646  0.741744  1
