# generated using pymatgen
data_YTm5B14OsW
_symmetry_space_group_name_H-M   'P 1'
_cell_length_a   8.01077746
_cell_length_b   8.01077851
_cell_length_c   9.33488900
_cell_angle_alpha   90.00000000
_cell_angle_beta   90.00000000
_cell_angle_gamma   154.97755321
_symmetry_Int_Tables_number   1
_chemical_formula_structural   YTm5B14OsW
_chemical_formula_sum   'Y1 Tm5 B14 Os1 W1'
_cell_volume   253.37951265
_cell_formula_units_Z   1
loop_
 _symmetry_equiv_pos_site_id
 _symmetry_equiv_pos_as_xyz
  1  'x, y, z'
loop_
 _atom_site_type_symbol
 _atom_site_label
 _atom_site_symmetry_multiplicity
 _atom_site_fract_x
 _atom_site_fract_y
 _atom_site_fract_z
 _atom_site_occupancy
  Y  Y0  1  0.753052  0.246948  0.750000  1
  Tm  Tm1  1  0.893759  0.106241  0.438123  1
  Tm  Tm2  1  0.107008  0.892992  0.556950  1
  Tm  Tm3  1  0.893759  0.106241  0.061877  1
  Tm  Tm4  1  0.107008  0.892992  0.943050  1
  Tm  Tm5  1  0.243768  0.756232  0.250000  1
  B  B6  1  0.726812  0.273188  0.463321  1
  B  B7  1  0.271814  0.728186  0.530151  1
  B  B8  1  0.726812  0.273188  0.036679  1
  B  B9  1  0.271814  0.728186  0.969849  1
  B  B10  1  0.632039  0.367961  0.150949  1
  B  B11  1  0.365583  0.634417  0.853882  1
  B  B12  1  0.632039  0.367961  0.349051  1
  B  B13  1  0.365583  0.634417  0.646118  1
  B  B14  1  0.520389  0.479611  0.096111  1
  B  B15  1  0.481271  0.518729  0.909946  1
  B  B16  1  0.520389  0.479611  0.403889  1
  B  B17  1  0.481271  0.518729  0.590054  1
  B  B18  1  0.455458  0.544542  0.250000  1
  B  B19  1  0.548509  0.451491  0.750000  1
  Os  Os20  1  0.053573  0.946427  0.250000  1
  W  W21  1  0.948294  0.051706  0.750000  1
