# generated using pymatgen
data_Tb2MgZrRh2
_symmetry_space_group_name_H-M   'P 1'
_cell_length_a   4.51488000
_cell_length_b   7.01817911
_cell_length_c   8.34125097
_cell_angle_alpha   94.02789510
_cell_angle_beta   90.00000000
_cell_angle_gamma   90.00000000
_symmetry_Int_Tables_number   1
_chemical_formula_structural   Tb2MgZrRh2
_chemical_formula_sum   'Tb4 Mg2 Zr2 Rh4'
_cell_volume   263.65001498
_cell_formula_units_Z   2
loop_
 _symmetry_equiv_pos_site_id
 _symmetry_equiv_pos_as_xyz
  1  'x, y, z'
loop_
 _atom_site_type_symbol
 _atom_site_label
 _atom_site_symmetry_multiplicity
 _atom_site_fract_x
 _atom_site_fract_y
 _atom_site_fract_z
 _atom_site_occupancy
  Tb  Tb0  1  0.250000  0.526700  0.189285  1
  Tb  Tb1  1  0.750000  0.473300  0.810715  1
  Tb  Tb2  1  0.250000  0.023863  0.334432  1
  Tb  Tb3  1  0.750000  0.976137  0.665568  1
  Mg  Mg4  1  0.250000  0.646956  0.571696  1
  Mg  Mg5  1  0.750000  0.353044  0.428304  1
  Zr  Zr6  1  0.250000  0.133739  0.924544  1
  Zr  Zr7  1  0.750000  0.866261  0.075456  1
  Rh  Rh8  1  0.750000  0.741073  0.377836  1
  Rh  Rh9  1  0.250000  0.258927  0.622164  1
  Rh  Rh10  1  0.750000  0.241328  0.086793  1
  Rh  Rh11  1  0.250000  0.758672  0.913207  1
