# generated using pymatgen
data_NdDy3(YAu)4
_symmetry_space_group_name_H-M   'P 1'
_cell_length_a   4.98712900
_cell_length_b   7.21563606
_cell_length_c   8.97526798
_cell_angle_alpha   89.35207066
_cell_angle_beta   90.00000000
_cell_angle_gamma   90.00000000
_symmetry_Int_Tables_number   1
_chemical_formula_structural   NdDy3(YAu)4
_chemical_formula_sum   'Nd1 Dy3 Y4 Au4'
_cell_volume   322.95713003
_cell_formula_units_Z   1
loop_
 _symmetry_equiv_pos_site_id
 _symmetry_equiv_pos_as_xyz
  1  'x, y, z'
loop_
 _atom_site_type_symbol
 _atom_site_label
 _atom_site_symmetry_multiplicity
 _atom_site_fract_x
 _atom_site_fract_y
 _atom_site_fract_z
 _atom_site_occupancy
  Nd  Nd0  1  0.250000  0.990042  0.324545  1
  Dy  Dy1  1  0.250000  0.851566  0.919403  1
  Dy  Dy2  1  0.250000  0.350192  0.581329  1
  Dy  Dy3  1  0.750000  0.149480  0.079749  1
  Y  Y4  1  0.750000  0.650495  0.417697  1
  Y  Y5  1  0.250000  0.487126  0.173920  1
  Y  Y6  1  0.750000  0.512162  0.820460  1
  Y  Y7  1  0.750000  0.010617  0.678575  1
  Au  Au8  1  0.250000  0.253627  0.902776  1
  Au  Au9  1  0.250000  0.749171  0.604335  1
  Au  Au10  1  0.750000  0.745294  0.093170  1
  Au  Au11  1  0.750000  0.250229  0.404040  1
