# generated using pymatgen
data_Th8Ta3Ti9Si16
_symmetry_space_group_name_H-M   'P 1'
_cell_length_a   7.17796575
_cell_length_b   7.17796575
_cell_length_c   13.30427291
_cell_angle_alpha   90.02991339
_cell_angle_beta   89.97008661
_cell_angle_gamma   89.95710770
_symmetry_Int_Tables_number   1
_chemical_formula_structural   Th8Ta3Ti9Si16
_chemical_formula_sum   'Th8 Ta3 Ti9 Si16'
_cell_volume   685.47823198
_cell_formula_units_Z   1
loop_
 _symmetry_equiv_pos_site_id
 _symmetry_equiv_pos_as_xyz
  1  'x, y, z'
loop_
 _atom_site_type_symbol
 _atom_site_label
 _atom_site_symmetry_multiplicity
 _atom_site_fract_x
 _atom_site_fract_y
 _atom_site_fract_z
 _atom_site_occupancy
  Th  Th0  1  0.337525  0.002292  0.468716  1
  Th  Th1  1  0.497529  0.837413  0.718313  1
  Th  Th2  1  0.502052  0.162374  0.218699  1
  Th  Th3  1  0.837413  0.497529  0.281687  1
  Th  Th4  1  0.162374  0.502052  0.781301  1
  Th  Th5  1  0.662628  0.997898  0.968538  1
  Th  Th6  1  0.002292  0.337525  0.531284  1
  Th  Th7  1  0.997898  0.662628  0.031462  1
  Ta  Ta8  1  0.328356  0.328356  0.000000  1
  Ta  Ta9  1  0.171955  0.828534  0.249828  1
  Ta  Ta10  1  0.828534  0.171955  0.750172  1
  Ti  Ti11  1  0.671922  0.671922  0.500000  1
  Ti  Ti12  1  0.159239  0.007453  0.876338  1
  Ti  Ti13  1  0.492215  0.659338  0.126094  1
  Ti  Ti14  1  0.507524  0.339870  0.626906  1
  Ti  Ti15  1  0.659338  0.492215  0.873906  1
  Ti  Ti16  1  0.339870  0.507524  0.373094  1
  Ti  Ti17  1  0.840879  0.992772  0.375382  1
  Ti  Ti18  1  0.007453  0.159239  0.123662  1
  Ti  Ti19  1  0.992772  0.840879  0.624618  1
  Si  Si20  1  0.196977  0.123524  0.686553  1
  Si  Si21  1  0.376558  0.696819  0.936958  1
  Si  Si22  1  0.623608  0.302985  0.437449  1
  Si  Si23  1  0.696819  0.376558  0.063042  1
  Si  Si24  1  0.302985  0.623608  0.562551  1
  Si  Si25  1  0.803404  0.876574  0.186980  1
  Si  Si26  1  0.123524  0.196977  0.313447  1
  Si  Si27  1  0.876574  0.803404  0.813020  1
  Si  Si28  1  0.287886  0.958805  0.064976  1
  Si  Si29  1  0.541331  0.787323  0.315839  1
  Si  Si30  1  0.458794  0.212249  0.814821  1
  Si  Si31  1  0.787323  0.541331  0.684161  1
  Si  Si32  1  0.212249  0.458794  0.185179  1
  Si  Si33  1  0.712103  0.041297  0.565009  1
  Si  Si34  1  0.958805  0.287886  0.935024  1
  Si  Si35  1  0.041297  0.712103  0.434991  1
