# generated using pymatgen
data_Nd8Co3Si12Pd
_symmetry_space_group_name_H-M   'P 1'
_cell_length_a   8.14126600
_cell_length_b   8.14126758
_cell_length_c   8.44023600
_cell_angle_alpha   90.00000000
_cell_angle_beta   90.00000000
_cell_angle_gamma   119.99999358
_symmetry_Int_Tables_number   1
_chemical_formula_structural   Nd8Co3Si12Pd
_chemical_formula_sum   'Nd8 Co3 Si12 Pd1'
_cell_volume   484.47260421
_cell_formula_units_Z   1
loop_
 _symmetry_equiv_pos_site_id
 _symmetry_equiv_pos_as_xyz
  1  'x, y, z'
loop_
 _atom_site_type_symbol
 _atom_site_label
 _atom_site_symmetry_multiplicity
 _atom_site_fract_x
 _atom_site_fract_y
 _atom_site_fract_z
 _atom_site_occupancy
  Nd  Nd0  1  0.495960  0.504040  0.753389  1
  Nd  Nd1  1  0.499947  0.500053  0.247348  1
  Nd  Nd2  1  0.008079  0.504040  0.753389  1
  Nd  Nd3  1  0.000106  0.500053  0.247348  1
  Nd  Nd4  1  0.495960  0.991921  0.753389  1
  Nd  Nd5  1  0.499947  0.999894  0.247348  1
  Nd  Nd6  1  0.000000  0.000000  0.750574  1
  Nd  Nd7  1  0.000000  0.000000  0.248975  1
  Co  Co8  1  0.666667  0.333333  0.990415  1
  Co  Co9  1  0.333333  0.666667  0.010431  1
  Co  Co10  1  0.333333  0.666667  0.489545  1
  Si  Si11  1  0.828069  0.171931  0.999929  1
  Si  Si12  1  0.170961  0.829039  0.000024  1
  Si  Si13  1  0.343862  0.171931  0.999929  1
  Si  Si14  1  0.172294  0.827706  0.500415  1
  Si  Si15  1  0.658078  0.829039  0.000024  1
  Si  Si16  1  0.836154  0.163846  0.499104  1
  Si  Si17  1  0.828069  0.656138  0.999929  1
  Si  Si18  1  0.655412  0.827706  0.500415  1
  Si  Si19  1  0.170961  0.341922  0.000024  1
  Si  Si20  1  0.327692  0.163846  0.499104  1
  Si  Si21  1  0.172294  0.344588  0.500415  1
  Si  Si22  1  0.836154  0.672308  0.499104  1
  Pd  Pd23  1  0.666667  0.333333  0.509430  1
