# generated using pymatgen
data_HfPa3Sn4Sb
_symmetry_space_group_name_H-M   'P 1'
_cell_length_a   9.24138902
_cell_length_b   9.24138909
_cell_length_c   6.18414900
_cell_angle_alpha   90.00000000
_cell_angle_beta   90.00000000
_cell_angle_gamma   120.00795075
_symmetry_Int_Tables_number   1
_chemical_formula_structural   HfPa3Sn4Sb
_chemical_formula_sum   'Hf2 Pa6 Sn8 Sb2'
_cell_volume   457.35168645
_cell_formula_units_Z   2
loop_
 _symmetry_equiv_pos_site_id
 _symmetry_equiv_pos_as_xyz
  1  'x, y, z'
loop_
 _atom_site_type_symbol
 _atom_site_label
 _atom_site_symmetry_multiplicity
 _atom_site_fract_x
 _atom_site_fract_y
 _atom_site_fract_z
 _atom_site_occupancy
  Hf  Hf0  1  0.000000  0.000000  0.000000  1
  Hf  Hf1  1  0.000000  0.000000  0.500000  1
  Pa  Pa2  1  0.615505  0.997849  0.250000  1
  Pa  Pa3  1  0.384495  0.002151  0.750000  1
  Pa  Pa4  1  0.997849  0.615505  0.250000  1
  Pa  Pa5  1  0.002151  0.384495  0.750000  1
  Pa  Pa6  1  0.385341  0.385341  0.250000  1
  Pa  Pa7  1  0.614659  0.614659  0.750000  1
  Sn  Sn8  1  0.272943  0.999667  0.250000  1
  Sn  Sn9  1  0.727057  0.000333  0.750000  1
  Sn  Sn10  1  0.999667  0.272943  0.250000  1
  Sn  Sn11  1  0.000333  0.727057  0.750000  1
  Sn  Sn12  1  0.332587  0.667413  0.000000  1
  Sn  Sn13  1  0.667413  0.332587  0.000000  1
  Sn  Sn14  1  0.667413  0.332587  0.500000  1
  Sn  Sn15  1  0.332587  0.667413  0.500000  1
  Sb  Sb16  1  0.728546  0.728546  0.250000  1
  Sb  Sb17  1  0.271454  0.271454  0.750000  1
