# generated using pymatgen
data_CaSm2Y4CoI12
_symmetry_space_group_name_H-M   'P 1'
_cell_length_a   9.82231935
_cell_length_b   9.83672809
_cell_length_c   9.75899089
_cell_angle_alpha   107.18543266
_cell_angle_beta   106.71702442
_cell_angle_gamma   106.83252279
_symmetry_Int_Tables_number   1
_chemical_formula_structural   CaSm2Y4CoI12
_chemical_formula_sum   'Ca1 Sm2 Y4 Co1 I12'
_cell_volume   787.13696780
_cell_formula_units_Z   1
loop_
 _symmetry_equiv_pos_site_id
 _symmetry_equiv_pos_as_xyz
  1  'x, y, z'
loop_
 _atom_site_type_symbol
 _atom_site_label
 _atom_site_symmetry_multiplicity
 _atom_site_fract_x
 _atom_site_fract_y
 _atom_site_fract_z
 _atom_site_occupancy
  Ca  Ca0  1  0.500000  0.500000  0.500000  1
  Sm  Sm1  1  0.976142  0.906473  0.713717  1
  Sm  Sm2  1  0.023858  0.093527  0.286283  1
  Y  Y3  1  0.097038  0.297467  0.025100  1
  Y  Y4  1  0.297256  0.025750  0.097150  1
  Y  Y5  1  0.902962  0.702533  0.974900  1
  Y  Y6  1  0.702744  0.974250  0.902850  1
  Co  Co7  1  0.000000  0.000000  0.000000  1
  I  I8  1  0.542770  0.621821  0.850708  1
  I  I9  1  0.457230  0.378179  0.149292  1
  I  I10  1  0.323012  0.927630  0.777010  1
  I  I11  1  0.381693  0.151987  0.458506  1
  I  I12  1  0.926490  0.773085  0.317449  1
  I  I13  1  0.676988  0.072370  0.222990  1
  I  I14  1  0.073510  0.226915  0.682551  1
  I  I15  1  0.776742  0.319629  0.927371  1
  I  I16  1  0.223258  0.680371  0.072629  1
  I  I17  1  0.847890  0.539480  0.620744  1
  I  I18  1  0.152110  0.460520  0.379256  1
  I  I19  1  0.618307  0.848013  0.541494  1
