# generated using pymatgen
data_Sc10Si4Ge2C
_symmetry_space_group_name_H-M   'P 1'
_cell_length_a   7.93738696
_cell_length_b   7.93471356
_cell_length_c   5.86776010
_cell_angle_alpha   89.96672266
_cell_angle_beta   90.01664414
_cell_angle_gamma   119.98885193
_symmetry_Int_Tables_number   1
_chemical_formula_structural   Sc10Si4Ge2C
_chemical_formula_sum   'Sc10 Si4 Ge2 C1'
_cell_volume   320.08143892
_cell_formula_units_Z   1
loop_
 _symmetry_equiv_pos_site_id
 _symmetry_equiv_pos_as_xyz
  1  'x, y, z'
loop_
 _atom_site_type_symbol
 _atom_site_label
 _atom_site_symmetry_multiplicity
 _atom_site_fract_x
 _atom_site_fract_y
 _atom_site_fract_z
 _atom_site_occupancy
  Sc  Sc0  1  0.000000  0.765705  0.270672  1
  Sc  Sc1  1  0.233912  0.233815  0.270377  1
  Sc  Sc2  1  0.766088  0.999904  0.270377  1
  Sc  Sc3  1  0.000000  0.234751  0.728074  1
  Sc  Sc4  1  0.767489  0.765401  0.728009  1
  Sc  Sc5  1  0.232511  0.997911  0.728009  1
  Sc  Sc6  1  0.331826  0.666650  0.001439  1
  Sc  Sc7  1  0.668174  0.334823  0.001439  1
  Sc  Sc8  1  0.668703  0.334965  0.498484  1
  Sc  Sc9  1  0.331297  0.666263  0.498484  1
  Si  Si10  1  0.000000  0.399810  0.251199  1
  Si  Si11  1  0.600653  0.601001  0.252612  1
  Si  Si12  1  0.399347  0.000347  0.252612  1
  Si  Si13  1  0.000000  0.599412  0.748097  1
  Ge  Ge14  1  0.399597  0.399258  0.749986  1
  Ge  Ge15  1  0.600403  0.999661  0.749986  1
  C  C16  1  0.000000  0.000326  0.500146  1
