# generated using pymatgen
data_Ba4PrNd3(USe5)4
_symmetry_space_group_name_H-M   'P 1'
_cell_length_a   8.03917366
_cell_length_b   8.76149959
_cell_length_c   12.60895379
_cell_angle_alpha   89.53006229
_cell_angle_beta   89.95833776
_cell_angle_gamma   89.93666694
_symmetry_Int_Tables_number   1
_chemical_formula_structural   Ba4PrNd3(USe5)4
_chemical_formula_sum   'Ba4 Pr1 Nd3 U4 Se20'
_cell_volume   888.08374870
_cell_formula_units_Z   1
loop_
 _symmetry_equiv_pos_site_id
 _symmetry_equiv_pos_as_xyz
  1  'x, y, z'
loop_
 _atom_site_type_symbol
 _atom_site_label
 _atom_site_symmetry_multiplicity
 _atom_site_fract_x
 _atom_site_fract_y
 _atom_site_fract_z
 _atom_site_occupancy
  Ba  Ba0  1  0.054901  0.493959  0.330195  1
  Ba  Ba1  1  0.554833  0.506465  0.169702  1
  Ba  Ba2  1  0.945568  0.506596  0.669109  1
  Ba  Ba3  1  0.445211  0.493829  0.831146  1
  Pr  Pr4  1  0.456991  0.998866  0.823015  1
  Nd  Nd5  1  0.043061  0.998969  0.321981  1
  Nd  Nd6  1  0.542267  0.000895  0.177941  1
  Nd  Nd7  1  0.957503  0.001381  0.677086  1
  U  U8  1  0.062061  0.753910  0.005828  1
  U  U9  1  0.562135  0.244399  0.494675  1
  U  U10  1  0.936087  0.243001  0.994020  1
  U  U11  1  0.438704  0.755836  0.505340  1
  Se  Se12  1  0.668265  0.957693  0.412740  1
  Se  Se13  1  0.166944  0.042921  0.086361  1
  Se  Se14  1  0.332100  0.041186  0.587083  1
  Se  Se15  1  0.832518  0.957073  0.912649  1
  Se  Se16  1  0.438580  0.778082  0.005952  1
  Se  Se17  1  0.938727  0.221138  0.494916  1
  Se  Se18  1  0.562104  0.222063  0.996004  1
  Se  Se19  1  0.061526  0.778996  0.504161  1
  Se  Se20  1  0.854593  0.771543  0.187924  1
  Se  Se21  1  0.353833  0.228187  0.312692  1
  Se  Se22  1  0.143886  0.228951  0.812263  1
  Se  Se23  1  0.646681  0.770966  0.686835  1
  Se  Se24  1  0.328772  0.769955  0.292392  1
  Se  Se25  1  0.828972  0.230109  0.207493  1
  Se  Se26  1  0.672360  0.231282  0.707929  1
  Se  Se27  1  0.170203  0.768673  0.792400  1
  Se  Se28  1  0.172350  0.462305  0.070933  1
  Se  Se29  1  0.672034  0.538526  0.427786  1
  Se  Se30  1  0.827433  0.538633  0.928815  1
  Se  Se31  1  0.328795  0.463612  0.572632  1
