# generated using pymatgen
data_Hf7Zr3Sn6Ge
_symmetry_space_group_name_H-M   'P 1'
_cell_length_a   5.86793301
_cell_length_b   8.56441610
_cell_length_c   8.56464401
_cell_angle_alpha   119.99912911
_cell_angle_beta   90.00151804
_cell_angle_gamma   89.99697020
_symmetry_Int_Tables_number   1
_chemical_formula_structural   Hf7Zr3Sn6Ge
_chemical_formula_sum   'Hf7 Zr3 Sn6 Ge1'
_cell_volume   372.75773569
_cell_formula_units_Z   1
loop_
 _symmetry_equiv_pos_site_id
 _symmetry_equiv_pos_as_xyz
  1  'x, y, z'
loop_
 _atom_site_type_symbol
 _atom_site_label
 _atom_site_symmetry_multiplicity
 _atom_site_fract_x
 _atom_site_fract_y
 _atom_site_fract_z
 _atom_site_occupancy
  Hf  Hf0  1  0.499885  0.333332  0.666666  1
  Hf  Hf1  1  0.499885  0.666667  0.333334  1
  Hf  Hf2  1  0.999322  0.666657  0.333316  1
  Hf  Hf3  1  0.999322  0.333341  0.666684  1
  Hf  Hf4  1  0.760562  0.257640  0.000000  1
  Hf  Hf5  1  0.760539  0.742360  0.742354  1
  Hf  Hf6  1  0.760539  0.000005  0.257646  1
  Zr  Zr7  1  0.239192  0.743164  0.000000  1
  Zr  Zr8  1  0.239210  0.256837  0.256842  1
  Zr  Zr9  1  0.239210  0.999996  0.743158  1
  Sn  Sn10  1  0.746603  0.608739  0.000000  1
  Sn  Sn11  1  0.746629  0.391270  0.391270  1
  Sn  Sn12  1  0.746629  0.000000  0.608730  1
  Sn  Sn13  1  0.253278  0.391334  0.000000  1
  Sn  Sn14  1  0.253259  0.608657  0.608658  1
  Sn  Sn15  1  0.253259  0.999999  0.391342  1
  Ge  Ge16  1  0.502675  0.000001  0.000000  1
