# generated using pymatgen
data_Pr8DyThRu4
_symmetry_space_group_name_H-M   'P 1'
_cell_length_a   8.99475769
_cell_length_b   8.99476087
_cell_length_c   7.32267336
_cell_angle_alpha   83.36997219
_cell_angle_beta   83.36998002
_cell_angle_gamma   43.13587906
_symmetry_Int_Tables_number   1
_chemical_formula_structural   Pr8DyThRu4
_chemical_formula_sum   'Pr8 Dy1 Th1 Ru4'
_cell_volume   401.93971495
_cell_formula_units_Z   1
loop_
 _symmetry_equiv_pos_site_id
 _symmetry_equiv_pos_as_xyz
  1  'x, y, z'
loop_
 _atom_site_type_symbol
 _atom_site_label
 _atom_site_symmetry_multiplicity
 _atom_site_fract_x
 _atom_site_fract_y
 _atom_site_fract_z
 _atom_site_occupancy
  Pr  Pr0  1  0.203617  0.979819  0.582015  1
  Pr  Pr1  1  0.020181  0.796383  0.917985  1
  Pr  Pr2  1  0.208855  0.361699  0.313866  1
  Pr  Pr3  1  0.638301  0.791145  0.186134  1
  Pr  Pr4  1  0.789694  0.643014  0.688031  1
  Pr  Pr5  1  0.356986  0.210306  0.811969  1
  Pr  Pr6  1  0.982939  0.201002  0.087457  1
  Pr  Pr7  1  0.798998  0.017061  0.412543  1
  Dy  Dy8  1  0.429510  0.570490  0.250000  1
  Th  Th9  1  0.573024  0.426976  0.750000  1
  Ru  Ru10  1  0.197257  0.594538  0.573291  1
  Ru  Ru11  1  0.405462  0.802743  0.926709  1
  Ru  Ru12  1  0.801096  0.405920  0.439448  1
  Ru  Ru13  1  0.594080  0.198904  0.060552  1
