# generated using pymatgen
data_TaMnPt6
_symmetry_space_group_name_H-M   'P 1'
_cell_length_a   3.98445100
_cell_length_b   3.98444900
_cell_length_c   7.91527700
_cell_angle_alpha   90.00000000
_cell_angle_beta   90.00000000
_cell_angle_gamma   90.00000000
_symmetry_Int_Tables_number   1
_chemical_formula_structural   TaMnPt6
_chemical_formula_sum   'Ta1 Mn1 Pt6'
_cell_volume   125.66168547
_cell_formula_units_Z   1
loop_
 _symmetry_equiv_pos_site_id
 _symmetry_equiv_pos_as_xyz
  1  'x, y, z'
loop_
 _atom_site_type_symbol
 _atom_site_label
 _atom_site_symmetry_multiplicity
 _atom_site_fract_x
 _atom_site_fract_y
 _atom_site_fract_z
 _atom_site_occupancy
  Ta  Ta0  1  0.000000  0.000000  0.000000  1
  Mn  Mn1  1  0.000000  0.000000  0.500000  1
  Pt  Pt2  1  0.500000  0.500000  0.000000  1
  Pt  Pt3  1  0.500000  0.500000  0.500000  1
  Pt  Pt4  1  0.500000  0.000000  0.247199  1
  Pt  Pt5  1  0.500000  0.000000  0.752801  1
  Pt  Pt6  1  0.000000  0.500000  0.247201  1
  Pt  Pt7  1  0.000000  0.500000  0.752799  1
