# generated using pymatgen
data_Dy2Tm10Tc3Pt
_symmetry_space_group_name_H-M   'P 1'
_cell_length_a   6.23863701
_cell_length_b   7.35698750
_cell_length_c   9.03679300
_cell_angle_alpha   90.00000000
_cell_angle_beta   90.00000000
_cell_angle_gamma   89.94614923
_symmetry_Int_Tables_number   1
_chemical_formula_structural   Dy2Tm10Tc3Pt
_chemical_formula_sum   'Dy2 Tm10 Tc3 Pt1'
_cell_volume   414.76669719
_cell_formula_units_Z   1
loop_
 _symmetry_equiv_pos_site_id
 _symmetry_equiv_pos_as_xyz
  1  'x, y, z'
loop_
 _atom_site_type_symbol
 _atom_site_label
 _atom_site_symmetry_multiplicity
 _atom_site_fract_x
 _atom_site_fract_y
 _atom_site_fract_z
 _atom_site_occupancy
  Dy  Dy0  1  0.126557  0.456385  0.750000  1
  Dy  Dy1  1  0.373817  0.965280  0.750000  1
  Tm  Tm2  1  0.331115  0.675811  0.066963  1
  Tm  Tm3  1  0.162940  0.177366  0.435786  1
  Tm  Tm4  1  0.665014  0.318624  0.557614  1
  Tm  Tm5  1  0.838917  0.827959  0.941317  1
  Tm  Tm6  1  0.665014  0.318624  0.942386  1
  Tm  Tm7  1  0.838917  0.827959  0.558683  1
  Tm  Tm8  1  0.331115  0.675811  0.433037  1
  Tm  Tm9  1  0.162940  0.177366  0.064214  1
  Tm  Tm10  1  0.874490  0.542175  0.250000  1
  Tm  Tm11  1  0.621535  0.037117  0.250000  1
  Tc  Tc12  1  0.037978  0.884654  0.250000  1
  Tc  Tc13  1  0.464191  0.385948  0.250000  1
  Tc  Tc14  1  0.956848  0.115491  0.750000  1
  Pt  Pt15  1  0.548610  0.613433  0.750000  1
