# generated using pymatgen
data_Sr20(TlAg3)3
_symmetry_space_group_name_H-M   'P 1'
_cell_length_a   8.59762300
_cell_length_b   8.59762300
_cell_length_c   16.02393000
_cell_angle_alpha   90.00000000
_cell_angle_beta   90.00000000
_cell_angle_gamma   90.00000000
_symmetry_Int_Tables_number   1
_chemical_formula_structural   Sr20(TlAg3)3
_chemical_formula_sum   'Sr20 Tl3 Ag9'
_cell_volume   1184.47482457
_cell_formula_units_Z   1
loop_
 _symmetry_equiv_pos_site_id
 _symmetry_equiv_pos_as_xyz
  1  'x, y, z'
loop_
 _atom_site_type_symbol
 _atom_site_label
 _atom_site_symmetry_multiplicity
 _atom_site_fract_x
 _atom_site_fract_y
 _atom_site_fract_z
 _atom_site_occupancy
  Sr  Sr0  1  0.000000  0.000000  0.755461  1
  Sr  Sr1  1  0.500000  0.500000  0.252988  1
  Sr  Sr2  1  0.000000  0.000000  0.244539  1
  Sr  Sr3  1  0.500000  0.500000  0.747012  1
  Sr  Sr4  1  0.173653  0.664954  0.105377  1
  Sr  Sr5  1  0.671485  0.169493  0.607762  1
  Sr  Sr6  1  0.826347  0.335046  0.105377  1
  Sr  Sr7  1  0.328515  0.830507  0.607762  1
  Sr  Sr8  1  0.335046  0.173653  0.105377  1
  Sr  Sr9  1  0.830507  0.671485  0.607762  1
  Sr  Sr10  1  0.664954  0.826347  0.105377  1
  Sr  Sr11  1  0.169493  0.328515  0.607762  1
  Sr  Sr12  1  0.335046  0.826347  0.894623  1
  Sr  Sr13  1  0.830507  0.328515  0.392238  1
  Sr  Sr14  1  0.664954  0.173653  0.894623  1
  Sr  Sr15  1  0.169493  0.671485  0.392238  1
  Sr  Sr16  1  0.173653  0.335046  0.894623  1
  Sr  Sr17  1  0.671485  0.830507  0.392238  1
  Sr  Sr18  1  0.826347  0.664954  0.894623  1
  Sr  Sr19  1  0.328515  0.169493  0.392238  1
  Tl  Tl20  1  0.000000  0.000000  0.500000  1
  Tl  Tl21  1  0.000000  0.000000  0.000000  1
  Tl  Tl22  1  0.500000  0.500000  0.500000  1
  Ag  Ag23  1  0.621386  0.122117  0.248125  1
  Ag  Ag24  1  0.122117  0.621386  0.751875  1
  Ag  Ag25  1  0.877883  0.378614  0.751875  1
  Ag  Ag26  1  0.378614  0.877883  0.248125  1
  Ag  Ag27  1  0.378614  0.122117  0.751875  1
  Ag  Ag28  1  0.877883  0.621386  0.248125  1
  Ag  Ag29  1  0.122117  0.378614  0.248125  1
  Ag  Ag30  1  0.621386  0.877883  0.751875  1
  Ag  Ag31  1  0.500000  0.500000  0.000000  1
