# generated using pymatgen
data_DyTmAl8Fe9
_symmetry_space_group_name_H-M   'P 1'
_cell_length_a   6.54225932
_cell_length_b   6.54778609
_cell_length_c   6.54534108
_cell_angle_alpha   83.93108725
_cell_angle_beta   96.16256208
_cell_angle_gamma   96.11857747
_symmetry_Int_Tables_number   1
_chemical_formula_structural   DyTmAl8Fe9
_chemical_formula_sum   'Dy1 Tm1 Al8 Fe9'
_cell_volume   275.91307850
_cell_formula_units_Z   1
loop_
 _symmetry_equiv_pos_site_id
 _symmetry_equiv_pos_as_xyz
  1  'x, y, z'
loop_
 _atom_site_type_symbol
 _atom_site_label
 _atom_site_symmetry_multiplicity
 _atom_site_fract_x
 _atom_site_fract_y
 _atom_site_fract_z
 _atom_site_occupancy
  Dy  Dy0  1  0.636749  0.363226  0.363312  1
  Tm  Tm1  1  0.364399  0.635609  0.635578  1
  Al  Al2  1  0.315626  0.316573  0.999389  1
  Al  Al3  1  0.683636  0.684133  0.999656  1
  Al  Al4  1  0.878152  0.121870  0.121844  1
  Al  Al5  1  0.000404  0.684182  0.316603  1
  Al  Al6  1  0.315718  0.999491  0.316782  1
  Al  Al7  1  0.683433  0.999547  0.684095  1
  Al  Al8  1  0.000607  0.316596  0.684248  1
  Al  Al9  1  0.122978  0.877091  0.876846  1
  Fe  Fe10  1  0.499928  0.000070  0.000141  1
  Fe  Fe11  1  0.999923  0.500077  0.000107  1
  Fe  Fe12  1  0.336437  0.663460  0.163759  1
  Fe  Fe13  1  0.163413  0.337007  0.336925  1
  Fe  Fe14  1  0.663008  0.836599  0.337034  1
  Fe  Fe15  1  0.999853  0.000111  0.500110  1
  Fe  Fe16  1  0.836172  0.663506  0.663561  1
  Fe  Fe17  1  0.336493  0.163805  0.663450  1
  Fe  Fe18  1  0.663072  0.337051  0.836560  1
