# generated using pymatgen
data_YZr3(Ta3Si4)2
_symmetry_space_group_name_H-M   'P 1'
_cell_length_a   6.91306569
_cell_length_b   6.91674769
_cell_length_c   12.83613300
_cell_angle_alpha   90.00000000
_cell_angle_beta   90.00000000
_cell_angle_gamma   89.91995881
_symmetry_Int_Tables_number   1
_chemical_formula_structural   YZr3(Ta3Si4)2
_chemical_formula_sum   'Y2 Zr6 Ta12 Si16'
_cell_volume   613.77105220
_cell_formula_units_Z   2
loop_
 _symmetry_equiv_pos_site_id
 _symmetry_equiv_pos_as_xyz
  1  'x, y, z'
loop_
 _atom_site_type_symbol
 _atom_site_label
 _atom_site_symmetry_multiplicity
 _atom_site_fract_x
 _atom_site_fract_y
 _atom_site_fract_z
 _atom_site_occupancy
  Y  Y0  1  0.997578  0.661733  0.030990  1
  Y  Y1  1  0.002422  0.338267  0.530990  1
  Zr  Zr2  1  0.656784  0.004666  0.968295  1
  Zr  Zr3  1  0.161150  0.497913  0.781834  1
  Zr  Zr4  1  0.838850  0.502087  0.281834  1
  Zr  Zr5  1  0.498020  0.160499  0.219440  1
  Zr  Zr6  1  0.501980  0.839501  0.719440  1
  Zr  Zr7  1  0.343216  0.995334  0.468295  1
  Ta  Ta8  1  0.347423  0.507331  0.375127  1
  Ta  Ta9  1  0.844436  0.996188  0.372836  1
  Ta  Ta10  1  0.006387  0.153203  0.126290  1
  Ta  Ta11  1  0.993613  0.846797  0.626290  1
  Ta  Ta12  1  0.652577  0.492669  0.875127  1
  Ta  Ta13  1  0.504021  0.347037  0.624187  1
  Ta  Ta14  1  0.495979  0.652963  0.124187  1
  Ta  Ta15  1  0.155564  0.003812  0.872836  1
  Ta  Ta16  1  0.667884  0.671841  0.500266  1
  Ta  Ta17  1  0.829042  0.169052  0.750427  1
  Ta  Ta18  1  0.170958  0.830948  0.250427  1
  Ta  Ta19  1  0.332116  0.328159  0.000266  1
  Si  Si20  1  0.044465  0.705819  0.436083  1
  Si  Si21  1  0.955535  0.294181  0.936083  1
  Si  Si22  1  0.699740  0.043386  0.563525  1
  Si  Si23  1  0.203411  0.454615  0.187631  1
  Si  Si24  1  0.796589  0.545385  0.687631  1
  Si  Si25  1  0.455625  0.201691  0.813146  1
  Si  Si26  1  0.544375  0.798309  0.313146  1
  Si  Si27  1  0.300260  0.956614  0.063525  1
  Si  Si28  1  0.863844  0.794610  0.820612  1
  Si  Si29  1  0.136156  0.205390  0.320612  1
  Si  Si30  1  0.789901  0.868713  0.180044  1
  Si  Si31  1  0.294818  0.638200  0.572493  1
  Si  Si32  1  0.705182  0.361800  0.072493  1
  Si  Si33  1  0.631634  0.292534  0.426774  1
  Si  Si34  1  0.368366  0.707466  0.926774  1
  Si  Si35  1  0.210099  0.131287  0.680044  1
