# generated using pymatgen
data_Pr2Ga2PdPt3
_symmetry_space_group_name_H-M   'P 1'
_cell_length_a   5.82979274
_cell_length_b   7.13708718
_cell_length_c   7.62097600
_cell_angle_alpha   90.00000000
_cell_angle_beta   90.00000000
_cell_angle_gamma   89.91095201
_symmetry_Int_Tables_number   1
_chemical_formula_structural   Pr2Ga2PdPt3
_chemical_formula_sum   'Pr4 Ga4 Pd2 Pt6'
_cell_volume   317.09119757
_cell_formula_units_Z   2
loop_
 _symmetry_equiv_pos_site_id
 _symmetry_equiv_pos_as_xyz
  1  'x, y, z'
loop_
 _atom_site_type_symbol
 _atom_site_label
 _atom_site_symmetry_multiplicity
 _atom_site_fract_x
 _atom_site_fract_y
 _atom_site_fract_z
 _atom_site_occupancy
  Pr  Pr0  1  0.351852  0.750098  0.031153  1
  Pr  Pr1  1  0.148148  0.749902  0.531153  1
  Pr  Pr2  1  0.648041  0.248647  0.970211  1
  Pr  Pr3  1  0.851959  0.251353  0.470211  1
  Ga  Ga4  1  0.647479  0.749450  0.380192  1
  Ga  Ga5  1  0.852521  0.750550  0.880192  1
  Ga  Ga6  1  0.350860  0.249155  0.619692  1
  Ga  Ga7  1  0.149140  0.250845  0.119692  1
  Pd  Pd8  1  0.911269  0.948442  0.178783  1
  Pd  Pd9  1  0.588731  0.551558  0.678783  1
  Pt  Pt10  1  0.910840  0.554301  0.178166  1
  Pt  Pt11  1  0.589160  0.945699  0.678166  1
  Pt  Pt12  1  0.086674  0.053214  0.821799  1
  Pt  Pt13  1  0.413326  0.446786  0.321799  1
  Pt  Pt14  1  0.085935  0.447379  0.820004  1
  Pt  Pt15  1  0.414065  0.052621  0.320004  1
