# generated using pymatgen
data_LiTb6Co15(P6Ir)2
_symmetry_space_group_name_H-M   'P 1'
_cell_length_a   3.73381100
_cell_length_b   10.64545700
_cell_length_c   12.33424900
_cell_angle_alpha   90.00000000
_cell_angle_beta   90.00000000
_cell_angle_gamma   90.00000000
_symmetry_Int_Tables_number   1
_chemical_formula_structural   LiTb6Co15(P6Ir)2
_chemical_formula_sum   'Li1 Tb6 Co15 P12 Ir2'
_cell_volume   490.26326421
_cell_formula_units_Z   1
loop_
 _symmetry_equiv_pos_site_id
 _symmetry_equiv_pos_as_xyz
  1  'x, y, z'
loop_
 _atom_site_type_symbol
 _atom_site_label
 _atom_site_symmetry_multiplicity
 _atom_site_fract_x
 _atom_site_fract_y
 _atom_site_fract_z
 _atom_site_occupancy
  Li  Li0  1  0.500000  0.500000  0.150900  1
  Tb  Tb1  1  0.000000  0.500000  0.517519  1
  Tb  Tb2  1  0.500000  0.000000  0.474206  1
  Tb  Tb3  1  0.500000  0.819055  0.206467  1
  Tb  Tb4  1  0.500000  0.180945  0.206467  1
  Tb  Tb5  1  0.000000  0.686637  0.795912  1
  Tb  Tb6  1  0.000000  0.313363  0.795912  1
  Co  Co7  1  0.000000  0.000000  0.296011  1
  Co  Co8  1  0.000000  0.500000  0.989146  1
  Co  Co9  1  0.500000  0.000000  0.014243  1
  Co  Co10  1  0.500000  0.329843  0.997882  1
  Co  Co11  1  0.500000  0.670157  0.997882  1
  Co  Co12  1  0.000000  0.164123  0.006899  1
  Co  Co13  1  0.000000  0.835877  0.006899  1
  Co  Co14  1  0.500000  0.294243  0.430711  1
  Co  Co15  1  0.500000  0.705757  0.430711  1
  Co  Co16  1  0.000000  0.199420  0.569586  1
  Co  Co17  1  0.000000  0.800580  0.569586  1
  Co  Co18  1  0.500000  0.881513  0.708698  1
  Co  Co19  1  0.500000  0.118487  0.708698  1
  Co  Co20  1  0.000000  0.622523  0.292991  1
  Co  Co21  1  0.000000  0.377477  0.292991  1
  P  P22  1  0.500000  0.500000  0.893218  1
  P  P23  1  0.000000  0.000000  0.118252  1
  P  P24  1  0.500000  0.500000  0.342772  1
  P  P25  1  0.000000  0.000000  0.646613  1
  P  P26  1  0.500000  0.301825  0.613320  1
  P  P27  1  0.500000  0.698175  0.613320  1
  P  P28  1  0.000000  0.189525  0.384055  1
  P  P29  1  0.000000  0.810475  0.384055  1
  P  P30  1  0.500000  0.845810  0.896039  1
  P  P31  1  0.500000  0.154190  0.896039  1
  P  P32  1  0.000000  0.657219  0.106295  1
  P  P33  1  0.000000  0.342781  0.106295  1
  Ir  Ir34  1  0.000000  0.000000  0.836282  1
  Ir  Ir35  1  0.500000  0.500000  0.703129  1
