# generated using pymatgen
data_U4Al24OsPt8
_symmetry_space_group_name_H-M   'P 1'
_cell_length_a   7.55915404
_cell_length_b   7.59927266
_cell_length_c   13.12984573
_cell_angle_alpha   85.06309244
_cell_angle_beta   79.25424779
_cell_angle_gamma   59.76201383
_symmetry_Int_Tables_number   1
_chemical_formula_structural   U4Al24OsPt8
_chemical_formula_sum   'U4 Al24 Os1 Pt8'
_cell_volume   640.15806678
_cell_formula_units_Z   1
loop_
 _symmetry_equiv_pos_site_id
 _symmetry_equiv_pos_as_xyz
  1  'x, y, z'
loop_
 _atom_site_type_symbol
 _atom_site_label
 _atom_site_symmetry_multiplicity
 _atom_site_fract_x
 _atom_site_fract_y
 _atom_site_fract_z
 _atom_site_occupancy
  U  U0  1  0.392602  0.170696  0.807949  1
  U  U1  1  0.607398  0.829304  0.192051  1
  U  U2  1  0.735033  0.499347  0.807936  1
  U  U3  1  0.264967  0.500653  0.192064  1
  Al  Al4  1  0.685047  0.831891  0.947455  1
  Al  Al5  1  0.314953  0.168109  0.052545  1
  Al  Al6  1  0.145876  0.832486  0.560655  1
  Al  Al7  1  0.854124  0.167514  0.439345  1
  Al  Al8  1  0.480929  0.166450  0.558824  1
  Al  Al9  1  0.519071  0.833550  0.441176  1
  Al  Al10  1  0.217576  0.163451  0.327320  1
  Al  Al11  1  0.782424  0.836549  0.672680  1
  Al  Al12  1  0.435902  0.508991  0.672988  1
  Al  Al13  1  0.564098  0.491009  0.327012  1
  Al  Al14  1  0.109872  0.158990  0.669597  1
  Al  Al15  1  0.890128  0.841010  0.330403  1
  Al  Al16  1  0.349774  0.498988  0.947188  1
  Al  Al17  1  0.650226  0.501012  0.052812  1
  Al  Al18  1  0.014909  0.170989  0.955344  1
  Al  Al19  1  0.985091  0.829011  0.044656  1
  Al  Al20  1  0.186502  0.500084  0.441296  1
  Al  Al21  1  0.813498  0.499916  0.558704  1
  Al  Al22  1  0.736330  0.162322  0.181833  1
  Al  Al23  1  0.263670  0.837678  0.818167  1
  Al  Al24  1  0.060317  0.632942  0.818825  1
  Al  Al25  1  0.939683  0.367058  0.181175  1
  Al  Al26  1  0.856136  0.041467  0.818016  1
  Al  Al27  1  0.143864  0.958533  0.181984  1
  Os  Os28  1  0.000000  0.500000  0.000000  1
  Pt  Pt29  1  0.120644  0.493040  0.638643  1
  Pt  Pt30  1  0.879356  0.506960  0.361357  1
  Pt  Pt31  1  0.658603  0.170888  0.000145  1
  Pt  Pt32  1  0.341397  0.829112  0.999855  1
  Pt  Pt33  1  0.538330  0.166726  0.361309  1
  Pt  Pt34  1  0.461670  0.833274  0.638691  1
  Pt  Pt35  1  0.779764  0.174399  0.638027  1
  Pt  Pt36  1  0.220236  0.825601  0.361973  1
