# generated using pymatgen
data_Zr6Tl4GeCl18
_symmetry_space_group_name_H-M   'P 1'
_cell_length_a   10.16285481
_cell_length_b   10.28422593
_cell_length_c   10.37744600
_cell_angle_alpha   118.46388077
_cell_angle_beta   100.17651196
_cell_angle_gamma   103.81443993
_symmetry_Int_Tables_number   1
_chemical_formula_structural   Zr6Tl4GeCl18
_chemical_formula_sum   'Zr6 Tl4 Ge1 Cl18'
_cell_volume   870.67606993
_cell_formula_units_Z   1
loop_
 _symmetry_equiv_pos_site_id
 _symmetry_equiv_pos_as_xyz
  1  'x, y, z'
loop_
 _atom_site_type_symbol
 _atom_site_label
 _atom_site_symmetry_multiplicity
 _atom_site_fract_x
 _atom_site_fract_y
 _atom_site_fract_z
 _atom_site_occupancy
  Zr  Zr0  1  0.162640  0.060841  0.249548  1
  Zr  Zr1  1  0.837360  0.939159  0.750452  1
  Zr  Zr2  1  0.850194  0.136595  0.143334  1
  Zr  Zr3  1  0.149806  0.863405  0.856666  1
  Zr  Zr4  1  0.156743  0.258354  0.048358  1
  Zr  Zr5  1  0.843257  0.741646  0.951642  1
  Tl  Tl6  1  0.653230  0.537426  0.227394  1
  Tl  Tl7  1  0.346770  0.462574  0.772606  1
  Tl  Tl8  1  0.686940  0.224859  0.562469  1
  Tl  Tl9  1  0.313060  0.775141  0.437531  1
  Ge  Ge10  1  0.000000  0.000000  0.000000  1
  Cl  Cl11  1  0.008096  0.410848  0.197757  1
  Cl  Cl12  1  0.991904  0.589152  0.802243  1
  Cl  Cl13  1  0.329473  0.334458  0.311896  1
  Cl  Cl14  1  0.670527  0.665542  0.688104  1
  Cl  Cl15  1  0.326110  0.526260  0.101656  1
  Cl  Cl16  1  0.673890  0.473740  0.898344  1
  Cl  Cl17  1  0.004774  0.795399  0.210286  1
  Cl  Cl18  1  0.995226  0.204601  0.789714  1
  Cl  Cl19  1  0.699801  0.279376  0.292459  1
  Cl  Cl20  1  0.300199  0.720624  0.707541  1
  Cl  Cl21  1  0.317309  0.128031  0.902751  1
  Cl  Cl22  1  0.682691  0.871969  0.097249  1
  Cl  Cl23  1  0.014639  0.205140  0.409467  1
  Cl  Cl24  1  0.985361  0.794860  0.590533  1
  Cl  Cl25  1  0.321459  0.921783  0.110812  1
  Cl  Cl26  1  0.678541  0.078217  0.889188  1
  Cl  Cl27  1  0.337025  0.122441  0.506715  1
  Cl  Cl28  1  0.662975  0.877559  0.493285  1
