# generated using pymatgen
data_Sm3YB4I5
_symmetry_space_group_name_H-M   'P 1'
_cell_length_a   9.74425959
_cell_length_b   9.74425878
_cell_length_c   9.91056910
_cell_angle_alpha   74.81655858
_cell_angle_beta   74.81656009
_cell_angle_gamma   25.55207043
_symmetry_Int_Tables_number   1
_chemical_formula_structural   Sm3YB4I5
_chemical_formula_sum   'Sm3 Y1 B4 I5'
_cell_volume   390.97776689
_cell_formula_units_Z   1
loop_
 _symmetry_equiv_pos_site_id
 _symmetry_equiv_pos_as_xyz
  1  'x, y, z'
loop_
 _atom_site_type_symbol
 _atom_site_label
 _atom_site_symmetry_multiplicity
 _atom_site_fract_x
 _atom_site_fract_y
 _atom_site_fract_z
 _atom_site_occupancy
  Sm  Sm0  1  0.496887  0.496887  0.247582  1
  Sm  Sm1  1  0.131793  0.131793  0.932501  1
  Sm  Sm2  1  0.869084  0.869084  0.064147  1
  Y  Y3  1  0.504455  0.504455  0.757527  1
  B  B4  1  0.315019  0.685981  0.999628  1
  B  B5  1  0.685981  0.315019  0.999628  1
  B  B6  1  0.999742  0.999742  0.096566  1
  B  B7  1  0.001125  0.001125  0.902155  1
  I  I8  1  0.674380  0.674380  0.681742  1
  I  I9  1  0.324558  0.324558  0.315923  1
  I  I10  1  0.330881  0.330881  0.847405  1
  I  I11  1  0.673636  0.673636  0.143584  1
  I  I12  1  0.006762  0.006762  0.501811  1
