# generated using pymatgen
data_ThMgU6(Nb3Si4)4
_symmetry_space_group_name_H-M   'P 1'
_cell_length_a   7.05616501
_cell_length_b   7.05979711
_cell_length_c   13.02998890
_cell_angle_alpha   89.82600821
_cell_angle_beta   89.83383644
_cell_angle_gamma   89.78795415
_symmetry_Int_Tables_number   1
_chemical_formula_structural   ThMgU6(Nb3Si4)4
_chemical_formula_sum   'Th1 Mg1 U6 Nb12 Si16'
_cell_volume   649.07996646
_cell_formula_units_Z   1
loop_
 _symmetry_equiv_pos_site_id
 _symmetry_equiv_pos_as_xyz
  1  'x, y, z'
loop_
 _atom_site_type_symbol
 _atom_site_label
 _atom_site_symmetry_multiplicity
 _atom_site_fract_x
 _atom_site_fract_y
 _atom_site_fract_z
 _atom_site_occupancy
  Th  Th0  1  0.995426  0.333726  0.217933  1
  Mg  Mg1  1  0.995259  0.664985  0.723168  1
  U  U2  1  0.168240  0.494536  0.470201  1
  U  U3  1  0.507132  0.831798  0.027617  1
  U  U4  1  0.832532  0.508012  0.965586  1
  U  U5  1  0.491178  0.166691  0.532750  1
  U  U6  1  0.337084  0.000569  0.781604  1
  U  U7  1  0.662195  0.000016  0.282058  1
  Nb  Nb8  1  0.171007  0.168369  0.996527  1
  Nb  Nb9  1  0.830103  0.829733  0.501471  1
  Nb  Nb10  1  0.332210  0.669140  0.250906  1
  Nb  Nb11  1  0.666488  0.329000  0.749155  1
  Nb  Nb12  1  0.158993  0.999562  0.378427  1
  Nb  Nb13  1  0.846043  0.001154  0.872953  1
  Nb  Nb14  1  0.502760  0.653527  0.623597  1
  Nb  Nb15  1  0.347739  0.500036  0.873900  1
  Nb  Nb16  1  0.498227  0.343259  0.123764  1
  Nb  Nb17  1  0.655527  0.504272  0.378888  1
  Nb  Nb18  1  0.999778  0.152170  0.625667  1
  Nb  Nb19  1  0.000365  0.842887  0.124863  1
  Si  Si20  1  0.299097  0.035143  0.183677  1
  Si  Si21  1  0.703245  0.959173  0.684149  1
  Si  Si22  1  0.457338  0.796728  0.436556  1
  Si  Si23  1  0.207276  0.544292  0.061164  1
  Si  Si24  1  0.541571  0.204408  0.933581  1
  Si  Si25  1  0.801048  0.459495  0.568075  1
  Si  Si26  1  0.039287  0.301547  0.812292  1
  Si  Si27  1  0.959459  0.710467  0.317503  1
  Si  Si28  1  0.377118  0.292189  0.318199  1
  Si  Si29  1  0.632717  0.707789  0.813574  1
  Si  Si30  1  0.202181  0.862380  0.570895  1
  Si  Si31  1  0.131320  0.795959  0.932785  1
  Si  Si32  1  0.790979  0.126498  0.062434  1
  Si  Si33  1  0.867649  0.204878  0.436284  1
  Si  Si34  1  0.290875  0.372322  0.683812  1
  Si  Si35  1  0.700549  0.633290  0.183985  1
