# generated using pymatgen
data_Pr2Fe3P7Ir2Ru7
_symmetry_space_group_name_H-M   'P 1'
_cell_length_a   9.39518487
_cell_length_b   9.41112995
_cell_length_c   3.89786200
_cell_angle_alpha   90.00000000
_cell_angle_beta   90.00000000
_cell_angle_gamma   120.27712718
_symmetry_Int_Tables_number   1
_chemical_formula_structural   Pr2Fe3P7Ir2Ru7
_chemical_formula_sum   'Pr2 Fe3 P7 Ir2 Ru7'
_cell_volume   297.63543205
_cell_formula_units_Z   1
loop_
 _symmetry_equiv_pos_site_id
 _symmetry_equiv_pos_as_xyz
  1  'x, y, z'
loop_
 _atom_site_type_symbol
 _atom_site_label
 _atom_site_symmetry_multiplicity
 _atom_site_fract_x
 _atom_site_fract_y
 _atom_site_fract_z
 _atom_site_occupancy
  Pr  Pr0  1  0.332898  0.666457  0.000000  1
  Pr  Pr1  1  0.667454  0.334257  0.500000  1
  Fe  Fe2  1  0.155773  0.890497  0.000000  1
  Fe  Fe3  1  0.109780  0.265244  0.000000  1
  Fe  Fe4  1  0.733389  0.843588  0.000000  1
  P  P5  1  0.406133  0.101819  0.000000  1
  P  P6  1  0.899064  0.307473  0.000000  1
  P  P7  1  0.700071  0.595065  0.000000  1
  P  P8  1  0.112031  0.718400  0.500000  1
  P  P9  1  0.277294  0.394608  0.500000  1
  P  P10  1  0.604649  0.882130  0.500000  1
  P  P11  1  0.999808  0.999341  0.000000  1
  Ir  Ir12  1  0.422849  0.359841  0.000000  1
  Ir  Ir13  1  0.640088  0.062159  0.000000  1
  Ru  Ru14  1  0.940622  0.579810  0.000000  1
  Ru  Ru15  1  0.385752  0.949647  0.500000  1
  Ru  Ru16  1  0.050046  0.434832  0.500000  1
  Ru  Ru17  1  0.563169  0.612836  0.500000  1
  Ru  Ru18  1  0.207068  0.119955  0.500000  1
  Ru  Ru19  1  0.879531  0.086752  0.500000  1
  Ru  Ru20  1  0.912532  0.795290  0.500000  1
