# generated using pymatgen
data_Ca3RhO6
_symmetry_space_group_name_H-M   'P 1'
_cell_length_a   6.57625145
_cell_length_b   6.57625007
_cell_length_c   6.57625142
_cell_angle_alpha   91.67613070
_cell_angle_beta   91.67613399
_cell_angle_gamma   91.67613586
_symmetry_Int_Tables_number   1
_chemical_formula_structural   Ca3RhO6
_chemical_formula_sum   'Ca6 Rh2 O12'
_cell_volume   284.03128716
_cell_formula_units_Z   2
loop_
 _symmetry_equiv_pos_site_id
 _symmetry_equiv_pos_as_xyz
  1  'x, y, z'
loop_
 _atom_site_type_symbol
 _atom_site_label
 _atom_site_symmetry_multiplicity
 _atom_site_fract_x
 _atom_site_fract_y
 _atom_site_fract_z
 _atom_site_occupancy
  Ca  Ca0  1  0.930415  0.435216  0.746391  1
  Ca  Ca1  1  0.746391  0.930415  0.435216  1
  Ca  Ca2  1  0.564784  0.253609  0.069585  1
  Ca  Ca3  1  0.435216  0.746391  0.930415  1
  Ca  Ca4  1  0.253609  0.069585  0.564784  1
  Ca  Ca5  1  0.069585  0.564784  0.253609  1
  Rh  Rh6  1  0.000000  0.000000  0.000000  1
  Rh  Rh7  1  0.500000  0.500000  0.500000  1
  O  O8  1  0.935975  0.284761  0.069109  1
  O  O9  1  0.930891  0.064025  0.715239  1
  O  O10  1  0.784961  0.578465  0.452457  1
  O  O11  1  0.715239  0.930891  0.064025  1
  O  O12  1  0.578465  0.452457  0.784961  1
  O  O13  1  0.547543  0.215039  0.421535  1
  O  O14  1  0.452457  0.784961  0.578465  1
  O  O15  1  0.421535  0.547543  0.215039  1
  O  O16  1  0.284761  0.069109  0.935975  1
  O  O17  1  0.215039  0.421535  0.547543  1
  O  O18  1  0.069109  0.935975  0.284761  1
  O  O19  1  0.064025  0.715239  0.930891  1
