# generated using pymatgen
data_ReMoOs6
_symmetry_space_group_name_H-M   'P 1'
_cell_length_a   5.56041400
_cell_length_b   5.56041419
_cell_length_c   4.36318900
_cell_angle_alpha   90.00000000
_cell_angle_beta   90.00000000
_cell_angle_gamma   119.99999886
_symmetry_Int_Tables_number   1
_chemical_formula_structural   ReMoOs6
_chemical_formula_sum   'Re1 Mo1 Os6'
_cell_volume   116.82853574
_cell_formula_units_Z   1
loop_
 _symmetry_equiv_pos_site_id
 _symmetry_equiv_pos_as_xyz
  1  'x, y, z'
loop_
 _atom_site_type_symbol
 _atom_site_label
 _atom_site_symmetry_multiplicity
 _atom_site_fract_x
 _atom_site_fract_y
 _atom_site_fract_z
 _atom_site_occupancy
  Re  Re0  1  0.666667  0.333333  0.250000  1
  Mo  Mo1  1  0.333333  0.666667  0.750000  1
  Os  Os2  1  0.166544  0.333089  0.250000  1
  Os  Os3  1  0.666911  0.833456  0.250000  1
  Os  Os4  1  0.166544  0.833456  0.250000  1
  Os  Os5  1  0.832598  0.665195  0.750000  1
  Os  Os6  1  0.334805  0.167402  0.750000  1
  Os  Os7  1  0.832598  0.167402  0.750000  1
