# generated using pymatgen
data_DyHo(Er4Bi3)2
_symmetry_space_group_name_H-M   'P 1'
_cell_length_a   8.21412200
_cell_length_b   9.48424800
_cell_length_c   11.97152600
_cell_angle_alpha   90.00000000
_cell_angle_beta   90.00000000
_cell_angle_gamma   90.00000000
_symmetry_Int_Tables_number   1
_chemical_formula_structural   DyHo(Er4Bi3)2
_chemical_formula_sum   'Dy2 Ho2 Er16 Bi12'
_cell_volume   932.63898138
_cell_formula_units_Z   2
loop_
 _symmetry_equiv_pos_site_id
 _symmetry_equiv_pos_as_xyz
  1  'x, y, z'
loop_
 _atom_site_type_symbol
 _atom_site_label
 _atom_site_symmetry_multiplicity
 _atom_site_fract_x
 _atom_site_fract_y
 _atom_site_fract_z
 _atom_site_occupancy
  Dy  Dy0  1  0.314253  0.250000  0.218220  1
  Dy  Dy1  1  0.814253  0.250000  0.281780  1
  Ho  Ho2  1  0.685844  0.750000  0.781937  1
  Ho  Ho3  1  0.185844  0.750000  0.718063  1
  Er  Er4  1  0.353591  0.750000  0.216617  1
  Er  Er5  1  0.853591  0.750000  0.283383  1
  Er  Er6  1  0.646396  0.250000  0.783373  1
  Er  Er7  1  0.146396  0.250000  0.716627  1
  Er  Er8  1  0.692078  0.564784  0.059188  1
  Er  Er9  1  0.192078  0.935216  0.440812  1
  Er  Er10  1  0.307911  0.064787  0.940749  1
  Er  Er11  1  0.807911  0.435213  0.559251  1
  Er  Er12  1  0.307911  0.435213  0.940749  1
  Er  Er13  1  0.807911  0.064787  0.559251  1
  Er  Er14  1  0.692078  0.935216  0.059188  1
  Er  Er15  1  0.192078  0.564784  0.440812  1
  Er  Er16  1  0.476580  0.250000  0.489093  1
  Er  Er17  1  0.976580  0.250000  0.010907  1
  Er  Er18  1  0.523382  0.750000  0.511022  1
  Er  Er19  1  0.023382  0.750000  0.988978  1
  Bi  Bi20  1  0.405151  0.750000  0.957780  1
  Bi  Bi21  1  0.905151  0.750000  0.542220  1
  Bi  Bi22  1  0.594959  0.250000  0.041981  1
  Bi  Bi23  1  0.094959  0.250000  0.458019  1
  Bi  Bi24  1  0.566087  0.995657  0.325904  1
  Bi  Bi25  1  0.066087  0.504343  0.174096  1
  Bi  Bi26  1  0.433847  0.495909  0.674167  1
  Bi  Bi27  1  0.933847  0.004091  0.825833  1
  Bi  Bi28  1  0.433847  0.004091  0.674167  1
  Bi  Bi29  1  0.933847  0.495909  0.825833  1
  Bi  Bi30  1  0.566087  0.504343  0.325904  1
  Bi  Bi31  1  0.066087  0.995657  0.174096  1
