# generated using pymatgen
data_Pd(SCl6)2
_symmetry_space_group_name_H-M   'P 1'
_cell_length_a   8.36752140
_cell_length_b   8.36752183
_cell_length_c   8.36752135
_cell_angle_alpha   78.71113556
_cell_angle_beta   78.71113002
_cell_angle_gamma   78.71113375
_symmetry_Int_Tables_number   1
_chemical_formula_structural   Pd(SCl6)2
_chemical_formula_sum   'Pd1 S2 Cl12'
_cell_volume   555.80431470
_cell_formula_units_Z   1
loop_
 _symmetry_equiv_pos_site_id
 _symmetry_equiv_pos_as_xyz
  1  'x, y, z'
loop_
 _atom_site_type_symbol
 _atom_site_label
 _atom_site_symmetry_multiplicity
 _atom_site_fract_x
 _atom_site_fract_y
 _atom_site_fract_z
 _atom_site_occupancy
  Pd  Pd0  1  0.000000  0.000000  0.000000  1
  S  S1  1  0.208227  0.208227  0.208227  1
  S  S2  1  0.791773  0.791773  0.791773  1
  Cl  Cl3  1  0.835403  0.835403  0.539343  1
  Cl  Cl4  1  0.871805  0.184097  0.184097  1
  Cl  Cl5  1  0.184097  0.184097  0.871805  1
  Cl  Cl6  1  0.184097  0.871805  0.184097  1
  Cl  Cl7  1  0.815903  0.128195  0.815903  1
  Cl  Cl8  1  0.128195  0.815903  0.815903  1
  Cl  Cl9  1  0.815903  0.815903  0.128195  1
  Cl  Cl10  1  0.460657  0.164597  0.164597  1
  Cl  Cl11  1  0.164597  0.164597  0.460657  1
  Cl  Cl12  1  0.164597  0.460657  0.164597  1
  Cl  Cl13  1  0.835403  0.539343  0.835403  1
  Cl  Cl14  1  0.539343  0.835403  0.835403  1
