# generated using pymatgen
data_Zn3Ni3Mo12(IrN2)2
_symmetry_space_group_name_H-M   'P 1'
_cell_length_a   6.78602908
_cell_length_b   6.76920179
_cell_length_c   6.77076910
_cell_angle_alpha   89.99033406
_cell_angle_beta   90.08357255
_cell_angle_gamma   90.03328810
_symmetry_Int_Tables_number   1
_chemical_formula_structural   Zn3Ni3Mo12(IrN2)2
_chemical_formula_sum   'Zn3 Ni3 Mo12 Ir2 N4'
_cell_volume   311.02166321
_cell_formula_units_Z   1
loop_
 _symmetry_equiv_pos_site_id
 _symmetry_equiv_pos_as_xyz
  1  'x, y, z'
loop_
 _atom_site_type_symbol
 _atom_site_label
 _atom_site_symmetry_multiplicity
 _atom_site_fract_x
 _atom_site_fract_y
 _atom_site_fract_z
 _atom_site_occupancy
  Zn  Zn0  1  0.183797  0.319537  0.571514  1
  Zn  Zn1  1  0.677199  0.680799  0.434325  1
  Zn  Zn2  1  0.932928  0.436732  0.321764  1
  Ni  Ni3  1  0.561993  0.929726  0.194622  1
  Ni  Ni4  1  0.433903  0.562559  0.678280  1
  Ni  Ni5  1  0.063026  0.069221  0.807338  1
  Mo  Mo6  1  0.371256  0.952615  0.550664  1
  Mo  Mo7  1  0.869911  0.043193  0.452815  1
  Mo  Mo8  1  0.123566  0.448615  0.955633  1
  Mo  Mo9  1  0.618006  0.556909  0.034129  1
  Mo  Mo10  1  0.795085  0.373584  0.712038  1
  Mo  Mo11  1  0.705207  0.875660  0.806764  1
  Mo  Mo12  1  0.210056  0.122400  0.191973  1
  Mo  Mo13  1  0.300111  0.623901  0.292459  1
  Mo  Mo14  1  0.955123  0.804959  0.122788  1
  Mo  Mo15  1  0.054236  0.712376  0.630070  1
  Mo  Mo16  1  0.456204  0.201889  0.875144  1
  Mo  Mo17  1  0.549824  0.287452  0.371364  1
  Ir  Ir18  1  0.314122  0.816114  0.930785  1
  Ir  Ir19  1  0.813359  0.179716  0.067844  1
  N  N20  1  0.626588  0.122442  0.625395  1
  N  N21  1  0.128088  0.876283  0.373727  1
  N  N22  1  0.878695  0.627738  0.877929  1
  N  N23  1  0.377719  0.375579  0.120637  1
