# generated using pymatgen
data_Ta6Be3BIrRu9
_symmetry_space_group_name_H-M   'P 1'
_cell_length_a   9.42974011
_cell_length_b   9.42973966
_cell_length_c   3.10911900
_cell_angle_alpha   90.00000000
_cell_angle_beta   90.00000000
_cell_angle_gamma   89.85068010
_symmetry_Int_Tables_number   1
_chemical_formula_structural   Ta6Be3BIrRu9
_chemical_formula_sum   'Ta6 Be3 B1 Ir1 Ru9'
_cell_volume   276.46190480
_cell_formula_units_Z   1
loop_
 _symmetry_equiv_pos_site_id
 _symmetry_equiv_pos_as_xyz
  1  'x, y, z'
loop_
 _atom_site_type_symbol
 _atom_site_label
 _atom_site_symmetry_multiplicity
 _atom_site_fract_x
 _atom_site_fract_y
 _atom_site_fract_z
 _atom_site_occupancy
  Ta  Ta0  1  0.825299  0.675449  0.000000  1
  Ta  Ta1  1  0.175449  0.325299  0.000000  1
  Ta  Ta2  1  0.321995  0.821995  0.000000  1
  Ta  Ta3  1  0.678086  0.178086  0.000000  1
  Ta  Ta4  1  0.498368  0.500594  0.000000  1
  Ta  Ta5  1  0.000594  0.998368  0.000000  1
  Be  Be6  1  0.623022  0.876787  0.000000  1
  Be  Be7  1  0.376787  0.123022  0.000000  1
  Be  Be8  1  0.120742  0.620742  0.000000  1
  B  B9  1  0.879567  0.379567  0.000000  1
  Ir  Ir10  1  0.499368  0.999368  0.500000  1
  Ru  Ru11  1  0.573597  0.711601  0.500000  1
  Ru  Ru12  1  0.429903  0.287475  0.500000  1
  Ru  Ru13  1  0.071337  0.786786  0.500000  1
  Ru  Ru14  1  0.925841  0.217470  0.500000  1
  Ru  Ru15  1  0.286786  0.571337  0.500000  1
  Ru  Ru16  1  0.717470  0.425841  0.500000  1
  Ru  Ru17  1  0.211601  0.073597  0.500000  1
  Ru  Ru18  1  0.787475  0.929903  0.500000  1
  Ru  Ru19  1  0.996714  0.496714  0.500000  1
