# generated using pymatgen
data_SmMgCuPt3
_symmetry_space_group_name_H-M   'P 1'
_cell_length_a   5.19368344
_cell_length_b   5.19368201
_cell_length_c   5.19368183
_cell_angle_alpha   63.62665452
_cell_angle_beta   63.62666084
_cell_angle_gamma   63.62666747
_symmetry_Int_Tables_number   1
_chemical_formula_structural   SmMgCuPt3
_chemical_formula_sum   'Sm1 Mg1 Cu1 Pt3'
_cell_volume   106.99946311
_cell_formula_units_Z   1
loop_
 _symmetry_equiv_pos_site_id
 _symmetry_equiv_pos_as_xyz
  1  'x, y, z'
loop_
 _atom_site_type_symbol
 _atom_site_label
 _atom_site_symmetry_multiplicity
 _atom_site_fract_x
 _atom_site_fract_y
 _atom_site_fract_z
 _atom_site_occupancy
  Sm  Sm0  1  0.751498  0.751498  0.751498  1
  Mg  Mg1  1  0.005879  0.005879  0.005879  1
  Cu  Cu2  1  0.373044  0.373044  0.373044  1
  Pt  Pt3  1  0.372067  0.875446  0.372067  1
  Pt  Pt4  1  0.372067  0.372067  0.875446  1
  Pt  Pt5  1  0.875446  0.372067  0.372067  1
