# generated using pymatgen
data_DyNiPt3Au
_symmetry_space_group_name_H-M   'P 1'
_cell_length_a   5.14658521
_cell_length_b   5.14658527
_cell_length_c   5.14658514
_cell_angle_alpha   62.92909114
_cell_angle_beta   62.92908904
_cell_angle_gamma   62.92909394
_symmetry_Int_Tables_number   1
_chemical_formula_structural   DyNiPt3Au
_chemical_formula_sum   'Dy1 Ni1 Pt3 Au1'
_cell_volume   102.66391032
_cell_formula_units_Z   1
loop_
 _symmetry_equiv_pos_site_id
 _symmetry_equiv_pos_as_xyz
  1  'x, y, z'
loop_
 _atom_site_type_symbol
 _atom_site_label
 _atom_site_symmetry_multiplicity
 _atom_site_fract_x
 _atom_site_fract_y
 _atom_site_fract_z
 _atom_site_occupancy
  Dy  Dy0  1  0.001494  0.001494  0.001494  1
  Ni  Ni1  1  0.623869  0.623869  0.623869  1
  Pt  Pt2  1  0.623692  0.623692  0.125586  1
  Pt  Pt3  1  0.623692  0.125586  0.623692  1
  Pt  Pt4  1  0.125586  0.623692  0.623692  1
  Au  Au5  1  0.251668  0.251668  0.251668  1
