# generated using pymatgen
data_Dy8ErLuPt8
_symmetry_space_group_name_H-M   'P 1'
_cell_length_a   7.45495700
_cell_length_b   7.55917000
_cell_length_c   14.73655300
_cell_angle_alpha   90.00000000
_cell_angle_beta   90.00000000
_cell_angle_gamma   90.00000000
_symmetry_Int_Tables_number   1
_chemical_formula_structural   Dy8ErLuPt8
_chemical_formula_sum   'Dy16 Er2 Lu2 Pt16'
_cell_volume   830.45320510
_cell_formula_units_Z   2
loop_
 _symmetry_equiv_pos_site_id
 _symmetry_equiv_pos_as_xyz
  1  'x, y, z'
loop_
 _atom_site_type_symbol
 _atom_site_label
 _atom_site_symmetry_multiplicity
 _atom_site_fract_x
 _atom_site_fract_y
 _atom_site_fract_z
 _atom_site_occupancy
  Dy  Dy0  1  0.656755  0.168086  0.622726  1
  Dy  Dy1  1  0.156755  0.331914  0.877274  1
  Dy  Dy2  1  0.343098  0.832047  0.122451  1
  Dy  Dy3  1  0.843098  0.667953  0.377549  1
  Dy  Dy4  1  0.343098  0.832047  0.377549  1
  Dy  Dy5  1  0.843098  0.667953  0.122451  1
  Dy  Dy6  1  0.656755  0.168086  0.877274  1
  Dy  Dy7  1  0.156755  0.331914  0.622726  1
  Dy  Dy8  1  0.501951  0.679946  0.593433  1
  Dy  Dy9  1  0.001951  0.820054  0.906567  1
  Dy  Dy10  1  0.498090  0.320151  0.093097  1
  Dy  Dy11  1  0.998090  0.179849  0.406903  1
  Dy  Dy12  1  0.498090  0.320151  0.406903  1
  Dy  Dy13  1  0.998090  0.179849  0.093097  1
  Dy  Dy14  1  0.501951  0.679946  0.906567  1
  Dy  Dy15  1  0.001951  0.820054  0.593433  1
  Er  Er16  1  0.181022  0.487467  0.250000  1
  Er  Er17  1  0.681022  0.012533  0.250000  1
  Lu  Lu18  1  0.818791  0.512739  0.750000  1
  Lu  Lu19  1  0.318791  0.987261  0.750000  1
  Pt  Pt20  1  0.683590  0.967956  0.458095  1
  Pt  Pt21  1  0.183590  0.532044  0.041905  1
  Pt  Pt22  1  0.316471  0.031962  0.957861  1
  Pt  Pt23  1  0.816471  0.468038  0.542139  1
  Pt  Pt24  1  0.316471  0.031962  0.542139  1
  Pt  Pt25  1  0.816471  0.468038  0.957861  1
  Pt  Pt26  1  0.683590  0.967956  0.041905  1
  Pt  Pt27  1  0.183590  0.532044  0.458095  1
  Pt  Pt28  1  0.454911  0.388292  0.750000  1
  Pt  Pt29  1  0.954911  0.111708  0.750000  1
  Pt  Pt30  1  0.545784  0.611669  0.250000  1
  Pt  Pt31  1  0.045784  0.888331  0.250000  1
  Pt  Pt32  1  0.681871  0.855164  0.750000  1
  Pt  Pt33  1  0.181871  0.644836  0.750000  1
  Pt  Pt34  1  0.317710  0.144269  0.250000  1
  Pt  Pt35  1  0.817710  0.355731  0.250000  1
