# generated using pymatgen
data_Ta2FeS6
_symmetry_space_group_name_H-M   'P 1'
_cell_length_a   5.61286857
_cell_length_b   5.61286948
_cell_length_c   6.88009985
_cell_angle_alpha   82.25132780
_cell_angle_beta   82.25132458
_cell_angle_gamma   119.95727468
_symmetry_Int_Tables_number   1
_chemical_formula_structural   Ta2FeS6
_chemical_formula_sum   'Ta2 Fe1 S6'
_cell_volume   180.84676376
_cell_formula_units_Z   1
loop_
 _symmetry_equiv_pos_site_id
 _symmetry_equiv_pos_as_xyz
  1  'x, y, z'
loop_
 _atom_site_type_symbol
 _atom_site_label
 _atom_site_symmetry_multiplicity
 _atom_site_fract_x
 _atom_site_fract_y
 _atom_site_fract_z
 _atom_site_occupancy
  Ta  Ta0  1  0.833085  0.499563  0.499953  1
  Ta  Ta1  1  0.499563  0.833085  0.499953  1
  Fe  Fe2  1  0.167240  0.167240  0.500068  1
  S  S3  1  0.557121  0.241778  0.271193  1
  S  S4  1  0.241778  0.557121  0.271193  1
  S  S5  1  0.927392  0.927392  0.272010  1
  S  S6  1  0.776816  0.776816  0.728404  1
  S  S7  1  0.406170  0.090739  0.728762  1
  S  S8  1  0.090739  0.406170  0.728762  1
