# generated using pymatgen
data_Y4MoOsC4
_symmetry_space_group_name_H-M   'P 1'
_cell_length_a   5.11782000
_cell_length_b   6.60947570
_cell_length_c   9.93429884
_cell_angle_alpha   89.20358228
_cell_angle_beta   90.00000000
_cell_angle_gamma   90.00000000
_symmetry_Int_Tables_number   1
_chemical_formula_structural   Y4MoOsC4
_chemical_formula_sum   'Y8 Mo2 Os2 C8'
_cell_volume   336.00619198
_cell_formula_units_Z   2
loop_
 _symmetry_equiv_pos_site_id
 _symmetry_equiv_pos_as_xyz
  1  'x, y, z'
loop_
 _atom_site_type_symbol
 _atom_site_label
 _atom_site_symmetry_multiplicity
 _atom_site_fract_x
 _atom_site_fract_y
 _atom_site_fract_z
 _atom_site_occupancy
  Y  Y0  1  0.250000  0.678875  0.557402  1
  Y  Y1  1  0.750000  0.321125  0.442598  1
  Y  Y2  1  0.750000  0.823721  0.057624  1
  Y  Y3  1  0.250000  0.176279  0.942376  1
  Y  Y4  1  0.250000  0.537829  0.218095  1
  Y  Y5  1  0.750000  0.462171  0.781905  1
  Y  Y6  1  0.750000  0.969051  0.716507  1
  Y  Y7  1  0.250000  0.030949  0.283493  1
  Mo  Mo8  1  0.250000  0.717432  0.866331  1
  Mo  Mo9  1  0.750000  0.282568  0.133669  1
  Os  Os10  1  0.750000  0.778935  0.365673  1
  Os  Os11  1  0.250000  0.221065  0.634327  1
  C  C12  1  0.250000  0.449982  0.757228  1
  C  C13  1  0.750000  0.550018  0.242772  1
  C  C14  1  0.750000  0.045203  0.260529  1
  C  C15  1  0.250000  0.954797  0.739471  1
  C  C16  1  0.250000  0.822432  0.050334  1
  C  C17  1  0.750000  0.177568  0.949666  1
  C  C18  1  0.750000  0.678851  0.547383  1
  C  C19  1  0.250000  0.321149  0.452617  1
