# generated using pymatgen
data_HfBe4Fe
_symmetry_space_group_name_H-M   'P 1'
_cell_length_a   4.43799799
_cell_length_b   4.43799683
_cell_length_c   4.43799700
_cell_angle_alpha   59.99999130
_cell_angle_beta   59.99999994
_cell_angle_gamma   59.99999993
_symmetry_Int_Tables_number   1
_chemical_formula_structural   HfBe4Fe
_chemical_formula_sum   'Hf1 Be4 Fe1'
_cell_volume   61.80819582
_cell_formula_units_Z   1
loop_
 _symmetry_equiv_pos_site_id
 _symmetry_equiv_pos_as_xyz
  1  'x, y, z'
loop_
 _atom_site_type_symbol
 _atom_site_label
 _atom_site_symmetry_multiplicity
 _atom_site_fract_x
 _atom_site_fract_y
 _atom_site_fract_z
 _atom_site_occupancy
  Hf  Hf0  1  0.000000  0.000000  0.000000  1
  Be  Be1  1  0.623299  0.623299  0.130105  1
  Be  Be2  1  0.623299  0.130105  0.623299  1
  Be  Be3  1  0.130105  0.623299  0.623299  1
  Be  Be4  1  0.623299  0.623299  0.623299  1
  Fe  Fe5  1  0.250000  0.250000  0.250000  1
