# generated using pymatgen
data_Lu4ScSiSb2
_symmetry_space_group_name_H-M   'P 1'
_cell_length_a   7.70082900
_cell_length_b   8.90810000
_cell_length_c   11.37988000
_cell_angle_alpha   90.00000000
_cell_angle_beta   90.00000000
_cell_angle_gamma   90.00000000
_symmetry_Int_Tables_number   1
_chemical_formula_structural   Lu4ScSiSb2
_chemical_formula_sum   'Lu16 Sc4 Si4 Sb8'
_cell_volume   780.65697782
_cell_formula_units_Z   4
loop_
 _symmetry_equiv_pos_site_id
 _symmetry_equiv_pos_as_xyz
  1  'x, y, z'
loop_
 _atom_site_type_symbol
 _atom_site_label
 _atom_site_symmetry_multiplicity
 _atom_site_fract_x
 _atom_site_fract_y
 _atom_site_fract_z
 _atom_site_occupancy
  Lu  Lu0  1  0.188161  0.556462  0.443033  1
  Lu  Lu1  1  0.688161  0.943538  0.056967  1
  Lu  Lu2  1  0.811839  0.056462  0.556967  1
  Lu  Lu3  1  0.311839  0.443538  0.943033  1
  Lu  Lu4  1  0.811839  0.443538  0.556967  1
  Lu  Lu5  1  0.311839  0.056462  0.943033  1
  Lu  Lu6  1  0.188161  0.943538  0.443033  1
  Lu  Lu7  1  0.688161  0.556462  0.056967  1
  Lu  Lu8  1  0.178057  0.750000  0.718430  1
  Lu  Lu9  1  0.678057  0.750000  0.781570  1
  Lu  Lu10  1  0.821943  0.250000  0.281570  1
  Lu  Lu11  1  0.321943  0.250000  0.218430  1
  Lu  Lu12  1  0.853610  0.750000  0.293134  1
  Lu  Lu13  1  0.353610  0.750000  0.206866  1
  Lu  Lu14  1  0.146390  0.250000  0.706866  1
  Lu  Lu15  1  0.646390  0.250000  0.793134  1
  Sc  Sc16  1  0.037891  0.750000  0.989306  1
  Sc  Sc17  1  0.537891  0.750000  0.510694  1
  Sc  Sc18  1  0.962109  0.250000  0.010694  1
  Sc  Sc19  1  0.462109  0.250000  0.489306  1
  Si  Si20  1  0.908972  0.750000  0.539631  1
  Si  Si21  1  0.408972  0.750000  0.960369  1
  Si  Si22  1  0.091028  0.250000  0.460369  1
  Si  Si23  1  0.591028  0.250000  0.039631  1
  Sb  Sb24  1  0.936529  0.497236  0.828944  1
  Sb  Sb25  1  0.436529  0.002764  0.671056  1
  Sb  Sb26  1  0.063471  0.997236  0.171056  1
  Sb  Sb27  1  0.563471  0.502764  0.328944  1
  Sb  Sb28  1  0.063471  0.502764  0.171056  1
  Sb  Sb29  1  0.563471  0.997236  0.328944  1
  Sb  Sb30  1  0.936529  0.002764  0.828944  1
  Sb  Sb31  1  0.436529  0.497236  0.671056  1
