# generated using pymatgen
data_La6Tb(YbIr3)2
_symmetry_space_group_name_H-M   'P 1'
_cell_length_a   7.67055793
_cell_length_b   7.67055744
_cell_length_c   7.67055876
_cell_angle_alpha   70.57951853
_cell_angle_beta   70.57953077
_cell_angle_gamma   70.57951067
_symmetry_Int_Tables_number   1
_chemical_formula_structural   La6Tb(YbIr3)2
_chemical_formula_sum   'La6 Tb1 Yb2 Ir6'
_cell_volume   388.72274145
_cell_formula_units_Z   1
loop_
 _symmetry_equiv_pos_site_id
 _symmetry_equiv_pos_as_xyz
  1  'x, y, z'
loop_
 _atom_site_type_symbol
 _atom_site_label
 _atom_site_symmetry_multiplicity
 _atom_site_fract_x
 _atom_site_fract_y
 _atom_site_fract_z
 _atom_site_occupancy
  La  La0  1  0.146157  0.391089  0.679715  1
  La  La1  1  0.679715  0.146157  0.391089  1
  La  La2  1  0.391089  0.679715  0.146157  1
  La  La3  1  0.854935  0.607746  0.319872  1
  La  La4  1  0.319872  0.854935  0.607746  1
  La  La5  1  0.607746  0.319872  0.854935  1
  Tb  Tb6  1  0.805912  0.805912  0.805912  1
  Yb  Yb7  1  0.001274  0.001274  0.001274  1
  Yb  Yb8  1  0.196056  0.196056  0.196056  1
  Ir  Ir9  1  0.950115  0.170577  0.587067  1
  Ir  Ir10  1  0.587067  0.950115  0.170577  1
  Ir  Ir11  1  0.170577  0.587067  0.950115  1
  Ir  Ir12  1  0.044232  0.822925  0.422327  1
  Ir  Ir13  1  0.422327  0.044232  0.822925  1
  Ir  Ir14  1  0.822925  0.422327  0.044232  1
