# generated using pymatgen
data_Pm2CrReN5
_symmetry_space_group_name_H-M   'P 1'
_cell_length_a   7.36814200
_cell_length_b   3.90371300
_cell_length_c   3.90371300
_cell_angle_alpha   90.00000000
_cell_angle_beta   90.00000000
_cell_angle_gamma   90.00000000
_symmetry_Int_Tables_number   1
_chemical_formula_structural   Pm2CrReN5
_chemical_formula_sum   'Pm2 Cr1 Re1 N5'
_cell_volume   112.28293311
_cell_formula_units_Z   1
loop_
 _symmetry_equiv_pos_site_id
 _symmetry_equiv_pos_as_xyz
  1  'x, y, z'
loop_
 _atom_site_type_symbol
 _atom_site_label
 _atom_site_symmetry_multiplicity
 _atom_site_fract_x
 _atom_site_fract_y
 _atom_site_fract_z
 _atom_site_occupancy
  Pm  Pm0  1  0.994632  0.000000  0.000000  1
  Pm  Pm1  1  0.534749  0.000000  0.000000  1
  Cr  Cr2  1  0.746824  0.499999  0.499999  1
  Re  Re3  1  0.244960  0.499999  0.499999  1
  N  N4  1  0.218861  0.499999  0.000000  1
  N  N5  1  0.769907  0.499999  0.000000  1
  N  N6  1  0.218861  0.000000  0.499999  1
  N  N7  1  0.769907  0.000000  0.499999  1
  N  N8  1  0.501302  0.499999  0.499999  1
