# generated using pymatgen
data_EuTe28
_symmetry_space_group_name_H-M   'P 1'
_cell_length_a   11.97726272
_cell_length_b   10.80100058
_cell_length_c   12.50182900
_cell_angle_alpha   115.09544145
_cell_angle_beta   122.68138890
_cell_angle_gamma   88.59922231
_symmetry_Int_Tables_number   1
_chemical_formula_structural   EuTe28
_chemical_formula_sum   'Eu1 Te28'
_cell_volume   1187.54562912
_cell_formula_units_Z   1
loop_
 _symmetry_equiv_pos_site_id
 _symmetry_equiv_pos_as_xyz
  1  'x, y, z'
loop_
 _atom_site_type_symbol
 _atom_site_label
 _atom_site_symmetry_multiplicity
 _atom_site_fract_x
 _atom_site_fract_y
 _atom_site_fract_z
 _atom_site_occupancy
  Eu  Eu0  1  0.500000  0.000000  0.000000  1
  Te  Te1  1  0.227954  0.100782  0.419866  1
  Te  Te2  1  0.591455  0.155259  0.421715  1
  Te  Te3  1  0.272288  0.261737  0.884665  1
  Te  Te4  1  0.919991  0.309119  0.894184  1
  Te  Te5  1  0.211432  0.551362  0.729643  1
  Te  Te6  1  0.807141  0.531455  0.638411  1
  Te  Te7  1  0.408545  0.844741  0.578285  1
  Te  Te8  1  0.772046  0.899218  0.580134  1
  Te  Te9  1  0.080009  0.690881  0.105816  1
  Te  Te10  1  0.727712  0.738263  0.115335  1
  Te  Te11  1  0.192859  0.468545  0.361589  1
  Te  Te12  1  0.788568  0.448638  0.270357  1
  Te  Te13  1  0.761065  0.084492  0.849790  1
  Te  Te14  1  0.215293  0.974834  0.706641  1
  Te  Te15  1  0.809417  0.687573  0.901258  1
  Te  Te16  1  0.377641  0.750634  0.032884  1
  Te  Te17  1  0.519241  0.284920  0.249076  1
  Te  Te18  1  0.037282  0.273695  0.355684  1
  Te  Te19  1  0.784707  0.025166  0.293359  1
  Te  Te20  1  0.238935  0.915508  0.150210  1
  Te  Te21  1  0.622359  0.249366  0.967116  1
  Te  Te22  1  0.190583  0.312427  0.098742  1
  Te  Te23  1  0.962718  0.726305  0.644316  1
  Te  Te24  1  0.480759  0.715080  0.750924  1
  Te  Te25  1  0.042716  0.375853  0.736660  1
  Te  Te26  1  0.485547  0.285931  0.582645  1
  Te  Te27  1  0.514453  0.714069  0.417355  1
  Te  Te28  1  0.957284  0.624147  0.263340  1
