# generated using pymatgen
data_DyEr4(In2Pt)2
_symmetry_space_group_name_H-M   'P 1'
_cell_length_a   3.62632500
_cell_length_b   8.08477800
_cell_length_c   18.15057000
_cell_angle_alpha   90.00000000
_cell_angle_beta   90.00000000
_cell_angle_gamma   90.00000000
_symmetry_Int_Tables_number   1
_chemical_formula_structural   DyEr4(In2Pt)2
_chemical_formula_sum   'Dy2 Er8 In8 Pt4'
_cell_volume   532.13900262
_cell_formula_units_Z   2
loop_
 _symmetry_equiv_pos_site_id
 _symmetry_equiv_pos_as_xyz
  1  'x, y, z'
loop_
 _atom_site_type_symbol
 _atom_site_label
 _atom_site_symmetry_multiplicity
 _atom_site_fract_x
 _atom_site_fract_y
 _atom_site_fract_z
 _atom_site_occupancy
  Dy  Dy0  1  0.000000  0.000000  0.000000  1
  Dy  Dy1  1  0.000000  0.500000  0.500000  1
  Er  Er2  1  0.000000  0.116727  0.414119  1
  Er  Er3  1  0.000000  0.883273  0.585881  1
  Er  Er4  1  0.000000  0.383273  0.914119  1
  Er  Er5  1  0.000000  0.616727  0.085881  1
  Er  Er6  1  0.000000  0.243574  0.220656  1
  Er  Er7  1  0.000000  0.756426  0.779344  1
  Er  Er8  1  0.000000  0.256426  0.720656  1
  Er  Er9  1  0.000000  0.743574  0.279344  1
  In  In10  1  0.500000  0.423196  0.351055  1
  In  In11  1  0.500000  0.576804  0.648945  1
  In  In12  1  0.500000  0.076804  0.851055  1
  In  In13  1  0.500000  0.923196  0.148945  1
  In  In14  1  0.500000  0.292928  0.066841  1
  In  In15  1  0.500000  0.707072  0.933159  1
  In  In16  1  0.500000  0.207072  0.566841  1
  In  In17  1  0.500000  0.792928  0.433159  1
  Pt  Pt18  1  0.500000  0.024719  0.303674  1
  Pt  Pt19  1  0.500000  0.975281  0.696326  1
  Pt  Pt20  1  0.500000  0.475281  0.803674  1
  Pt  Pt21  1  0.500000  0.524719  0.196326  1
