# generated using pymatgen
data_Ba2YbSb2
_symmetry_space_group_name_H-M   'P 1'
_cell_length_a   9.85727681
_cell_length_b   9.85727652
_cell_length_c   8.82141700
_cell_angle_alpha   90.00000000
_cell_angle_beta   90.00000000
_cell_angle_gamma   149.95188530
_symmetry_Int_Tables_number   1
_chemical_formula_structural   Ba2YbSb2
_chemical_formula_sum   'Ba4 Yb2 Sb4'
_cell_volume   429.19368270
_cell_formula_units_Z   2
loop_
 _symmetry_equiv_pos_site_id
 _symmetry_equiv_pos_as_xyz
  1  'x, y, z'
loop_
 _atom_site_type_symbol
 _atom_site_label
 _atom_site_symmetry_multiplicity
 _atom_site_fract_x
 _atom_site_fract_y
 _atom_site_fract_z
 _atom_site_occupancy
  Ba  Ba0  1  0.296674  0.703326  0.888022  1
  Ba  Ba1  1  0.703326  0.296674  0.388022  1
  Ba  Ba2  1  0.460649  0.539351  0.231264  1
  Ba  Ba3  1  0.539351  0.460649  0.731264  1
  Yb  Yb4  1  0.094467  0.905533  0.083145  1
  Yb  Yb5  1  0.905533  0.094467  0.583145  1
  Sb  Sb6  1  0.060893  0.939107  0.436562  1
  Sb  Sb7  1  0.939107  0.060893  0.936562  1
  Sb  Sb8  1  0.324343  0.675657  0.495029  1
  Sb  Sb9  1  0.675657  0.324343  0.995029  1
