# generated using pymatgen
data_Ac3SiS6Cl
_symmetry_space_group_name_H-M   'P 1'
_cell_length_a   10.74129700
_cell_length_b   12.96653000
_cell_length_c   16.79986900
_cell_angle_alpha   90.00000000
_cell_angle_beta   90.00000000
_cell_angle_gamma   90.00000000
_symmetry_Int_Tables_number   1
_chemical_formula_structural   Ac3SiS6Cl
_chemical_formula_sum   'Ac24 Si8 S48 Cl8'
_cell_volume   2339.84123113
_cell_formula_units_Z   8
loop_
 _symmetry_equiv_pos_site_id
 _symmetry_equiv_pos_as_xyz
  1  'x, y, z'
loop_
 _atom_site_type_symbol
 _atom_site_label
 _atom_site_symmetry_multiplicity
 _atom_site_fract_x
 _atom_site_fract_y
 _atom_site_fract_z
 _atom_site_occupancy
  Ac  Ac0  1  0.250000  0.375844  0.639827  1
  Ac  Ac1  1  0.964419  0.615115  0.888252  1
  Ac  Ac2  1  0.250000  0.109497  0.128045  1
  Ac  Ac3  1  0.464419  0.384885  0.111748  1
  Ac  Ac4  1  0.250000  0.875844  0.860173  1
  Ac  Ac5  1  0.535581  0.615115  0.888252  1
  Ac  Ac6  1  0.250000  0.609497  0.371955  1
  Ac  Ac7  1  0.542659  0.313728  0.406100  1
  Ac  Ac8  1  0.042659  0.686272  0.593900  1
  Ac  Ac9  1  0.957341  0.313728  0.406100  1
  Ac  Ac10  1  0.457341  0.186272  0.906100  1
  Ac  Ac11  1  0.957341  0.813728  0.093900  1
  Ac  Ac12  1  0.457341  0.686272  0.593900  1
  Ac  Ac13  1  0.035581  0.384885  0.111748  1
  Ac  Ac14  1  0.964419  0.115115  0.611748  1
  Ac  Ac15  1  0.535581  0.115115  0.611748  1
  Ac  Ac16  1  0.750000  0.124156  0.139827  1
  Ac  Ac17  1  0.042659  0.186272  0.906100  1
  Ac  Ac18  1  0.464419  0.884885  0.388252  1
  Ac  Ac19  1  0.035581  0.884885  0.388252  1
  Ac  Ac20  1  0.750000  0.890503  0.871955  1
  Ac  Ac21  1  0.542659  0.813728  0.093900  1
  Ac  Ac22  1  0.750000  0.390503  0.628045  1
  Ac  Ac23  1  0.750000  0.624156  0.360173  1
  Si  Si24  1  0.250000  0.331845  0.280400  1
  Si  Si25  1  0.250000  0.831845  0.219600  1
  Si  Si26  1  0.750000  0.168155  0.780400  1
  Si  Si27  1  0.250000  0.613337  0.761724  1
  Si  Si28  1  0.750000  0.886663  0.261724  1
  Si  Si29  1  0.750000  0.668155  0.719600  1
  Si  Si30  1  0.250000  0.113337  0.738276  1
  Si  Si31  1  0.750000  0.386663  0.238276  1
  S  S32  1  0.750000  0.027654  0.713034  1
  S  S33  1  0.007242  0.342296  0.572996  1
  S  S34  1  0.750000  0.625172  0.597359  1
  S  S35  1  0.250000  0.058211  0.956222  1
  S  S36  1  0.586390  0.971493  0.232822  1
  S  S37  1  0.507242  0.657704  0.427004  1
  S  S38  1  0.250000  0.972346  0.286966  1
  S  S39  1  0.406428  0.740238  0.250354  1
  S  S40  1  0.992758  0.157704  0.072996  1
  S  S41  1  0.492758  0.342296  0.572996  1
  S  S42  1  0.750000  0.688526  0.978540  1
  S  S43  1  0.250000  0.558211  0.543778  1
  S  S44  1  0.250000  0.472346  0.213034  1
  S  S45  1  0.093572  0.240238  0.249646  1
  S  S46  1  0.413610  0.528507  0.732822  1
  S  S47  1  0.250000  0.760591  0.701703  1
  S  S48  1  0.750000  0.239409  0.298297  1
  S  S49  1  0.750000  0.359675  0.113480  1
  S  S50  1  0.750000  0.859675  0.386520  1
  S  S51  1  0.086390  0.528507  0.732822  1
  S  S52  1  0.250000  0.640325  0.886520  1
  S  S53  1  0.750000  0.188526  0.521460  1
  S  S54  1  0.913610  0.471493  0.267178  1
  S  S55  1  0.093572  0.740238  0.250354  1
  S  S56  1  0.992758  0.657704  0.427004  1
  S  S57  1  0.750000  0.441789  0.456222  1
  S  S58  1  0.750000  0.125172  0.902641  1
  S  S59  1  0.250000  0.140325  0.613480  1
  S  S60  1  0.507242  0.157704  0.072996  1
  S  S61  1  0.250000  0.874828  0.097359  1
  S  S62  1  0.250000  0.374828  0.402641  1
  S  S63  1  0.913610  0.971493  0.232822  1
  S  S64  1  0.250000  0.811474  0.478540  1
  S  S65  1  0.007242  0.842296  0.927004  1
  S  S66  1  0.413610  0.028507  0.767178  1
  S  S67  1  0.593572  0.259762  0.749646  1
  S  S68  1  0.406428  0.240238  0.249646  1
  S  S69  1  0.593572  0.759762  0.750354  1
  S  S70  1  0.750000  0.941789  0.043778  1
  S  S71  1  0.086390  0.028507  0.767178  1
  S  S72  1  0.250000  0.260591  0.798297  1
  S  S73  1  0.906428  0.259762  0.749646  1
  S  S74  1  0.492758  0.842296  0.927004  1
  S  S75  1  0.586390  0.471493  0.267178  1
  S  S76  1  0.906428  0.759762  0.750354  1
  S  S77  1  0.750000  0.527654  0.786966  1
  S  S78  1  0.250000  0.311474  0.021460  1
  S  S79  1  0.750000  0.739409  0.201703  1
  Cl  Cl80  1  0.944900  0.895889  0.559119  1
  Cl  Cl81  1  0.555100  0.395889  0.940881  1
  Cl  Cl82  1  0.555100  0.895889  0.559119  1
  Cl  Cl83  1  0.055100  0.104111  0.440881  1
  Cl  Cl84  1  0.944900  0.395889  0.940881  1
  Cl  Cl85  1  0.444900  0.104111  0.440881  1
  Cl  Cl86  1  0.055100  0.604111  0.059119  1
  Cl  Cl87  1  0.444900  0.604111  0.059119  1
