# generated using pymatgen
data_EuTmSi4N7
_symmetry_space_group_name_H-M   'P 1'
_cell_length_a   6.02098500
_cell_length_b   6.02098565
_cell_length_c   9.80276500
_cell_angle_alpha   90.00000000
_cell_angle_beta   90.00000000
_cell_angle_gamma   119.99999096
_symmetry_Int_Tables_number   1
_chemical_formula_structural   EuTmSi4N7
_chemical_formula_sum   'Eu2 Tm2 Si8 N14'
_cell_volume   307.76157783
_cell_formula_units_Z   2
loop_
 _symmetry_equiv_pos_site_id
 _symmetry_equiv_pos_as_xyz
  1  'x, y, z'
loop_
 _atom_site_type_symbol
 _atom_site_label
 _atom_site_symmetry_multiplicity
 _atom_site_fract_x
 _atom_site_fract_y
 _atom_site_fract_z
 _atom_site_occupancy
  Eu  Eu0  1  0.666667  0.333333  0.579127  1
  Eu  Eu1  1  0.333333  0.666667  0.079127  1
  Tm  Tm2  1  0.666667  0.333333  0.950655  1
  Tm  Tm3  1  0.333333  0.666667  0.450655  1
  Si  Si4  1  0.173650  0.347298  0.760388  1
  Si  Si5  1  0.826350  0.173650  0.260388  1
  Si  Si6  1  0.347298  0.173650  0.260388  1
  Si  Si7  1  0.652702  0.826350  0.760388  1
  Si  Si8  1  0.173650  0.826350  0.760388  1
  Si  Si9  1  0.826350  0.652702  0.260388  1
  Si  Si10  1  0.000000  0.000000  0.026618  1
  Si  Si11  1  0.000000  0.000000  0.526618  1
  N  N12  1  0.000000  0.000000  0.835623  1
  N  N13  1  0.000000  0.000000  0.335623  1
  N  N14  1  0.845724  0.691447  0.086098  1
  N  N15  1  0.154276  0.845724  0.586098  1
  N  N16  1  0.691447  0.845724  0.586098  1
  N  N17  1  0.308553  0.154276  0.086098  1
  N  N18  1  0.845724  0.154276  0.086098  1
  N  N19  1  0.154276  0.308553  0.586098  1
  N  N20  1  0.489547  0.510453  0.813781  1
  N  N21  1  0.979094  0.489547  0.313781  1
  N  N22  1  0.510453  0.020906  0.313781  1
  N  N23  1  0.489547  0.979094  0.813781  1
  N  N24  1  0.510453  0.489547  0.313781  1
  N  N25  1  0.020906  0.510453  0.813781  1
