# generated using pymatgen
data_SmDyBi4(SbO7)2
_symmetry_space_group_name_H-M   'P 1'
_cell_length_a   6.53229081
_cell_length_b   6.84444473
_cell_length_c   7.69213361
_cell_angle_alpha   106.29477474
_cell_angle_beta   89.59328708
_cell_angle_gamma   99.06337682
_symmetry_Int_Tables_number   1
_chemical_formula_structural   SmDyBi4(SbO7)2
_chemical_formula_sum   'Sm1 Dy1 Bi4 Sb2 O14'
_cell_volume   325.72860468
_cell_formula_units_Z   1
loop_
 _symmetry_equiv_pos_site_id
 _symmetry_equiv_pos_as_xyz
  1  'x, y, z'
loop_
 _atom_site_type_symbol
 _atom_site_label
 _atom_site_symmetry_multiplicity
 _atom_site_fract_x
 _atom_site_fract_y
 _atom_site_fract_z
 _atom_site_occupancy
  Sm  Sm0  1  0.544505  0.997628  0.752979  1
  Dy  Dy1  1  0.456789  0.002152  0.247918  1
  Bi  Bi2  1  0.254051  0.508516  0.876565  1
  Bi  Bi3  1  0.743430  0.494835  0.122719  1
  Bi  Bi4  1  0.728129  0.464387  0.606371  1
  Bi  Bi5  1  0.269061  0.531468  0.387893  1
  Sb  Sb6  1  0.000805  0.000333  0.499676  1
  Sb  Sb7  1  0.000778  0.000368  0.001988  1
  O  O8  1  0.459402  0.656750  0.180890  1
  O  O9  1  0.541990  0.350436  0.821957  1
  O  O10  1  0.290956  0.949580  0.959392  1
  O  O11  1  0.710253  0.047470  0.048953  1
  O  O12  1  0.285077  0.923919  0.508339  1
  O  O13  1  0.716438  0.076757  0.485444  1
  O  O14  1  0.527857  0.347631  0.348372  1
  O  O15  1  0.466328  0.644845  0.646579  1
  O  O16  1  0.913813  0.691390  0.958096  1
  O  O17  1  0.087360  0.308785  0.042250  1
  O  O18  1  0.100825  0.304825  0.613233  1
  O  O19  1  0.896124  0.696069  0.388587  1
  O  O20  1  0.906815  0.952261  0.738416  1
  O  O21  1  0.099214  0.049597  0.263385  1
