# generated using pymatgen
data_Mn2AlPt5
_symmetry_space_group_name_H-M   'P 1'
_cell_length_a   4.04956800
_cell_length_b   5.48414500
_cell_length_c   10.87189300
_cell_angle_alpha   90.00000000
_cell_angle_beta   90.00000000
_cell_angle_gamma   90.00000000
_symmetry_Int_Tables_number   1
_chemical_formula_structural   Mn2AlPt5
_chemical_formula_sum   'Mn4 Al2 Pt10'
_cell_volume   241.44754528
_cell_formula_units_Z   2
loop_
 _symmetry_equiv_pos_site_id
 _symmetry_equiv_pos_as_xyz
  1  'x, y, z'
loop_
 _atom_site_type_symbol
 _atom_site_label
 _atom_site_symmetry_multiplicity
 _atom_site_fract_x
 _atom_site_fract_y
 _atom_site_fract_z
 _atom_site_occupancy
  Mn  Mn0  1  0.500000  0.189999  0.637222  1
  Mn  Mn1  1  0.500000  0.810001  0.362778  1
  Mn  Mn2  1  0.500000  0.689999  0.862778  1
  Mn  Mn3  1  0.500000  0.310001  0.137222  1
  Al  Al4  1  0.000000  0.500000  0.500000  1
  Al  Al5  1  0.000000  0.000000  0.000000  1
  Pt  Pt6  1  0.500000  0.302432  0.391460  1
  Pt  Pt7  1  0.500000  0.697568  0.608540  1
  Pt  Pt8  1  0.500000  0.802432  0.108540  1
  Pt  Pt9  1  0.500000  0.197568  0.891460  1
  Pt  Pt10  1  0.000000  0.438531  0.740543  1
  Pt  Pt11  1  0.000000  0.561469  0.259457  1
  Pt  Pt12  1  0.000000  0.938531  0.759457  1
  Pt  Pt13  1  0.000000  0.061469  0.240543  1
  Pt  Pt14  1  0.000000  0.500000  0.000000  1
  Pt  Pt15  1  0.000000  0.000000  0.500000  1
