# generated using pymatgen
data_Ho2Si7(IrRh5)2
_symmetry_space_group_name_H-M   'P 1'
_cell_length_a   9.75328467
_cell_length_b   9.75235058
_cell_length_c   3.86212621
_cell_angle_alpha   89.98184195
_cell_angle_beta   89.98069039
_cell_angle_gamma   119.93908384
_symmetry_Int_Tables_number   1
_chemical_formula_structural   Ho2Si7(IrRh5)2
_chemical_formula_sum   'Ho2 Si7 Ir2 Rh10'
_cell_volume   318.33431946
_cell_formula_units_Z   1
loop_
 _symmetry_equiv_pos_site_id
 _symmetry_equiv_pos_as_xyz
  1  'x, y, z'
loop_
 _atom_site_type_symbol
 _atom_site_label
 _atom_site_symmetry_multiplicity
 _atom_site_fract_x
 _atom_site_fract_y
 _atom_site_fract_z
 _atom_site_occupancy
  Ho  Ho0  1  0.333783  0.666791  0.749589  1
  Ho  Ho1  1  0.666766  0.332795  0.250113  1
  Si  Si2  1  0.999591  0.999606  0.498677  1
  Si  Si3  1  0.401968  0.290308  0.751714  1
  Si  Si4  1  0.710329  0.112501  0.751610  1
  Si  Si5  1  0.887424  0.598375  0.751200  1
  Si  Si6  1  0.599627  0.709868  0.248823  1
  Si  Si7  1  0.290211  0.889411  0.248678  1
  Si  Si8  1  0.111060  0.400893  0.248920  1
  Ir  Ir9  1  0.443364  0.062693  0.751500  1
  Ir  Ir10  1  0.937366  0.381191  0.751482  1
  Rh  Rh11  1  0.619104  0.556293  0.751503  1
  Rh  Rh12  1  0.555546  0.935286  0.248706  1
  Rh  Rh13  1  0.065053  0.620473  0.248679  1
  Rh  Rh14  1  0.380082  0.444541  0.248470  1
  Rh  Rh15  1  0.142996  0.260664  0.744885  1
  Rh  Rh16  1  0.737696  0.881693  0.745172  1
  Rh  Rh17  1  0.117673  0.856116  0.744891  1
  Rh  Rh18  1  0.856858  0.737936  0.254872  1
  Rh  Rh19  1  0.262141  0.119110  0.255558  1
  Rh  Rh20  1  0.881363  0.143454  0.254957  1
