# generated using pymatgen
data_Lu12Tc3Te
_symmetry_space_group_name_H-M   'P 1'
_cell_length_a   6.16919500
_cell_length_b   7.43123662
_cell_length_c   9.01584400
_cell_angle_alpha   90.00000000
_cell_angle_beta   90.00000000
_cell_angle_gamma   89.25238172
_symmetry_Int_Tables_number   1
_chemical_formula_structural   Lu12Tc3Te
_chemical_formula_sum   'Lu12 Tc3 Te1'
_cell_volume   413.29390774
_cell_formula_units_Z   1
loop_
 _symmetry_equiv_pos_site_id
 _symmetry_equiv_pos_as_xyz
  1  'x, y, z'
loop_
 _atom_site_type_symbol
 _atom_site_label
 _atom_site_symmetry_multiplicity
 _atom_site_fract_x
 _atom_site_fract_y
 _atom_site_fract_z
 _atom_site_occupancy
  Lu  Lu0  1  0.332936  0.674332  0.070636  1
  Lu  Lu1  1  0.163153  0.181311  0.433048  1
  Lu  Lu2  1  0.657778  0.298030  0.551582  1
  Lu  Lu3  1  0.862118  0.844064  0.946929  1
  Lu  Lu4  1  0.657778  0.298030  0.948418  1
  Lu  Lu5  1  0.862118  0.844064  0.553071  1
  Lu  Lu6  1  0.332936  0.674332  0.429364  1
  Lu  Lu7  1  0.163153  0.181311  0.066952  1
  Lu  Lu8  1  0.865501  0.542463  0.250000  1
  Lu  Lu9  1  0.616173  0.028964  0.250000  1
  Lu  Lu10  1  0.108530  0.449398  0.750000  1
  Lu  Lu11  1  0.364245  0.988419  0.750000  1
  Tc  Tc12  1  0.036084  0.880939  0.250000  1
  Tc  Tc13  1  0.462985  0.377536  0.250000  1
  Tc  Tc14  1  0.944321  0.119421  0.750000  1
  Te  Te15  1  0.570190  0.617385  0.750000  1
