# generated using pymatgen
data_Pr6Nd10Cd3AgIr4
_symmetry_space_group_name_H-M   'P 1'
_cell_length_a   9.97939156
_cell_length_b   9.97939120
_cell_length_c   9.97939248
_cell_angle_alpha   60.10453161
_cell_angle_beta   60.10453936
_cell_angle_gamma   60.10453125
_symmetry_Int_Tables_number   1
_chemical_formula_structural   Pr6Nd10Cd3AgIr4
_chemical_formula_sum   'Pr6 Nd10 Cd3 Ag1 Ir4'
_cell_volume   704.40855075
_cell_formula_units_Z   1
loop_
 _symmetry_equiv_pos_site_id
 _symmetry_equiv_pos_as_xyz
  1  'x, y, z'
loop_
 _atom_site_type_symbol
 _atom_site_label
 _atom_site_symmetry_multiplicity
 _atom_site_fract_x
 _atom_site_fract_y
 _atom_site_fract_z
 _atom_site_occupancy
  Pr  Pr0  1  0.937327  0.560691  0.560691  1
  Pr  Pr1  1  0.560140  0.939074  0.939074  1
  Pr  Pr2  1  0.560691  0.937327  0.560691  1
  Pr  Pr3  1  0.939074  0.560140  0.939074  1
  Pr  Pr4  1  0.560691  0.560691  0.937327  1
  Pr  Pr5  1  0.939074  0.939074  0.560140  1
  Nd  Nd6  1  0.347690  0.347690  0.347690  1
  Nd  Nd7  1  0.348679  0.348679  0.953989  1
  Nd  Nd8  1  0.348679  0.953989  0.348679  1
  Nd  Nd9  1  0.953989  0.348679  0.348679  1
  Nd  Nd10  1  0.809671  0.190261  0.190261  1
  Nd  Nd11  1  0.189805  0.809115  0.809115  1
  Nd  Nd12  1  0.190261  0.809671  0.190261  1
  Nd  Nd13  1  0.809115  0.189805  0.809115  1
  Nd  Nd14  1  0.190261  0.190261  0.809671  1
  Nd  Nd15  1  0.809115  0.809115  0.189805  1
  Cd  Cd16  1  0.579706  0.579706  0.262858  1
  Cd  Cd17  1  0.579706  0.262858  0.579706  1
  Cd  Cd18  1  0.262858  0.579706  0.579706  1
  Ag  Ag19  1  0.581494  0.581494  0.581494  1
  Ir  Ir20  1  0.141375  0.141375  0.141375  1
  Ir  Ir21  1  0.142169  0.142169  0.576260  1
  Ir  Ir22  1  0.142169  0.576260  0.142169  1
  Ir  Ir23  1  0.576260  0.142169  0.142169  1
