# generated using pymatgen
data_YbTa4MoRu4
_symmetry_space_group_name_H-M   'P 1'
_cell_length_a   3.19896400
_cell_length_b   3.19896400
_cell_length_c   16.47565000
_cell_angle_alpha   90.00000000
_cell_angle_beta   90.00000000
_cell_angle_gamma   90.00000000
_symmetry_Int_Tables_number   1
_chemical_formula_structural   YbTa4MoRu4
_chemical_formula_sum   'Yb1 Ta4 Mo1 Ru4'
_cell_volume   168.60143353
_cell_formula_units_Z   1
loop_
 _symmetry_equiv_pos_site_id
 _symmetry_equiv_pos_as_xyz
  1  'x, y, z'
loop_
 _atom_site_type_symbol
 _atom_site_label
 _atom_site_symmetry_multiplicity
 _atom_site_fract_x
 _atom_site_fract_y
 _atom_site_fract_z
 _atom_site_occupancy
  Yb  Yb0  1  0.000000  0.000000  0.500000  1
  Ta  Ta1  1  0.000000  0.000000  0.903077  1
  Ta  Ta2  1  0.000000  0.000000  0.096923  1
  Ta  Ta3  1  0.000000  0.000000  0.295748  1
  Ta  Ta4  1  0.000000  0.000000  0.704252  1
  Mo  Mo5  1  0.500000  0.500000  0.000000  1
  Ru  Ru6  1  0.500000  0.500000  0.194480  1
  Ru  Ru7  1  0.500000  0.500000  0.379163  1
  Ru  Ru8  1  0.500000  0.500000  0.620837  1
  Ru  Ru9  1  0.500000  0.500000  0.805520  1
