# generated using pymatgen
data_Yb8PrLuIr4
_symmetry_space_group_name_H-M   'P 1'
_cell_length_a   8.51753005
_cell_length_b   8.51752943
_cell_length_c   7.39428640
_cell_angle_alpha   82.92225957
_cell_angle_beta   82.92226080
_cell_angle_gamma   45.05020816
_symmetry_Int_Tables_number   1
_chemical_formula_structural   Yb8PrLuIr4
_chemical_formula_sum   'Yb8 Pr1 Lu1 Ir4'
_cell_volume   376.26188985
_cell_formula_units_Z   1
loop_
 _symmetry_equiv_pos_site_id
 _symmetry_equiv_pos_as_xyz
  1  'x, y, z'
loop_
 _atom_site_type_symbol
 _atom_site_label
 _atom_site_symmetry_multiplicity
 _atom_site_fract_x
 _atom_site_fract_y
 _atom_site_fract_z
 _atom_site_occupancy
  Yb  Yb0  1  0.359896  0.204398  0.320187  1
  Yb  Yb1  1  0.198191  0.974657  0.082540  1
  Yb  Yb2  1  0.799530  0.028193  0.924258  1
  Yb  Yb3  1  0.971807  0.200470  0.575742  1
  Yb  Yb4  1  0.643497  0.796989  0.677346  1
  Yb  Yb5  1  0.203011  0.356503  0.822654  1
  Yb  Yb6  1  0.795602  0.640104  0.179813  1
  Yb  Yb7  1  0.025343  0.801809  0.417460  1
  Pr  Pr8  1  0.428815  0.571185  0.750000  1
  Lu  Lu9  1  0.563623  0.436377  0.250000  1
  Ir  Ir10  1  0.401493  0.813358  0.417536  1
  Ir  Ir11  1  0.186642  0.598507  0.082464  1
  Ir  Ir12  1  0.816698  0.394148  0.930254  1
  Ir  Ir13  1  0.605852  0.183302  0.569746  1
