# generated using pymatgen
data_Li2Pr3Nd3(Co4P3)4
_symmetry_space_group_name_H-M   'P 1'
_cell_length_a   3.79518200
_cell_length_b   10.72255438
_cell_length_c   12.43916544
_cell_angle_alpha   89.96968267
_cell_angle_beta   90.00000000
_cell_angle_gamma   90.00000000
_symmetry_Int_Tables_number   1
_chemical_formula_structural   Li2Pr3Nd3(Co4P3)4
_chemical_formula_sum   'Li2 Pr3 Nd3 Co16 P12'
_cell_volume   506.19989159
_cell_formula_units_Z   1
loop_
 _symmetry_equiv_pos_site_id
 _symmetry_equiv_pos_as_xyz
  1  'x, y, z'
loop_
 _atom_site_type_symbol
 _atom_site_label
 _atom_site_symmetry_multiplicity
 _atom_site_fract_x
 _atom_site_fract_y
 _atom_site_fract_z
 _atom_site_occupancy
  Li  Li0  1  0.500000  0.500021  0.150412  1
  Li  Li1  1  0.000000  0.999893  0.849633  1
  Pr  Pr2  1  0.000000  0.500084  0.522928  1
  Pr  Pr3  1  0.500000  0.999966  0.476909  1
  Pr  Pr4  1  0.000000  0.318611  0.793551  1
  Nd  Nd5  1  0.500000  0.818454  0.206344  1
  Nd  Nd6  1  0.500000  0.181443  0.206280  1
  Nd  Nd7  1  0.000000  0.681720  0.793729  1
  Co  Co8  1  0.500000  0.500751  0.706367  1
  Co  Co9  1  0.000000  0.999951  0.293450  1
  Co  Co10  1  0.000000  0.500295  0.987958  1
  Co  Co11  1  0.500000  0.999700  0.012561  1
  Co  Co12  1  0.500000  0.333054  0.997626  1
  Co  Co13  1  0.500000  0.667205  0.997445  1
  Co  Co14  1  0.000000  0.166744  0.003035  1
  Co  Co15  1  0.000000  0.833037  0.002752  1
  Co  Co16  1  0.500000  0.297046  0.430358  1
  Co  Co17  1  0.500000  0.703008  0.430633  1
  Co  Co18  1  0.000000  0.202719  0.568909  1
  Co  Co19  1  0.000000  0.797059  0.569329  1
  Co  Co20  1  0.500000  0.880620  0.706782  1
  Co  Co21  1  0.500000  0.118819  0.706319  1
  Co  Co22  1  0.000000  0.619288  0.293251  1
  Co  Co23  1  0.000000  0.380717  0.293181  1
  P  P24  1  0.500000  0.500613  0.888578  1
  P  P25  1  0.000000  0.999863  0.111980  1
  P  P26  1  0.500000  0.500016  0.341328  1
  P  P27  1  0.000000  0.999939  0.658592  1
  P  P28  1  0.500000  0.303556  0.613072  1
  P  P29  1  0.500000  0.696221  0.613904  1
  P  P30  1  0.000000  0.196092  0.385906  1
  P  P31  1  0.000000  0.803806  0.386079  1
  P  P32  1  0.500000  0.844717  0.897085  1
  P  P33  1  0.500000  0.154844  0.897702  1
  P  P34  1  0.000000  0.655447  0.103057  1
  P  P35  1  0.000000  0.344682  0.102975  1
