# generated using pymatgen
data_Nd4DyLu5Pb6
_symmetry_space_group_name_H-M   'P 1'
_cell_length_a   6.64186001
_cell_length_b   9.09456250
_cell_length_c   9.15650059
_cell_angle_alpha   120.22722912
_cell_angle_beta   89.99546013
_cell_angle_gamma   90.00070561
_symmetry_Int_Tables_number   1
_chemical_formula_structural   Nd4DyLu5Pb6
_chemical_formula_sum   'Nd4 Dy1 Lu5 Pb6'
_cell_volume   477.89525394
_cell_formula_units_Z   1
loop_
 _symmetry_equiv_pos_site_id
 _symmetry_equiv_pos_as_xyz
  1  'x, y, z'
loop_
 _atom_site_type_symbol
 _atom_site_label
 _atom_site_symmetry_multiplicity
 _atom_site_fract_x
 _atom_site_fract_y
 _atom_site_fract_z
 _atom_site_occupancy
  Nd  Nd0  1  0.750090  0.235265  0.997549  1
  Nd  Nd1  1  0.749969  0.764774  0.762316  1
  Nd  Nd2  1  0.250001  0.764199  0.001589  1
  Nd  Nd3  1  0.249980  0.235811  0.237238  1
  Dy  Dy4  1  0.750070  0.999987  0.243987  1
  Lu  Lu5  1  0.250112  0.999951  0.757825  1
  Lu  Lu6  1  0.499969  0.334656  0.667333  1
  Lu  Lu7  1  0.499900  0.665447  0.332495  1
  Lu  Lu8  1  0.000238  0.665507  0.332678  1
  Lu  Lu9  1  0.000136  0.334558  0.667137  1
  Pb  Pb10  1  0.750486  0.604835  0.002722  1
  Pb  Pb11  1  0.749191  0.395283  0.398113  1
  Pb  Pb12  1  0.750295  0.999755  0.596170  1
  Pb  Pb13  1  0.249364  0.393136  0.995677  1
  Pb  Pb14  1  0.250230  0.606882  0.602724  1
  Pb  Pb15  1  0.249965  0.999955  0.404447  1
