# generated using pymatgen
data_LaY2NbO7
_symmetry_space_group_name_H-M   'P 1'
_cell_length_a   6.54605155
_cell_length_b   6.54605066
_cell_length_c   7.67243900
_cell_angle_alpha   90.00000000
_cell_angle_beta   90.00000000
_cell_angle_gamma   109.14292692
_symmetry_Int_Tables_number   1
_chemical_formula_structural   LaY2NbO7
_chemical_formula_sum   'La2 Y4 Nb2 O14'
_cell_volume   310.59019893
_cell_formula_units_Z   2
loop_
 _symmetry_equiv_pos_site_id
 _symmetry_equiv_pos_as_xyz
  1  'x, y, z'
loop_
 _atom_site_type_symbol
 _atom_site_label
 _atom_site_symmetry_multiplicity
 _atom_site_fract_x
 _atom_site_fract_y
 _atom_site_fract_z
 _atom_site_occupancy
  La  La0  1  0.500000  0.500000  0.500000  1
  La  La1  1  0.500000  0.500000  0.000000  1
  Y  Y2  1  0.533657  0.000893  0.750000  1
  Y  Y3  1  0.000893  0.533657  0.250000  1
  Y  Y4  1  0.466343  0.999107  0.250000  1
  Y  Y5  1  0.999107  0.466343  0.750000  1
  Nb  Nb6  1  0.000000  0.000000  0.500000  1
  Nb  Nb7  1  0.000000  0.000000  0.000000  1
  O  O8  1  0.679774  0.932116  0.467848  1
  O  O9  1  0.932116  0.679774  0.532152  1
  O  O10  1  0.679774  0.932116  0.032152  1
  O  O11  1  0.932116  0.679774  0.967848  1
  O  O12  1  0.320226  0.067884  0.532152  1
  O  O13  1  0.067884  0.320226  0.467848  1
  O  O14  1  0.320226  0.067884  0.967848  1
  O  O15  1  0.067884  0.320226  0.032152  1
  O  O16  1  0.935055  0.064945  0.750000  1
  O  O17  1  0.064945  0.935055  0.250000  1
  O  O18  1  0.363104  0.636895  0.750000  1
  O  O19  1  0.636895  0.363104  0.250000  1
  O  O20  1  0.643388  0.356612  0.750000  1
  O  O21  1  0.356612  0.643388  0.250000  1
