# generated using pymatgen
data_La3Lu2Tl3Br
_symmetry_space_group_name_H-M   'P 1'
_cell_length_a   9.55193717
_cell_length_b   9.55193770
_cell_length_c   6.80705800
_cell_angle_alpha   90.00000000
_cell_angle_beta   90.00000000
_cell_angle_gamma   119.95530604
_symmetry_Int_Tables_number   1
_chemical_formula_structural   La3Lu2Tl3Br
_chemical_formula_sum   'La6 Lu4 Tl6 Br2'
_cell_volume   538.10674575
_cell_formula_units_Z   2
loop_
 _symmetry_equiv_pos_site_id
 _symmetry_equiv_pos_as_xyz
  1  'x, y, z'
loop_
 _atom_site_type_symbol
 _atom_site_label
 _atom_site_symmetry_multiplicity
 _atom_site_fract_x
 _atom_site_fract_y
 _atom_site_fract_z
 _atom_site_occupancy
  La  La0  1  0.729239  0.729239  0.250000  1
  La  La1  1  0.999768  0.729205  0.750000  1
  La  La2  1  0.729205  0.999768  0.750000  1
  La  La3  1  0.270761  0.270761  0.750000  1
  La  La4  1  0.000232  0.270795  0.250000  1
  La  La5  1  0.270795  0.000232  0.250000  1
  Lu  Lu6  1  0.333859  0.666141  0.500000  1
  Lu  Lu7  1  0.666141  0.333859  0.500000  1
  Lu  Lu8  1  0.333859  0.666141  0.000000  1
  Lu  Lu9  1  0.666141  0.333859  0.000000  1
  Tl  Tl10  1  0.391860  0.999848  0.750000  1
  Tl  Tl11  1  0.000152  0.608140  0.250000  1
  Tl  Tl12  1  0.608140  0.000152  0.250000  1
  Tl  Tl13  1  0.999848  0.391860  0.750000  1
  Tl  Tl14  1  0.392206  0.392206  0.250000  1
  Tl  Tl15  1  0.607794  0.607794  0.750000  1
  Br  Br16  1  0.000000  0.000000  0.500000  1
  Br  Br17  1  0.000000  0.000000  0.000000  1
