# generated using pymatgen
data_MnCd3P7N12
_symmetry_space_group_name_H-M   'P 1'
_cell_length_a   7.28166516
_cell_length_b   7.36309720
_cell_length_c   7.36309721
_cell_angle_alpha   109.69416099
_cell_angle_beta   109.24734095
_cell_angle_gamma   109.24735224
_symmetry_Int_Tables_number   1
_chemical_formula_structural   MnCd3P7N12
_chemical_formula_sum   'Mn1 Cd3 P7 N12'
_cell_volume   304.73501504
_cell_formula_units_Z   1
loop_
 _symmetry_equiv_pos_site_id
 _symmetry_equiv_pos_as_xyz
  1  'x, y, z'
loop_
 _atom_site_type_symbol
 _atom_site_label
 _atom_site_symmetry_multiplicity
 _atom_site_fract_x
 _atom_site_fract_y
 _atom_site_fract_z
 _atom_site_occupancy
  Mn  Mn0  1  0.630976  0.000000  0.000000  1
  Cd  Cd1  1  0.997133  0.000000  0.683180  1
  Cd  Cd2  1  0.997133  0.683180  0.000000  1
  Cd  Cd3  1  0.313954  0.316820  0.316820  1
  P  P4  1  0.255962  0.748966  0.500465  1
  P  P5  1  0.755497  0.248501  0.499535  1
  P  P6  1  0.755497  0.499535  0.248501  1
  P  P7  1  0.255962  0.500465  0.748966  1
  P  P8  1  0.506996  0.751499  0.251034  1
  P  P9  1  0.506996  0.251034  0.751499  1
  P  P10  1  0.951359  0.000000  0.000000  1
  N  N11  1  0.714044  0.275446  0.275446  1
  N  N12  1  0.288792  0.716842  0.284205  1
  N  N13  1  0.301291  0.576621  0.576621  1
  N  N14  1  0.571951  0.567363  0.283158  1
  N  N15  1  0.438599  0.724554  0.000000  1
  N  N16  1  0.004587  0.715795  0.432637  1
  N  N17  1  0.571951  0.283158  0.567363  1
  N  N18  1  0.724670  0.000000  0.423379  1
  N  N19  1  0.438599  0.000000  0.724554  1
  N  N20  1  0.724670  0.423379  0.000000  1
  N  N21  1  0.288792  0.284205  0.716842  1
  N  N22  1  0.004587  0.432637  0.715795  1
