# generated using pymatgen
data_Yb2Hf(AsPd)3
_symmetry_space_group_name_H-M   'P 1'
_cell_length_a   7.00377299
_cell_length_b   7.00377262
_cell_length_c   3.92402300
_cell_angle_alpha   90.00000000
_cell_angle_beta   90.00000000
_cell_angle_gamma   119.49508758
_symmetry_Int_Tables_number   1
_chemical_formula_structural   Yb2Hf(AsPd)3
_chemical_formula_sum   'Yb2 Hf1 As3 Pd3'
_cell_volume   167.53806059
_cell_formula_units_Z   1
loop_
 _symmetry_equiv_pos_site_id
 _symmetry_equiv_pos_as_xyz
  1  'x, y, z'
loop_
 _atom_site_type_symbol
 _atom_site_label
 _atom_site_symmetry_multiplicity
 _atom_site_fract_x
 _atom_site_fract_y
 _atom_site_fract_z
 _atom_site_occupancy
  Yb  Yb0  1  0.588965  0.994412  0.000000  1
  Yb  Yb1  1  0.994412  0.588965  0.000000  1
  Hf  Hf2  1  0.406985  0.406985  0.000000  1
  As  As3  1  0.337493  0.643989  0.500000  1
  As  As4  1  0.643989  0.337493  0.500000  1
  As  As5  1  0.026632  0.026632  0.000000  1
  Pd  Pd6  1  0.254426  0.984764  0.500000  1
  Pd  Pd7  1  0.984764  0.254426  0.500000  1
  Pd  Pd8  1  0.762335  0.762335  0.500000  1
