# generated using pymatgen
data_Eu3Dy(AuO3)4
_symmetry_space_group_name_H-M   'P 1'
_cell_length_a   3.85401500
_cell_length_b   12.92885446
_cell_length_c   5.59843500
_cell_angle_alpha   90.00000000
_cell_angle_beta   90.00000000
_cell_angle_gamma   89.98464443
_symmetry_Int_Tables_number   1
_chemical_formula_structural   Eu3Dy(AuO3)4
_chemical_formula_sum   'Eu3 Dy1 Au4 O12'
_cell_volume   278.95880378
_cell_formula_units_Z   1
loop_
 _symmetry_equiv_pos_site_id
 _symmetry_equiv_pos_as_xyz
  1  'x, y, z'
loop_
 _atom_site_type_symbol
 _atom_site_label
 _atom_site_symmetry_multiplicity
 _atom_site_fract_x
 _atom_site_fract_y
 _atom_site_fract_z
 _atom_site_occupancy
  Eu  Eu0  1  0.759627  0.077421  0.249999  1
  Eu  Eu1  1  0.238670  0.582391  0.249999  1
  Eu  Eu2  1  0.759473  0.419128  0.750000  1
  Dy  Dy3  1  0.238648  0.921585  0.750000  1
  Au  Au4  1  0.441137  0.329696  0.249999  1
  Au  Au5  1  0.560332  0.831715  0.249999  1
  Au  Au6  1  0.441539  0.168254  0.750000  1
  Au  Au7  1  0.559046  0.671877  0.750000  1
  O  O8  1  0.705739  0.249043  0.999999  1
  O  O9  1  0.293757  0.754877  0.995046  1
  O  O10  1  0.245442  0.072108  0.994784  1
  O  O11  1  0.751338  0.577218  0.999684  1
  O  O12  1  0.245442  0.072108  0.505217  1
  O  O13  1  0.751338  0.577218  0.500317  1
  O  O14  1  0.705739  0.249043  0.500001  1
  O  O15  1  0.293757  0.754877  0.504954  1
  O  O16  1  0.247115  0.423820  0.499097  1
  O  O17  1  0.757370  0.921899  0.506405  1
  O  O18  1  0.247115  0.423820  0.000902  1
  O  O19  1  0.757370  0.921899  0.993594  1
