# generated using pymatgen
data_RbTb2Ag3S5
_symmetry_space_group_name_H-M   'P 1'
_cell_length_a   7.77878600
_cell_length_b   7.77878594
_cell_length_c   16.83904300
_cell_angle_alpha   90.00000000
_cell_angle_beta   90.00000000
_cell_angle_gamma   31.08915175
_symmetry_Int_Tables_number   1
_chemical_formula_structural   RbTb2Ag3S5
_chemical_formula_sum   'Rb2 Tb4 Ag6 S10'
_cell_volume   526.14210636
_cell_formula_units_Z   2
loop_
 _symmetry_equiv_pos_site_id
 _symmetry_equiv_pos_as_xyz
  1  'x, y, z'
loop_
 _atom_site_type_symbol
 _atom_site_label
 _atom_site_symmetry_multiplicity
 _atom_site_fract_x
 _atom_site_fract_y
 _atom_site_fract_z
 _atom_site_occupancy
  Rb  Rb0  1  0.431269  0.431269  0.250000  1
  Rb  Rb1  1  0.568731  0.568731  0.750000  1
  Tb  Tb2  1  0.307477  0.307477  0.595742  1
  Tb  Tb3  1  0.692523  0.692523  0.095741  1
  Tb  Tb4  1  0.692523  0.692523  0.404258  1
  Tb  Tb5  1  0.307477  0.307477  0.904258  1
  Ag  Ag6  1  0.083394  0.083394  0.545840  1
  Ag  Ag7  1  0.916605  0.916605  0.045840  1
  Ag  Ag8  1  0.916605  0.916605  0.454160  1
  Ag  Ag9  1  0.083394  0.083394  0.954159  1
  Ag  Ag10  1  0.155622  0.155622  0.250000  1
  Ag  Ag11  1  0.844378  0.844378  0.750000  1
  S  S12  1  0.317046  0.317046  0.068733  1
  S  S13  1  0.682954  0.682954  0.568733  1
  S  S14  1  0.682954  0.682954  0.931267  1
  S  S15  1  0.317046  0.317046  0.431267  1
  S  S16  1  0.753440  0.753440  0.250000  1
  S  S17  1  0.246560  0.246560  0.750000  1
  S  S18  1  0.070042  0.070042  0.116244  1
  S  S19  1  0.929958  0.929958  0.616243  1
  S  S20  1  0.929958  0.929958  0.883757  1
  S  S21  1  0.070042  0.070042  0.383757  1
