# generated using pymatgen
data_SrTbSm5CoI12
_symmetry_space_group_name_H-M   'P 1'
_cell_length_a   9.93570383
_cell_length_b   9.83289702
_cell_length_c   9.94272811
_cell_angle_alpha   106.19082177
_cell_angle_beta   106.26467715
_cell_angle_gamma   106.49982606
_symmetry_Int_Tables_number   1
_chemical_formula_structural   SrTbSm5CoI12
_chemical_formula_sum   'Sr1 Tb1 Sm5 Co1 I12'
_cell_volume   823.54074289
_cell_formula_units_Z   1
loop_
 _symmetry_equiv_pos_site_id
 _symmetry_equiv_pos_as_xyz
  1  'x, y, z'
loop_
 _atom_site_type_symbol
 _atom_site_label
 _atom_site_symmetry_multiplicity
 _atom_site_fract_x
 _atom_site_fract_y
 _atom_site_fract_z
 _atom_site_occupancy
  Sr  Sr0  1  0.499842  0.500127  0.499999  1
  Tb  Tb1  1  0.707179  0.980154  0.906461  1
  Sm  Sm2  1  0.020039  0.094617  0.296477  1
  Sm  Sm3  1  0.089296  0.282530  0.019147  1
  Sm  Sm4  1  0.297249  0.019753  0.094560  1
  Sm  Sm5  1  0.979635  0.905405  0.703372  1
  Sm  Sm6  1  0.909269  0.717303  0.980461  1
  Co  Co7  1  0.999808  0.999771  0.999862  1
  I  I8  1  0.139212  0.451749  0.369381  1
  I  I9  1  0.449603  0.370753  0.138306  1
  I  I10  1  0.369410  0.137617  0.450797  1
  I  I11  1  0.860525  0.548176  0.630652  1
  I  I12  1  0.550588  0.633097  0.862015  1
  I  I13  1  0.630417  0.864243  0.553281  1
  I  I14  1  0.676902  0.072416  0.220440  1
  I  I15  1  0.074009  0.226205  0.678415  1
  I  I16  1  0.222403  0.676652  0.072667  1
  I  I17  1  0.324230  0.926800  0.775830  1
  I  I18  1  0.925730  0.773759  0.321572  1
  I  I19  1  0.774654  0.318874  0.926304  1
