# generated using pymatgen
data_Ca2Yb5Lu(Si4Mo3)4
_symmetry_space_group_name_H-M   'P 1'
_cell_length_a   6.72019021
_cell_length_b   6.92529249
_cell_length_c   13.03131942
_cell_angle_alpha   89.89376241
_cell_angle_beta   90.03789741
_cell_angle_gamma   89.91166549
_symmetry_Int_Tables_number   1
_chemical_formula_structural   Ca2Yb5Lu(Si4Mo3)4
_chemical_formula_sum   'Ca2 Yb5 Lu1 Si16 Mo12'
_cell_volume   606.46636211
_cell_formula_units_Z   1
loop_
 _symmetry_equiv_pos_site_id
 _symmetry_equiv_pos_as_xyz
  1  'x, y, z'
loop_
 _atom_site_type_symbol
 _atom_site_label
 _atom_site_symmetry_multiplicity
 _atom_site_fract_x
 _atom_site_fract_y
 _atom_site_fract_z
 _atom_site_occupancy
  Ca  Ca0  1  0.001488  0.832061  0.591383  1
  Ca  Ca1  1  0.498437  0.333240  0.408754  1
  Yb  Yb2  1  0.498394  0.334219  0.090313  1
  Yb  Yb3  1  0.998395  0.166701  0.408730  1
  Yb  Yb4  1  0.501350  0.666594  0.591465  1
  Yb  Yb5  1  0.001005  0.831135  0.907989  1
  Yb  Yb6  1  0.500909  0.667270  0.909243  1
  Lu  Lu7  1  0.998889  0.170737  0.094102  1
  Si  Si8  1  0.657987  0.042934  0.545686  1
  Si  Si9  1  0.158406  0.456658  0.955272  1
  Si  Si10  1  0.339285  0.958580  0.045501  1
  Si  Si11  1  0.841913  0.543303  0.454148  1
  Si  Si12  1  0.342217  0.956287  0.454381  1
  Si  Si13  1  0.841785  0.542332  0.045286  1
  Si  Si14  1  0.660219  0.042174  0.955289  1
  Si  Si15  1  0.158171  0.456490  0.545471  1
  Si  Si16  1  0.535166  0.373335  0.750655  1
  Si  Si17  1  0.035270  0.125650  0.749885  1
  Si  Si18  1  0.464798  0.629321  0.248866  1
  Si  Si19  1  0.965027  0.873113  0.249402  1
  Si  Si20  1  0.800147  0.629738  0.750535  1
  Si  Si21  1  0.301548  0.868594  0.750424  1
  Si  Si22  1  0.198994  0.369076  0.249991  1
  Si  Si23  1  0.697858  0.131966  0.249647  1
  Mo  Mo24  1  0.834858  0.330895  0.628034  1
  Mo  Mo25  1  0.333609  0.168207  0.873301  1
  Mo  Mo26  1  0.165664  0.668347  0.126415  1
  Mo  Mo27  1  0.666044  0.831564  0.371589  1
  Mo  Mo28  1  0.165053  0.669123  0.371225  1
  Mo  Mo29  1  0.667992  0.833808  0.126391  1
  Mo  Mo30  1  0.836085  0.329016  0.873832  1
  Mo  Mo31  1  0.335492  0.168644  0.628058  1
  Mo  Mo32  1  0.661234  0.008781  0.750716  1
  Mo  Mo33  1  0.161551  0.490030  0.750759  1
  Mo  Mo34  1  0.336647  0.993045  0.248694  1
  Mo  Mo35  1  0.838114  0.507036  0.248569  1
