# generated using pymatgen
data_Tb2Al3Cu2Si2Ni
_symmetry_space_group_name_H-M   'P 1'
_cell_length_a   8.17995140
_cell_length_b   8.18294087
_cell_length_c   8.18071893
_cell_angle_alpha   138.84967482
_cell_angle_beta   102.22202445
_cell_angle_gamma   92.03150241
_symmetry_Int_Tables_number   1
_chemical_formula_structural   Tb2Al3Cu2Si2Ni
_chemical_formula_sum   'Tb4 Al6 Cu4 Si4 Ni2'
_cell_volume   335.61075487
_cell_formula_units_Z   2
loop_
 _symmetry_equiv_pos_site_id
 _symmetry_equiv_pos_as_xyz
  1  'x, y, z'
loop_
 _atom_site_type_symbol
 _atom_site_label
 _atom_site_symmetry_multiplicity
 _atom_site_fract_x
 _atom_site_fract_y
 _atom_site_fract_z
 _atom_site_occupancy
  Tb  Tb0  1  0.623923  0.870285  0.750254  1
  Tb  Tb1  1  0.379272  0.126075  0.249379  1
  Tb  Tb2  1  0.879175  0.630594  0.251706  1
  Tb  Tb3  1  0.121262  0.374481  0.751041  1
  Al  Al4  1  0.001565  0.244883  0.249867  1
  Al  Al5  1  0.001273  0.751363  0.756268  1
  Al  Al6  1  0.254591  0.505790  0.250561  1
  Al  Al7  1  0.750252  0.994662  0.249327  1
  Al  Al8  1  0.748659  0.499443  0.755372  1
  Al  Al9  1  0.256332  0.005539  0.748224  1
  Cu  Cu10  1  0.993292  0.127867  0.864724  1
  Cu  Cu11  1  0.497245  0.751816  0.251909  1
  Cu  Cu12  1  0.264046  0.629108  0.635463  1
  Cu  Cu13  1  0.737223  0.372364  0.364943  1
  Si  Si14  1  0.471521  0.605657  0.853989  1
  Si  Si15  1  0.751370  0.117158  0.645920  1
  Si  Si16  1  0.238225  0.892717  0.357453  1
  Si  Si17  1  0.528887  0.382378  0.134578  1
  Ni  Ni18  1  0.004063  0.871299  0.132287  1
  Ni  Ni19  1  0.497822  0.246521  0.746736  1
