# generated using pymatgen
data_TaTcMoS6
_symmetry_space_group_name_H-M   'P 1'
_cell_length_a   5.56592296
_cell_length_b   5.56585658
_cell_length_c   7.06286100
_cell_angle_alpha   82.45539459
_cell_angle_beta   82.47346567
_cell_angle_gamma   119.99785196
_symmetry_Int_Tables_number   1
_chemical_formula_structural   TaTcMoS6
_chemical_formula_sum   'Ta1 Tc1 Mo1 S6'
_cell_volume   182.85807724
_cell_formula_units_Z   1
loop_
 _symmetry_equiv_pos_site_id
 _symmetry_equiv_pos_as_xyz
  1  'x, y, z'
loop_
 _atom_site_type_symbol
 _atom_site_label
 _atom_site_symmetry_multiplicity
 _atom_site_fract_x
 _atom_site_fract_y
 _atom_site_fract_z
 _atom_site_occupancy
  Ta  Ta0  1  0.499912  0.833217  0.500007  1
  Tc  Tc1  1  0.833378  0.499973  0.499983  1
  Mo  Mo2  1  0.166759  0.166704  0.499921  1
  S  S3  1  0.578706  0.251152  0.270913  1
  S  S4  1  0.234698  0.570604  0.270835  1
  S  S5  1  0.915271  0.907182  0.270803  1
  S  S6  1  0.762761  0.754587  0.729267  1
  S  S7  1  0.426224  0.098559  0.729332  1
  S  S8  1  0.082193  0.417926  0.729237  1
