# generated using pymatgen
data_Ni3Ag4IrO8
_symmetry_space_group_name_H-M   'P 1'
_cell_length_a   5.30372872
_cell_length_b   6.15957792
_cell_length_c   7.21022224
_cell_angle_alpha   64.30806106
_cell_angle_beta   104.32388702
_cell_angle_gamma   90.00052560
_symmetry_Int_Tables_number   1
_chemical_formula_structural   Ni3Ag4IrO8
_chemical_formula_sum   'Ni3 Ag4 Ir1 O8'
_cell_volume   204.10592485
_cell_formula_units_Z   1
loop_
 _symmetry_equiv_pos_site_id
 _symmetry_equiv_pos_as_xyz
  1  'x, y, z'
loop_
 _atom_site_type_symbol
 _atom_site_label
 _atom_site_symmetry_multiplicity
 _atom_site_fract_x
 _atom_site_fract_y
 _atom_site_fract_z
 _atom_site_occupancy
  Ni  Ni0  1  0.000126  0.006602  0.499886  1
  Ni  Ni1  1  0.500280  0.250031  0.500020  1
  Ni  Ni2  1  0.999786  0.493604  0.499812  1
  Ag  Ag3  1  0.996246  0.001705  0.995600  1
  Ag  Ag4  1  0.500673  0.249714  0.000221  1
  Ag  Ag5  1  0.003927  0.498184  0.004228  1
  Ag  Ag6  1  0.499583  0.750339  0.999999  1
  Ir  Ir7  1  0.499705  0.749811  0.500274  1
  O  O8  1  0.878049  0.666360  0.664008  1
  O  O9  1  0.397099  0.904154  0.664516  1
  O  O10  1  0.881362  0.167707  0.661875  1
  O  O11  1  0.396502  0.428903  0.664866  1
  O  O12  1  0.121254  0.833356  0.336068  1
  O  O13  1  0.603427  0.070765  0.335452  1
  O  O14  1  0.119420  0.332642  0.337726  1
  O  O15  1  0.602566  0.596125  0.335448  1
