# generated using pymatgen
data_Tl3Cr2(PS4)3
_symmetry_space_group_name_H-M   'P 1'
_cell_length_a   9.96637069
_cell_length_b   12.61544000
_cell_length_c   18.00223800
_cell_angle_alpha   90.00000000
_cell_angle_beta   96.76887105
_cell_angle_gamma   90.00000000
_symmetry_Int_Tables_number   1
_chemical_formula_structural   Tl3Cr2(PS4)3
_chemical_formula_sum   'Tl12 Cr8 P12 S48'
_cell_volume   2247.64734335
_cell_formula_units_Z   4
loop_
 _symmetry_equiv_pos_site_id
 _symmetry_equiv_pos_as_xyz
  1  'x, y, z'
loop_
 _atom_site_type_symbol
 _atom_site_label
 _atom_site_symmetry_multiplicity
 _atom_site_fract_x
 _atom_site_fract_y
 _atom_site_fract_z
 _atom_site_occupancy
  Tl  Tl0  1  0.982421  0.134739  0.790366  1
  Tl  Tl1  1  0.061550  0.582302  0.377118  1
  Tl  Tl2  1  0.228443  0.437245  0.952493  1
  Tl  Tl3  1  0.561550  0.917698  0.877118  1
  Tl  Tl4  1  0.938450  0.417698  0.622882  1
  Tl  Tl5  1  0.771557  0.562755  0.047507  1
  Tl  Tl6  1  0.482421  0.365261  0.290366  1
  Tl  Tl7  1  0.517579  0.634739  0.709634  1
  Tl  Tl8  1  0.438450  0.082302  0.122882  1
  Tl  Tl9  1  0.271557  0.937245  0.547507  1
  Tl  Tl10  1  0.017579  0.865261  0.209634  1
  Tl  Tl11  1  0.728443  0.062755  0.452493  1
  Cr  Cr12  1  0.946542  0.770710  0.709734  1
  Cr  Cr13  1  0.053458  0.229290  0.290266  1
  Cr  Cr14  1  0.553458  0.270710  0.790266  1
  Cr  Cr15  1  0.121050  0.780143  0.897943  1
  Cr  Cr16  1  0.446542  0.729290  0.209734  1
  Cr  Cr17  1  0.621050  0.719857  0.397943  1
  Cr  Cr18  1  0.378950  0.280143  0.602057  1
  Cr  Cr19  1  0.878950  0.219857  0.102057  1
  P  P20  1  0.732575  0.629932  0.254590  1
  P  P21  1  0.232575  0.870068  0.754590  1
  P  P22  1  0.329267  0.817385  0.352801  1
  P  P23  1  0.670733  0.182615  0.647199  1
  P  P24  1  0.767425  0.129932  0.245410  1
  P  P25  1  0.206539  0.258938  0.447818  1
  P  P26  1  0.793461  0.741062  0.552182  1
  P  P27  1  0.706539  0.241062  0.947818  1
  P  P28  1  0.267425  0.370068  0.745410  1
  P  P29  1  0.829267  0.682615  0.852801  1
  P  P30  1  0.293461  0.758938  0.052182  1
  P  P31  1  0.170733  0.317385  0.147199  1
  S  S32  1  0.926821  0.072251  0.317043  1
  S  S33  1  0.014935  0.368232  0.070492  1
  S  S34  1  0.749780  0.341377  0.864173  1
  S  S35  1  0.073179  0.927749  0.682957  1
  S  S36  1  0.573179  0.572251  0.182957  1
  S  S37  1  0.764163  0.064090  0.140463  1
  S  S38  1  0.975242  0.676926  0.596690  1
  S  S39  1  0.664783  0.785354  0.274045  1
  S  S40  1  0.854191  0.172496  0.613449  1
  S  S41  1  0.249780  0.158623  0.364173  1
  S  S42  1  0.264163  0.435910  0.640463  1
  S  S43  1  0.354191  0.327504  0.113449  1
  S  S44  1  0.860566  0.136413  0.979597  1
  S  S45  1  0.139434  0.863587  0.020403  1
  S  S46  1  0.250220  0.658623  0.135827  1
  S  S47  1  0.835217  0.285354  0.225955  1
  S  S48  1  0.163256  0.385055  0.250736  1
  S  S49  1  0.524758  0.176926  0.903310  1
  S  S50  1  0.645809  0.672496  0.886551  1
  S  S51  1  0.024758  0.323074  0.403310  1
  S  S52  1  0.601716  0.338278  0.666861  1
  S  S53  1  0.101716  0.161722  0.166861  1
  S  S54  1  0.145809  0.827504  0.386551  1
  S  S55  1  0.898284  0.838278  0.833139  1
  S  S56  1  0.985065  0.631768  0.929508  1
  S  S57  1  0.235837  0.935910  0.859537  1
  S  S58  1  0.836744  0.614945  0.749264  1
  S  S59  1  0.182179  0.187748  0.548348  1
  S  S60  1  0.663256  0.114945  0.750736  1
  S  S61  1  0.588524  0.121388  0.285825  1
  S  S62  1  0.735837  0.564090  0.359537  1
  S  S63  1  0.360566  0.363587  0.479597  1
  S  S64  1  0.475242  0.823074  0.096690  1
  S  S65  1  0.817821  0.812252  0.451652  1
  S  S66  1  0.411476  0.878612  0.714175  1
  S  S67  1  0.088524  0.378612  0.785825  1
  S  S68  1  0.426821  0.427749  0.817043  1
  S  S69  1  0.682179  0.312252  0.048348  1
  S  S70  1  0.485065  0.868232  0.429508  1
  S  S71  1  0.398284  0.661722  0.333139  1
  S  S72  1  0.911476  0.621388  0.214175  1
  S  S73  1  0.317821  0.687748  0.951652  1
  S  S74  1  0.164783  0.714646  0.774045  1
  S  S75  1  0.750220  0.841377  0.635827  1
  S  S76  1  0.639434  0.636413  0.520403  1
  S  S77  1  0.335217  0.214646  0.725955  1
  S  S78  1  0.336744  0.885055  0.249264  1
  S  S79  1  0.514935  0.131768  0.570492  1
