# generated using pymatgen
data_Dy16Cd4Os3Rh
_symmetry_space_group_name_H-M   'P 1'
_cell_length_a   9.70748868
_cell_length_b   9.57819829
_cell_length_c   9.70748800
_cell_angle_alpha   59.55246510
_cell_angle_beta   60.00000232
_cell_angle_gamma   59.55246832
_symmetry_Int_Tables_number   1
_chemical_formula_structural   Dy16Cd4Os3Rh
_chemical_formula_sum   'Dy16 Cd4 Os3 Rh1'
_cell_volume   633.88643354
_cell_formula_units_Z   1
loop_
 _symmetry_equiv_pos_site_id
 _symmetry_equiv_pos_as_xyz
  1  'x, y, z'
loop_
 _atom_site_type_symbol
 _atom_site_label
 _atom_site_symmetry_multiplicity
 _atom_site_fract_x
 _atom_site_fract_y
 _atom_site_fract_z
 _atom_site_occupancy
  Dy  Dy0  1  0.559504  0.563173  0.938661  1
  Dy  Dy1  1  0.155662  0.533014  0.155662  1
  Dy  Dy2  1  0.689916  0.313320  0.306848  1
  Dy  Dy3  1  0.938661  0.563173  0.559504  1
  Dy  Dy4  1  0.938661  0.563173  0.938661  1
  Dy  Dy5  1  0.690898  0.688241  0.310430  1
  Dy  Dy6  1  0.560132  0.943532  0.936205  1
  Dy  Dy7  1  0.151567  0.153051  0.151567  1
  Dy  Dy8  1  0.310430  0.688241  0.310430  1
  Dy  Dy9  1  0.543815  0.153051  0.151567  1
  Dy  Dy10  1  0.306848  0.313320  0.689916  1
  Dy  Dy11  1  0.310430  0.688241  0.690898  1
  Dy  Dy12  1  0.151567  0.153051  0.543815  1
  Dy  Dy13  1  0.689916  0.313320  0.689916  1
  Dy  Dy14  1  0.936205  0.943532  0.560132  1
  Dy  Dy15  1  0.560132  0.943532  0.560132  1
  Cd  Cd16  1  0.920318  0.920020  0.920318  1
  Cd  Cd17  1  0.239344  0.920020  0.920318  1
  Cd  Cd18  1  0.920318  0.920020  0.239344  1
  Cd  Cd19  1  0.919166  0.242501  0.919166  1
  Os  Os20  1  0.363401  0.353375  0.919822  1
  Os  Os21  1  0.363401  0.353375  0.363401  1
  Os  Os22  1  0.919822  0.353375  0.363401  1
  Rh  Rh23  1  0.359885  0.920345  0.359885  1
