# generated using pymatgen
data_Cs4TiMn3S8
_symmetry_space_group_name_H-M   'P 1'
_cell_length_a   5.59656405
_cell_length_b   7.40165690
_cell_length_c   12.73519800
_cell_angle_alpha   89.17563115
_cell_angle_beta   83.18859052
_cell_angle_gamma   79.40496712
_symmetry_Int_Tables_number   1
_chemical_formula_structural   Cs4TiMn3S8
_chemical_formula_sum   'Cs4 Ti1 Mn3 S8'
_cell_volume   514.87217380
_cell_formula_units_Z   1
loop_
 _symmetry_equiv_pos_site_id
 _symmetry_equiv_pos_as_xyz
  1  'x, y, z'
loop_
 _atom_site_type_symbol
 _atom_site_label
 _atom_site_symmetry_multiplicity
 _atom_site_fract_x
 _atom_site_fract_y
 _atom_site_fract_z
 _atom_site_occupancy
  Cs  Cs0  1  0.078770  0.027702  0.671777  1
  Cs  Cs1  1  0.569181  0.528680  0.180320  1
  Cs  Cs2  1  0.424854  0.472541  0.820500  1
  Cs  Cs3  1  0.926285  0.972700  0.327977  1
  Ti  Ti4  1  0.751055  0.995995  0.998751  1
  Mn  Mn5  1  0.250704  0.498141  0.499334  1
  Mn  Mn6  1  0.749584  0.502066  0.500678  1
  Mn  Mn7  1  0.248669  0.003891  0.001227  1
  S  S8  1  0.952397  0.555416  0.631986  1
  S  S9  1  0.461150  0.061373  0.141346  1
  S  S10  1  0.937297  0.241699  0.959682  1
  S  S11  1  0.454150  0.726308  0.462268  1
  S  S12  1  0.557520  0.937134  0.858523  1
  S  S13  1  0.044432  0.445028  0.367920  1
  S  S14  1  0.549522  0.273973  0.537924  1
  S  S15  1  0.044428  0.757348  0.039785  1
