# generated using pymatgen
data_Yb8TaRe11Si16
_symmetry_space_group_name_H-M   'P 1'
_cell_length_a   6.74099967
_cell_length_b   6.74099967
_cell_length_c   12.83772692
_cell_angle_alpha   89.93592908
_cell_angle_beta   90.06407092
_cell_angle_gamma   90.61668375
_symmetry_Int_Tables_number   1
_chemical_formula_structural   Yb8TaRe11Si16
_chemical_formula_sum   'Yb8 Ta1 Re11 Si16'
_cell_volume   583.32562148
_cell_formula_units_Z   1
loop_
 _symmetry_equiv_pos_site_id
 _symmetry_equiv_pos_as_xyz
  1  'x, y, z'
loop_
 _atom_site_type_symbol
 _atom_site_label
 _atom_site_symmetry_multiplicity
 _atom_site_fract_x
 _atom_site_fract_y
 _atom_site_fract_z
 _atom_site_occupancy
  Yb  Yb0  1  0.001907  0.675954  0.029995  1
  Yb  Yb1  1  0.001132  0.321590  0.530555  1
  Yb  Yb2  1  0.321590  0.001132  0.469445  1
  Yb  Yb3  1  0.170543  0.500581  0.778328  1
  Yb  Yb4  1  0.829307  0.495877  0.274968  1
  Yb  Yb5  1  0.500581  0.170543  0.221672  1
  Yb  Yb6  1  0.495877  0.829307  0.725032  1
  Yb  Yb7  1  0.675954  0.001907  0.970005  1
  Ta  Ta8  1  0.662671  0.662671  0.500000  1
  Re  Re9  1  0.163643  0.838538  0.247129  1
  Re  Re10  1  0.342181  0.342181  0.000000  1
  Re  Re11  1  0.985867  0.812698  0.621223  1
  Re  Re12  1  0.002916  0.185133  0.127000  1
  Re  Re13  1  0.812698  0.985867  0.378777  1
  Re  Re14  1  0.327101  0.490721  0.381953  1
  Re  Re15  1  0.681525  0.507148  0.883002  1
  Re  Re16  1  0.490721  0.327101  0.618047  1
  Re  Re17  1  0.507148  0.681525  0.116998  1
  Re  Re18  1  0.185133  0.002916  0.873000  1
  Re  Re19  1  0.838538  0.163643  0.752871  1
  Si  Si20  1  0.031926  0.700964  0.429572  1
  Si  Si21  1  0.622967  0.289589  0.435001  1
  Si  Si22  1  0.382309  0.705595  0.935593  1
  Si  Si23  1  0.193766  0.112969  0.686140  1
  Si  Si24  1  0.289589  0.622967  0.564999  1
  Si  Si25  1  0.705595  0.382309  0.064407  1
  Si  Si26  1  0.803763  0.886469  0.187611  1
  Si  Si27  1  0.112969  0.193766  0.313860  1
  Si  Si28  1  0.982594  0.291771  0.937105  1
  Si  Si29  1  0.700964  0.031926  0.570428  1
  Si  Si30  1  0.220903  0.482148  0.188150  1
  Si  Si31  1  0.781281  0.513955  0.692146  1
  Si  Si32  1  0.482148  0.220903  0.811850  1
  Si  Si33  1  0.513955  0.781281  0.307854  1
  Si  Si34  1  0.291771  0.982594  0.062895  1
  Si  Si35  1  0.886469  0.803763  0.812389  1
