# generated using pymatgen
data_Gd2U3O10
_symmetry_space_group_name_H-M   'P 1'
_cell_length_a   6.63087941
_cell_length_b   6.63087969
_cell_length_c   8.50099052
_cell_angle_alpha   49.91735152
_cell_angle_beta   49.91734878
_cell_angle_gamma   48.16848218
_symmetry_Int_Tables_number   1
_chemical_formula_structural   Gd2U3O10
_chemical_formula_sum   'Gd2 U3 O10'
_cell_volume   197.43690619
_cell_formula_units_Z   1
loop_
 _symmetry_equiv_pos_site_id
 _symmetry_equiv_pos_as_xyz
  1  'x, y, z'
loop_
 _atom_site_type_symbol
 _atom_site_label
 _atom_site_symmetry_multiplicity
 _atom_site_fract_x
 _atom_site_fract_y
 _atom_site_fract_z
 _atom_site_occupancy
  Gd  Gd0  1  0.301277  0.301277  0.097701  1
  Gd  Gd1  1  0.698723  0.698723  0.902299  1
  U  U2  1  0.099664  0.099664  0.701738  1
  U  U3  1  0.500000  0.500000  0.500000  1
  U  U4  1  0.900336  0.900336  0.298262  1
  O  O5  1  0.659553  0.159659  0.783775  1
  O  O6  1  0.159659  0.659553  0.783775  1
  O  O7  1  0.458463  0.945258  0.403805  1
  O  O8  1  0.945258  0.458463  0.403805  1
  O  O9  1  0.840341  0.340447  0.216225  1
  O  O10  1  0.237805  0.762195  0.000000  1
  O  O11  1  0.340447  0.840341  0.216225  1
  O  O12  1  0.762195  0.237805  0.000000  1
  O  O13  1  0.054742  0.541537  0.596195  1
  O  O14  1  0.541537  0.054742  0.596195  1
