# generated using pymatgen
data_Y6Al24IrOs3Rh4
_symmetry_space_group_name_H-M   'P 1'
_cell_length_a   8.80200180
_cell_length_b   8.79423721
_cell_length_c   9.56952494
_cell_angle_alpha   90.05239363
_cell_angle_beta   89.77058414
_cell_angle_gamma   119.42920428
_symmetry_Int_Tables_number   1
_chemical_formula_structural   Y6Al24IrOs3Rh4
_chemical_formula_sum   'Y6 Al24 Ir1 Os3 Rh4'
_cell_volume   645.15809899
_cell_formula_units_Z   1
loop_
 _symmetry_equiv_pos_site_id
 _symmetry_equiv_pos_as_xyz
  1  'x, y, z'
loop_
 _atom_site_type_symbol
 _atom_site_label
 _atom_site_symmetry_multiplicity
 _atom_site_fract_x
 _atom_site_fract_y
 _atom_site_fract_z
 _atom_site_occupancy
  Y  Y0  1  0.189637  0.386305  0.251282  1
  Y  Y1  1  0.810363  0.613695  0.748718  1
  Y  Y2  1  0.616003  0.808679  0.249929  1
  Y  Y3  1  0.383997  0.191321  0.750071  1
  Y  Y4  1  0.190535  0.805711  0.250778  1
  Y  Y5  1  0.809465  0.194289  0.749222  1
  Al  Al6  1  0.333013  0.667992  0.027811  1
  Al  Al7  1  0.666987  0.332008  0.972189  1
  Al  Al8  1  0.667952  0.332817  0.526904  1
  Al  Al9  1  0.332048  0.667183  0.473096  1
  Al  Al10  1  0.163187  0.327755  0.575677  1
  Al  Al11  1  0.836813  0.672245  0.424323  1
  Al  Al12  1  0.673182  0.835609  0.576600  1
  Al  Al13  1  0.834486  0.672475  0.075984  1
  Al  Al14  1  0.326818  0.164391  0.423400  1
  Al  Al15  1  0.165514  0.327525  0.924016  1
  Al  Al16  1  0.162925  0.834063  0.576249  1
  Al  Al17  1  0.326877  0.165037  0.076376  1
  Al  Al18  1  0.837075  0.165937  0.423751  1
  Al  Al19  1  0.673123  0.834963  0.923624  1
  Al  Al20  1  0.835188  0.163653  0.076915  1
  Al  Al21  1  0.164812  0.836347  0.923085  1
  Al  Al22  1  0.560437  0.123219  0.249679  1
  Al  Al23  1  0.439563  0.876781  0.750321  1
  Al  Al24  1  0.874462  0.438620  0.250159  1
  Al  Al25  1  0.125538  0.561380  0.749841  1
  Al  Al26  1  0.561682  0.438073  0.250216  1
  Al  Al27  1  0.438318  0.561927  0.749784  1
  Al  Al28  1  0.998457  0.000809  0.250021  1
  Al  Al29  1  0.001543  0.999191  0.749979  1
  Ir  Ir30  1  0.500000  0.500000  0.000000  1
  Os  Os31  1  0.000000  0.500000  0.500000  1
  Os  Os32  1  0.000000  0.000000  0.000000  1
  Os  Os33  1  0.000000  0.000000  0.500000  1
  Rh  Rh34  1  0.500000  0.000000  0.000000  1
  Rh  Rh35  1  0.000000  0.500000  0.000000  1
  Rh  Rh36  1  0.500000  0.000000  0.500000  1
  Rh  Rh37  1  0.500000  0.500000  0.500000  1
