# generated using pymatgen
data_NdSm3(Ga5Pt3)2
_symmetry_space_group_name_H-M   'P 1'
_cell_length_a   8.63070789
_cell_length_b   8.64042571
_cell_length_c   8.64042500
_cell_angle_alpha   140.13828037
_cell_angle_beta   106.69196234
_cell_angle_gamma   86.87250450
_symmetry_Int_Tables_number   1
_chemical_formula_structural   NdSm3(Ga5Pt3)2
_chemical_formula_sum   'Nd1 Sm3 Ga10 Pt6'
_cell_volume   380.86128135
_cell_formula_units_Z   1
loop_
 _symmetry_equiv_pos_site_id
 _symmetry_equiv_pos_as_xyz
  1  'x, y, z'
loop_
 _atom_site_type_symbol
 _atom_site_label
 _atom_site_symmetry_multiplicity
 _atom_site_fract_x
 _atom_site_fract_y
 _atom_site_fract_z
 _atom_site_occupancy
  Nd  Nd0  1  0.637942  0.363782  0.274161  1
  Sm  Sm1  1  0.361263  0.635752  0.725511  1
  Sm  Sm2  1  0.089787  0.864052  0.225735  1
  Sm  Sm3  1  0.910580  0.136444  0.774135  1
  Ga  Ga4  1  0.283770  0.533811  0.249295  1
  Ga  Ga5  1  0.716178  0.466110  0.751333  1
  Ga  Ga6  1  0.716178  0.964845  0.250068  1
  Ga  Ga7  1  0.283770  0.034475  0.749959  1
  Ga  Ga8  1  0.439927  0.100570  0.339357  1
  Ga  Ga9  1  0.559927  0.899672  0.660256  1
  Ga  Ga10  1  0.761437  0.600478  0.160960  1
  Ga  Ga11  1  0.238846  0.399636  0.839209  1
  Ga  Ga12  1  0.000329  0.250098  0.250007  1
  Ga  Ga13  1  0.000329  0.750322  0.750231  1
  Pt  Pt14  1  0.248396  0.142417  0.105980  1
  Pt  Pt15  1  0.751219  0.857037  0.894180  1
  Pt  Pt16  1  0.037022  0.642918  0.394103  1
  Pt  Pt17  1  0.963333  0.357287  0.606046  1
  Pt  Pt18  1  0.499884  0.250036  0.749625  1
  Pt  Pt19  1  0.499884  0.750259  0.249847  1
