# generated using pymatgen
data_La3YSb10
_symmetry_space_group_name_H-M   'P 1'
_cell_length_a   4.32909600
_cell_length_b   13.66725020
_cell_length_c   15.27639324
_cell_angle_alpha   78.05330750
_cell_angle_beta   90.00000000
_cell_angle_gamma   90.00000000
_symmetry_Int_Tables_number   1
_chemical_formula_structural   La3YSb10
_chemical_formula_sum   'La6 Y2 Sb20'
_cell_volume   884.27892531
_cell_formula_units_Z   2
loop_
 _symmetry_equiv_pos_site_id
 _symmetry_equiv_pos_as_xyz
  1  'x, y, z'
loop_
 _atom_site_type_symbol
 _atom_site_label
 _atom_site_symmetry_multiplicity
 _atom_site_fract_x
 _atom_site_fract_y
 _atom_site_fract_z
 _atom_site_occupancy
  La  La0  1  0.750000  0.334321  0.142945  1
  La  La1  1  0.250000  0.947735  0.363221  1
  La  La2  1  0.250000  0.665679  0.857055  1
  La  La3  1  0.250000  0.667399  0.576972  1
  La  La4  1  0.750000  0.052265  0.636779  1
  La  La5  1  0.750000  0.332601  0.423028  1
  Y  Y6  1  0.250000  0.398084  0.772284  1
  Y  Y7  1  0.750000  0.601916  0.227716  1
  Sb  Sb8  1  0.750000  0.855383  0.816787  1
  Sb  Sb9  1  0.250000  0.863095  0.675139  1
  Sb  Sb10  1  0.250000  0.144598  0.475515  1
  Sb  Sb11  1  0.750000  0.287532  0.933218  1
  Sb  Sb12  1  0.250000  0.148784  0.782034  1
  Sb  Sb13  1  0.750000  0.575803  0.439208  1
  Sb  Sb14  1  0.750000  0.136905  0.324861  1
  Sb  Sb15  1  0.250000  0.703227  0.351005  1
  Sb  Sb16  1  0.750000  0.296773  0.648995  1
  Sb  Sb17  1  0.750000  0.851216  0.217966  1
  Sb  Sb18  1  0.250000  0.419556  0.971243  1
  Sb  Sb19  1  0.250000  0.424197  0.560792  1
  Sb  Sb20  1  0.750000  0.571391  0.737396  1
  Sb  Sb21  1  0.250000  0.428609  0.262604  1
  Sb  Sb22  1  0.750000  0.855402  0.524485  1
  Sb  Sb23  1  0.750000  0.035133  0.886826  1
  Sb  Sb24  1  0.250000  0.712468  0.066782  1
  Sb  Sb25  1  0.250000  0.964867  0.113174  1
  Sb  Sb26  1  0.250000  0.144617  0.183213  1
  Sb  Sb27  1  0.750000  0.580444  0.028757  1
