# generated using pymatgen
data_YEr4In4PtRh
_symmetry_space_group_name_H-M   'P 1'
_cell_length_a   3.60332000
_cell_length_b   8.09864746
_cell_length_c   18.18975627
_cell_angle_alpha   90.12584313
_cell_angle_beta   90.00000000
_cell_angle_gamma   90.00000000
_symmetry_Int_Tables_number   1
_chemical_formula_structural   YEr4In4PtRh
_chemical_formula_sum   'Y2 Er8 In8 Pt2 Rh2'
_cell_volume   530.81252106
_cell_formula_units_Z   2
loop_
 _symmetry_equiv_pos_site_id
 _symmetry_equiv_pos_as_xyz
  1  'x, y, z'
loop_
 _atom_site_type_symbol
 _atom_site_label
 _atom_site_symmetry_multiplicity
 _atom_site_fract_x
 _atom_site_fract_y
 _atom_site_fract_z
 _atom_site_occupancy
  Y  Y0  1  0.000000  0.000000  0.000000  1
  Y  Y1  1  0.000000  0.500000  0.500000  1
  Er  Er2  1  0.000000  0.115008  0.412218  1
  Er  Er3  1  0.000000  0.884992  0.587782  1
  Er  Er4  1  0.000000  0.383255  0.913678  1
  Er  Er5  1  0.000000  0.616745  0.086322  1
  Er  Er6  1  0.000000  0.238872  0.221454  1
  Er  Er7  1  0.000000  0.761128  0.778546  1
  Er  Er8  1  0.000000  0.251337  0.720451  1
  Er  Er9  1  0.000000  0.748663  0.279549  1
  In  In10  1  0.500000  0.422645  0.351297  1
  In  In11  1  0.500000  0.577355  0.648703  1
  In  In12  1  0.500000  0.073405  0.850100  1
  In  In13  1  0.500000  0.926595  0.149900  1
  In  In14  1  0.500000  0.292666  0.066186  1
  In  In15  1  0.500000  0.707334  0.933814  1
  In  In16  1  0.500000  0.205881  0.567735  1
  In  In17  1  0.500000  0.794119  0.432265  1
  Pt  Pt18  1  0.500000  0.478032  0.803484  1
  Pt  Pt19  1  0.500000  0.521968  0.196516  1
  Rh  Rh20  1  0.500000  0.022085  0.304590  1
  Rh  Rh21  1  0.500000  0.977915  0.695410  1
