# generated using pymatgen
data_Nd6Cd3Sn7
_symmetry_space_group_name_H-M   'P 1'
_cell_length_a   6.61003028
_cell_length_b   6.61002935
_cell_length_c   10.41092699
_cell_angle_alpha   90.62694471
_cell_angle_beta   90.62695586
_cell_angle_gamma   102.92544473
_symmetry_Int_Tables_number   1
_chemical_formula_structural   Nd6Cd3Sn7
_chemical_formula_sum   'Nd6 Cd3 Sn7'
_cell_volume   443.28522873
_cell_formula_units_Z   1
loop_
 _symmetry_equiv_pos_site_id
 _symmetry_equiv_pos_as_xyz
  1  'x, y, z'
loop_
 _atom_site_type_symbol
 _atom_site_label
 _atom_site_symmetry_multiplicity
 _atom_site_fract_x
 _atom_site_fract_y
 _atom_site_fract_z
 _atom_site_occupancy
  Nd  Nd0  1  0.630728  0.630728  0.253150  1
  Nd  Nd1  1  0.371243  0.371243  0.744611  1
  Nd  Nd2  1  0.202088  0.797670  0.500845  1
  Nd  Nd3  1  0.205253  0.793014  0.000275  1
  Nd  Nd4  1  0.797670  0.202088  0.500845  1
  Nd  Nd5  1  0.793014  0.205253  0.000275  1
  Cd  Cd6  1  0.315800  0.315800  0.044024  1
  Cd  Cd7  1  0.684303  0.684303  0.955886  1
  Cd  Cd8  1  0.306455  0.306455  0.449141  1
  Sn  Sn9  1  0.017625  0.017625  0.244750  1
  Sn  Sn10  1  0.984325  0.984325  0.754259  1
  Sn  Sn11  1  0.685360  0.685360  0.548286  1
  Sn  Sn12  1  0.493882  0.072728  0.247865  1
  Sn  Sn13  1  0.932273  0.507253  0.753962  1
  Sn  Sn14  1  0.507253  0.932273  0.753962  1
  Sn  Sn15  1  0.072728  0.493882  0.247865  1
