# generated using pymatgen
data_Y13Th3Mg2(Co2Hg)2
_symmetry_space_group_name_H-M   'P 1'
_cell_length_a   9.59387921
_cell_length_b   9.60939286
_cell_length_c   9.64387800
_cell_angle_alpha   59.88121587
_cell_angle_beta   59.82745371
_cell_angle_gamma   60.04792315
_symmetry_Int_Tables_number   1
_chemical_formula_structural   Y13Th3Mg2(Co2Hg)2
_chemical_formula_sum   'Y13 Th3 Mg2 Co4 Hg2'
_cell_volume   627.51389437
_cell_formula_units_Z   1
loop_
 _symmetry_equiv_pos_site_id
 _symmetry_equiv_pos_as_xyz
  1  'x, y, z'
loop_
 _atom_site_type_symbol
 _atom_site_label
 _atom_site_symmetry_multiplicity
 _atom_site_fract_x
 _atom_site_fract_y
 _atom_site_fract_z
 _atom_site_occupancy
  Y  Y0  1  0.953497  0.350177  0.348163  1
  Y  Y1  1  0.811752  0.186572  0.188413  1
  Y  Y2  1  0.186790  0.812118  0.812922  1
  Y  Y3  1  0.186790  0.812118  0.188168  1
  Y  Y4  1  0.811752  0.186572  0.813263  1
  Y  Y5  1  0.188006  0.186657  0.812668  1
  Y  Y6  1  0.810220  0.810696  0.189542  1
  Y  Y7  1  0.935145  0.563017  0.565318  1
  Y  Y8  1  0.561891  0.935536  0.938322  1
  Y  Y9  1  0.561891  0.935536  0.564250  1
  Y  Y10  1  0.935145  0.563017  0.936520  1
  Y  Y11  1  0.561537  0.563373  0.937545  1
  Y  Y12  1  0.936445  0.934687  0.564434  1
  Th  Th13  1  0.340276  0.344517  0.345752  1
  Th  Th14  1  0.340276  0.344517  0.969456  1
  Th  Th15  1  0.342505  0.965693  0.345902  1
  Mg  Mg16  1  0.579525  0.271499  0.574488  1
  Mg  Mg17  1  0.268415  0.580744  0.575421  1
  Co  Co18  1  0.151911  0.139792  0.140742  1
  Co  Co19  1  0.151911  0.139792  0.567555  1
  Co  Co20  1  0.152976  0.566369  0.140327  1
  Co  Co21  1  0.562383  0.144848  0.146385  1
  Hg  Hg22  1  0.584477  0.581077  0.586519  1
  Hg  Hg23  1  0.584477  0.581077  0.247927  1
