# generated using pymatgen
data_Sc8Ta9Ti3Ge16
_symmetry_space_group_name_H-M   'P 1'
_cell_length_a   7.03921983
_cell_length_b   7.03713001
_cell_length_c   12.87643554
_cell_angle_alpha   90.09377529
_cell_angle_beta   89.95804860
_cell_angle_gamma   90.03491055
_symmetry_Int_Tables_number   1
_chemical_formula_structural   Sc8Ta9Ti3Ge16
_chemical_formula_sum   'Sc8 Ta9 Ti3 Ge16'
_cell_volume   637.84474668
_cell_formula_units_Z   1
loop_
 _symmetry_equiv_pos_site_id
 _symmetry_equiv_pos_as_xyz
  1  'x, y, z'
loop_
 _atom_site_type_symbol
 _atom_site_label
 _atom_site_symmetry_multiplicity
 _atom_site_fract_x
 _atom_site_fract_y
 _atom_site_fract_z
 _atom_site_occupancy
  Sc  Sc0  1  0.002625  0.658169  0.028590  1
  Sc  Sc1  1  0.996566  0.338403  0.528555  1
  Sc  Sc2  1  0.337229  0.994069  0.471998  1
  Sc  Sc3  1  0.157652  0.497853  0.779062  1
  Sc  Sc4  1  0.840093  0.502547  0.278462  1
  Sc  Sc5  1  0.496844  0.163292  0.222121  1
  Sc  Sc6  1  0.505927  0.836546  0.721969  1
  Sc  Sc7  1  0.663269  0.005883  0.971572  1
  Ta  Ta8  1  0.668283  0.670195  0.499481  1
  Ta  Ta9  1  0.166652  0.833288  0.249993  1
  Ta  Ta10  1  0.332200  0.331562  0.999686  1
  Ta  Ta11  1  0.991629  0.847691  0.628009  1
  Ta  Ta12  1  0.008133  0.154320  0.128174  1
  Ta  Ta13  1  0.846135  0.991358  0.372029  1
  Ta  Ta14  1  0.346692  0.508051  0.378358  1
  Ta  Ta15  1  0.654164  0.491565  0.878573  1
  Ta  Ta16  1  0.831768  0.167677  0.749946  1
  Ti  Ti17  1  0.506640  0.345170  0.621397  1
  Ti  Ti18  1  0.492149  0.654838  0.121489  1
  Ti  Ti19  1  0.155334  0.007081  0.871530  1
  Ge  Ge20  1  0.037108  0.696257  0.434235  1
  Ge  Ge21  1  0.637152  0.298238  0.422698  1
  Ge  Ge22  1  0.361439  0.703855  0.921937  1
  Ge  Ge23  1  0.204264  0.138705  0.672112  1
  Ge  Ge24  1  0.298756  0.632673  0.579503  1
  Ge  Ge25  1  0.700959  0.368113  0.078425  1
  Ge  Ge26  1  0.795232  0.861614  0.170679  1
  Ge  Ge27  1  0.137292  0.203381  0.328084  1
  Ge  Ge28  1  0.965121  0.298195  0.933051  1
  Ge  Ge29  1  0.693456  0.038844  0.567439  1
  Ge  Ge30  1  0.200724  0.465821  0.182637  1
  Ge  Ge31  1  0.798081  0.535502  0.682983  1
  Ge  Ge32  1  0.461929  0.195049  0.816031  1
  Ge  Ge33  1  0.535646  0.803324  0.314686  1
  Ge  Ge34  1  0.304821  0.962294  0.065932  1
  Ge  Ge35  1  0.868036  0.798577  0.828575  1
