# generated using pymatgen
data_Ho8In2CoNi
_symmetry_space_group_name_H-M   'P 1'
_cell_length_a   9.50902831
_cell_length_b   9.51854411
_cell_length_c   9.51854345
_cell_angle_alpha   60.01448167
_cell_angle_beta   60.03306436
_cell_angle_gamma   60.03306808
_symmetry_Int_Tables_number   1
_chemical_formula_structural   Ho8In2CoNi
_chemical_formula_sum   'Ho16 In4 Co2 Ni2'
_cell_volume   609.57423240
_cell_formula_units_Z   2
loop_
 _symmetry_equiv_pos_site_id
 _symmetry_equiv_pos_as_xyz
  1  'x, y, z'
loop_
 _atom_site_type_symbol
 _atom_site_label
 _atom_site_symmetry_multiplicity
 _atom_site_fract_x
 _atom_site_fract_y
 _atom_site_fract_z
 _atom_site_occupancy
  Ho  Ho0  1  0.937821  0.939949  0.563996  1
  Ho  Ho1  1  0.810453  0.189547  0.189547  1
  Ho  Ho2  1  0.936192  0.563808  0.563808  1
  Ho  Ho3  1  0.937821  0.563996  0.939949  1
  Ho  Ho4  1  0.814814  0.807715  0.190140  1
  Ho  Ho5  1  0.342164  0.347805  0.347805  1
  Ho  Ho6  1  0.560170  0.939830  0.939830  1
  Ho  Ho7  1  0.558234  0.939949  0.563996  1
  Ho  Ho8  1  0.188963  0.811037  0.811037  1
  Ho  Ho9  1  0.187331  0.190140  0.807715  1
  Ho  Ho10  1  0.347669  0.351065  0.953597  1
  Ho  Ho11  1  0.347669  0.953597  0.351065  1
  Ho  Ho12  1  0.814814  0.190140  0.807715  1
  Ho  Ho13  1  0.558234  0.563996  0.939949  1
  Ho  Ho14  1  0.187331  0.807715  0.190140  1
  Ho  Ho15  1  0.962227  0.347805  0.347805  1
  In  In16  1  0.582679  0.580965  0.253678  1
  In  In17  1  0.251505  0.582144  0.582144  1
  In  In18  1  0.584208  0.582144  0.582144  1
  In  In19  1  0.582679  0.253678  0.580965  1
  Co  Co20  1  0.143447  0.575506  0.137601  1
  Co  Co21  1  0.143447  0.137601  0.575506  1
  Ni  Ni22  1  0.575011  0.139935  0.139935  1
  Ni  Ni23  1  0.145120  0.139935  0.139935  1
