# generated using pymatgen
data_Y4Hf3ZrPt4
_symmetry_space_group_name_H-M   'P 1'
_cell_length_a   4.67047000
_cell_length_b   7.13335090
_cell_length_c   8.22728126
_cell_angle_alpha   89.66634454
_cell_angle_beta   90.00000000
_cell_angle_gamma   90.00000000
_symmetry_Int_Tables_number   1
_chemical_formula_structural   Y4Hf3ZrPt4
_chemical_formula_sum   'Y4 Hf3 Zr1 Pt4'
_cell_volume   274.09628874
_cell_formula_units_Z   1
loop_
 _symmetry_equiv_pos_site_id
 _symmetry_equiv_pos_as_xyz
  1  'x, y, z'
loop_
 _atom_site_type_symbol
 _atom_site_label
 _atom_site_symmetry_multiplicity
 _atom_site_fract_x
 _atom_site_fract_y
 _atom_site_fract_z
 _atom_site_occupancy
  Y  Y0  1  0.250000  0.983232  0.321381  1
  Y  Y1  1  0.250000  0.483731  0.178667  1
  Y  Y2  1  0.750000  0.017474  0.679005  1
  Y  Y3  1  0.750000  0.516370  0.820801  1
  Hf  Hf4  1  0.250000  0.355208  0.577529  1
  Hf  Hf5  1  0.250000  0.852604  0.922302  1
  Hf  Hf6  1  0.750000  0.646584  0.423183  1
  Zr  Zr7  1  0.750000  0.146398  0.078049  1
  Pt  Pt8  1  0.250000  0.225326  0.900643  1
  Pt  Pt9  1  0.250000  0.727069  0.595500  1
  Pt  Pt10  1  0.750000  0.770650  0.094892  1
  Pt  Pt11  1  0.750000  0.275356  0.408047  1
