# generated using pymatgen
data_Ba7LaMgUSe12
_symmetry_space_group_name_H-M   'P 1'
_cell_length_a   8.94931211
_cell_length_b   8.94931142
_cell_length_c   8.94931148
_cell_angle_alpha   90.70975568
_cell_angle_beta   90.70976267
_cell_angle_gamma   90.70976701
_symmetry_Int_Tables_number   1
_chemical_formula_structural   Ba7LaMgUSe12
_chemical_formula_sum   'Ba7 La1 Mg1 U1 Se12'
_cell_volume   716.58562015
_cell_formula_units_Z   1
loop_
 _symmetry_equiv_pos_site_id
 _symmetry_equiv_pos_as_xyz
  1  'x, y, z'
loop_
 _atom_site_type_symbol
 _atom_site_label
 _atom_site_symmetry_multiplicity
 _atom_site_fract_x
 _atom_site_fract_y
 _atom_site_fract_z
 _atom_site_occupancy
  Ba  Ba0  1  0.864913  0.619981  0.262903  1
  Ba  Ba1  1  0.262903  0.864913  0.619981  1
  Ba  Ba2  1  0.619981  0.262903  0.864913  1
  Ba  Ba3  1  0.737360  0.128278  0.379332  1
  Ba  Ba4  1  0.379332  0.737360  0.128278  1
  Ba  Ba5  1  0.128278  0.379332  0.737360  1
  Ba  Ba6  1  0.740845  0.740845  0.740845  1
  La  La7  1  0.262569  0.262569  0.262569  1
  Mg  Mg8  1  0.501118  0.501118  0.501118  1
  U  U9  1  0.002719  0.002719  0.002719  1
  Se  Se10  1  0.199482  0.551128  0.406844  1
  Se  Se11  1  0.406844  0.199482  0.551128  1
  Se  Se12  1  0.551128  0.406844  0.199482  1
  Se  Se13  1  0.930798  0.056324  0.708679  1
  Se  Se14  1  0.708679  0.930798  0.056324  1
  Se  Se15  1  0.056324  0.708679  0.930798  1
  Se  Se16  1  0.795181  0.432793  0.577920  1
  Se  Se17  1  0.577920  0.795181  0.432793  1
  Se  Se18  1  0.432793  0.577920  0.795181  1
  Se  Se19  1  0.084386  0.957777  0.298670  1
  Se  Se20  1  0.298670  0.084386  0.957777  1
  Se  Se21  1  0.957777  0.298670  0.084386  1
