# generated using pymatgen
data_Y4Er4Si8Pd3Pt5
_symmetry_space_group_name_H-M   'P 1'
_cell_length_a   4.26024200
_cell_length_b   7.51389527
_cell_length_c   13.99463593
_cell_angle_alpha   89.90879316
_cell_angle_beta   90.00000000
_cell_angle_gamma   90.00000000
_symmetry_Int_Tables_number   1
_chemical_formula_structural   Y4Er4Si8Pd3Pt5
_chemical_formula_sum   'Y4 Er4 Si8 Pd3 Pt5'
_cell_volume   447.98189422
_cell_formula_units_Z   1
loop_
 _symmetry_equiv_pos_site_id
 _symmetry_equiv_pos_as_xyz
  1  'x, y, z'
loop_
 _atom_site_type_symbol
 _atom_site_label
 _atom_site_symmetry_multiplicity
 _atom_site_fract_x
 _atom_site_fract_y
 _atom_site_fract_z
 _atom_site_occupancy
  Y  Y0  1  0.000000  0.302393  0.999960  1
  Y  Y1  1  0.500000  0.697463  0.500420  1
  Y  Y2  1  0.000000  0.291664  0.499384  1
  Y  Y3  1  0.500000  0.707883  0.999823  1
  Er  Er4  1  0.000000  0.202202  0.250107  1
  Er  Er5  1  0.500000  0.796962  0.249626  1
  Er  Er6  1  0.000000  0.202398  0.749400  1
  Er  Er7  1  0.500000  0.797599  0.750947  1
  Si  Si8  1  0.000000  0.904967  0.592892  1
  Si  Si9  1  0.500000  0.095040  0.907380  1
  Si  Si10  1  0.000000  0.905708  0.407640  1
  Si  Si11  1  0.500000  0.096296  0.093629  1
  Si  Si12  1  0.000000  0.595164  0.144779  1
  Si  Si13  1  0.500000  0.401983  0.352523  1
  Si  Si14  1  0.000000  0.598411  0.856864  1
  Si  Si15  1  0.500000  0.401270  0.643506  1
  Pd  Pd16  1  0.000000  0.580405  0.341675  1
  Pd  Pd17  1  0.500000  0.422990  0.837142  1
  Pd  Pd18  1  0.000000  0.577295  0.661601  1
  Pt  Pt19  1  0.500000  0.072013  0.609658  1
  Pt  Pt20  1  0.000000  0.927956  0.890648  1
  Pt  Pt21  1  0.500000  0.072461  0.390704  1
  Pt  Pt22  1  0.000000  0.926078  0.109888  1
  Pt  Pt23  1  0.500000  0.423397  0.159802  1
