# generated using pymatgen
data_Nd3(GdSb4)5
_symmetry_space_group_name_H-M   'P 1'
_cell_length_a   4.38818800
_cell_length_b   13.59610572
_cell_length_c   15.01443900
_cell_angle_alpha   77.89008769
_cell_angle_beta   90.00000000
_cell_angle_gamma   90.00000000
_symmetry_Int_Tables_number   1
_chemical_formula_structural   Nd3(GdSb4)5
_chemical_formula_sum   'Nd3 Gd5 Sb20'
_cell_volume   875.86130794
_cell_formula_units_Z   1
loop_
 _symmetry_equiv_pos_site_id
 _symmetry_equiv_pos_as_xyz
  1  'x, y, z'
loop_
 _atom_site_type_symbol
 _atom_site_label
 _atom_site_symmetry_multiplicity
 _atom_site_fract_x
 _atom_site_fract_y
 _atom_site_fract_z
 _atom_site_occupancy
  Nd  Nd0  1  0.750000  0.330593  0.423325  1
  Nd  Nd1  1  0.250000  0.949758  0.363051  1
  Nd  Nd2  1  0.750000  0.049861  0.636435  1
  Gd  Gd3  1  0.250000  0.400213  0.772841  1
  Gd  Gd4  1  0.750000  0.600230  0.228455  1
  Gd  Gd5  1  0.250000  0.665498  0.855454  1
  Gd  Gd6  1  0.750000  0.335721  0.144211  1
  Gd  Gd7  1  0.250000  0.669695  0.577052  1
  Sb  Sb8  1  0.250000  0.147121  0.776737  1
  Sb  Sb9  1  0.750000  0.852394  0.223491  1
  Sb  Sb10  1  0.250000  0.144144  0.477179  1
  Sb  Sb11  1  0.750000  0.851645  0.522576  1
  Sb  Sb12  1  0.250000  0.151159  0.179159  1
  Sb  Sb13  1  0.750000  0.849134  0.819596  1
  Sb  Sb14  1  0.250000  0.421617  0.976108  1
  Sb  Sb15  1  0.750000  0.579719  0.023605  1
  Sb  Sb16  1  0.750000  0.034993  0.884527  1
  Sb  Sb17  1  0.250000  0.964479  0.115347  1
  Sb  Sb18  1  0.750000  0.138117  0.322622  1
  Sb  Sb19  1  0.250000  0.860647  0.675041  1
  Sb  Sb20  1  0.750000  0.289335  0.939026  1
  Sb  Sb21  1  0.250000  0.710770  0.061829  1
  Sb  Sb22  1  0.750000  0.297405  0.648964  1
  Sb  Sb23  1  0.250000  0.702883  0.353607  1
  Sb  Sb24  1  0.750000  0.578843  0.735707  1
  Sb  Sb25  1  0.250000  0.422875  0.261602  1
  Sb  Sb26  1  0.750000  0.575773  0.444917  1
  Sb  Sb27  1  0.250000  0.425378  0.557532  1
