# generated using pymatgen
data_Tb2P7Ru3(Rh2W)3
_symmetry_space_group_name_H-M   'P 1'
_cell_length_a   3.94892806
_cell_length_b   9.53018282
_cell_length_c   9.52989303
_cell_angle_alpha   120.00390566
_cell_angle_beta   90.00069973
_cell_angle_gamma   89.99967910
_symmetry_Int_Tables_number   1
_chemical_formula_structural   Tb2P7Ru3(Rh2W)3
_chemical_formula_sum   'Tb2 P7 Ru3 Rh6 W3'
_cell_volume   310.58610169
_cell_formula_units_Z   1
loop_
 _symmetry_equiv_pos_site_id
 _symmetry_equiv_pos_as_xyz
  1  'x, y, z'
loop_
 _atom_site_type_symbol
 _atom_site_label
 _atom_site_symmetry_multiplicity
 _atom_site_fract_x
 _atom_site_fract_y
 _atom_site_fract_z
 _atom_site_occupancy
  Tb  Tb0  1  0.261929  0.666649  0.333298  1
  Tb  Tb1  1  0.762027  0.333336  0.666682  1
  P  P2  1  0.261775  0.000021  0.999984  1
  P  P3  1  0.761858  0.880955  0.596817  1
  P  P4  1  0.761865  0.403160  0.284136  1
  P  P5  1  0.761865  0.715848  0.119000  1
  P  P6  1  0.262002  0.116936  0.410525  1
  P  P7  1  0.261997  0.589514  0.706442  1
  P  P8  1  0.261984  0.293589  0.883084  1
  Ru  Ru9  1  0.261888  0.887077  0.158737  1
  Ru  Ru10  1  0.261884  0.841269  0.728299  1
  Ru  Ru11  1  0.261887  0.271676  0.112973  1
  Rh  Rh12  1  0.761916  0.611591  0.556637  1
  Rh  Rh13  1  0.761915  0.443314  0.054900  1
  Rh  Rh14  1  0.761919  0.945016  0.388385  1
  Rh  Rh15  1  0.261883  0.369683  0.437562  1
  Rh  Rh16  1  0.261876  0.562502  0.932185  1
  Rh  Rh17  1  0.261883  0.067872  0.630344  1
  W  W18  1  0.761880  0.093775  0.876453  1
  W  W19  1  0.761887  0.123549  0.217365  1
  W  W20  1  0.761878  0.782667  0.906192  1
