# generated using pymatgen
data_CoMo6Pd3N2
_symmetry_space_group_name_H-M   'P 1'
_cell_length_a   6.82612646
_cell_length_b   6.81273363
_cell_length_c   6.82612646
_cell_angle_alpha   90.03497998
_cell_angle_beta   90.24137188
_cell_angle_gamma   89.96502002
_symmetry_Int_Tables_number   1
_chemical_formula_structural   CoMo6Pd3N2
_chemical_formula_sum   'Co2 Mo12 Pd6 N4'
_cell_volume   317.44321834
_cell_formula_units_Z   2
loop_
 _symmetry_equiv_pos_site_id
 _symmetry_equiv_pos_as_xyz
  1  'x, y, z'
loop_
 _atom_site_type_symbol
 _atom_site_label
 _atom_site_symmetry_multiplicity
 _atom_site_fract_x
 _atom_site_fract_y
 _atom_site_fract_z
 _atom_site_occupancy
  Co  Co0  1  0.930854  0.565294  0.448397  1
  Co  Co1  1  0.698397  0.684706  0.680854  1
  Mo  Mo2  1  0.119441  0.215441  0.449024  1
  Mo  Mo3  1  0.375460  0.799831  0.955800  1
  Mo  Mo4  1  0.870812  0.698186  0.044713  1
  Mo  Mo5  1  0.205800  0.450169  0.125460  1
  Mo  Mo6  1  0.799950  0.946177  0.377828  1
  Mo  Mo7  1  0.034636  0.864515  0.700029  1
  Mo  Mo8  1  0.454042  0.125000  0.204042  1
  Mo  Mo9  1  0.294713  0.551814  0.620812  1
  Mo  Mo10  1  0.950029  0.385485  0.784636  1
  Mo  Mo11  1  0.556878  0.625000  0.306878  1
  Mo  Mo12  1  0.699024  0.034559  0.869441  1
  Mo  Mo13  1  0.627828  0.303823  0.549950  1
  Pd  Pd14  1  0.058673  0.059208  0.060229  1
  Pd  Pd15  1  0.310229  0.190792  0.808673  1
  Pd  Pd16  1  0.814550  0.319016  0.195942  1
  Pd  Pd17  1  0.181847  0.802939  0.315930  1
  Pd  Pd18  1  0.445942  0.930984  0.564550  1
  Pd  Pd19  1  0.565930  0.447061  0.931847  1
  N  N20  1  0.376933  0.375676  0.374833  1
  N  N21  1  0.624833  0.874324  0.126933  1
  N  N22  1  0.128280  0.625000  0.878280  1
  N  N23  1  0.874919  0.125000  0.624919  1
