# generated using pymatgen
data_Sm6EuNiI12
_symmetry_space_group_name_H-M   'P 1'
_cell_length_a   9.93733238
_cell_length_b   9.93733233
_cell_length_c   9.93733218
_cell_angle_alpha   106.52099300
_cell_angle_beta   106.52098884
_cell_angle_gamma   106.52099897
_symmetry_Int_Tables_number   1
_chemical_formula_structural   Sm6EuNiI12
_chemical_formula_sum   'Sm6 Eu1 Ni1 I12'
_cell_volume   827.69708269
_cell_formula_units_Z   1
loop_
 _symmetry_equiv_pos_site_id
 _symmetry_equiv_pos_as_xyz
  1  'x, y, z'
loop_
 _atom_site_type_symbol
 _atom_site_label
 _atom_site_symmetry_multiplicity
 _atom_site_fract_x
 _atom_site_fract_y
 _atom_site_fract_z
 _atom_site_occupancy
  Sm  Sm0  1  0.904660  0.977152  0.704205  1
  Sm  Sm1  1  0.704205  0.904660  0.977152  1
  Sm  Sm2  1  0.977152  0.704205  0.904660  1
  Sm  Sm3  1  0.095340  0.022848  0.295795  1
  Sm  Sm4  1  0.295795  0.095340  0.022848  1
  Sm  Sm5  1  0.022848  0.295795  0.095340  1
  Eu  Eu6  1  0.500000  0.500000  0.500000  1
  Ni  Ni7  1  0.000000  0.000000  0.000000  1
  I  I8  1  0.926000  0.321811  0.775893  1
  I  I9  1  0.775893  0.926000  0.321811  1
  I  I10  1  0.321811  0.775893  0.926000  1
  I  I11  1  0.074000  0.678189  0.224107  1
  I  I12  1  0.224107  0.074000  0.678189  1
  I  I13  1  0.678189  0.224107  0.074000  1
  I  I14  1  0.546236  0.856775  0.625557  1
  I  I15  1  0.625557  0.546236  0.856775  1
  I  I16  1  0.856775  0.625557  0.546236  1
  I  I17  1  0.453764  0.143225  0.374443  1
  I  I18  1  0.374443  0.453764  0.143225  1
  I  I19  1  0.143225  0.374443  0.453764  1
