# generated using pymatgen
data_Co8Si4Mo12CN3
_symmetry_space_group_name_H-M   'P 1'
_cell_length_a   7.81465187
_cell_length_b   7.82081377
_cell_length_c   7.81465100
_cell_angle_alpha   60.02605904
_cell_angle_beta   59.99999944
_cell_angle_gamma   60.02606411
_symmetry_Int_Tables_number   1
_chemical_formula_structural   Co8Si4Mo12CN3
_chemical_formula_sum   'Co8 Si4 Mo12 C1 N3'
_cell_volume   337.85249680
_cell_formula_units_Z   1
loop_
 _symmetry_equiv_pos_site_id
 _symmetry_equiv_pos_as_xyz
  1  'x, y, z'
loop_
 _atom_site_type_symbol
 _atom_site_label
 _atom_site_symmetry_multiplicity
 _atom_site_fract_x
 _atom_site_fract_y
 _atom_site_fract_z
 _atom_site_occupancy
  Co  Co0  1  0.245386  0.918082  0.918267  1
  Co  Co1  1  0.918225  0.245325  0.918225  1
  Co  Co2  1  0.918267  0.918082  0.918267  1
  Co  Co3  1  0.918267  0.918082  0.245386  1
  Co  Co4  1  0.004614  0.331918  0.331733  1
  Co  Co5  1  0.331733  0.331918  0.004614  1
  Co  Co6  1  0.331775  0.004675  0.331775  1
  Co  Co7  1  0.331733  0.331918  0.331733  1
  Si  Si8  1  0.625000  0.125000  0.125000  1
  Si  Si9  1  0.125000  0.125000  0.625000  1
  Si  Si10  1  0.125000  0.625000  0.125000  1
  Si  Si11  1  0.125000  0.125000  0.125000  1
  Mo  Mo12  1  0.696037  0.303987  0.696037  1
  Mo  Mo13  1  0.553904  0.554486  0.945805  1
  Mo  Mo14  1  0.553963  0.946013  0.553963  1
  Mo  Mo15  1  0.946061  0.946013  0.553963  1
  Mo  Mo16  1  0.945805  0.554486  0.553904  1
  Mo  Mo17  1  0.945805  0.554486  0.945805  1
  Mo  Mo18  1  0.696037  0.303987  0.303939  1
  Mo  Mo19  1  0.304195  0.695514  0.304195  1
  Mo  Mo20  1  0.303939  0.303987  0.696037  1
  Mo  Mo21  1  0.304195  0.695514  0.696096  1
  Mo  Mo22  1  0.696096  0.695514  0.304195  1
  Mo  Mo23  1  0.553963  0.946013  0.946061  1
  C  C24  1  0.625000  0.125000  0.625000  1
  N  N25  1  0.625000  0.625000  0.625000  1
  N  N26  1  0.125000  0.625000  0.625000  1
  N  N27  1  0.625000  0.625000  0.125000  1
