# generated using pymatgen
data_Tb3Er2Hf5(Si5Ir2)4
_symmetry_space_group_name_H-M   'P 1'
_cell_length_a   12.48783248
_cell_length_b   12.48834348
_cell_length_c   4.16736300
_cell_angle_alpha   90.00000000
_cell_angle_beta   90.00000000
_cell_angle_gamma   90.05585474
_symmetry_Int_Tables_number   1
_chemical_formula_structural   Tb3Er2Hf5(Si5Ir2)4
_chemical_formula_sum   'Tb3 Er2 Hf5 Si20 Ir8'
_cell_volume   649.90970857
_cell_formula_units_Z   1
loop_
 _symmetry_equiv_pos_site_id
 _symmetry_equiv_pos_as_xyz
  1  'x, y, z'
loop_
 _atom_site_type_symbol
 _atom_site_label
 _atom_site_symmetry_multiplicity
 _atom_site_fract_x
 _atom_site_fract_y
 _atom_site_fract_z
 _atom_site_occupancy
  Tb  Tb0  1  0.884098  0.384441  0.500000  1
  Tb  Tb1  1  0.115918  0.615544  0.500000  1
  Tb  Tb2  1  0.384467  0.115897  0.500000  1
  Er  Er3  1  0.999910  0.999995  0.000000  1
  Er  Er4  1  0.615613  0.884106  0.500000  1
  Hf  Hf5  1  0.500005  0.500042  0.000000  1
  Hf  Hf6  1  0.673526  0.174838  0.500000  1
  Hf  Hf7  1  0.326651  0.825008  0.500000  1
  Hf  Hf8  1  0.174999  0.326456  0.500000  1
  Hf  Hf9  1  0.824922  0.673613  0.500000  1
  Si  Si10  1  0.565972  0.067571  0.000000  1
  Si  Si11  1  0.434296  0.932203  0.000000  1
  Si  Si12  1  0.067814  0.434003  0.000000  1
  Si  Si13  1  0.932178  0.566002  0.000000  1
  Si  Si14  1  0.665644  0.701429  0.000000  1
  Si  Si15  1  0.334393  0.298829  0.000000  1
  Si  Si16  1  0.164024  0.800908  0.000000  1
  Si  Si17  1  0.835896  0.198983  0.000000  1
  Si  Si18  1  0.298967  0.665689  0.000000  1
  Si  Si19  1  0.701156  0.334385  0.000000  1
  Si  Si20  1  0.199115  0.164000  0.000000  1
  Si  Si21  1  0.800649  0.835962  0.000000  1
  Si  Si22  1  0.651054  0.507757  0.500000  1
  Si  Si23  1  0.348965  0.492279  0.500000  1
  Si  Si24  1  0.156021  0.992729  0.500000  1
  Si  Si25  1  0.843777  0.007309  0.500000  1
  Si  Si26  1  0.492264  0.651222  0.500000  1
  Si  Si27  1  0.507692  0.348931  0.500000  1
  Si  Si28  1  0.007320  0.155975  0.500000  1
  Si  Si29  1  0.992656  0.843973  0.500000  1
  Ir  Ir30  1  0.741667  0.521893  0.000000  1
  Ir  Ir31  1  0.258323  0.478222  0.000000  1
  Ir  Ir32  1  0.245979  0.977723  0.000000  1
  Ir  Ir33  1  0.753527  0.021581  0.000000  1
  Ir  Ir34  1  0.478808  0.742341  0.000000  1
  Ir  Ir35  1  0.521844  0.258170  0.000000  1
  Ir  Ir36  1  0.022200  0.245804  0.000000  1
  Ir  Ir37  1  0.977692  0.754190  0.000000  1
