# generated using pymatgen
data_TbHo5Er4(In2Pt)4
_symmetry_space_group_name_H-M   'P 1'
_cell_length_a   3.60567400
_cell_length_b   8.14976505
_cell_length_c   18.20838811
_cell_angle_alpha   89.98715190
_cell_angle_beta   90.00000000
_cell_angle_gamma   90.00000000
_symmetry_Int_Tables_number   1
_chemical_formula_structural   TbHo5Er4(In2Pt)4
_chemical_formula_sum   'Tb1 Ho5 Er4 In8 Pt4'
_cell_volume   535.06068093
_cell_formula_units_Z   1
loop_
 _symmetry_equiv_pos_site_id
 _symmetry_equiv_pos_as_xyz
  1  'x, y, z'
loop_
 _atom_site_type_symbol
 _atom_site_label
 _atom_site_symmetry_multiplicity
 _atom_site_fract_x
 _atom_site_fract_y
 _atom_site_fract_z
 _atom_site_occupancy
  Tb  Tb0  1  0.000000  0.000000  0.000000  1
  Ho  Ho1  1  0.000000  0.242964  0.220101  1
  Ho  Ho2  1  0.000000  0.757036  0.779899  1
  Ho  Ho3  1  0.000000  0.257034  0.720096  1
  Ho  Ho4  1  0.000000  0.742966  0.279904  1
  Ho  Ho5  1  0.000000  0.500000  0.500000  1
  Er  Er6  1  0.000000  0.116865  0.414490  1
  Er  Er7  1  0.000000  0.883135  0.585510  1
  Er  Er8  1  0.000000  0.383097  0.914485  1
  Er  Er9  1  0.000000  0.616903  0.085515  1
  In  In10  1  0.500000  0.423025  0.351095  1
  In  In11  1  0.500000  0.576975  0.648905  1
  In  In12  1  0.500000  0.077082  0.850914  1
  In  In13  1  0.500000  0.922918  0.149086  1
  In  In14  1  0.500000  0.293431  0.066498  1
  In  In15  1  0.500000  0.706569  0.933502  1
  In  In16  1  0.500000  0.207032  0.566373  1
  In  In17  1  0.500000  0.792968  0.433627  1
  Pt  Pt18  1  0.500000  0.024839  0.303625  1
  Pt  Pt19  1  0.500000  0.975161  0.696375  1
  Pt  Pt20  1  0.500000  0.475185  0.803594  1
  Pt  Pt21  1  0.500000  0.524815  0.196406  1
