# generated using pymatgen
data_Tb4GaSi5Au2
_symmetry_space_group_name_H-M   'P 1'
_cell_length_a   8.26885054
_cell_length_b   8.27192489
_cell_length_c   5.84610125
_cell_angle_alpha   69.27421638
_cell_angle_beta   69.54365618
_cell_angle_gamma   41.39520028
_symmetry_Int_Tables_number   1
_chemical_formula_structural   Tb4GaSi5Au2
_chemical_formula_sum   'Tb4 Ga1 Si5 Au2'
_cell_volume   245.00926002
_cell_formula_units_Z   1
loop_
 _symmetry_equiv_pos_site_id
 _symmetry_equiv_pos_as_xyz
  1  'x, y, z'
loop_
 _atom_site_type_symbol
 _atom_site_label
 _atom_site_symmetry_multiplicity
 _atom_site_fract_x
 _atom_site_fract_y
 _atom_site_fract_z
 _atom_site_occupancy
  Tb  Tb0  1  0.251387  0.249644  0.249265  1
  Tb  Tb1  1  0.253828  0.744567  0.257056  1
  Tb  Tb2  1  0.742944  0.255451  0.746172  1
  Tb  Tb3  1  0.750735  0.750295  0.748613  1
  Ga  Ga4  1  0.827938  0.335976  0.172062  1
  Si  Si5  1  0.661505  0.170990  0.338495  1
  Si  Si6  1  0.660601  0.667370  0.339399  1
  Si  Si7  1  0.336280  0.336762  0.663720  1
  Si  Si8  1  0.335879  0.828273  0.664121  1
  Si  Si9  1  0.171655  0.664603  0.828345  1
  Au  Au10  1  0.834281  0.832390  0.165719  1
  Au  Au11  1  0.172962  0.163679  0.827038  1
