# generated using pymatgen
data_MnCo2(AsO4)2
_symmetry_space_group_name_H-M   'P 1'
_cell_length_a   5.36382736
_cell_length_b   8.07043357
_cell_length_c   8.76727538
_cell_angle_alpha   89.99243615
_cell_angle_beta   89.99929334
_cell_angle_gamma   96.41784943
_symmetry_Int_Tables_number   1
_chemical_formula_structural   MnCo2(AsO4)2
_chemical_formula_sum   'Mn2 Co4 As4 O16'
_cell_volume   377.14302288
_cell_formula_units_Z   2
loop_
 _symmetry_equiv_pos_site_id
 _symmetry_equiv_pos_as_xyz
  1  'x, y, z'
loop_
 _atom_site_type_symbol
 _atom_site_label
 _atom_site_symmetry_multiplicity
 _atom_site_fract_x
 _atom_site_fract_y
 _atom_site_fract_z
 _atom_site_occupancy
  Mn  Mn0  1  0.000264  0.499566  0.499868  1
  Mn  Mn1  1  0.499811  0.999842  0.000401  1
  Co  Co2  1  0.908637  0.391291  0.862053  1
  Co  Co3  1  0.091226  0.608745  0.137857  1
  Co  Co4  1  0.408802  0.891265  0.637937  1
  Co  Co5  1  0.591115  0.108766  0.362128  1
  As  As6  1  0.458392  0.299244  0.698398  1
  As  As7  1  0.958482  0.799265  0.801550  1
  As  As8  1  0.541715  0.700833  0.301608  1
  As  As9  1  0.041552  0.200822  0.198385  1
  O  O10  1  0.443903  0.133138  0.572097  1
  O  O11  1  0.944057  0.633106  0.927869  1
  O  O12  1  0.556077  0.866952  0.427854  1
  O  O13  1  0.055967  0.366899  0.072107  1
  O  O14  1  0.577822  0.241062  0.872477  1
  O  O15  1  0.077972  0.741069  0.627483  1
  O  O16  1  0.422069  0.758952  0.127558  1
  O  O17  1  0.921966  0.258959  0.372410  1
  O  O18  1  0.168428  0.371048  0.701083  1
  O  O19  1  0.668542  0.871060  0.798889  1
  O  O20  1  0.831582  0.629006  0.298847  1
  O  O21  1  0.331421  0.128999  0.201158  1
  O  O22  1  0.686832  0.456062  0.648864  1
  O  O23  1  0.186947  0.956067  0.851087  1
  O  O24  1  0.313271  0.544001  0.350996  1
  O  O25  1  0.813150  0.043981  0.149037  1
