# generated using pymatgen
data_La5TbYbRuI12
_symmetry_space_group_name_H-M   'P 1'
_cell_length_a   10.22151727
_cell_length_b   10.09296604
_cell_length_c   10.11480377
_cell_angle_alpha   107.13774410
_cell_angle_beta   106.62482117
_cell_angle_gamma   107.17797372
_symmetry_Int_Tables_number   1
_chemical_formula_structural   La5TbYbRuI12
_chemical_formula_sum   'La5 Tb1 Yb1 Ru1 I12'
_cell_volume   869.48513154
_cell_formula_units_Z   1
loop_
 _symmetry_equiv_pos_site_id
 _symmetry_equiv_pos_as_xyz
  1  'x, y, z'
loop_
 _atom_site_type_symbol
 _atom_site_label
 _atom_site_symmetry_multiplicity
 _atom_site_fract_x
 _atom_site_fract_y
 _atom_site_fract_z
 _atom_site_occupancy
  La  La0  1  0.904123  0.700990  0.974534  1
  La  La1  1  0.975409  0.901429  0.702217  1
  La  La2  1  0.681966  0.972918  0.895641  1
  La  La3  1  0.101990  0.300775  0.027148  1
  La  La4  1  0.026254  0.098752  0.298437  1
  Tb  Tb5  1  0.304002  0.027608  0.101562  1
  Yb  Yb6  1  0.500361  0.499071  0.499509  1
  Ru  Ru7  1  0.001212  0.001173  0.000605  1
  I  I8  1  0.615741  0.836567  0.535548  1
  I  I9  1  0.538055  0.612815  0.837302  1
  I  I10  1  0.834672  0.534311  0.612156  1
  I  I11  1  0.384312  0.157142  0.452141  1
  I  I12  1  0.461668  0.375249  0.161055  1
  I  I13  1  0.166125  0.465930  0.388014  1
  I  I14  1  0.675604  0.072866  0.225840  1
  I  I15  1  0.231746  0.691408  0.075562  1
  I  I16  1  0.074416  0.227935  0.679922  1
  I  I17  1  0.319835  0.929970  0.785387  1
  I  I18  1  0.776549  0.321073  0.927290  1
  I  I19  1  0.925959  0.772015  0.320128  1
