# generated using pymatgen
data_Yb4SnSb3Pt4
_symmetry_space_group_name_H-M   'P 1'
_cell_length_a   4.61157900
_cell_length_b   7.31009674
_cell_length_c   7.97861810
_cell_angle_alpha   90.47285422
_cell_angle_beta   90.00000000
_cell_angle_gamma   90.00000000
_symmetry_Int_Tables_number   1
_chemical_formula_structural   Yb4SnSb3Pt4
_chemical_formula_sum   'Yb4 Sn1 Sb3 Pt4'
_cell_volume   268.95874223
_cell_formula_units_Z   1
loop_
 _symmetry_equiv_pos_site_id
 _symmetry_equiv_pos_as_xyz
  1  'x, y, z'
loop_
 _atom_site_type_symbol
 _atom_site_label
 _atom_site_symmetry_multiplicity
 _atom_site_fract_x
 _atom_site_fract_y
 _atom_site_fract_z
 _atom_site_occupancy
  Yb  Yb0  1  0.250000  0.990325  0.305289  1
  Yb  Yb1  1  0.250000  0.485830  0.197148  1
  Yb  Yb2  1  0.750000  0.011367  0.694942  1
  Yb  Yb3  1  0.750000  0.513009  0.802773  1
  Sn  Sn4  1  0.750000  0.182813  0.085212  1
  Sb  Sb5  1  0.250000  0.316915  0.588001  1
  Sb  Sb6  1  0.250000  0.818582  0.914851  1
  Sb  Sb7  1  0.750000  0.683060  0.412137  1
  Pt  Pt8  1  0.250000  0.203773  0.910586  1
  Pt  Pt9  1  0.250000  0.704866  0.589795  1
  Pt  Pt10  1  0.750000  0.794434  0.090772  1
  Pt  Pt11  1  0.750000  0.295028  0.408496  1
