# generated using pymatgen
data_Li4Y4TlSn2Bi
_symmetry_space_group_name_H-M   'P 1'
_cell_length_a   9.44602579
_cell_length_b   9.44773577
_cell_length_c   7.36177105
_cell_angle_alpha   90.10960865
_cell_angle_beta   89.78024726
_cell_angle_gamma   119.99557357
_symmetry_Int_Tables_number   1
_chemical_formula_structural   Li4Y4TlSn2Bi
_chemical_formula_sum   'Li8 Y8 Tl2 Sn4 Bi2'
_cell_volume   568.99176313
_cell_formula_units_Z   2
loop_
 _symmetry_equiv_pos_site_id
 _symmetry_equiv_pos_as_xyz
  1  'x, y, z'
loop_
 _atom_site_type_symbol
 _atom_site_label
 _atom_site_symmetry_multiplicity
 _atom_site_fract_x
 _atom_site_fract_y
 _atom_site_fract_z
 _atom_site_occupancy
  Li  Li0  1  0.165500  0.829362  0.196840  1
  Li  Li1  1  0.336099  0.170622  0.696821  1
  Li  Li2  1  0.829571  0.663761  0.694456  1
  Li  Li3  1  0.165793  0.336264  0.194396  1
  Li  Li4  1  0.665131  0.832569  0.197514  1
  Li  Li5  1  0.832514  0.167437  0.697505  1
  Li  Li6  1  0.334950  0.665353  0.813768  1
  Li  Li7  1  0.669616  0.334645  0.313809  1
  Y  Y8  1  0.514717  0.492359  0.988355  1
  Y  Y9  1  0.022382  0.507626  0.488339  1
  Y  Y10  1  0.495721  0.975778  0.491703  1
  Y  Y11  1  0.519952  0.024175  0.991741  1
  Y  Y12  1  0.972587  0.481980  0.992129  1
  Y  Y13  1  0.490644  0.518013  0.492177  1
  Y  Y14  1  0.993182  0.000901  0.984939  1
  Y  Y15  1  0.992253  0.999156  0.484923  1
  Tl  Tl16  1  0.833746  0.666719  0.255857  1
  Tl  Tl17  1  0.166986  0.333274  0.755884  1
  Sn  Sn18  1  0.666765  0.833849  0.754424  1
  Sn  Sn19  1  0.832891  0.166163  0.254408  1
  Sn  Sn20  1  0.333317  0.667428  0.222265  1
  Sn  Sn21  1  0.665870  0.332566  0.722271  1
  Bi  Bi22  1  0.167028  0.834214  0.752775  1
  Bi  Bi23  1  0.332788  0.165786  0.252706  1
