# generated using pymatgen
data_La2Tb5GdSb20
_symmetry_space_group_name_H-M   'P 1'
_cell_length_a   4.29064200
_cell_length_b   13.39323130
_cell_length_c   14.85507900
_cell_angle_alpha   77.90242776
_cell_angle_beta   90.00000000
_cell_angle_gamma   90.00000000
_symmetry_Int_Tables_number   1
_chemical_formula_structural   La2Tb5GdSb20
_chemical_formula_sum   'La2 Tb5 Gd1 Sb20'
_cell_volume   834.69756509
_cell_formula_units_Z   1
loop_
 _symmetry_equiv_pos_site_id
 _symmetry_equiv_pos_as_xyz
  1  'x, y, z'
loop_
 _atom_site_type_symbol
 _atom_site_label
 _atom_site_symmetry_multiplicity
 _atom_site_fract_x
 _atom_site_fract_y
 _atom_site_fract_z
 _atom_site_occupancy
  La  La0  1  0.250000  0.952504  0.362045  1
  La  La1  1  0.750000  0.047386  0.637949  1
  Tb  Tb2  1  0.250000  0.661810  0.856842  1
  Tb  Tb3  1  0.250000  0.664296  0.578205  1
  Tb  Tb4  1  0.750000  0.335642  0.421737  1
  Tb  Tb5  1  0.250000  0.397762  0.772698  1
  Tb  Tb6  1  0.750000  0.602149  0.227299  1
  Gd  Gd7  1  0.750000  0.338485  0.142893  1
  Sb  Sb8  1  0.750000  0.844721  0.825854  1
  Sb  Sb9  1  0.250000  0.853753  0.679031  1
  Sb  Sb10  1  0.250000  0.153108  0.474921  1
  Sb  Sb11  1  0.750000  0.284609  0.937296  1
  Sb  Sb12  1  0.250000  0.145761  0.783953  1
  Sb  Sb13  1  0.750000  0.574491  0.443770  1
  Sb  Sb14  1  0.750000  0.145790  0.321249  1
  Sb  Sb15  1  0.250000  0.704805  0.351926  1
  Sb  Sb16  1  0.750000  0.295049  0.648061  1
  Sb  Sb17  1  0.750000  0.853951  0.216714  1
  Sb  Sb18  1  0.250000  0.420909  0.975311  1
  Sb  Sb19  1  0.250000  0.425501  0.556352  1
  Sb  Sb20  1  0.750000  0.575904  0.736139  1
  Sb  Sb21  1  0.250000  0.424188  0.264471  1
  Sb  Sb22  1  0.750000  0.846837  0.524880  1
  Sb  Sb23  1  0.750000  0.030868  0.895024  1
  Sb  Sb24  1  0.250000  0.716132  0.061794  1
  Sb  Sb25  1  0.250000  0.968829  0.105571  1
  Sb  Sb26  1  0.250000  0.155081  0.174256  1
  Sb  Sb27  1  0.750000  0.579679  0.023762  1
