# generated using pymatgen
data_Y8ReOs2WC8
_symmetry_space_group_name_H-M   'P 1'
_cell_length_a   5.12671100
_cell_length_b   6.58454919
_cell_length_c   9.89314856
_cell_angle_alpha   89.48964377
_cell_angle_beta   90.00000000
_cell_angle_gamma   90.00000000
_symmetry_Int_Tables_number   1
_chemical_formula_structural   Y8ReOs2WC8
_chemical_formula_sum   'Y8 Re1 Os2 W1 C8'
_cell_volume   333.95056638
_cell_formula_units_Z   1
loop_
 _symmetry_equiv_pos_site_id
 _symmetry_equiv_pos_as_xyz
  1  'x, y, z'
loop_
 _atom_site_type_symbol
 _atom_site_label
 _atom_site_symmetry_multiplicity
 _atom_site_fract_x
 _atom_site_fract_y
 _atom_site_fract_z
 _atom_site_occupancy
  Y  Y0  1  0.250000  0.678893  0.554905  1
  Y  Y1  1  0.750000  0.321421  0.444264  1
  Y  Y2  1  0.750000  0.821000  0.056479  1
  Y  Y3  1  0.250000  0.180087  0.943271  1
  Y  Y4  1  0.250000  0.534117  0.216372  1
  Y  Y5  1  0.750000  0.465317  0.780836  1
  Y  Y6  1  0.750000  0.969350  0.714866  1
  Y  Y7  1  0.250000  0.029792  0.284327  1
  Re  Re8  1  0.750000  0.278134  0.135509  1
  Os  Os9  1  0.750000  0.776015  0.363898  1
  Os  Os10  1  0.250000  0.223950  0.634320  1
  W  W11  1  0.250000  0.720527  0.866594  1
  C  C12  1  0.250000  0.453139  0.759240  1
  C  C13  1  0.750000  0.543732  0.240988  1
  C  C14  1  0.750000  0.043713  0.259066  1
  C  C15  1  0.250000  0.957914  0.740128  1
  C  C16  1  0.250000  0.824297  0.053710  1
  C  C17  1  0.750000  0.178678  0.952741  1
  C  C18  1  0.750000  0.677080  0.547428  1
  C  C19  1  0.250000  0.322843  0.451058  1
