# generated using pymatgen
data_Nd7Dy8Ho5Si16
_symmetry_space_group_name_H-M   'P 1'
_cell_length_a   7.79453564
_cell_length_b   7.78800057
_cell_length_c   14.45466800
_cell_angle_alpha   90.21967849
_cell_angle_beta   89.96279779
_cell_angle_gamma   90.10614869
_symmetry_Int_Tables_number   1
_chemical_formula_structural   Nd7Dy8Ho5Si16
_chemical_formula_sum   'Nd7 Dy8 Ho5 Si16'
_cell_volume   877.44583371
_cell_formula_units_Z   1
loop_
 _symmetry_equiv_pos_site_id
 _symmetry_equiv_pos_as_xyz
  1  'x, y, z'
loop_
 _atom_site_type_symbol
 _atom_site_label
 _atom_site_symmetry_multiplicity
 _atom_site_fract_x
 _atom_site_fract_y
 _atom_site_fract_z
 _atom_site_occupancy
  Nd  Nd0  1  0.006866  0.359359  0.542805  1
  Nd  Nd1  1  0.642242  0.992823  0.958711  1
  Nd  Nd2  1  0.137658  0.509648  0.793949  1
  Nd  Nd3  1  0.859428  0.490288  0.291285  1
  Nd  Nd4  1  0.508419  0.138117  0.205887  1
  Nd  Nd5  1  0.490386  0.861192  0.707319  1
  Nd  Nd6  1  0.359223  0.006987  0.456247  1
  Dy  Dy7  1  0.361774  0.490241  0.374981  1
  Dy  Dy8  1  0.861840  0.007091  0.373797  1
  Dy  Dy9  1  0.993036  0.136573  0.124421  1
  Dy  Dy10  1  0.008655  0.862961  0.624893  1
  Dy  Dy11  1  0.639968  0.512408  0.876905  1
  Dy  Dy12  1  0.490106  0.361738  0.625020  1
  Dy  Dy13  1  0.510503  0.639063  0.123918  1
  Dy  Dy14  1  0.136104  0.990936  0.876066  1
  Ho  Ho15  1  0.997252  0.634978  0.045242  1
  Ho  Ho16  1  0.681637  0.682498  0.499490  1
  Ho  Ho17  1  0.815705  0.184765  0.751098  1
  Ho  Ho18  1  0.183090  0.814585  0.249498  1
  Ho  Ho19  1  0.317337  0.318221  0.999976  1
  Si  Si20  1  0.063259  0.707594  0.437987  1
  Si  Si21  1  0.938253  0.295033  0.939816  1
  Si  Si22  1  0.708692  0.064656  0.561364  1
  Si  Si23  1  0.208845  0.437073  0.187027  1
  Si  Si24  1  0.789138  0.565410  0.688171  1
  Si  Si25  1  0.435908  0.210814  0.812475  1
  Si  Si26  1  0.565423  0.789285  0.311029  1
  Si  Si27  1  0.289506  0.933376  0.061950  1
  Si  Si28  1  0.843268  0.800864  0.807601  1
  Si  Si29  1  0.154112  0.201388  0.308760  1
  Si  Si30  1  0.802006  0.842514  0.187289  1
  Si  Si31  1  0.296430  0.654144  0.558746  1
  Si  Si32  1  0.706985  0.349691  0.061022  1
  Si  Si33  1  0.654212  0.296466  0.440590  1
  Si  Si34  1  0.341932  0.701425  0.942468  1
  Si  Si35  1  0.200798  0.155797  0.692199  1
