# generated using pymatgen
data_Ti6Si6Mo3IrRu2
_symmetry_space_group_name_H-M   'P 1'
_cell_length_a   7.56347637
_cell_length_b   7.53660730
_cell_length_c   7.56335533
_cell_angle_alpha   126.26438997
_cell_angle_beta   128.19566770
_cell_angle_gamma   77.96331004
_symmetry_Int_Tables_number   1
_chemical_formula_structural   Ti6Si6Mo3IrRu2
_chemical_formula_sum   'Ti6 Si6 Mo3 Ir1 Ru2'
_cell_volume   264.65418790
_cell_formula_units_Z   1
loop_
 _symmetry_equiv_pos_site_id
 _symmetry_equiv_pos_as_xyz
  1  'x, y, z'
loop_
 _atom_site_type_symbol
 _atom_site_label
 _atom_site_symmetry_multiplicity
 _atom_site_fract_x
 _atom_site_fract_y
 _atom_site_fract_z
 _atom_site_occupancy
  Ti  Ti0  1  0.243574  0.905311  0.157749  1
  Ti  Ti1  1  0.948812  0.482968  0.032019  1
  Ti  Ti2  1  0.054636  0.099983  0.546605  1
  Ti  Ti3  1  0.450739  0.482539  0.534000  1
  Ti  Ti4  1  0.747972  0.905704  0.661867  1
  Ti  Ti5  1  0.553859  0.100912  0.046331  1
  Si  Si6  1  0.753954  0.507610  0.255202  1
  Si  Si7  1  0.168198  0.158195  0.990196  1
  Si  Si8  1  0.665300  0.154129  0.488732  1
  Si  Si9  1  0.330090  0.823056  0.493787  1
  Si  Si10  1  0.251927  0.506859  0.753152  1
  Si  Si11  1  0.828583  0.826968  0.997656  1
  Mo  Mo12  1  0.500019  0.238419  0.738544  1
  Mo  Mo13  1  0.000721  0.238658  0.237819  1
  Mo  Mo14  1  0.868772  0.497311  0.628239  1
  Ir  Ir15  1  0.629553  0.757403  0.126698  1
  Ru  Ru16  1  0.371041  0.496799  0.125710  1
  Ru  Ru17  1  0.132250  0.759390  0.627903  1
