# generated using pymatgen
data_LiEr9Cd3Ru
_symmetry_space_group_name_H-M   'P 1'
_cell_length_a   9.35441400
_cell_length_b   9.35441523
_cell_length_c   9.63187600
_cell_angle_alpha   90.00000000
_cell_angle_beta   90.00000000
_cell_angle_gamma   120.00000274
_symmetry_Int_Tables_number   1
_chemical_formula_structural   LiEr9Cd3Ru
_chemical_formula_sum   'Li2 Er18 Cd6 Ru2'
_cell_volume   729.91910792
_cell_formula_units_Z   2
loop_
 _symmetry_equiv_pos_site_id
 _symmetry_equiv_pos_as_xyz
  1  'x, y, z'
loop_
 _atom_site_type_symbol
 _atom_site_label
 _atom_site_symmetry_multiplicity
 _atom_site_fract_x
 _atom_site_fract_y
 _atom_site_fract_z
 _atom_site_occupancy
  Li  Li0  1  0.000000  0.000000  0.500000  1
  Li  Li1  1  0.000000  0.000000  0.000000  1
  Er  Er2  1  0.208096  0.791904  0.442062  1
  Er  Er3  1  0.208096  0.416192  0.442062  1
  Er  Er4  1  0.583808  0.791904  0.442062  1
  Er  Er5  1  0.791904  0.208096  0.557938  1
  Er  Er6  1  0.791904  0.583808  0.557938  1
  Er  Er7  1  0.416192  0.208096  0.557938  1
  Er  Er8  1  0.791904  0.208096  0.942062  1
  Er  Er9  1  0.791904  0.583808  0.942062  1
  Er  Er10  1  0.416192  0.208096  0.942062  1
  Er  Er11  1  0.208096  0.791904  0.057938  1
  Er  Er12  1  0.208096  0.416192  0.057938  1
  Er  Er13  1  0.583808  0.791904  0.057938  1
  Er  Er14  1  0.542402  0.457598  0.250000  1
  Er  Er15  1  0.542402  0.084805  0.250000  1
  Er  Er16  1  0.915195  0.457598  0.250000  1
  Er  Er17  1  0.457598  0.542402  0.750000  1
  Er  Er18  1  0.457598  0.915195  0.750000  1
  Er  Er19  1  0.084805  0.542402  0.750000  1
  Cd  Cd20  1  0.891598  0.108402  0.250000  1
  Cd  Cd21  1  0.891598  0.783196  0.250000  1
  Cd  Cd22  1  0.216804  0.108402  0.250000  1
  Cd  Cd23  1  0.108402  0.891598  0.750000  1
  Cd  Cd24  1  0.108402  0.216804  0.750000  1
  Cd  Cd25  1  0.783196  0.891598  0.750000  1
  Ru  Ru26  1  0.333333  0.666667  0.250000  1
  Ru  Ru27  1  0.666667  0.333333  0.750000  1
