# generated using pymatgen
data_Dy3Cd5(IO6)4
_symmetry_space_group_name_H-M   'P 1'
_cell_length_a   5.34292300
_cell_length_b   7.60064672
_cell_length_c   11.27230700
_cell_angle_alpha   79.23064288
_cell_angle_beta   90.00000000
_cell_angle_gamma   90.00000000
_symmetry_Int_Tables_number   1
_chemical_formula_structural   Dy3Cd5(IO6)4
_chemical_formula_sum   'Dy3 Cd5 I4 O24'
_cell_volume   449.70220906
_cell_formula_units_Z   1
loop_
 _symmetry_equiv_pos_site_id
 _symmetry_equiv_pos_as_xyz
  1  'x, y, z'
loop_
 _atom_site_type_symbol
 _atom_site_label
 _atom_site_symmetry_multiplicity
 _atom_site_fract_x
 _atom_site_fract_y
 _atom_site_fract_z
 _atom_site_occupancy
  Dy  Dy0  1  0.245209  0.000000  0.250000  1
  Dy  Dy1  1  0.685641  0.500000  0.750000  1
  Dy  Dy2  1  0.311054  0.500000  0.250000  1
  Cd  Cd3  1  0.748048  0.000000  0.750000  1
  Cd  Cd4  1  0.199164  0.779018  0.582474  1
  Cd  Cd5  1  0.798330  0.774000  0.076663  1
  Cd  Cd6  1  0.199164  0.220982  0.917526  1
  Cd  Cd7  1  0.798330  0.226000  0.423337  1
  I  I8  1  0.263613  0.735582  0.887263  1
  I  I9  1  0.737312  0.740603  0.385229  1
  I  I10  1  0.263613  0.264418  0.612737  1
  I  I11  1  0.737312  0.259397  0.114771  1
  O  O12  1  0.074548  0.949960  0.882529  1
  O  O13  1  0.536145  0.862190  0.933590  1
  O  O14  1  0.916924  0.957526  0.383140  1
  O  O15  1  0.455619  0.782648  0.734675  1
  O  O16  1  0.448213  0.854858  0.429559  1
  O  O17  1  0.986947  0.680268  0.795516  1
  O  O18  1  0.546630  0.791010  0.231273  1
  O  O19  1  0.841910  0.662665  0.545975  1
  O  O20  1  0.392183  0.504782  0.893739  1
  O  O21  1  0.026045  0.699263  0.291479  1
  O  O22  1  0.392183  0.495218  0.606261  1
  O  O23  1  0.841910  0.337335  0.954025  1
  O  O24  1  0.161788  0.659801  0.049793  1
  O  O25  1  0.619653  0.509386  0.386046  1
  O  O26  1  0.986947  0.319732  0.704484  1
  O  O27  1  0.619653  0.490614  0.113954  1
  O  O28  1  0.161788  0.340199  0.450207  1
  O  O29  1  0.455619  0.217352  0.765325  1
  O  O30  1  0.026045  0.300737  0.208521  1
  O  O31  1  0.536145  0.137810  0.566410  1
  O  O32  1  0.546630  0.208990  0.268727  1
  O  O33  1  0.074548  0.050040  0.617471  1
  O  O34  1  0.448213  0.145142  0.070441  1
  O  O35  1  0.916924  0.042474  0.116860  1
