# generated using pymatgen
data_TbSm2Tm3CoBr10
_symmetry_space_group_name_H-M   'P 1'
_cell_length_a   7.35001333
_cell_length_b   9.14457551
_cell_length_c   9.18187484
_cell_angle_alpha   108.18906373
_cell_angle_beta   97.13725545
_cell_angle_gamma   104.23348029
_symmetry_Int_Tables_number   1
_chemical_formula_structural   TbSm2Tm3CoBr10
_chemical_formula_sum   'Tb1 Sm2 Tm3 Co1 Br10'
_cell_volume   554.60067118
_cell_formula_units_Z   1
loop_
 _symmetry_equiv_pos_site_id
 _symmetry_equiv_pos_as_xyz
  1  'x, y, z'
loop_
 _atom_site_type_symbol
 _atom_site_label
 _atom_site_symmetry_multiplicity
 _atom_site_fract_x
 _atom_site_fract_y
 _atom_site_fract_z
 _atom_site_occupancy
  Tb  Tb0  1  0.644686  0.870455  0.321209  1
  Sm  Sm1  1  0.034755  0.715448  0.412201  1
  Sm  Sm2  1  0.967827  0.285543  0.589635  1
  Tm  Tm3  1  0.881687  0.956824  0.743373  1
  Tm  Tm4  1  0.121000  0.045012  0.257873  1
  Tm  Tm5  1  0.349953  0.126910  0.675020  1
  Co  Co6  1  0.000239  0.000284  0.500079  1
  Br  Br7  1  0.459577  0.825608  0.589377  1
  Br  Br8  1  0.539407  0.178362  0.415906  1
  Br  Br9  1  0.910691  0.636454  0.679725  1
  Br  Br10  1  0.090221  0.364353  0.321388  1
  Br  Br11  1  0.247868  0.084896  0.957672  1
  Br  Br12  1  0.757775  0.917764  0.039917  1
  Br  Br13  1  0.357476  0.445746  0.773361  1
  Br  Br14  1  0.647319  0.549017  0.227959  1
  Br  Br15  1  0.771323  0.246502  0.846601  1
  Br  Br16  1  0.218195  0.750821  0.148703  1
