# generated using pymatgen
data_LaYb7(MgRu)2
_symmetry_space_group_name_H-M   'P 1'
_cell_length_a   10.03578344
_cell_length_b   10.03578312
_cell_length_c   9.93630000
_cell_angle_alpha   60.32737595
_cell_angle_beta   60.32737697
_cell_angle_gamma   59.34524918
_symmetry_Int_Tables_number   1
_chemical_formula_structural   LaYb7(MgRu)2
_chemical_formula_sum   'La2 Yb14 Mg4 Ru4'
_cell_volume   707.50209365
_cell_formula_units_Z   2
loop_
 _symmetry_equiv_pos_site_id
 _symmetry_equiv_pos_as_xyz
  1  'x, y, z'
loop_
 _atom_site_type_symbol
 _atom_site_label
 _atom_site_symmetry_multiplicity
 _atom_site_fract_x
 _atom_site_fract_y
 _atom_site_fract_z
 _atom_site_occupancy
  La  La0  1  0.065250  0.065250  0.434750  1
  La  La1  1  0.434750  0.434750  0.065250  1
  Yb  Yb2  1  0.796061  0.203939  0.203939  1
  Yb  Yb3  1  0.201409  0.201409  0.798591  1
  Yb  Yb4  1  0.798591  0.798591  0.201409  1
  Yb  Yb5  1  0.203939  0.796061  0.796061  1
  Yb  Yb6  1  0.590582  0.590582  0.228097  1
  Yb  Yb7  1  0.442154  0.057846  0.057846  1
  Yb  Yb8  1  0.057846  0.442154  0.057846  1
  Yb  Yb9  1  0.442154  0.057846  0.442154  1
  Yb  Yb10  1  0.228097  0.590739  0.590582  1
  Yb  Yb11  1  0.057846  0.442154  0.442154  1
  Yb  Yb12  1  0.590739  0.228097  0.590582  1
  Yb  Yb13  1  0.590582  0.590582  0.590739  1
  Yb  Yb14  1  0.203939  0.796061  0.203939  1
  Yb  Yb15  1  0.796061  0.203939  0.796061  1
  Mg  Mg16  1  0.829127  0.829127  0.826644  1
  Mg  Mg17  1  0.515103  0.826644  0.829127  1
  Mg  Mg18  1  0.826644  0.515103  0.829127  1
  Mg  Mg19  1  0.829127  0.829127  0.515103  1
  Ru  Ru20  1  0.857175  0.357505  0.392660  1
  Ru  Ru21  1  0.392660  0.392660  0.357505  1
  Ru  Ru22  1  0.357505  0.857175  0.392660  1
  Ru  Ru23  1  0.392660  0.392660  0.857175  1
