# generated using pymatgen
data_Dy10Al4IrRu5
_symmetry_space_group_name_H-M   'P 1'
_cell_length_a   8.33730446
_cell_length_b   8.35378110
_cell_length_c   8.35378012
_cell_angle_alpha   109.51437890
_cell_angle_beta   109.67868326
_cell_angle_gamma   109.30081261
_symmetry_Int_Tables_number   1
_chemical_formula_structural   Dy10Al4IrRu5
_chemical_formula_sum   'Dy10 Al4 Ir1 Ru5'
_cell_volume   447.44089244
_cell_formula_units_Z   1
loop_
 _symmetry_equiv_pos_site_id
 _symmetry_equiv_pos_as_xyz
  1  'x, y, z'
loop_
 _atom_site_type_symbol
 _atom_site_label
 _atom_site_symmetry_multiplicity
 _atom_site_fract_x
 _atom_site_fract_y
 _atom_site_fract_z
 _atom_site_occupancy
  Dy  Dy0  1  0.250000  0.680407  0.430407  1
  Dy  Dy1  1  0.750000  0.819643  0.069643  1
  Dy  Dy2  1  0.432625  0.251408  0.679244  1
  Dy  Dy3  1  0.679973  0.430660  0.249816  1
  Dy  Dy4  1  0.067375  0.746619  0.818783  1
  Dy  Dy5  1  0.820027  0.069843  0.750687  1
  Dy  Dy6  1  0.212830  0.214527  0.215037  1
  Dy  Dy7  1  0.500188  0.999447  0.287390  1
  Dy  Dy8  1  0.287170  0.502208  0.001697  1
  Dy  Dy9  1  0.999812  0.287201  0.499259  1
  Al  Al10  1  0.588718  0.589027  0.588448  1
  Al  Al11  1  0.499738  0.998751  0.910320  1
  Al  Al12  1  0.911282  0.499729  0.000309  1
  Al  Al13  1  0.000262  0.910582  0.499012  1
  Ir  Ir14  1  0.250000  0.122543  0.872543  1
  Ru  Ru15  1  0.750000  0.376764  0.626764  1
  Ru  Ru16  1  0.871369  0.249924  0.121871  1
  Ru  Ru17  1  0.123453  0.873659  0.250010  1
  Ru  Ru18  1  0.628630  0.750501  0.378554  1
  Ru  Ru19  1  0.376547  0.626556  0.750206  1
