# generated using pymatgen
data_Dy3Ho5Ti9Si16Tc3
_symmetry_space_group_name_H-M   'P 1'
_cell_length_a   6.97568993
_cell_length_b   6.97587535
_cell_length_c   12.81193969
_cell_angle_alpha   90.06582466
_cell_angle_beta   89.93293645
_cell_angle_gamma   90.01429533
_symmetry_Int_Tables_number   1
_chemical_formula_structural   Dy3Ho5Ti9Si16Tc3
_chemical_formula_sum   'Dy3 Ho5 Ti9 Si16 Tc3'
_cell_volume   623.44790224
_cell_formula_units_Z   1
loop_
 _symmetry_equiv_pos_site_id
 _symmetry_equiv_pos_as_xyz
  1  'x, y, z'
loop_
 _atom_site_type_symbol
 _atom_site_label
 _atom_site_symmetry_multiplicity
 _atom_site_fract_x
 _atom_site_fract_y
 _atom_site_fract_z
 _atom_site_occupancy
  Dy  Dy0  1  0.340490  0.001694  0.467306  1
  Dy  Dy1  1  0.498588  0.841624  0.719414  1
  Dy  Dy2  1  0.500358  0.158775  0.217793  1
  Ho  Ho3  1  0.841883  0.498879  0.280635  1
  Ho  Ho4  1  0.158526  0.499973  0.782274  1
  Ho  Ho5  1  0.658871  0.999639  0.968442  1
  Ho  Ho6  1  0.001339  0.340771  0.532735  1
  Ho  Ho7  1  0.999591  0.658720  0.031664  1
  Ti  Ti8  1  0.674090  0.673800  0.499970  1
  Ti  Ti9  1  0.151953  0.005756  0.877246  1
  Ti  Ti10  1  0.494382  0.653542  0.124609  1
  Ti  Ti11  1  0.505183  0.347873  0.627755  1
  Ti  Ti12  1  0.653575  0.494394  0.875442  1
  Ti  Ti13  1  0.347815  0.505099  0.372283  1
  Ti  Ti14  1  0.847242  0.992197  0.375951  1
  Ti  Ti15  1  0.005622  0.152021  0.122819  1
  Ti  Ti16  1  0.992203  0.847176  0.624067  1
  Si  Si17  1  0.199736  0.129662  0.684084  1
  Si  Si18  1  0.370324  0.700397  0.933240  1
  Si  Si19  1  0.631705  0.297365  0.434551  1
  Si  Si20  1  0.700797  0.370638  0.066752  1
  Si  Si21  1  0.296863  0.630847  0.565496  1
  Si  Si22  1  0.799416  0.869917  0.183582  1
  Si  Si23  1  0.128831  0.200287  0.315883  1
  Si  Si24  1  0.870415  0.799105  0.816420  1
  Si  Si25  1  0.290343  0.951865  0.066630  1
  Si  Si26  1  0.547483  0.789869  0.315790  1
  Si  Si27  1  0.452030  0.210853  0.816887  1
  Si  Si28  1  0.790567  0.546930  0.684153  1
  Si  Si29  1  0.210239  0.452308  0.183130  1
  Si  Si30  1  0.708420  0.049574  0.567461  1
  Si  Si31  1  0.952121  0.290617  0.933284  1
  Si  Si32  1  0.048982  0.707651  0.432480  1
  Tc  Tc33  1  0.327915  0.328069  0.999862  1
  Tc  Tc34  1  0.173742  0.828033  0.248462  1
  Tc  Tc35  1  0.828357  0.174079  0.751450  1
