# generated using pymatgen
data_Li2CeHoAs4
_symmetry_space_group_name_H-M   'P 1'
_cell_length_a   3.94868900
_cell_length_b   3.94868900
_cell_length_c   10.31743000
_cell_angle_alpha   90.00000000
_cell_angle_beta   90.00000000
_cell_angle_gamma   90.00000000
_symmetry_Int_Tables_number   1
_chemical_formula_structural   Li2CeHoAs4
_chemical_formula_sum   'Li2 Ce1 Ho1 As4'
_cell_volume   160.87086272
_cell_formula_units_Z   1
loop_
 _symmetry_equiv_pos_site_id
 _symmetry_equiv_pos_as_xyz
  1  'x, y, z'
loop_
 _atom_site_type_symbol
 _atom_site_label
 _atom_site_symmetry_multiplicity
 _atom_site_fract_x
 _atom_site_fract_y
 _atom_site_fract_z
 _atom_site_occupancy
  Li  Li0  1  0.500000  0.500000  0.496432  1
  Li  Li1  1  0.000000  0.000000  0.496432  1
  Ce  Ce2  1  0.000000  0.500000  0.774076  1
  Ho  Ho3  1  0.500000  0.000000  0.226856  1
  As  As4  1  0.000000  0.000000  0.002662  1
  As  As5  1  0.500000  0.500000  0.002662  1
  As  As6  1  0.000000  0.500000  0.334518  1
  As  As7  1  0.500000  0.000000  0.666359  1
