# generated using pymatgen
data_Hf3SiMo3As2
_symmetry_space_group_name_H-M   'P 1'
_cell_length_a   7.08190800
_cell_length_b   7.08190916
_cell_length_c   3.48859500
_cell_angle_alpha   90.00000000
_cell_angle_beta   90.00000000
_cell_angle_gamma   120.00000391
_symmetry_Int_Tables_number   1
_chemical_formula_structural   Hf3SiMo3As2
_chemical_formula_sum   'Hf3 Si1 Mo3 As2'
_cell_volume   151.52413068
_cell_formula_units_Z   1
loop_
 _symmetry_equiv_pos_site_id
 _symmetry_equiv_pos_as_xyz
  1  'x, y, z'
loop_
 _atom_site_type_symbol
 _atom_site_label
 _atom_site_symmetry_multiplicity
 _atom_site_fract_x
 _atom_site_fract_y
 _atom_site_fract_z
 _atom_site_occupancy
  Hf  Hf0  1  0.000000  0.603151  0.500000  1
  Hf  Hf1  1  0.396849  0.396849  0.500000  1
  Hf  Hf2  1  0.603151  0.000000  0.500000  1
  Si  Si3  1  0.000000  0.000000  0.500000  1
  Mo  Mo4  1  0.252849  0.000000  0.000000  1
  Mo  Mo5  1  0.747151  0.747151  0.000000  1
  Mo  Mo6  1  0.000000  0.252849  0.000000  1
  As  As7  1  0.666667  0.333333  0.000000  1
  As  As8  1  0.333333  0.666667  0.000000  1
