# generated using pymatgen
data_Zr2As2H
_symmetry_space_group_name_H-M   'P 1'
_cell_length_a   5.15736964
_cell_length_b   5.15713184
_cell_length_c   6.38382748
_cell_angle_alpha   128.22805285
_cell_angle_beta   128.23272902
_cell_angle_gamma   88.94271870
_symmetry_Int_Tables_number   1
_chemical_formula_structural   Zr2As2H
_chemical_formula_sum   'Zr2 As2 H1'
_cell_volume   84.53920576
_cell_formula_units_Z   1
loop_
 _symmetry_equiv_pos_site_id
 _symmetry_equiv_pos_as_xyz
  1  'x, y, z'
loop_
 _atom_site_type_symbol
 _atom_site_label
 _atom_site_symmetry_multiplicity
 _atom_site_fract_x
 _atom_site_fract_y
 _atom_site_fract_z
 _atom_site_occupancy
  Zr  Zr0  1  0.396710  0.829891  0.655612  1
  Zr  Zr1  1  0.895963  0.330586  0.675038  1
  As  As2  1  0.654041  0.572518  0.333058  1
  As  As3  1  0.138543  0.087884  0.334074  1
  H  H4  1  0.900221  0.325733  0.998232  1
