# generated using pymatgen
data_Nd8Ag2IrRh
_symmetry_space_group_name_H-M   'P 1'
_cell_length_a   9.89011063
_cell_length_b   9.89010970
_cell_length_c   9.90163800
_cell_angle_alpha   59.96143348
_cell_angle_beta   59.96143657
_cell_angle_gamma   59.93393875
_symmetry_Int_Tables_number   1
_chemical_formula_structural   Nd8Ag2IrRh
_chemical_formula_sum   'Nd16 Ag4 Ir2 Rh2'
_cell_volume   684.10673105
_cell_formula_units_Z   2
loop_
 _symmetry_equiv_pos_site_id
 _symmetry_equiv_pos_as_xyz
  1  'x, y, z'
loop_
 _atom_site_type_symbol
 _atom_site_label
 _atom_site_symmetry_multiplicity
 _atom_site_fract_x
 _atom_site_fract_y
 _atom_site_fract_z
 _atom_site_occupancy
  Nd  Nd0  1  0.601078  0.601078  0.601156  1
  Nd  Nd1  1  0.601078  0.601078  0.196687  1
  Nd  Nd2  1  0.601487  0.195254  0.601629  1
  Nd  Nd3  1  0.195254  0.601487  0.601629  1
  Nd  Nd4  1  0.060532  0.438022  0.440071  1
  Nd  Nd5  1  0.438022  0.060532  0.061374  1
  Nd  Nd6  1  0.438022  0.060532  0.440071  1
  Nd  Nd7  1  0.060532  0.438022  0.061374  1
  Nd  Nd8  1  0.438895  0.438895  0.061105  1
  Nd  Nd9  1  0.060779  0.060779  0.439221  1
  Nd  Nd10  1  0.188107  0.812077  0.813093  1
  Nd  Nd11  1  0.812077  0.188107  0.186723  1
  Nd  Nd12  1  0.812077  0.188107  0.813093  1
  Nd  Nd13  1  0.188107  0.812077  0.186723  1
  Nd  Nd14  1  0.813513  0.813513  0.186487  1
  Nd  Nd15  1  0.188277  0.188277  0.811723  1
  Ag  Ag16  1  0.831422  0.831422  0.831451  1
  Ag  Ag17  1  0.831422  0.831422  0.505706  1
  Ag  Ag18  1  0.831219  0.506293  0.831245  1
  Ag  Ag19  1  0.506293  0.831219  0.831245  1
  Ir  Ir20  1  0.393219  0.393219  0.391670  1
  Ir  Ir21  1  0.393219  0.393219  0.821889  1
  Rh  Rh22  1  0.393282  0.822083  0.392316  1
  Rh  Rh23  1  0.822083  0.393282  0.392316  1
