# generated using pymatgen
data_SrTiV2O8
_symmetry_space_group_name_H-M   'P 1'
_cell_length_a   5.21598002
_cell_length_b   5.21598022
_cell_length_c   7.24175326
_cell_angle_alpha   88.79972985
_cell_angle_beta   88.79972956
_cell_angle_gamma   66.42226209
_symmetry_Int_Tables_number   1
_chemical_formula_structural   SrTiV2O8
_chemical_formula_sum   'Sr1 Ti1 V2 O8'
_cell_volume   180.51800337
_cell_formula_units_Z   1
loop_
 _symmetry_equiv_pos_site_id
 _symmetry_equiv_pos_as_xyz
  1  'x, y, z'
loop_
 _atom_site_type_symbol
 _atom_site_label
 _atom_site_symmetry_multiplicity
 _atom_site_fract_x
 _atom_site_fract_y
 _atom_site_fract_z
 _atom_site_occupancy
  Sr  Sr0  1  0.000000  0.000000  0.500000  1
  Ti  Ti1  1  0.000000  0.000000  0.000000  1
  V  V2  1  0.365300  0.365300  0.784054  1
  V  V3  1  0.634700  0.634700  0.215946  1
  O  O4  1  0.291684  0.291684  0.572142  1
  O  O5  1  0.708316  0.708316  0.427858  1
  O  O6  1  0.737215  0.215808  0.803885  1
  O  O7  1  0.262785  0.784192  0.196115  1
  O  O8  1  0.784192  0.262785  0.196115  1
  O  O9  1  0.215808  0.737215  0.803885  1
  O  O10  1  0.219046  0.219046  0.949706  1
  O  O11  1  0.780954  0.780954  0.050294  1
