# generated using pymatgen
data_NaSr4Fe9NiAs10
_symmetry_space_group_name_H-M   'P 1'
_cell_length_a   8.77415057
_cell_length_b   8.59767115
_cell_length_c   8.77544236
_cell_angle_alpha   59.33806392
_cell_angle_beta   90.03301472
_cell_angle_gamma   59.31716171
_symmetry_Int_Tables_number   1
_chemical_formula_structural   NaSr4Fe9NiAs10
_chemical_formula_sum   'Na1 Sr4 Fe9 Ni1 As10'
_cell_volume   458.27945536
_cell_formula_units_Z   1
loop_
 _symmetry_equiv_pos_site_id
 _symmetry_equiv_pos_as_xyz
  1  'x, y, z'
loop_
 _atom_site_type_symbol
 _atom_site_label
 _atom_site_symmetry_multiplicity
 _atom_site_fract_x
 _atom_site_fract_y
 _atom_site_fract_z
 _atom_site_occupancy
  Na  Na0  1  0.999730  0.000450  0.000021  1
  Sr  Sr1  1  0.197874  0.000172  0.604970  1
  Sr  Sr2  1  0.393276  0.001758  0.196312  1
  Sr  Sr3  1  0.606141  0.998900  0.802378  1
  Sr  Sr4  1  0.802383  0.998719  0.395906  1
  Fe  Fe5  1  0.150931  0.497184  0.450196  1
  Fe  Fe6  1  0.350768  0.500887  0.048822  1
  Fe  Fe7  1  0.547413  0.502929  0.649203  1
  Fe  Fe8  1  0.751751  0.497876  0.252222  1
  Fe  Fe9  1  0.849589  0.501071  0.551709  1
  Fe  Fe10  1  0.049768  0.499664  0.148418  1
  Fe  Fe11  1  0.248017  0.499987  0.750261  1
  Fe  Fe12  1  0.450532  0.499070  0.350264  1
  Fe  Fe13  1  0.652206  0.499990  0.949768  1
  Ni  Ni14  1  0.949508  0.500848  0.849411  1
  As  As15  1  0.156740  0.289692  0.751117  1
  As  As16  1  0.354467  0.292345  0.352400  1
  As  As17  1  0.554720  0.291653  0.953995  1
  As  As18  1  0.753558  0.292514  0.555623  1
  As  As19  1  0.953898  0.288940  0.159225  1
  As  As20  1  0.639935  0.711680  0.642647  1
  As  As21  1  0.846264  0.708026  0.246326  1
  As  As22  1  0.048829  0.710609  0.847159  1
  As  As23  1  0.244220  0.707716  0.444835  1
  As  As24  1  0.447482  0.707321  0.046811  1
