# generated using pymatgen
data_Dy2Y4Ir7Rh11
_symmetry_space_group_name_H-M   'P 1'
_cell_length_a   5.29581800
_cell_length_b   5.29581893
_cell_length_c   17.51939700
_cell_angle_alpha   90.00000000
_cell_angle_beta   90.00000000
_cell_angle_gamma   119.99999417
_symmetry_Int_Tables_number   1
_chemical_formula_structural   Dy2Y4Ir7Rh11
_chemical_formula_sum   'Dy2 Y4 Ir7 Rh11'
_cell_volume   425.51609396
_cell_formula_units_Z   1
loop_
 _symmetry_equiv_pos_site_id
 _symmetry_equiv_pos_as_xyz
  1  'x, y, z'
loop_
 _atom_site_type_symbol
 _atom_site_label
 _atom_site_symmetry_multiplicity
 _atom_site_fract_x
 _atom_site_fract_y
 _atom_site_fract_z
 _atom_site_occupancy
  Dy  Dy0  1  0.333333  0.666667  0.958453  1
  Dy  Dy1  1  0.666667  0.333333  0.041547  1
  Y  Y2  1  0.666667  0.333333  0.458274  1
  Y  Y3  1  0.333333  0.666667  0.541726  1
  Y  Y4  1  0.333333  0.666667  0.749357  1
  Y  Y5  1  0.666667  0.333333  0.250643  1
  Ir  Ir6  1  0.167498  0.832502  0.372271  1
  Ir  Ir7  1  0.167498  0.334996  0.372271  1
  Ir  Ir8  1  0.665004  0.832502  0.372271  1
  Ir  Ir9  1  0.832502  0.167498  0.627729  1
  Ir  Ir10  1  0.832502  0.665004  0.627729  1
  Ir  Ir11  1  0.334996  0.167498  0.627729  1
  Ir  Ir12  1  0.000000  0.000000  0.000000  1
  Rh  Rh13  1  0.832802  0.167198  0.875932  1
  Rh  Rh14  1  0.832802  0.665603  0.875932  1
  Rh  Rh15  1  0.334397  0.167198  0.875932  1
  Rh  Rh16  1  0.167198  0.832802  0.124068  1
  Rh  Rh17  1  0.167198  0.334397  0.124068  1
  Rh  Rh18  1  0.665603  0.832802  0.124068  1
  Rh  Rh19  1  0.333333  0.666667  0.248797  1
  Rh  Rh20  1  0.666667  0.333333  0.751203  1
  Rh  Rh21  1  0.000000  0.000000  0.249241  1
  Rh  Rh22  1  0.000000  0.000000  0.750759  1
  Rh  Rh23  1  0.000000  0.000000  0.500000  1
