# generated using pymatgen
data_Lu4Al4Ir3Pt
_symmetry_space_group_name_H-M   'P 1'
_cell_length_a   4.24008600
_cell_length_b   6.72343643
_cell_length_c   7.86148146
_cell_angle_alpha   90.04007195
_cell_angle_beta   90.00000000
_cell_angle_gamma   90.00000000
_symmetry_Int_Tables_number   1
_chemical_formula_structural   Lu4Al4Ir3Pt
_chemical_formula_sum   'Lu4 Al4 Ir3 Pt1'
_cell_volume   224.11465516
_cell_formula_units_Z   1
loop_
 _symmetry_equiv_pos_site_id
 _symmetry_equiv_pos_as_xyz
  1  'x, y, z'
loop_
 _atom_site_type_symbol
 _atom_site_label
 _atom_site_symmetry_multiplicity
 _atom_site_fract_x
 _atom_site_fract_y
 _atom_site_fract_z
 _atom_site_occupancy
  Lu  Lu0  1  0.250000  0.029917  0.675000  1
  Lu  Lu1  1  0.250000  0.537105  0.821014  1
  Lu  Lu2  1  0.750000  0.967681  0.323465  1
  Lu  Lu3  1  0.750000  0.468786  0.180259  1
  Al  Al4  1  0.250000  0.137682  0.061453  1
  Al  Al5  1  0.250000  0.638211  0.440657  1
  Al  Al6  1  0.750000  0.859002  0.940881  1
  Al  Al7  1  0.750000  0.362350  0.557312  1
  Ir  Ir8  1  0.250000  0.263459  0.375537  1
  Ir  Ir9  1  0.250000  0.763269  0.123471  1
  Ir  Ir10  1  0.750000  0.736676  0.625211  1
  Pt  Pt11  1  0.750000  0.235862  0.875739  1
