# generated using pymatgen
data_Ti4V4SiP3
_symmetry_space_group_name_H-M   'P 1'
_cell_length_a   3.33001200
_cell_length_b   6.41573469
_cell_length_c   7.73627842
_cell_angle_alpha   89.81164194
_cell_angle_beta   90.00000000
_cell_angle_gamma   90.00000000
_symmetry_Int_Tables_number   1
_chemical_formula_structural   Ti4V4SiP3
_chemical_formula_sum   'Ti4 V4 Si1 P3'
_cell_volume   165.28062229
_cell_formula_units_Z   1
loop_
 _symmetry_equiv_pos_site_id
 _symmetry_equiv_pos_as_xyz
  1  'x, y, z'
loop_
 _atom_site_type_symbol
 _atom_site_label
 _atom_site_symmetry_multiplicity
 _atom_site_fract_x
 _atom_site_fract_y
 _atom_site_fract_z
 _atom_site_occupancy
  Ti  Ti0  1  0.250000  0.543234  0.169362  1
  Ti  Ti1  1  0.750000  0.450589  0.831956  1
  Ti  Ti2  1  0.750000  0.959645  0.663307  1
  Ti  Ti3  1  0.250000  0.042084  0.331313  1
  V  V4  1  0.250000  0.630709  0.557143  1
  V  V5  1  0.750000  0.365698  0.439160  1
  V  V6  1  0.750000  0.871345  0.065020  1
  V  V7  1  0.250000  0.136305  0.941060  1
  Si  Si8  1  0.250000  0.753892  0.860901  1
  P  P9  1  0.750000  0.247475  0.140174  1
  P  P10  1  0.750000  0.744527  0.360944  1
  P  P11  1  0.250000  0.254495  0.639660  1
