# generated using pymatgen
data_YbCrNi4P3
_symmetry_space_group_name_H-M   'P 1'
_cell_length_a   3.63484300
_cell_length_b   10.41317700
_cell_length_c   11.92869700
_cell_angle_alpha   90.00000000
_cell_angle_beta   90.00000000
_cell_angle_gamma   90.00000000
_symmetry_Int_Tables_number   1
_chemical_formula_structural   YbCrNi4P3
_chemical_formula_sum   'Yb4 Cr4 Ni16 P12'
_cell_volume   451.50432497
_cell_formula_units_Z   4
loop_
 _symmetry_equiv_pos_site_id
 _symmetry_equiv_pos_as_xyz
  1  'x, y, z'
loop_
 _atom_site_type_symbol
 _atom_site_label
 _atom_site_symmetry_multiplicity
 _atom_site_fract_x
 _atom_site_fract_y
 _atom_site_fract_z
 _atom_site_occupancy
  Yb  Yb0  1  0.250000  0.582475  0.705878  1
  Yb  Yb1  1  0.250000  0.917525  0.205878  1
  Yb  Yb2  1  0.750000  0.417525  0.294122  1
  Yb  Yb3  1  0.750000  0.082475  0.794122  1
  Cr  Cr4  1  0.250000  0.709968  0.989177  1
  Cr  Cr5  1  0.250000  0.790032  0.489177  1
  Cr  Cr6  1  0.750000  0.290032  0.010823  1
  Cr  Cr7  1  0.750000  0.209968  0.510823  1
  Ni  Ni8  1  0.250000  0.409040  0.487499  1
  Ni  Ni9  1  0.250000  0.090960  0.987499  1
  Ni  Ni10  1  0.750000  0.590960  0.512501  1
  Ni  Ni11  1  0.750000  0.909040  0.012501  1
  Ni  Ni12  1  0.250000  0.219926  0.177870  1
  Ni  Ni13  1  0.250000  0.280074  0.677870  1
  Ni  Ni14  1  0.750000  0.780074  0.822130  1
  Ni  Ni15  1  0.750000  0.719926  0.322130  1
  Ni  Ni16  1  0.250000  0.884306  0.701507  1
  Ni  Ni17  1  0.250000  0.615694  0.201507  1
  Ni  Ni18  1  0.750000  0.115694  0.298493  1
  Ni  Ni19  1  0.750000  0.384306  0.798493  1
  Ni  Ni20  1  0.250000  0.467480  0.929985  1
  Ni  Ni21  1  0.250000  0.032520  0.429985  1
  Ni  Ni22  1  0.750000  0.532520  0.070015  1
  Ni  Ni23  1  0.750000  0.967480  0.570015  1
  P  P24  1  0.250000  0.415630  0.111587  1
  P  P25  1  0.250000  0.084370  0.611587  1
  P  P26  1  0.750000  0.584370  0.888413  1
  P  P27  1  0.750000  0.915630  0.388413  1
  P  P28  1  0.250000  0.267858  0.870467  1
  P  P29  1  0.250000  0.232142  0.370467  1
  P  P30  1  0.750000  0.732142  0.129533  1
  P  P31  1  0.750000  0.767858  0.629533  1
  P  P32  1  0.250000  0.599986  0.390985  1
  P  P33  1  0.250000  0.900014  0.890985  1
  P  P34  1  0.750000  0.400014  0.609015  1
  P  P35  1  0.750000  0.099986  0.109015  1
