# generated using pymatgen
data_Y3Cd2Os3O14
_symmetry_space_group_name_H-M   'P 1'
_cell_length_a   7.48210926
_cell_length_b   7.47989439
_cell_length_c   7.47368658
_cell_angle_alpha   121.37337874
_cell_angle_beta   58.65517055
_cell_angle_gamma   121.30352412
_symmetry_Int_Tables_number   1
_chemical_formula_structural   Y3Cd2Os3O14
_chemical_formula_sum   'Y3 Cd2 Os3 O14'
_cell_volume   286.69788041
_cell_formula_units_Z   1
loop_
 _symmetry_equiv_pos_site_id
 _symmetry_equiv_pos_as_xyz
  1  'x, y, z'
loop_
 _atom_site_type_symbol
 _atom_site_label
 _atom_site_symmetry_multiplicity
 _atom_site_fract_x
 _atom_site_fract_y
 _atom_site_fract_z
 _atom_site_occupancy
  Y  Y0  1  0.000011  0.500005  0.000008  1
  Y  Y1  1  0.499991  0.000012  0.999994  1
  Y  Y2  1  0.499999  0.500006  0.500008  1
  Cd  Cd3  1  0.499969  0.499954  0.999988  1
  Cd  Cd4  1  0.000005  0.000007  0.500009  1
  Os  Os5  1  0.499963  0.999956  0.499992  1
  Os  Os6  1  0.999999  0.500024  0.500031  1
  Os  Os7  1  0.000020  0.999970  0.999954  1
  O  O8  1  0.614530  0.385527  0.114518  1
  O  O9  1  0.385497  0.614512  0.885499  1
  O  O10  1  0.082927  0.292664  0.207365  1
  O  O11  1  0.706805  0.916352  0.206986  1
  O  O12  1  0.706678  0.293213  0.584025  1
  O  O13  1  0.917138  0.707343  0.792565  1
  O  O14  1  0.293212  0.083697  0.793058  1
  O  O15  1  0.293291  0.706787  0.416001  1
  O  O16  1  0.603203  0.886166  0.613806  1
  O  O17  1  0.113862  0.396777  0.613881  1
  O  O18  1  0.113837  0.886122  0.103359  1
  O  O19  1  0.396779  0.113820  0.386189  1
  O  O20  1  0.886129  0.603221  0.386128  1
  O  O21  1  0.886156  0.113867  0.896634  1
