# generated using pymatgen
data_BaSr(Si5Ni9)2
_symmetry_space_group_name_H-M   'P 1'
_cell_length_a   6.75914200
_cell_length_b   6.75914228
_cell_length_c   10.54250200
_cell_angle_alpha   90.00000000
_cell_angle_beta   90.00000000
_cell_angle_gamma   119.99999864
_symmetry_Int_Tables_number   1
_chemical_formula_structural   BaSr(Si5Ni9)2
_chemical_formula_sum   'Ba1 Sr1 Si10 Ni18'
_cell_volume   417.11661404
_cell_formula_units_Z   1
loop_
 _symmetry_equiv_pos_site_id
 _symmetry_equiv_pos_as_xyz
  1  'x, y, z'
loop_
 _atom_site_type_symbol
 _atom_site_label
 _atom_site_symmetry_multiplicity
 _atom_site_fract_x
 _atom_site_fract_y
 _atom_site_fract_z
 _atom_site_occupancy
  Ba  Ba0  1  0.000000  0.000000  0.000000  1
  Sr  Sr1  1  0.000000  0.000000  0.500000  1
  Si  Si2  1  0.167248  0.334496  0.748374  1
  Si  Si3  1  0.832752  0.167248  0.251626  1
  Si  Si4  1  0.167248  0.832752  0.748374  1
  Si  Si5  1  0.832752  0.665504  0.251626  1
  Si  Si6  1  0.333333  0.666667  0.435084  1
  Si  Si7  1  0.666667  0.333333  0.935086  1
  Si  Si8  1  0.666667  0.333333  0.564916  1
  Si  Si9  1  0.333333  0.666667  0.064914  1
  Si  Si10  1  0.334496  0.167248  0.251626  1
  Si  Si11  1  0.665504  0.832752  0.748374  1
  Ni  Ni12  1  0.460959  0.921916  0.888118  1
  Ni  Ni13  1  0.921916  0.460959  0.111882  1
  Ni  Ni14  1  0.539041  0.078084  0.111882  1
  Ni  Ni15  1  0.078718  0.539359  0.610217  1
  Ni  Ni16  1  0.207710  0.415418  0.251717  1
  Ni  Ni17  1  0.792290  0.207710  0.748283  1
  Ni  Ni18  1  0.415418  0.207710  0.748283  1
  Ni  Ni19  1  0.584582  0.792290  0.251717  1
  Ni  Ni20  1  0.207710  0.792290  0.251717  1
  Ni  Ni21  1  0.792290  0.584582  0.748283  1
  Ni  Ni22  1  0.460641  0.921282  0.610217  1
  Ni  Ni23  1  0.539359  0.460641  0.389783  1
  Ni  Ni24  1  0.921282  0.460641  0.389783  1
  Ni  Ni25  1  0.078084  0.539041  0.888118  1
  Ni  Ni26  1  0.460959  0.539041  0.888118  1
  Ni  Ni27  1  0.539359  0.078718  0.389783  1
  Ni  Ni28  1  0.539041  0.460959  0.111882  1
  Ni  Ni29  1  0.460641  0.539359  0.610217  1
