# generated using pymatgen
data_VAgAsO5
_symmetry_space_group_name_H-M   'P 1'
_cell_length_a   8.96984200
_cell_length_b   6.87965523
_cell_length_c   7.31788566
_cell_angle_alpha   65.03515388
_cell_angle_beta   90.00000000
_cell_angle_gamma   90.00000000
_symmetry_Int_Tables_number   1
_chemical_formula_structural   VAgAsO5
_chemical_formula_sum   'V4 Ag4 As4 O20'
_cell_volume   409.38973822
_cell_formula_units_Z   4
loop_
 _symmetry_equiv_pos_site_id
 _symmetry_equiv_pos_as_xyz
  1  'x, y, z'
loop_
 _atom_site_type_symbol
 _atom_site_label
 _atom_site_symmetry_multiplicity
 _atom_site_fract_x
 _atom_site_fract_y
 _atom_site_fract_z
 _atom_site_occupancy
  V  V0  1  0.741287  0.745370  0.479888  1
  V  V1  1  0.241287  0.254630  0.020112  1
  V  V2  1  0.258713  0.254630  0.520112  1
  V  V3  1  0.758713  0.745370  0.979888  1
  Ag  Ag4  1  0.576636  0.241937  0.766311  1
  Ag  Ag5  1  0.076636  0.758063  0.733689  1
  Ag  Ag6  1  0.423364  0.758063  0.233689  1
  Ag  Ag7  1  0.923364  0.241937  0.266311  1
  As  As8  1  0.564321  0.249672  0.252309  1
  As  As9  1  0.064321  0.750328  0.247691  1
  As  As10  1  0.435679  0.750328  0.747691  1
  As  As11  1  0.935679  0.249672  0.752309  1
  O  O12  1  0.689989  0.434763  0.096558  1
  O  O13  1  0.189989  0.565237  0.403442  1
  O  O14  1  0.310011  0.565237  0.903442  1
  O  O15  1  0.810011  0.434763  0.596558  1
  O  O16  1  0.543923  0.636877  0.622665  1
  O  O17  1  0.043923  0.363123  0.877335  1
  O  O18  1  0.456077  0.363123  0.377335  1
  O  O19  1  0.956077  0.636877  0.122665  1
  O  O20  1  0.692744  0.750991  0.250015  1
  O  O21  1  0.192744  0.249009  0.249985  1
  O  O22  1  0.307256  0.249009  0.749985  1
  O  O23  1  0.807256  0.750991  0.750015  1
  O  O24  1  0.955101  0.845799  0.388711  1
  O  O25  1  0.455101  0.154201  0.111289  1
  O  O26  1  0.044899  0.154201  0.611289  1
  O  O27  1  0.544899  0.845799  0.888711  1
  O  O28  1  0.824331  0.050112  0.920154  1
  O  O29  1  0.324331  0.949888  0.579846  1
  O  O30  1  0.175669  0.949888  0.079846  1
  O  O31  1  0.675669  0.050112  0.420154  1
