# generated using pymatgen
data_Dy3UIn2Ir3
_symmetry_space_group_name_H-M   'P 1'
_cell_length_a   7.45802241
_cell_length_b   7.30270334
_cell_length_c   4.20636300
_cell_angle_alpha   90.00000000
_cell_angle_beta   90.00000000
_cell_angle_gamma   119.31344428
_symmetry_Int_Tables_number   1
_chemical_formula_structural   Dy3UIn2Ir3
_chemical_formula_sum   'Dy3 U1 In2 Ir3'
_cell_volume   199.75969815
_cell_formula_units_Z   1
loop_
 _symmetry_equiv_pos_site_id
 _symmetry_equiv_pos_as_xyz
  1  'x, y, z'
loop_
 _atom_site_type_symbol
 _atom_site_label
 _atom_site_symmetry_multiplicity
 _atom_site_fract_x
 _atom_site_fract_y
 _atom_site_fract_z
 _atom_site_occupancy
  Dy  Dy0  1  0.570812  0.594209  0.000000  1
  Dy  Dy1  1  0.429188  0.023397  0.000000  1
  Dy  Dy2  1  0.000000  0.379855  0.000000  1
  U  U3  1  0.000000  0.733771  0.500000  1
  In  In4  1  0.256950  0.254341  0.500000  1
  In  In5  1  0.743050  0.997391  0.500000  1
  Ir  Ir6  1  0.000000  0.976886  0.000000  1
  Ir  Ir7  1  0.686822  0.363485  0.500000  1
  Ir  Ir8  1  0.313178  0.676664  0.500000  1
