# generated using pymatgen
data_Er2Mn2Fe5Co5P7
_symmetry_space_group_name_H-M   'P 1'
_cell_length_a   8.99264320
_cell_length_b   8.97489224
_cell_length_c   3.59376500
_cell_angle_alpha   90.00000000
_cell_angle_beta   90.00000000
_cell_angle_gamma   119.97873495
_symmetry_Int_Tables_number   1
_chemical_formula_structural   Er2Mn2Fe5Co5P7
_chemical_formula_sum   'Er2 Mn2 Fe5 Co5 P7'
_cell_volume   251.24066386
_cell_formula_units_Z   1
loop_
 _symmetry_equiv_pos_site_id
 _symmetry_equiv_pos_as_xyz
  1  'x, y, z'
loop_
 _atom_site_type_symbol
 _atom_site_label
 _atom_site_symmetry_multiplicity
 _atom_site_fract_x
 _atom_site_fract_y
 _atom_site_fract_z
 _atom_site_occupancy
  Er  Er0  1  0.332232  0.664762  0.000000  1
  Er  Er1  1  0.999346  0.000014  0.500000  1
  Mn  Mn2  1  0.770332  0.561817  0.500000  1
  Mn  Mn3  1  0.442873  0.212311  0.500000  1
  Fe  Fe4  1  0.235635  0.961755  0.000000  1
  Fe  Fe5  1  0.547449  0.058854  0.000000  1
  Fe  Fe6  1  0.941329  0.488502  0.000000  1
  Fe  Fe7  1  0.510340  0.451909  0.000000  1
  Fe  Fe8  1  0.794991  0.231130  0.500000  1
  Co  Co9  1  0.037259  0.273556  0.000000  1
  Co  Co10  1  0.726971  0.766341  0.000000  1
  Co  Co11  1  0.615166  0.896352  0.500000  1
  Co  Co12  1  0.103825  0.717602  0.500000  1
  Co  Co13  1  0.278715  0.383909  0.500000  1
  P  P14  1  0.779145  0.038581  0.000000  1
  P  P15  1  0.965785  0.744403  0.000000  1
  P  P16  1  0.254953  0.219480  0.000000  1
  P  P17  1  0.376617  0.926881  0.500000  1
  P  P18  1  0.066855  0.447124  0.500000  1
  P  P19  1  0.551134  0.620720  0.500000  1
  P  P20  1  0.669046  0.333998  0.000000  1
