# generated using pymatgen
data_NdSm2RuI3
_symmetry_space_group_name_H-M   'P 1'
_cell_length_a   4.32239800
_cell_length_b   9.12780931
_cell_length_c   12.52910487
_cell_angle_alpha   93.83346538
_cell_angle_beta   90.00000000
_cell_angle_gamma   90.00000000
_symmetry_Int_Tables_number   1
_chemical_formula_structural   NdSm2RuI3
_chemical_formula_sum   'Nd2 Sm4 Ru2 I6'
_cell_volume   493.21760809
_cell_formula_units_Z   2
loop_
 _symmetry_equiv_pos_site_id
 _symmetry_equiv_pos_as_xyz
  1  'x, y, z'
loop_
 _atom_site_type_symbol
 _atom_site_label
 _atom_site_symmetry_multiplicity
 _atom_site_fract_x
 _atom_site_fract_y
 _atom_site_fract_z
 _atom_site_occupancy
  Nd  Nd0  1  0.750000  0.276774  0.604274  1
  Nd  Nd1  1  0.250000  0.723226  0.395726  1
  Sm  Sm2  1  0.750000  0.877996  0.622320  1
  Sm  Sm3  1  0.250000  0.122004  0.377680  1
  Sm  Sm4  1  0.750000  0.898132  0.180233  1
  Sm  Sm5  1  0.250000  0.101868  0.819767  1
  Ru  Ru6  1  0.750000  0.935584  0.401241  1
  Ru  Ru7  1  0.250000  0.064416  0.598759  1
  I  I8  1  0.750000  0.419657  0.363329  1
  I  I9  1  0.250000  0.580343  0.636671  1
  I  I10  1  0.750000  0.862700  0.890837  1
  I  I11  1  0.250000  0.137300  0.109163  1
  I  I12  1  0.750000  0.352109  0.866575  1
  I  I13  1  0.250000  0.647891  0.133425  1
