# generated using pymatgen
data_Dy3Pa(InNi2)2
_symmetry_space_group_name_H-M   'P 1'
_cell_length_a   7.44261591
_cell_length_b   7.44261591
_cell_length_c   3.59037300
_cell_angle_alpha   90.00000000
_cell_angle_beta   90.00000000
_cell_angle_gamma   92.35294706
_symmetry_Int_Tables_number   1
_chemical_formula_structural   Dy3Pa(InNi2)2
_chemical_formula_sum   'Dy3 Pa1 In2 Ni4'
_cell_volume   198.71217102
_cell_formula_units_Z   1
loop_
 _symmetry_equiv_pos_site_id
 _symmetry_equiv_pos_as_xyz
  1  'x, y, z'
loop_
 _atom_site_type_symbol
 _atom_site_label
 _atom_site_symmetry_multiplicity
 _atom_site_fract_x
 _atom_site_fract_y
 _atom_site_fract_z
 _atom_site_occupancy
  Dy  Dy0  1  0.323540  0.823540  0.500000  1
  Dy  Dy1  1  0.175328  0.329012  0.500000  1
  Dy  Dy2  1  0.829012  0.675328  0.500000  1
  Pa  Pa3  1  0.671428  0.171428  0.500000  1
  In  In4  1  0.499371  0.505621  0.000000  1
  In  In5  1  0.005621  0.999371  0.000000  1
  Ni  Ni6  1  0.110889  0.610889  0.000000  1
  Ni  Ni7  1  0.859289  0.359289  0.000000  1
  Ni  Ni8  1  0.629646  0.895877  0.000000  1
  Ni  Ni9  1  0.395877  0.129646  0.000000  1
