# generated using pymatgen
data_V3SbO8
_symmetry_space_group_name_H-M   'P 1'
_cell_length_a   10.34970306
_cell_length_b   4.61471400
_cell_length_c   5.55152700
_cell_angle_alpha   90.00190347
_cell_angle_beta   97.25703297
_cell_angle_gamma   90.00113045
_symmetry_Int_Tables_number   1
_chemical_formula_structural   V3SbO8
_chemical_formula_sum   'V6 Sb2 O16'
_cell_volume   263.02206961
_cell_formula_units_Z   2
loop_
 _symmetry_equiv_pos_site_id
 _symmetry_equiv_pos_as_xyz
  1  'x, y, z'
loop_
 _atom_site_type_symbol
 _atom_site_label
 _atom_site_symmetry_multiplicity
 _atom_site_fract_x
 _atom_site_fract_y
 _atom_site_fract_z
 _atom_site_occupancy
  V  V0  1  0.000005  0.499914  0.499952  1
  V  V1  1  0.245123  0.977522  0.740397  1
  V  V2  1  0.254868  0.477452  0.259636  1
  V  V3  1  0.500009  0.000047  0.499913  1
  V  V4  1  0.745131  0.522514  0.740390  1
  V  V5  1  0.754863  0.022552  0.259649  1
  Sb  Sb6  1  0.999997  0.000007  0.000007  1
  Sb  Sb7  1  0.500003  0.499999  0.000014  1
  O  O8  1  0.179301  0.704910  0.520336  1
  O  O9  1  0.320700  0.204891  0.479674  1
  O  O10  1  0.679305  0.795092  0.520338  1
  O  O11  1  0.820705  0.295111  0.479672  1
  O  O12  1  0.078219  0.190968  0.727538  1
  O  O13  1  0.078248  0.309808  0.226622  1
  O  O14  1  0.175266  0.798044  0.021741  1
  O  O15  1  0.324733  0.298044  0.978251  1
  O  O16  1  0.421744  0.809799  0.773393  1
  O  O17  1  0.421780  0.690972  0.272461  1
  O  O18  1  0.578219  0.309026  0.727547  1
  O  O19  1  0.578250  0.190188  0.226627  1
  O  O20  1  0.675268  0.701952  0.021746  1
  O  O21  1  0.824734  0.201955  0.978250  1
  O  O22  1  0.921749  0.690202  0.773391  1
  O  O23  1  0.921780  0.809032  0.272457  1
