# generated using pymatgen
data_Ce2Ho2Sc3AlIr4
_symmetry_space_group_name_H-M   'P 1'
_cell_length_a   7.07472592
_cell_length_b   4.36892500
_cell_length_c   8.33365957
_cell_angle_alpha   90.00000000
_cell_angle_beta   92.67318379
_cell_angle_gamma   90.00000000
_symmetry_Int_Tables_number   1
_chemical_formula_structural   Ce2Ho2Sc3AlIr4
_chemical_formula_sum   'Ce2 Ho2 Sc3 Al1 Ir4'
_cell_volume   257.30434116
_cell_formula_units_Z   1
loop_
 _symmetry_equiv_pos_site_id
 _symmetry_equiv_pos_as_xyz
  1  'x, y, z'
loop_
 _atom_site_type_symbol
 _atom_site_label
 _atom_site_symmetry_multiplicity
 _atom_site_fract_x
 _atom_site_fract_y
 _atom_site_fract_z
 _atom_site_occupancy
  Ce  Ce0  1  0.040617  0.750000  0.828495  1
  Ce  Ce1  1  0.522599  0.750000  0.691484  1
  Ho  Ho2  1  0.980306  0.250000  0.166105  1
  Ho  Ho3  1  0.463040  0.250000  0.314897  1
  Sc  Sc4  1  0.866949  0.250000  0.561409  1
  Sc  Sc5  1  0.137537  0.750000  0.426357  1
  Sc  Sc6  1  0.635773  0.750000  0.068449  1
  Al  Al7  1  0.362944  0.250000  0.941968  1
  Ir  Ir8  1  0.736452  0.250000  0.883097  1
  Ir  Ir9  1  0.249600  0.250000  0.614871  1
  Ir  Ir10  1  0.256583  0.750000  0.106689  1
  Ir  Ir11  1  0.747598  0.750000  0.396178  1
