# generated using pymatgen
data_Al2CdFe(PO5)2
_symmetry_space_group_name_H-M   'P 1'
_cell_length_a   5.64149547
_cell_length_b   7.32256707
_cell_length_c   10.83559900
_cell_angle_alpha   89.99897367
_cell_angle_beta   90.00183665
_cell_angle_gamma   97.71644222
_symmetry_Int_Tables_number   1
_chemical_formula_structural   Al2CdFe(PO5)2
_chemical_formula_sum   'Al4 Cd2 Fe2 P4 O20'
_cell_volume   443.56773650
_cell_formula_units_Z   2
loop_
 _symmetry_equiv_pos_site_id
 _symmetry_equiv_pos_as_xyz
  1  'x, y, z'
loop_
 _atom_site_type_symbol
 _atom_site_label
 _atom_site_symmetry_multiplicity
 _atom_site_fract_x
 _atom_site_fract_y
 _atom_site_fract_z
 _atom_site_occupancy
  Al  Al0  1  0.557817  0.360643  0.171045  1
  Al  Al1  1  0.942246  0.639368  0.671049  1
  Al  Al2  1  0.438564  0.641043  0.822343  1
  Al  Al3  1  0.061506  0.358947  0.322345  1
  Cd  Cd4  1  0.615857  0.013791  0.356083  1
  Cd  Cd5  1  0.884118  0.986257  0.856077  1
  Fe  Fe6  1  0.388463  0.980413  0.648174  1
  Fe  Fe7  1  0.111451  0.019593  0.148223  1
  P  P8  1  0.079612  0.770466  0.407884  1
  P  P9  1  0.420384  0.229510  0.907896  1
  P  P10  1  0.930665  0.222899  0.593761  1
  P  P11  1  0.569275  0.777128  0.093772  1
  O  O12  1  0.774868  0.280128  0.264681  1
  O  O13  1  0.725239  0.719861  0.764716  1
  O  O14  1  0.229077  0.731386  0.726640  1
  O  O15  1  0.271018  0.268586  0.226675  1
  O  O16  1  0.126175  0.600387  0.331970  1
  O  O17  1  0.373843  0.399595  0.831978  1
  O  O18  1  0.899983  0.396619  0.669275  1
  O  O19  1  0.600009  0.603403  0.169290  1
  O  O20  1  0.595015  0.288551  0.015751  1
  O  O21  1  0.905030  0.711435  0.515747  1
  O  O22  1  0.421837  0.725324  0.975596  1
  O  O23  1  0.078164  0.274657  0.475597  1
  O  O24  1  0.967310  0.904638  0.321779  1
  O  O25  1  0.532614  0.095314  0.821783  1
  O  O26  1  0.065927  0.094613  0.673088  1
  O  O27  1  0.434001  0.905425  0.173076  1
  O  O28  1  0.679406  0.122101  0.557691  1
  O  O29  1  0.820523  0.877927  0.057695  1
  O  O30  1  0.317527  0.865885  0.464148  1
  O  O31  1  0.182475  0.134110  0.964170  1
