# generated using pymatgen
data_Yb4Ga5Pt9
_symmetry_space_group_name_H-M   'P 1'
_cell_length_a   5.59064746
_cell_length_b   5.59064777
_cell_length_c   12.55828690
_cell_angle_alpha   77.13891059
_cell_angle_beta   77.13890816
_cell_angle_gamma   59.99999181
_symmetry_Int_Tables_number   1
_chemical_formula_structural   Yb4Ga5Pt9
_chemical_formula_sum   'Yb4 Ga5 Pt9'
_cell_volume   328.50696294
_cell_formula_units_Z   1
loop_
 _symmetry_equiv_pos_site_id
 _symmetry_equiv_pos_as_xyz
  1  'x, y, z'
loop_
 _atom_site_type_symbol
 _atom_site_label
 _atom_site_symmetry_multiplicity
 _atom_site_fract_x
 _atom_site_fract_y
 _atom_site_fract_z
 _atom_site_occupancy
  Yb  Yb0  1  0.951326  0.951326  0.146022  1
  Yb  Yb1  1  0.048674  0.048674  0.853978  1
  Yb  Yb2  1  0.853727  0.853727  0.438818  1
  Yb  Yb3  1  0.146273  0.146273  0.561182  1
  Ga  Ga4  1  0.500000  0.500000  0.500000  1
  Ga  Ga5  1  0.722376  0.722376  0.832871  1
  Ga  Ga6  1  0.277624  0.277624  0.167129  1
  Ga  Ga7  1  0.610538  0.610538  0.168388  1
  Ga  Ga8  1  0.389462  0.389462  0.831612  1
  Pt  Pt9  1  0.000000  0.500000  0.000000  1
  Pt  Pt10  1  0.500000  0.000000  0.000000  1
  Pt  Pt11  1  0.500000  0.500000  0.000000  1
  Pt  Pt12  1  0.386884  0.386884  0.333470  1
  Pt  Pt13  1  0.892762  0.386884  0.333470  1
  Pt  Pt14  1  0.386884  0.892762  0.333470  1
  Pt  Pt15  1  0.613116  0.613116  0.666530  1
  Pt  Pt16  1  0.107238  0.613116  0.666530  1
  Pt  Pt17  1  0.613116  0.107238  0.666530  1
