# generated using pymatgen
data_Dy2YFeB7
_symmetry_space_group_name_H-M   'P 1'
_cell_length_a   8.02976132
_cell_length_b   8.02976108
_cell_length_c   9.30610900
_cell_angle_alpha   90.00000000
_cell_angle_beta   90.00000000
_cell_angle_gamma   155.37440018
_symmetry_Int_Tables_number   1
_chemical_formula_structural   Dy2YFeB7
_chemical_formula_sum   'Dy4 Y2 Fe2 B14'
_cell_volume   250.02494728
_cell_formula_units_Z   2
loop_
 _symmetry_equiv_pos_site_id
 _symmetry_equiv_pos_as_xyz
  1  'x, y, z'
loop_
 _atom_site_type_symbol
 _atom_site_label
 _atom_site_symmetry_multiplicity
 _atom_site_fract_x
 _atom_site_fract_y
 _atom_site_fract_z
 _atom_site_occupancy
  Dy  Dy0  1  0.895049  0.104951  0.440148  1
  Dy  Dy1  1  0.104951  0.895049  0.559852  1
  Dy  Dy2  1  0.895049  0.104951  0.059852  1
  Dy  Dy3  1  0.104951  0.895049  0.940148  1
  Y  Y4  1  0.243286  0.756714  0.250000  1
  Y  Y5  1  0.756714  0.243286  0.750000  1
  Fe  Fe6  1  0.054364  0.945636  0.250000  1
  Fe  Fe7  1  0.945636  0.054364  0.750000  1
  B  B8  1  0.727533  0.272467  0.466962  1
  B  B9  1  0.272467  0.727533  0.533038  1
  B  B10  1  0.727533  0.272467  0.033038  1
  B  B11  1  0.272467  0.727533  0.966962  1
  B  B12  1  0.629674  0.370326  0.152857  1
  B  B13  1  0.370326  0.629674  0.847143  1
  B  B14  1  0.629674  0.370326  0.347143  1
  B  B15  1  0.370326  0.629674  0.652857  1
  B  B16  1  0.521843  0.478157  0.099022  1
  B  B17  1  0.478157  0.521843  0.900978  1
  B  B18  1  0.521843  0.478157  0.400978  1
  B  B19  1  0.478157  0.521843  0.599022  1
  B  B20  1  0.459976  0.540024  0.250000  1
  B  B21  1  0.540024  0.459976  0.750000  1
