# generated using pymatgen
data_LuPa2(SnIr)3
_symmetry_space_group_name_H-M   'P 1'
_cell_length_a   7.40112601
_cell_length_b   7.44944687
_cell_length_c   4.02217800
_cell_angle_alpha   90.00000000
_cell_angle_beta   90.00000000
_cell_angle_gamma   119.79226371
_symmetry_Int_Tables_number   1
_chemical_formula_structural   LuPa2(SnIr)3
_chemical_formula_sum   'Lu1 Pa2 Sn3 Ir3'
_cell_volume   192.45050136
_cell_formula_units_Z   1
loop_
 _symmetry_equiv_pos_site_id
 _symmetry_equiv_pos_as_xyz
  1  'x, y, z'
loop_
 _atom_site_type_symbol
 _atom_site_label
 _atom_site_symmetry_multiplicity
 _atom_site_fract_x
 _atom_site_fract_y
 _atom_site_fract_z
 _atom_site_occupancy
  Lu  Lu0  1  0.405290  0.999973  0.500000  1
  Pa  Pa1  1  0.001704  0.410898  0.500000  1
  Pa  Pa2  1  0.590812  0.589108  0.500000  1
  Sn  Sn3  1  0.011041  0.754139  0.000000  1
  Sn  Sn4  1  0.256851  0.245845  0.000000  1
  Sn  Sn5  1  0.733386  0.000035  0.000000  1
  Ir  Ir6  1  0.329494  0.648666  0.000000  1
  Ir  Ir7  1  0.680886  0.351312  0.000000  1
  Ir  Ir8  1  0.990535  0.000024  0.500000  1
