# generated using pymatgen
data_Sc22Tc2(IrOs)3
_symmetry_space_group_name_H-M   'P 1'
_cell_length_a   9.45888452
_cell_length_b   9.45881394
_cell_length_c   9.45905567
_cell_angle_alpha   60.23717985
_cell_angle_beta   60.28978091
_cell_angle_gamma   60.31072980
_symmetry_Int_Tables_number   1
_chemical_formula_structural   Sc22Tc2(IrOs)3
_chemical_formula_sum   'Sc22 Tc2 Ir3 Os3'
_cell_volume   602.20581864
_cell_formula_units_Z   1
loop_
 _symmetry_equiv_pos_site_id
 _symmetry_equiv_pos_as_xyz
  1  'x, y, z'
loop_
 _atom_site_type_symbol
 _atom_site_label
 _atom_site_symmetry_multiplicity
 _atom_site_fract_x
 _atom_site_fract_y
 _atom_site_fract_z
 _atom_site_occupancy
  Sc  Sc0  1  0.803099  0.801883  0.198165  1
  Sc  Sc1  1  0.196830  0.801895  0.198032  1
  Sc  Sc2  1  0.802380  0.197647  0.197616  1
  Sc  Sc3  1  0.196901  0.198117  0.801835  1
  Sc  Sc4  1  0.803170  0.198105  0.801968  1
  Sc  Sc5  1  0.197620  0.802353  0.802384  1
  Sc  Sc6  1  0.615649  0.614370  0.150628  1
  Sc  Sc7  1  0.618691  0.150618  0.614245  1
  Sc  Sc8  1  0.149485  0.617555  0.614823  1
  Sc  Sc9  1  0.618473  0.615338  0.618143  1
  Sc  Sc10  1  0.384351  0.385630  0.849372  1
  Sc  Sc11  1  0.381309  0.849382  0.385755  1
  Sc  Sc12  1  0.850515  0.382445  0.385177  1
  Sc  Sc13  1  0.381527  0.384662  0.381857  1
  Sc  Sc14  1  0.843377  0.845617  0.468558  1
  Sc  Sc15  1  0.842394  0.468817  0.845390  1
  Sc  Sc16  1  0.468889  0.843845  0.844738  1
  Sc  Sc17  1  0.843357  0.844016  0.842976  1
  Sc  Sc18  1  0.156623  0.154383  0.531442  1
  Sc  Sc19  1  0.157606  0.531183  0.154610  1
  Sc  Sc20  1  0.531111  0.156155  0.155262  1
  Sc  Sc21  1  0.156643  0.155984  0.157024  1
  Tc  Tc22  1  0.000000  0.000000  0.000000  1
  Tc  Tc23  1  0.000000  0.500000  0.500000  1
  Ir  Ir24  1  0.500000  0.000000  0.500000  1
  Ir  Ir25  1  0.000000  0.500000  0.000000  1
  Ir  Ir26  1  0.500000  0.000000  0.000000  1
  Os  Os27  1  0.500000  0.500000  0.500000  1
  Os  Os28  1  0.000000  0.000000  0.500000  1
  Os  Os29  1  0.500000  0.500000  0.000000  1
