# generated using pymatgen
data_Y8Ir11Ru5
_symmetry_space_group_name_H-M   'P 1'
_cell_length_a   5.41120500
_cell_length_b   5.39716009
_cell_length_c   17.26723700
_cell_angle_alpha   90.00000000
_cell_angle_beta   90.00000000
_cell_angle_gamma   120.08612619
_symmetry_Int_Tables_number   1
_chemical_formula_structural   Y8Ir11Ru5
_chemical_formula_sum   'Y8 Ir11 Ru5'
_cell_volume   436.35022640
_cell_formula_units_Z   1
loop_
 _symmetry_equiv_pos_site_id
 _symmetry_equiv_pos_as_xyz
  1  'x, y, z'
loop_
 _atom_site_type_symbol
 _atom_site_label
 _atom_site_symmetry_multiplicity
 _atom_site_fract_x
 _atom_site_fract_y
 _atom_site_fract_z
 _atom_site_occupancy
  Y  Y0  1  0.999273  0.998546  0.090686  1
  Y  Y1  1  0.665830  0.331658  0.154310  1
  Y  Y2  1  0.665830  0.331658  0.345690  1
  Y  Y3  1  0.999273  0.998546  0.409314  1
  Y  Y4  1  0.999625  0.999250  0.592343  1
  Y  Y5  1  0.332630  0.665260  0.655618  1
  Y  Y6  1  0.332630  0.665260  0.844383  1
  Y  Y7  1  0.999625  0.999250  0.907657  1
  Ir  Ir8  1  0.498347  0.996692  0.998565  1
  Ir  Ir9  1  0.001690  0.502364  0.999684  1
  Ir  Ir10  1  0.500674  0.502364  0.999684  1
  Ir  Ir11  1  0.164521  0.844841  0.250000  1
  Ir  Ir12  1  0.680320  0.844841  0.250000  1
  Ir  Ir13  1  0.498347  0.996692  0.501435  1
  Ir  Ir14  1  0.001690  0.502364  0.500316  1
  Ir  Ir15  1  0.500674  0.502364  0.500316  1
  Ir  Ir16  1  0.327193  0.163349  0.750000  1
  Ir  Ir17  1  0.836157  0.163349  0.750000  1
  Ir  Ir18  1  0.837759  0.675516  0.750000  1
  Ru  Ru19  1  0.329526  0.659051  0.127224  1
  Ru  Ru20  1  0.169115  0.338230  0.250000  1
  Ru  Ru21  1  0.329526  0.659051  0.372776  1
  Ru  Ru22  1  0.664876  0.329750  0.625449  1
  Ru  Ru23  1  0.664876  0.329750  0.874551  1
