# generated using pymatgen
data_Li4HoUS6
_symmetry_space_group_name_H-M   'P 1'
_cell_length_a   6.65085627
_cell_length_b   6.65085626
_cell_length_c   6.50870895
_cell_angle_alpha   99.98296044
_cell_angle_beta   99.98415434
_cell_angle_gamma   119.80954738
_symmetry_Int_Tables_number   1
_chemical_formula_structural   Li4HoUS6
_chemical_formula_sum   'Li4 Ho1 U1 S6'
_cell_volume   234.40521660
_cell_formula_units_Z   1
loop_
 _symmetry_equiv_pos_site_id
 _symmetry_equiv_pos_as_xyz
  1  'x, y, z'
loop_
 _atom_site_type_symbol
 _atom_site_label
 _atom_site_symmetry_multiplicity
 _atom_site_fract_x
 _atom_site_fract_y
 _atom_site_fract_z
 _atom_site_occupancy
  Li  Li0  1  0.500133  0.499856  0.999997  1
  Li  Li1  1  0.002709  0.997283  0.500000  1
  Li  Li2  1  0.662144  0.337850  0.500001  1
  Li  Li3  1  0.337266  0.662713  0.499996  1
  Ho  Ho4  1  0.833149  0.166869  0.000000  1
  U  U5  1  0.166885  0.833135  0.000008  1
  S  S6  1  0.927370  0.591740  0.244069  1
  S  S7  1  0.572507  0.919363  0.248364  1
  S  S8  1  0.245224  0.236289  0.250409  1
  S  S9  1  0.763719  0.754772  0.749596  1
  S  S10  1  0.080629  0.427493  0.751630  1
  S  S11  1  0.408267  0.072646  0.755932  1
