# generated using pymatgen
data_Tb2NdSi4
_symmetry_space_group_name_H-M   'P 1'
_cell_length_a   3.91725953
_cell_length_b   4.26707140
_cell_length_c   9.21986800
_cell_angle_alpha   76.62010836
_cell_angle_beta   77.73485280
_cell_angle_gamma   89.99998686
_symmetry_Int_Tables_number   1
_chemical_formula_structural   Tb2NdSi4
_chemical_formula_sum   'Tb2 Nd1 Si4'
_cell_volume   146.31098856
_cell_formula_units_Z   1
loop_
 _symmetry_equiv_pos_site_id
 _symmetry_equiv_pos_as_xyz
  1  'x, y, z'
loop_
 _atom_site_type_symbol
 _atom_site_label
 _atom_site_symmetry_multiplicity
 _atom_site_fract_x
 _atom_site_fract_y
 _atom_site_fract_z
 _atom_site_occupancy
  Tb  Tb0  1  0.683927  0.184618  0.632926  1
  Tb  Tb1  1  0.316072  0.815381  0.367075  1
  Nd  Nd2  1  0.000001  0.000000  0.000000  1
  Si  Si3  1  0.850685  0.351210  0.298524  1
  Si  Si4  1  0.149315  0.648789  0.701475  1
  Si  Si5  1  0.566252  0.567565  0.865866  1
  Si  Si6  1  0.433748  0.432436  0.134133  1
