# generated using pymatgen
data_KBa3(BeAs)8
_symmetry_space_group_name_H-M   'P 1'
_cell_length_a   7.35239692
_cell_length_b   8.60392906
_cell_length_c   7.60294630
_cell_angle_alpha   63.71657717
_cell_angle_beta   75.06223167
_cell_angle_gamma   96.97768363
_symmetry_Int_Tables_number   1
_chemical_formula_structural   KBa3(BeAs)8
_chemical_formula_sum   'K1 Ba3 Be8 As8'
_cell_volume   400.95377344
_cell_formula_units_Z   1
loop_
 _symmetry_equiv_pos_site_id
 _symmetry_equiv_pos_as_xyz
  1  'x, y, z'
loop_
 _atom_site_type_symbol
 _atom_site_label
 _atom_site_symmetry_multiplicity
 _atom_site_fract_x
 _atom_site_fract_y
 _atom_site_fract_z
 _atom_site_occupancy
  K  K0  1  0.000000  0.000000  0.000000  1
  Ba  Ba1  1  0.000109  0.487102  0.756505  1
  Ba  Ba2  1  0.000000  0.000000  0.500000  1
  Ba  Ba3  1  0.999891  0.512898  0.243495  1
  Be  Be4  1  0.497933  0.624030  0.314056  1
  Be  Be5  1  0.495233  0.622023  0.815824  1
  Be  Be6  1  0.495811  0.124544  0.064229  1
  Be  Be7  1  0.493486  0.125400  0.562764  1
  Be  Be8  1  0.502067  0.375970  0.685944  1
  Be  Be9  1  0.504767  0.377977  0.184176  1
  Be  Be10  1  0.506514  0.874600  0.437236  1
  Be  Be11  1  0.504189  0.875456  0.935771  1
  As  As12  1  0.302201  0.327415  0.508892  1
  As  As13  1  0.302389  0.325237  0.012914  1
  As  As14  1  0.305989  0.825778  0.262268  1
  As  As15  1  0.303714  0.825238  0.760340  1
  As  As16  1  0.697799  0.672585  0.491108  1
  As  As17  1  0.697611  0.674763  0.987086  1
  As  As18  1  0.696286  0.174762  0.239660  1
  As  As19  1  0.694011  0.174222  0.737732  1
