# generated using pymatgen
data_CeNi2(PRu)3
_symmetry_space_group_name_H-M   'P 1'
_cell_length_a   3.82272000
_cell_length_b   10.77238900
_cell_length_c   12.14141800
_cell_angle_alpha   90.00000000
_cell_angle_beta   90.00000000
_cell_angle_gamma   90.00000000
_symmetry_Int_Tables_number   1
_chemical_formula_structural   CeNi2(PRu)3
_chemical_formula_sum   'Ce4 Ni8 P12 Ru12'
_cell_volume   499.98149129
_cell_formula_units_Z   4
loop_
 _symmetry_equiv_pos_site_id
 _symmetry_equiv_pos_as_xyz
  1  'x, y, z'
loop_
 _atom_site_type_symbol
 _atom_site_label
 _atom_site_symmetry_multiplicity
 _atom_site_fract_x
 _atom_site_fract_y
 _atom_site_fract_z
 _atom_site_occupancy
  Ce  Ce0  1  0.250000  0.589115  0.705589  1
  Ce  Ce1  1  0.250000  0.910885  0.205589  1
  Ce  Ce2  1  0.750000  0.410885  0.294411  1
  Ce  Ce3  1  0.750000  0.089115  0.794411  1
  Ni  Ni4  1  0.250000  0.889926  0.697328  1
  Ni  Ni5  1  0.250000  0.610074  0.197328  1
  Ni  Ni6  1  0.750000  0.110074  0.302672  1
  Ni  Ni7  1  0.750000  0.389926  0.802672  1
  Ni  Ni8  1  0.250000  0.464519  0.932178  1
  Ni  Ni9  1  0.250000  0.035481  0.432178  1
  Ni  Ni10  1  0.750000  0.535481  0.067822  1
  Ni  Ni11  1  0.750000  0.964519  0.567822  1
  P  P12  1  0.250000  0.418680  0.109969  1
  P  P13  1  0.250000  0.081320  0.609969  1
  P  P14  1  0.750000  0.581320  0.890031  1
  P  P15  1  0.750000  0.918680  0.390031  1
  P  P16  1  0.250000  0.274659  0.874226  1
  P  P17  1  0.250000  0.225341  0.374226  1
  P  P18  1  0.750000  0.725341  0.125774  1
  P  P19  1  0.750000  0.774659  0.625774  1
  P  P20  1  0.250000  0.602161  0.389576  1
  P  P21  1  0.250000  0.897839  0.889576  1
  P  P22  1  0.750000  0.397839  0.610424  1
  P  P23  1  0.750000  0.102161  0.110424  1
  Ru  Ru24  1  0.250000  0.709845  0.986761  1
  Ru  Ru25  1  0.250000  0.790155  0.486761  1
  Ru  Ru26  1  0.750000  0.290155  0.013239  1
  Ru  Ru27  1  0.750000  0.209845  0.513239  1
  Ru  Ru28  1  0.250000  0.405376  0.483852  1
  Ru  Ru29  1  0.250000  0.094624  0.983852  1
  Ru  Ru30  1  0.750000  0.594624  0.516148  1
  Ru  Ru31  1  0.750000  0.905376  0.016148  1
  Ru  Ru32  1  0.250000  0.219671  0.181011  1
  Ru  Ru33  1  0.250000  0.280329  0.681011  1
  Ru  Ru34  1  0.750000  0.780329  0.818989  1
  Ru  Ru35  1  0.750000  0.719671  0.318989  1
