# generated using pymatgen
data_Dy5Er2LuPt4
_symmetry_space_group_name_H-M   'P 1'
_cell_length_a   4.75050900
_cell_length_b   7.11545322
_cell_length_c   8.73295132
_cell_angle_alpha   90.02984061
_cell_angle_beta   90.00000000
_cell_angle_gamma   90.00000000
_symmetry_Int_Tables_number   1
_chemical_formula_structural   Dy5Er2LuPt4
_chemical_formula_sum   'Dy5 Er2 Lu1 Pt4'
_cell_volume   295.19139508
_cell_formula_units_Z   1
loop_
 _symmetry_equiv_pos_site_id
 _symmetry_equiv_pos_as_xyz
  1  'x, y, z'
loop_
 _atom_site_type_symbol
 _atom_site_label
 _atom_site_symmetry_multiplicity
 _atom_site_fract_x
 _atom_site_fract_y
 _atom_site_fract_z
 _atom_site_occupancy
  Dy  Dy0  1  0.750000  0.355067  0.420364  1
  Dy  Dy1  1  0.250000  0.009083  0.329825  1
  Dy  Dy2  1  0.250000  0.511629  0.168757  1
  Dy  Dy3  1  0.750000  0.988530  0.670957  1
  Dy  Dy4  1  0.750000  0.490482  0.830306  1
  Er  Er5  1  0.250000  0.143502  0.921555  1
  Er  Er6  1  0.250000  0.644863  0.579518  1
  Lu  Lu7  1  0.750000  0.856320  0.078660  1
  Pt  Pt8  1  0.250000  0.242555  0.595105  1
  Pt  Pt9  1  0.250000  0.744522  0.907389  1
  Pt  Pt10  1  0.750000  0.758370  0.406343  1
  Pt  Pt11  1  0.750000  0.255078  0.091219  1
