# generated using pymatgen
data_Tm8MgCo2Ag
_symmetry_space_group_name_H-M   'P 1'
_cell_length_a   9.37191286
_cell_length_b   9.37191399
_cell_length_c   9.36894800
_cell_angle_alpha   60.01046840
_cell_angle_beta   60.01046443
_cell_angle_gamma   60.31258917
_symmetry_Int_Tables_number   1
_chemical_formula_structural   Tm8MgCo2Ag
_chemical_formula_sum   'Tm16 Mg2 Co4 Ag2'
_cell_volume   583.33342385
_cell_formula_units_Z   2
loop_
 _symmetry_equiv_pos_site_id
 _symmetry_equiv_pos_as_xyz
  1  'x, y, z'
loop_
 _atom_site_type_symbol
 _atom_site_label
 _atom_site_symmetry_multiplicity
 _atom_site_fract_x
 _atom_site_fract_y
 _atom_site_fract_z
 _atom_site_occupancy
  Tm  Tm0  1  0.345147  0.345147  0.344555  1
  Tm  Tm1  1  0.345147  0.345147  0.965152  1
  Tm  Tm2  1  0.347060  0.961552  0.345694  1
  Tm  Tm3  1  0.961552  0.347060  0.345694  1
  Tm  Tm4  1  0.812621  0.186077  0.187471  1
  Tm  Tm5  1  0.186077  0.812621  0.813830  1
  Tm  Tm6  1  0.186077  0.812621  0.187471  1
  Tm  Tm7  1  0.812621  0.186077  0.813830  1
  Tm  Tm8  1  0.186471  0.186471  0.813529  1
  Tm  Tm9  1  0.810004  0.810004  0.189996  1
  Tm  Tm10  1  0.933435  0.562490  0.563439  1
  Tm  Tm11  1  0.562490  0.933435  0.940636  1
  Tm  Tm12  1  0.562490  0.933435  0.563439  1
  Tm  Tm13  1  0.933435  0.562490  0.940636  1
  Tm  Tm14  1  0.561938  0.561938  0.938062  1
  Tm  Tm15  1  0.936541  0.936541  0.563459  1
  Mg  Mg16  1  0.581844  0.272448  0.572853  1
  Mg  Mg17  1  0.272448  0.581844  0.572853  1
  Co  Co18  1  0.140680  0.140680  0.142040  1
  Co  Co19  1  0.140680  0.140680  0.576600  1
  Co  Co20  1  0.139829  0.576941  0.141615  1
  Co  Co21  1  0.576941  0.139829  0.141615  1
  Ag  Ag22  1  0.582235  0.582235  0.583910  1
  Ag  Ag23  1  0.582235  0.582235  0.251619  1
