# generated using pymatgen
data_Dy7Th(CoAg)2
_symmetry_space_group_name_H-M   'P 1'
_cell_length_a   9.43888931
_cell_length_b   9.47100753
_cell_length_c   9.43888965
_cell_angle_alpha   60.43720600
_cell_angle_beta   59.25001119
_cell_angle_gamma   60.43721132
_symmetry_Int_Tables_number   1
_chemical_formula_structural   Dy7Th(CoAg)2
_chemical_formula_sum   'Dy14 Th2 Co4 Ag4'
_cell_volume   597.04613824
_cell_formula_units_Z   2
loop_
 _symmetry_equiv_pos_site_id
 _symmetry_equiv_pos_as_xyz
  1  'x, y, z'
loop_
 _atom_site_type_symbol
 _atom_site_label
 _atom_site_symmetry_multiplicity
 _atom_site_fract_x
 _atom_site_fract_y
 _atom_site_fract_z
 _atom_site_occupancy
  Dy  Dy0  1  0.687418  0.312785  0.307144  1
  Dy  Dy1  1  0.935753  0.564821  0.561619  1
  Dy  Dy2  1  0.549927  0.147577  0.153699  1
  Dy  Dy3  1  0.153699  0.147577  0.549927  1
  Dy  Dy4  1  0.936349  0.940778  0.560327  1
  Dy  Dy5  1  0.311830  0.689259  0.311830  1
  Dy  Dy6  1  0.560327  0.940778  0.936349  1
  Dy  Dy7  1  0.563331  0.935831  0.563331  1
  Dy  Dy8  1  0.686066  0.692251  0.309721  1
  Dy  Dy9  1  0.561619  0.564821  0.935753  1
  Dy  Dy10  1  0.933373  0.567563  0.933373  1
  Dy  Dy11  1  0.309721  0.692251  0.686066  1
  Dy  Dy12  1  0.153787  0.151051  0.153787  1
  Dy  Dy13  1  0.307144  0.312785  0.687418  1
  Th  Th14  1  0.154430  0.532886  0.154430  1
  Th  Th15  1  0.684231  0.317061  0.684231  1
  Co  Co16  1  0.377902  0.352057  0.919000  1
  Co  Co17  1  0.356744  0.926331  0.356744  1
  Co  Co18  1  0.919000  0.352057  0.377902  1
  Co  Co19  1  0.351818  0.365971  0.351818  1
  Ag  Ag20  1  0.921258  0.244024  0.921258  1
  Ag  Ag21  1  0.919394  0.913006  0.919394  1
  Ag  Ag22  1  0.920129  0.918240  0.244752  1
  Ag  Ag23  1  0.244752  0.918240  0.920129  1
