# generated using pymatgen
data_Th3Ga3CuIrPt
_symmetry_space_group_name_H-M   'P 1'
_cell_length_a   7.37279300
_cell_length_b   7.37279322
_cell_length_c   4.02790900
_cell_angle_alpha   90.00000000
_cell_angle_beta   90.00000000
_cell_angle_gamma   120.00000350
_symmetry_Int_Tables_number   1
_chemical_formula_structural   Th3Ga3CuIrPt
_chemical_formula_sum   'Th3 Ga3 Cu1 Ir1 Pt1'
_cell_volume   189.61572942
_cell_formula_units_Z   1
loop_
 _symmetry_equiv_pos_site_id
 _symmetry_equiv_pos_as_xyz
  1  'x, y, z'
loop_
 _atom_site_type_symbol
 _atom_site_label
 _atom_site_symmetry_multiplicity
 _atom_site_fract_x
 _atom_site_fract_y
 _atom_site_fract_z
 _atom_site_occupancy
  Th  Th0  1  0.413227  0.418524  0.500000  1
  Th  Th1  1  0.581476  0.994702  0.500000  1
  Th  Th2  1  0.005298  0.586773  0.500000  1
  Ga  Ga3  1  0.763378  0.765408  0.000000  1
  Ga  Ga4  1  0.234592  0.997970  0.000000  1
  Ga  Ga5  1  0.002030  0.236622  0.000000  1
  Cu  Cu6  1  0.000000  0.000000  0.500000  1
  Ir  Ir7  1  0.333333  0.666667  0.000000  1
  Pt  Pt8  1  0.666667  0.333333  0.000000  1
