# generated using pymatgen
data_Y7Sn23Ir6
_symmetry_space_group_name_H-M   'P 1'
_cell_length_a   9.87201600
_cell_length_b   9.87201681
_cell_length_c   10.12861300
_cell_angle_alpha   90.00000000
_cell_angle_beta   90.00000000
_cell_angle_gamma   120.00000399
_symmetry_Int_Tables_number   1
_chemical_formula_structural   Y7Sn23Ir6
_chemical_formula_sum   'Y7 Sn23 Ir6'
_cell_volume   854.85474896
_cell_formula_units_Z   1
loop_
 _symmetry_equiv_pos_site_id
 _symmetry_equiv_pos_as_xyz
  1  'x, y, z'
loop_
 _atom_site_type_symbol
 _atom_site_label
 _atom_site_symmetry_multiplicity
 _atom_site_fract_x
 _atom_site_fract_y
 _atom_site_fract_z
 _atom_site_occupancy
  Y  Y0  1  0.000000  0.000000  0.000000  1
  Y  Y1  1  0.042482  0.521241  0.307886  1
  Y  Y2  1  0.478759  0.957518  0.307886  1
  Y  Y3  1  0.478759  0.521241  0.307886  1
  Y  Y4  1  0.957518  0.478759  0.692114  1
  Y  Y5  1  0.521241  0.042482  0.692114  1
  Y  Y6  1  0.521241  0.478759  0.692114  1
  Sn  Sn7  1  0.000000  0.000000  0.500000  1
  Sn  Sn8  1  0.119019  0.880981  0.283417  1
  Sn  Sn9  1  0.761962  0.880981  0.283417  1
  Sn  Sn10  1  0.119019  0.238038  0.283417  1
  Sn  Sn11  1  0.880981  0.119019  0.716583  1
  Sn  Sn12  1  0.238038  0.119019  0.716583  1
  Sn  Sn13  1  0.880981  0.761962  0.716583  1
  Sn  Sn14  1  0.352787  0.000000  0.000000  1
  Sn  Sn15  1  0.647213  0.647213  0.000000  1
  Sn  Sn16  1  0.000000  0.352787  0.000000  1
  Sn  Sn17  1  0.352787  0.352787  0.000000  1
  Sn  Sn18  1  0.000000  0.647213  0.000000  1
  Sn  Sn19  1  0.647213  0.000000  0.000000  1
  Sn  Sn20  1  0.778076  0.556152  0.455137  1
  Sn  Sn21  1  0.778076  0.221924  0.455137  1
  Sn  Sn22  1  0.443848  0.221924  0.455137  1
  Sn  Sn23  1  0.221924  0.443848  0.544863  1
  Sn  Sn24  1  0.221924  0.778076  0.544863  1
  Sn  Sn25  1  0.556152  0.778076  0.544863  1
  Sn  Sn26  1  0.666667  0.333333  0.175964  1
  Sn  Sn27  1  0.333333  0.666667  0.824036  1
  Sn  Sn28  1  0.666667  0.333333  0.880007  1
  Sn  Sn29  1  0.333333  0.666667  0.119993  1
  Ir  Ir30  1  0.168608  0.831392  0.802136  1
  Ir  Ir31  1  0.662785  0.831392  0.802136  1
  Ir  Ir32  1  0.168608  0.337215  0.802136  1
  Ir  Ir33  1  0.831392  0.168608  0.197864  1
  Ir  Ir34  1  0.337215  0.168608  0.197864  1
  Ir  Ir35  1  0.831392  0.662785  0.197864  1
