# generated using pymatgen
data_Li8Nd8IrRh7
_symmetry_space_group_name_H-M   'P 1'
_cell_length_a   4.06918400
_cell_length_b   7.34767144
_cell_length_c   16.50737995
_cell_angle_alpha   90.06373183
_cell_angle_beta   90.00000000
_cell_angle_gamma   90.00000000
_symmetry_Int_Tables_number   1
_chemical_formula_structural   Li8Nd8IrRh7
_chemical_formula_sum   'Li8 Nd8 Ir1 Rh7'
_cell_volume   493.55429459
_cell_formula_units_Z   1
loop_
 _symmetry_equiv_pos_site_id
 _symmetry_equiv_pos_as_xyz
  1  'x, y, z'
loop_
 _atom_site_type_symbol
 _atom_site_label
 _atom_site_symmetry_multiplicity
 _atom_site_fract_x
 _atom_site_fract_y
 _atom_site_fract_z
 _atom_site_occupancy
  Li  Li0  1  0.250000  0.641364  0.351211  1
  Li  Li1  1  0.750000  0.359503  0.648061  1
  Li  Li2  1  0.750000  0.859623  0.851758  1
  Li  Li3  1  0.250000  0.138089  0.148169  1
  Li  Li4  1  0.250000  0.495685  0.062180  1
  Li  Li5  1  0.750000  0.506281  0.938630  1
  Li  Li6  1  0.750000  0.005821  0.561389  1
  Li  Li7  1  0.250000  0.994078  0.438553  1
  Nd  Nd8  1  0.250000  0.536442  0.782734  1
  Nd  Nd9  1  0.750000  0.465718  0.217047  1
  Nd  Nd10  1  0.750000  0.962863  0.282208  1
  Nd  Nd11  1  0.250000  0.036344  0.717156  1
  Nd  Nd12  1  0.250000  0.660447  0.559977  1
  Nd  Nd13  1  0.750000  0.339617  0.439931  1
  Nd  Nd14  1  0.750000  0.839536  0.060530  1
  Nd  Nd15  1  0.250000  0.160868  0.940063  1
  Ir  Ir16  1  0.250000  0.755584  0.187259  1
  Rh  Rh17  1  0.750000  0.243727  0.812759  1
  Rh  Rh18  1  0.750000  0.743681  0.687321  1
  Rh  Rh19  1  0.250000  0.256839  0.313751  1
  Rh  Rh20  1  0.250000  0.750075  0.938118  1
  Rh  Rh21  1  0.750000  0.249105  0.060186  1
  Rh  Rh22  1  0.750000  0.748128  0.439876  1
  Rh  Rh23  1  0.250000  0.250581  0.561131  1
