# generated using pymatgen
data_Tb4Y6Ho6Cd3HgPd4
_symmetry_space_group_name_H-M   'P 1'
_cell_length_a   9.72313669
_cell_length_b   9.72313719
_cell_length_c   9.72313700
_cell_angle_alpha   59.99999724
_cell_angle_beta   59.99999554
_cell_angle_gamma   59.99999676
_symmetry_Int_Tables_number   1
_chemical_formula_structural   Tb4Y6Ho6Cd3HgPd4
_chemical_formula_sum   'Tb4 Y6 Ho6 Cd3 Hg1 Pd4'
_cell_volume   649.98626206
_cell_formula_units_Z   1
loop_
 _symmetry_equiv_pos_site_id
 _symmetry_equiv_pos_as_xyz
  1  'x, y, z'
loop_
 _atom_site_type_symbol
 _atom_site_label
 _atom_site_symmetry_multiplicity
 _atom_site_fract_x
 _atom_site_fract_y
 _atom_site_fract_z
 _atom_site_occupancy
  Tb  Tb0  1  0.354078  0.354078  0.354078  1
  Tb  Tb1  1  0.354796  0.354796  0.936257  1
  Tb  Tb2  1  0.354796  0.936257  0.354796  1
  Tb  Tb3  1  0.936257  0.354796  0.354796  1
  Y  Y4  1  0.933990  0.564659  0.564659  1
  Y  Y5  1  0.564899  0.934989  0.934989  1
  Y  Y6  1  0.564659  0.933990  0.564659  1
  Y  Y7  1  0.934989  0.564899  0.934989  1
  Y  Y8  1  0.564659  0.564659  0.933990  1
  Y  Y9  1  0.934989  0.934989  0.564899  1
  Ho  Ho10  1  0.811515  0.188453  0.188453  1
  Ho  Ho11  1  0.188542  0.811200  0.811200  1
  Ho  Ho12  1  0.188453  0.811515  0.188453  1
  Ho  Ho13  1  0.811200  0.188542  0.811200  1
  Ho  Ho14  1  0.188453  0.188453  0.811515  1
  Ho  Ho15  1  0.811200  0.811200  0.188542  1
  Cd  Cd16  1  0.582116  0.582116  0.252935  1
  Cd  Cd17  1  0.582116  0.252935  0.582116  1
  Cd  Cd18  1  0.252935  0.582116  0.582116  1
  Hg  Hg19  1  0.585300  0.585300  0.585300  1
  Pd  Pd20  1  0.144184  0.144184  0.144184  1
  Pd  Pd21  1  0.144095  0.144095  0.567682  1
  Pd  Pd22  1  0.144095  0.567682  0.144095  1
  Pd  Pd23  1  0.567682  0.144095  0.144095  1
