# generated using pymatgen
data_Tb5Lu3Au4
_symmetry_space_group_name_H-M   'P 1'
_cell_length_a   4.90553400
_cell_length_b   7.12601310
_cell_length_c   8.88771365
_cell_angle_alpha   90.24530824
_cell_angle_beta   90.00000000
_cell_angle_gamma   90.00000000
_symmetry_Int_Tables_number   1
_chemical_formula_structural   Tb5Lu3Au4
_chemical_formula_sum   'Tb5 Lu3 Au4'
_cell_volume   310.68406575
_cell_formula_units_Z   1
loop_
 _symmetry_equiv_pos_site_id
 _symmetry_equiv_pos_as_xyz
  1  'x, y, z'
loop_
 _atom_site_type_symbol
 _atom_site_label
 _atom_site_symmetry_multiplicity
 _atom_site_fract_x
 _atom_site_fract_y
 _atom_site_fract_z
 _atom_site_occupancy
  Tb  Tb0  1  0.750000  0.648093  0.419287  1
  Tb  Tb1  1  0.250000  0.484037  0.176710  1
  Tb  Tb2  1  0.250000  0.987425  0.323173  1
  Tb  Tb3  1  0.750000  0.514857  0.823296  1
  Tb  Tb4  1  0.750000  0.016025  0.677948  1
  Lu  Lu5  1  0.250000  0.852553  0.921290  1
  Lu  Lu6  1  0.250000  0.352416  0.581041  1
  Lu  Lu7  1  0.750000  0.147880  0.078148  1
  Au  Au8  1  0.250000  0.251908  0.899776  1
  Au  Au9  1  0.250000  0.753414  0.603678  1
  Au  Au10  1  0.750000  0.748380  0.096016  1
  Au  Au11  1  0.750000  0.243013  0.399636  1
