# generated using pymatgen
data_HoSnF7
_symmetry_space_group_name_H-M   'P 1'
_cell_length_a   5.60000200
_cell_length_b   8.93020601
_cell_length_c   12.06844409
_cell_angle_alpha   62.60515852
_cell_angle_beta   90.00000000
_cell_angle_gamma   90.00000000
_symmetry_Int_Tables_number   1
_chemical_formula_structural   HoSnF7
_chemical_formula_sum   'Ho4 Sn4 F28'
_cell_volume   535.85078993
_cell_formula_units_Z   4
loop_
 _symmetry_equiv_pos_site_id
 _symmetry_equiv_pos_as_xyz
  1  'x, y, z'
loop_
 _atom_site_type_symbol
 _atom_site_label
 _atom_site_symmetry_multiplicity
 _atom_site_fract_x
 _atom_site_fract_y
 _atom_site_fract_z
 _atom_site_occupancy
  Ho  Ho0  1  0.757550  0.814234  0.764372  1
  Ho  Ho1  1  0.257550  0.185766  0.735628  1
  Ho  Ho2  1  0.242450  0.185766  0.235628  1
  Ho  Ho3  1  0.742450  0.814234  0.264372  1
  Sn  Sn4  1  0.756842  0.272637  0.957764  1
  Sn  Sn5  1  0.256842  0.727363  0.542236  1
  Sn  Sn6  1  0.243158  0.727363  0.042236  1
  Sn  Sn7  1  0.743158  0.272637  0.457764  1
  F  F8  1  0.446234  0.705784  0.914451  1
  F  F9  1  0.946234  0.294216  0.585549  1
  F  F10  1  0.553766  0.294216  0.085549  1
  F  F11  1  0.053766  0.705784  0.414451  1
  F  F12  1  0.439184  0.276291  0.545744  1
  F  F13  1  0.939184  0.723709  0.954256  1
  F  F14  1  0.560816  0.723709  0.454256  1
  F  F15  1  0.060816  0.276291  0.045744  1
  F  F16  1  0.777856  0.522653  0.859008  1
  F  F17  1  0.277856  0.477347  0.640992  1
  F  F18  1  0.222144  0.477347  0.140992  1
  F  F19  1  0.722144  0.522653  0.359008  1
  F  F20  1  0.757097  0.021886  0.054407  1
  F  F21  1  0.257097  0.978114  0.445593  1
  F  F22  1  0.242903  0.978114  0.945593  1
  F  F23  1  0.742903  0.021886  0.554407  1
  F  F24  1  0.968632  0.727153  0.640523  1
  F  F25  1  0.468632  0.272847  0.859477  1
  F  F26  1  0.031368  0.272847  0.359477  1
  F  F27  1  0.531368  0.727153  0.140523  1
  F  F28  1  0.047818  0.746310  0.174879  1
  F  F29  1  0.547818  0.253690  0.325121  1
  F  F30  1  0.952182  0.253690  0.825121  1
  F  F31  1  0.452182  0.746310  0.674879  1
  F  F32  1  0.419201  0.970098  0.233230  1
  F  F33  1  0.919201  0.029902  0.266770  1
  F  F34  1  0.580799  0.029902  0.766770  1
  F  F35  1  0.080799  0.970098  0.733230  1
