# generated using pymatgen
data_LiY16Hg3Pd4
_symmetry_space_group_name_H-M   'P 1'
_cell_length_a   9.69583896
_cell_length_b   9.73359460
_cell_length_c   9.73359500
_cell_angle_alpha   60.00000205
_cell_angle_beta   59.87110561
_cell_angle_gamma   59.87110640
_symmetry_Int_Tables_number   1
_chemical_formula_structural   LiY16Hg3Pd4
_chemical_formula_sum   'Li1 Y16 Hg3 Pd4'
_cell_volume   648.28812919
_cell_formula_units_Z   1
loop_
 _symmetry_equiv_pos_site_id
 _symmetry_equiv_pos_as_xyz
  1  'x, y, z'
loop_
 _atom_site_type_symbol
 _atom_site_label
 _atom_site_symmetry_multiplicity
 _atom_site_fract_x
 _atom_site_fract_y
 _atom_site_fract_z
 _atom_site_occupancy
  Li  Li0  1  0.301025  0.566324  0.566324  1
  Y  Y1  1  0.358299  0.354039  0.354039  1
  Y  Y2  1  0.358299  0.354039  0.933624  1
  Y  Y3  1  0.358299  0.933624  0.354039  1
  Y  Y4  1  0.920008  0.359997  0.359997  1
  Y  Y5  1  0.808773  0.189617  0.189617  1
  Y  Y6  1  0.183818  0.814320  0.814320  1
  Y  Y7  1  0.183818  0.814320  0.187543  1
  Y  Y8  1  0.808773  0.189617  0.811992  1
  Y  Y9  1  0.183818  0.187543  0.814320  1
  Y  Y10  1  0.808773  0.811992  0.189617  1
  Y  Y11  1  0.932598  0.565883  0.565883  1
  Y  Y12  1  0.564246  0.934905  0.934905  1
  Y  Y13  1  0.564246  0.934905  0.565944  1
  Y  Y14  1  0.932598  0.565883  0.935636  1
  Y  Y15  1  0.564246  0.565944  0.934905  1
  Y  Y16  1  0.932598  0.935636  0.565883  1
  Hg  Hg17  1  0.582073  0.590308  0.590308  1
  Hg  Hg18  1  0.582073  0.590308  0.237311  1
  Hg  Hg19  1  0.582073  0.237311  0.590308  1
  Pd  Pd20  1  0.142142  0.147629  0.147629  1
  Pd  Pd21  1  0.142142  0.147629  0.562600  1
  Pd  Pd22  1  0.142142  0.562600  0.147629  1
  Pd  Pd23  1  0.563117  0.145627  0.145627  1
