# generated using pymatgen
data_NdSm7Sc12Si15Ru
_symmetry_space_group_name_H-M   'P 1'
_cell_length_a   7.16641405
_cell_length_b   7.52190411
_cell_length_c   14.09764851
_cell_angle_alpha   90.02895006
_cell_angle_beta   90.01066804
_cell_angle_gamma   90.17571542
_symmetry_Int_Tables_number   1
_chemical_formula_structural   NdSm7Sc12Si15Ru
_chemical_formula_sum   'Nd1 Sm7 Sc12 Si15 Ru1'
_cell_volume   759.93117651
_cell_formula_units_Z   1
loop_
 _symmetry_equiv_pos_site_id
 _symmetry_equiv_pos_as_xyz
  1  'x, y, z'
loop_
 _atom_site_type_symbol
 _atom_site_label
 _atom_site_symmetry_multiplicity
 _atom_site_fract_x
 _atom_site_fract_y
 _atom_site_fract_z
 _atom_site_occupancy
  Nd  Nd0  1  0.011206  0.176706  0.096204  1
  Sm  Sm1  1  0.990685  0.827462  0.902758  1
  Sm  Sm2  1  0.488493  0.674648  0.903369  1
  Sm  Sm3  1  0.990669  0.827522  0.597145  1
  Sm  Sm4  1  0.511112  0.325029  0.096401  1
  Sm  Sm5  1  0.011458  0.177502  0.403285  1
  Sm  Sm6  1  0.511278  0.324900  0.403631  1
  Sm  Sm7  1  0.488353  0.674622  0.596558  1
  Sc  Sc8  1  0.155411  0.495328  0.750012  1
  Sc  Sc9  1  0.839050  0.497495  0.250047  1
  Sc  Sc10  1  0.339134  0.003496  0.250084  1
  Sc  Sc11  1  0.669206  0.001713  0.750021  1
  Sc  Sc12  1  0.317568  0.171610  0.628044  1
  Sc  Sc13  1  0.671768  0.825982  0.373945  1
  Sc  Sc14  1  0.171623  0.677201  0.374099  1
  Sc  Sc15  1  0.671751  0.825914  0.126193  1
  Sc  Sc16  1  0.836754  0.319095  0.627899  1
  Sc  Sc17  1  0.317839  0.171543  0.871836  1
  Sc  Sc18  1  0.836497  0.319433  0.872047  1
  Sc  Sc19  1  0.171619  0.677107  0.126050  1
  Si  Si20  1  0.967884  0.878849  0.250318  1
  Si  Si21  1  0.468645  0.618795  0.250053  1
  Si  Si22  1  0.529611  0.384495  0.749968  1
  Si  Si23  1  0.287681  0.873517  0.749959  1
  Si  Si24  1  0.711376  0.124368  0.250504  1
  Si  Si25  1  0.213656  0.376679  0.250486  1
  Si  Si26  1  0.780564  0.622765  0.749985  1
  Si  Si27  1  0.156241  0.467779  0.537594  1
  Si  Si28  1  0.847483  0.537097  0.461273  1
  Si  Si29  1  0.347474  0.964576  0.460144  1
  Si  Si30  1  0.847127  0.538085  0.038498  1
  Si  Si31  1  0.653151  0.035133  0.538800  1
  Si  Si32  1  0.156505  0.468720  0.962068  1
  Si  Si33  1  0.652744  0.034956  0.961055  1
  Si  Si34  1  0.348633  0.963927  0.039627  1
  Ru  Ru35  1  0.029752  0.115950  0.750044  1
