# generated using pymatgen
data_V12Si3Sb
_symmetry_space_group_name_H-M   'P 1'
_cell_length_a   4.76769100
_cell_length_b   4.78299500
_cell_length_c   9.51618700
_cell_angle_alpha   90.00000000
_cell_angle_beta   90.00000000
_cell_angle_gamma   90.00000000
_symmetry_Int_Tables_number   1
_chemical_formula_structural   V12Si3Sb
_chemical_formula_sum   'V12 Si3 Sb1'
_cell_volume   217.00562683
_cell_formula_units_Z   1
loop_
 _symmetry_equiv_pos_site_id
 _symmetry_equiv_pos_as_xyz
  1  'x, y, z'
loop_
 _atom_site_type_symbol
 _atom_site_label
 _atom_site_symmetry_multiplicity
 _atom_site_fract_x
 _atom_site_fract_y
 _atom_site_fract_z
 _atom_site_occupancy
  V  V0  1  0.000000  0.500000  0.135498  1
  V  V1  1  0.000000  0.500000  0.624253  1
  V  V2  1  0.500000  0.241828  0.739711  1
  V  V3  1  0.500000  0.241828  0.260289  1
  V  V4  1  0.765790  0.000000  0.000000  1
  V  V5  1  0.746597  0.000000  0.500000  1
  V  V6  1  0.000000  0.500000  0.864502  1
  V  V7  1  0.000000  0.500000  0.375747  1
  V  V8  1  0.500000  0.758172  0.739711  1
  V  V9  1  0.500000  0.758172  0.260289  1
  V  V10  1  0.234210  0.000000  0.000000  1
  V  V11  1  0.253403  0.000000  0.500000  1
  Si  Si12  1  0.500000  0.500000  0.500000  1
  Si  Si13  1  0.000000  0.000000  0.748720  1
  Si  Si14  1  0.000000  0.000000  0.251280  1
  Sb  Sb15  1  0.500000  0.500000  0.000000  1
