# generated using pymatgen
data_Ti3ReTcB4Mo
_symmetry_space_group_name_H-M   'P 1'
_cell_length_a   5.93613340
_cell_length_b   5.93474534
_cell_length_c   3.18700700
_cell_angle_alpha   90.00000000
_cell_angle_beta   90.00000000
_cell_angle_gamma   89.01929397
_symmetry_Int_Tables_number   1
_chemical_formula_structural   Ti3ReTcB4Mo
_chemical_formula_sum   'Ti3 Re1 Tc1 B4 Mo1'
_cell_volume   112.26002509
_cell_formula_units_Z   1
loop_
 _symmetry_equiv_pos_site_id
 _symmetry_equiv_pos_as_xyz
  1  'x, y, z'
loop_
 _atom_site_type_symbol
 _atom_site_label
 _atom_site_symmetry_multiplicity
 _atom_site_fract_x
 _atom_site_fract_y
 _atom_site_fract_z
 _atom_site_occupancy
  Ti  Ti0  1  0.322544  0.820308  0.500000  1
  Ti  Ti1  1  0.179720  0.322419  0.500000  1
  Ti  Ti2  1  0.677841  0.179319  0.500000  1
  Re  Re3  1  0.002090  0.002309  0.000000  1
  Tc  Tc4  1  0.497385  0.497440  0.000000  1
  B  B5  1  0.107456  0.611936  0.000000  1
  B  B6  1  0.610038  0.891849  0.000000  1
  B  B7  1  0.389317  0.108477  0.000000  1
  B  B8  1  0.889873  0.390789  0.000000  1
  Mo  Mo9  1  0.823736  0.675154  0.500000  1
