# generated using pymatgen
data_Yb2YSc(Pt2O7)2
_symmetry_space_group_name_H-M   'P 1'
_cell_length_a   7.22814895
_cell_length_b   7.22814851
_cell_length_c   7.15277560
_cell_angle_alpha   60.05651022
_cell_angle_beta   60.05650852
_cell_angle_gamma   60.18589690
_symmetry_Int_Tables_number   1
_chemical_formula_structural   Yb2YSc(Pt2O7)2
_chemical_formula_sum   'Yb2 Y1 Sc1 Pt4 O14'
_cell_volume   264.84492871
_cell_formula_units_Z   1
loop_
 _symmetry_equiv_pos_site_id
 _symmetry_equiv_pos_as_xyz
  1  'x, y, z'
loop_
 _atom_site_type_symbol
 _atom_site_label
 _atom_site_symmetry_multiplicity
 _atom_site_fract_x
 _atom_site_fract_y
 _atom_site_fract_z
 _atom_site_occupancy
  Yb  Yb0  1  0.625000  0.125000  0.625000  1
  Yb  Yb1  1  0.125000  0.625000  0.625000  1
  Y  Y2  1  0.625000  0.625000  0.625000  1
  Sc  Sc3  1  0.625000  0.625000  0.125000  1
  Pt  Pt4  1  0.625000  0.125000  0.125000  1
  Pt  Pt5  1  0.125000  0.125000  0.125000  1
  Pt  Pt6  1  0.125000  0.625000  0.125000  1
  Pt  Pt7  1  0.125000  0.125000  0.625000  1
  O  O8  1  0.032713  0.462919  0.462495  1
  O  O9  1  0.786967  0.786967  0.206241  1
  O  O10  1  0.788551  0.224397  0.198253  1
  O  O11  1  0.025603  0.461449  0.051747  1
  O  O12  1  0.462919  0.032713  0.462495  1
  O  O13  1  0.738898  0.738898  0.775379  1
  O  O14  1  0.037769  0.037769  0.461930  1
  O  O15  1  0.787081  0.217287  0.787505  1
  O  O16  1  0.511102  0.511102  0.474621  1
  O  O17  1  0.212231  0.212231  0.788070  1
  O  O18  1  0.224397  0.788551  0.198253  1
  O  O19  1  0.461449  0.025603  0.051747  1
  O  O20  1  0.463033  0.463033  0.043759  1
  O  O21  1  0.217287  0.787081  0.787505  1
