# generated using pymatgen
data_Dy3Tm9Ni5Bi
_symmetry_space_group_name_H-M   'P 1'
_cell_length_a   8.26884482
_cell_length_b   8.26884488
_cell_length_c   8.28704762
_cell_angle_alpha   109.33371746
_cell_angle_beta   111.73258286
_cell_angle_gamma   107.28416878
_symmetry_Int_Tables_number   1
_chemical_formula_structural   Dy3Tm9Ni5Bi
_chemical_formula_sum   'Dy3 Tm9 Ni5 Bi1'
_cell_volume   436.02647744
_cell_formula_units_Z   1
loop_
 _symmetry_equiv_pos_site_id
 _symmetry_equiv_pos_as_xyz
  1  'x, y, z'
loop_
 _atom_site_type_symbol
 _atom_site_label
 _atom_site_symmetry_multiplicity
 _atom_site_fract_x
 _atom_site_fract_y
 _atom_site_fract_z
 _atom_site_occupancy
  Dy  Dy0  1  0.293981  0.179674  0.473655  1
  Dy  Dy1  1  0.707731  0.821706  0.529438  1
  Dy  Dy2  1  0.293699  0.820597  0.114295  1
  Tm  Tm3  1  0.706814  0.179469  0.886285  1
  Tm  Tm4  1  0.629368  0.319852  0.307898  1
  Tm  Tm5  1  0.370659  0.679606  0.691001  1
  Tm  Tm6  1  0.011396  0.320342  0.691001  1
  Tm  Tm7  1  0.988046  0.678530  0.307898  1
  Tm  Tm8  1  0.206042  0.399052  0.191548  1
  Tm  Tm9  1  0.792388  0.597962  0.807039  1
  Tm  Tm10  1  0.209078  0.014652  0.807039  1
  Tm  Tm11  1  0.792495  0.985506  0.191548  1
  Ni  Ni12  1  0.999034  0.367476  0.366510  1
  Ni  Ni13  1  0.999624  0.632615  0.632238  1
  Ni  Ni14  1  0.375355  0.876742  0.502118  1
  Ni  Ni15  1  0.625377  0.126763  0.502118  1
  Ni  Ni16  1  0.998997  0.999378  0.998374  1
  Bi  Bi17  1  0.499916  0.500077  0.999993  1
