# generated using pymatgen
data_La2GePd13Au
_symmetry_space_group_name_H-M   'P 1'
_cell_length_a   9.12390824
_cell_length_b   9.12542700
_cell_length_c   7.15828576
_cell_angle_alpha   90.00000000
_cell_angle_beta   90.09863652
_cell_angle_gamma   90.00000000
_symmetry_Int_Tables_number   1
_chemical_formula_structural   La2GePd13Au
_chemical_formula_sum   'La4 Ge2 Pd26 Au2'
_cell_volume   595.99482986
_cell_formula_units_Z   2
loop_
 _symmetry_equiv_pos_site_id
 _symmetry_equiv_pos_as_xyz
  1  'x, y, z'
loop_
 _atom_site_type_symbol
 _atom_site_label
 _atom_site_symmetry_multiplicity
 _atom_site_fract_x
 _atom_site_fract_y
 _atom_site_fract_z
 _atom_site_occupancy
  La  La0  1  0.506214  0.000000  0.935368  1
  La  La1  1  0.993786  0.500000  0.064632  1
  La  La2  1  0.999441  0.000000  0.499858  1
  La  La3  1  0.500559  0.500000  0.500142  1
  Ge  Ge4  1  0.501644  0.000000  0.449749  1
  Ge  Ge5  1  0.998356  0.500000  0.550251  1
  Pd  Pd6  1  0.332757  0.832183  0.618599  1
  Pd  Pd7  1  0.332757  0.167817  0.618599  1
  Pd  Pd8  1  0.669188  0.831305  0.620992  1
  Pd  Pd9  1  0.669188  0.168695  0.620992  1
  Pd  Pd10  1  0.167243  0.667817  0.381401  1
  Pd  Pd11  1  0.167243  0.332183  0.381401  1
  Pd  Pd12  1  0.830812  0.668695  0.379008  1
  Pd  Pd13  1  0.830812  0.331305  0.379008  1
  Pd  Pd14  1  0.501819  0.766978  0.255076  1
  Pd  Pd15  1  0.501819  0.233022  0.255076  1
  Pd  Pd16  1  0.266941  0.000000  0.256744  1
  Pd  Pd17  1  0.732885  0.000000  0.253427  1
  Pd  Pd18  1  0.998181  0.733022  0.744924  1
  Pd  Pd19  1  0.998181  0.266978  0.744924  1
  Pd  Pd20  1  0.233059  0.500000  0.743256  1
  Pd  Pd21  1  0.767115  0.500000  0.746573  1
  Pd  Pd22  1  0.501955  0.350000  0.854853  1
  Pd  Pd23  1  0.501955  0.650000  0.854853  1
  Pd  Pd24  1  0.848515  0.000000  0.856872  1
  Pd  Pd25  1  0.148436  0.000000  0.852953  1
  Pd  Pd26  1  0.998045  0.150000  0.145147  1
  Pd  Pd27  1  0.998045  0.850000  0.145147  1
  Pd  Pd28  1  0.651485  0.500000  0.143128  1
  Pd  Pd29  1  0.351564  0.500000  0.147047  1
  Pd  Pd30  1  0.750000  0.750000  0.000000  1
  Pd  Pd31  1  0.750000  0.250000  0.000000  1
  Au  Au32  1  0.250000  0.750000  0.000000  1
  Au  Au33  1  0.250000  0.250000  0.000000  1
