# generated using pymatgen
data_Nd4Mn5Ag3O20
_symmetry_space_group_name_H-M   'P 1'
_cell_length_a   5.85365100
_cell_length_b   7.81853032
_cell_length_c   8.85488000
_cell_angle_alpha   89.17185394
_cell_angle_beta   90.00000000
_cell_angle_gamma   90.00000000
_symmetry_Int_Tables_number   1
_chemical_formula_structural   Nd4Mn5Ag3O20
_chemical_formula_sum   'Nd4 Mn5 Ag3 O20'
_cell_volume   405.21849933
_cell_formula_units_Z   1
loop_
 _symmetry_equiv_pos_site_id
 _symmetry_equiv_pos_as_xyz
  1  'x, y, z'
loop_
 _atom_site_type_symbol
 _atom_site_label
 _atom_site_symmetry_multiplicity
 _atom_site_fract_x
 _atom_site_fract_y
 _atom_site_fract_z
 _atom_site_occupancy
  Nd  Nd0  1  0.000000  0.356061  0.675962  1
  Nd  Nd1  1  0.000000  0.645217  0.325377  1
  Nd  Nd2  1  0.000000  0.849717  0.826308  1
  Nd  Nd3  1  0.000000  0.153935  0.173170  1
  Mn  Mn4  1  0.500000  0.406797  0.349049  1
  Mn  Mn5  1  0.259423  0.498666  0.003404  1
  Mn  Mn6  1  0.744285  0.004396  0.498399  1
  Mn  Mn7  1  0.740577  0.498666  0.003404  1
  Mn  Mn8  1  0.255715  0.004396  0.498399  1
  Ag  Ag9  1  0.500000  0.068050  0.841978  1
  Ag  Ag10  1  0.500000  0.933291  0.156473  1
  Ag  Ag11  1  0.500000  0.565766  0.653639  1
  O  O12  1  0.232586  0.907863  0.298666  1
  O  O13  1  0.233364  0.097526  0.699824  1
  O  O14  1  0.752963  0.402795  0.209139  1
  O  O15  1  0.766185  0.594118  0.798092  1
  O  O16  1  0.766636  0.097526  0.699824  1
  O  O17  1  0.767414  0.907863  0.298666  1
  O  O18  1  0.233815  0.594118  0.798092  1
  O  O19  1  0.247037  0.402795  0.209139  1
  O  O20  1  0.500000  0.357063  0.943602  1
  O  O21  1  0.500000  0.642628  0.059979  1
  O  O22  1  0.500000  0.864199  0.558130  1
  O  O23  1  0.500000  0.154097  0.433651  1
  O  O24  1  0.254695  0.999895  0.999010  1
  O  O25  1  0.733292  0.493701  0.493258  1
  O  O26  1  0.745305  0.999895  0.999010  1
  O  O27  1  0.266708  0.493701  0.493258  1
  O  O28  1  0.000000  0.160783  0.448321  1
  O  O29  1  0.000000  0.846522  0.549944  1
  O  O30  1  0.000000  0.654451  0.053690  1
  O  O31  1  0.000000  0.343505  0.951146  1
