# generated using pymatgen
data_Hf2VNi11P7
_symmetry_space_group_name_H-M   'P 1'
_cell_length_a   9.01531656
_cell_length_b   9.00709915
_cell_length_c   3.59524200
_cell_angle_alpha   90.00000000
_cell_angle_beta   90.00000000
_cell_angle_gamma   120.19810345
_symmetry_Int_Tables_number   1
_chemical_formula_structural   Hf2VNi11P7
_chemical_formula_sum   'Hf2 V1 Ni11 P7'
_cell_volume   252.32150780
_cell_formula_units_Z   1
loop_
 _symmetry_equiv_pos_site_id
 _symmetry_equiv_pos_as_xyz
  1  'x, y, z'
loop_
 _atom_site_type_symbol
 _atom_site_label
 _atom_site_symmetry_multiplicity
 _atom_site_fract_x
 _atom_site_fract_y
 _atom_site_fract_z
 _atom_site_occupancy
  Hf  Hf0  1  0.001429  0.004438  0.000000  1
  Hf  Hf1  1  0.333377  0.667491  0.500000  1
  V  V2  1  0.880233  0.453135  0.500000  1
  Ni  Ni3  1  0.294188  0.398255  0.000000  1
  Ni  Ni4  1  0.103624  0.708117  0.000000  1
  Ni  Ni5  1  0.537351  0.428286  0.500000  1
  Ni  Ni6  1  0.387460  0.174372  0.000000  1
  Ni  Ni7  1  0.788101  0.618160  0.000000  1
  Ni  Ni8  1  0.825043  0.206705  0.000000  1
  Ni  Ni9  1  0.230595  0.944063  0.500000  1
  Ni  Ni10  1  0.055791  0.283039  0.500000  1
  Ni  Ni11  1  0.715863  0.769695  0.500000  1
  Ni  Ni12  1  0.575175  0.116371  0.500000  1
  Ni  Ni13  1  0.603607  0.894325  0.000000  1
  P  P14  1  0.666586  0.333187  0.000000  1
  P  P15  1  0.078710  0.452115  0.000000  1
  P  P16  1  0.255701  0.211463  0.500000  1
  P  P17  1  0.787073  0.043986  0.500000  1
  P  P18  1  0.956854  0.745625  0.500000  1
  P  P19  1  0.546843  0.625840  0.000000  1
  P  P20  1  0.376397  0.921333  0.000000  1
