# generated using pymatgen
data_Er6MoO11F
_symmetry_space_group_name_H-M   'P 1'
_cell_length_a   6.44334453
_cell_length_b   6.46994066
_cell_length_c   6.43155000
_cell_angle_alpha   99.12916420
_cell_angle_beta   98.83439752
_cell_angle_gamma   98.97795873
_symmetry_Int_Tables_number   1
_chemical_formula_structural   Er6MoO11F
_chemical_formula_sum   'Er6 Mo1 O11 F1'
_cell_volume   257.07018216
_cell_formula_units_Z   1
loop_
 _symmetry_equiv_pos_site_id
 _symmetry_equiv_pos_as_xyz
  1  'x, y, z'
loop_
 _atom_site_type_symbol
 _atom_site_label
 _atom_site_symmetry_multiplicity
 _atom_site_fract_x
 _atom_site_fract_y
 _atom_site_fract_z
 _atom_site_occupancy
  Er  Er0  1  0.701297  0.871085  0.401235  1
  Er  Er1  1  0.390633  0.693946  0.844110  1
  Er  Er2  1  0.856987  0.394071  0.690711  1
  Er  Er3  1  0.312012  0.146857  0.609371  1
  Er  Er4  1  0.621594  0.286192  0.134517  1
  Er  Er5  1  0.125154  0.610278  0.311621  1
  Mo  Mo6  1  0.005656  0.998352  0.002363  1
  O  O7  1  0.174644  0.433731  0.584561  1
  O  O8  1  0.589074  0.181346  0.435630  1
  O  O9  1  0.567914  0.418104  0.831665  1
  O  O10  1  0.812725  0.567629  0.404702  1
  O  O11  1  0.410016  0.819375  0.557041  1
  O  O12  1  0.923930  0.045997  0.699930  1
  O  O13  1  0.962381  0.302407  0.077427  1
  O  O14  1  0.306459  0.071053  0.951874  1
  O  O15  1  0.069835  0.957064  0.306411  1
  O  O16  1  0.051983  0.695356  0.931326  1
  O  O17  1  0.692943  0.927892  0.050305  1
  F  F18  1  0.424762  0.579265  0.175201  1
