# generated using pymatgen
data_Cd3Hg(Ir2O7)2
_symmetry_space_group_name_H-M   'P 1'
_cell_length_a   7.29504915
_cell_length_b   7.29504788
_cell_length_c   7.24199806
_cell_angle_alpha   59.75737836
_cell_angle_beta   59.75738084
_cell_angle_gamma   60.00001236
_symmetry_Int_Tables_number   1
_chemical_formula_structural   Cd3Hg(Ir2O7)2
_chemical_formula_sum   'Cd3 Hg1 Ir4 O14'
_cell_volume   271.51723072
_cell_formula_units_Z   1
loop_
 _symmetry_equiv_pos_site_id
 _symmetry_equiv_pos_as_xyz
  1  'x, y, z'
loop_
 _atom_site_type_symbol
 _atom_site_label
 _atom_site_symmetry_multiplicity
 _atom_site_fract_x
 _atom_site_fract_y
 _atom_site_fract_z
 _atom_site_occupancy
  Cd  Cd0  1  0.625000  0.125000  0.125000  1
  Cd  Cd1  1  0.125000  0.625000  0.125000  1
  Cd  Cd2  1  0.125000  0.125000  0.125000  1
  Hg  Hg3  1  0.125000  0.125000  0.625000  1
  Ir  Ir4  1  0.125000  0.625000  0.625000  1
  Ir  Ir5  1  0.625000  0.125000  0.625000  1
  Ir  Ir6  1  0.625000  0.625000  0.125000  1
  Ir  Ir7  1  0.625000  0.625000  0.625000  1
  O  O8  1  0.699152  0.699152  0.300106  1
  O  O9  1  0.303085  0.303085  0.701968  1
  O  O10  1  0.691861  0.303085  0.701968  1
  O  O11  1  0.301589  0.699152  0.300106  1
  O  O12  1  0.303085  0.691861  0.701968  1
  O  O13  1  0.699152  0.301589  0.300106  1
  O  O14  1  0.550848  0.550848  0.949894  1
  O  O15  1  0.946915  0.946915  0.548032  1
  O  O16  1  0.558139  0.946915  0.548032  1
  O  O17  1  0.948411  0.550848  0.949894  1
  O  O18  1  0.946915  0.558139  0.548032  1
  O  O19  1  0.550848  0.948411  0.949894  1
  O  O20  1  0.247594  0.247594  0.257217  1
  O  O21  1  0.002406  0.002406  0.992783  1
