# generated using pymatgen
data_Tm4Hf4PtRh3
_symmetry_space_group_name_H-M   'P 1'
_cell_length_a   4.60677000
_cell_length_b   6.94534390
_cell_length_c   8.21465111
_cell_angle_alpha   89.83495442
_cell_angle_beta   90.00000000
_cell_angle_gamma   90.00000000
_symmetry_Int_Tables_number   1
_chemical_formula_structural   Tm4Hf4PtRh3
_chemical_formula_sum   'Tm4 Hf4 Pt1 Rh3'
_cell_volume   262.83161630
_cell_formula_units_Z   1
loop_
 _symmetry_equiv_pos_site_id
 _symmetry_equiv_pos_as_xyz
  1  'x, y, z'
loop_
 _atom_site_type_symbol
 _atom_site_label
 _atom_site_symmetry_multiplicity
 _atom_site_fract_x
 _atom_site_fract_y
 _atom_site_fract_z
 _atom_site_occupancy
  Tm  Tm0  1  0.250000  0.981860  0.321847  1
  Tm  Tm1  1  0.250000  0.483728  0.176369  1
  Tm  Tm2  1  0.750000  0.016612  0.679172  1
  Tm  Tm3  1  0.750000  0.518162  0.825060  1
  Hf  Hf4  1  0.250000  0.359204  0.576019  1
  Hf  Hf5  1  0.250000  0.858896  0.926502  1
  Hf  Hf6  1  0.750000  0.646319  0.427322  1
  Hf  Hf7  1  0.750000  0.140106  0.074091  1
  Pt  Pt8  1  0.750000  0.265525  0.402950  1
  Rh  Rh9  1  0.250000  0.232341  0.907139  1
  Rh  Rh10  1  0.250000  0.731247  0.591602  1
  Rh  Rh11  1  0.750000  0.766001  0.091927  1
