# generated using pymatgen
data_Nd3Tm2P12IrRu18
_symmetry_space_group_name_H-M   'P 1'
_cell_length_a   12.59930587
_cell_length_b   12.59930584
_cell_length_c   3.99651300
_cell_angle_alpha   90.00000000
_cell_angle_beta   90.00000000
_cell_angle_gamma   120.06236774
_symmetry_Int_Tables_number   1
_chemical_formula_structural   Nd3Tm2P12IrRu18
_chemical_formula_sum   'Nd3 Tm2 P12 Ir1 Ru18'
_cell_volume   549.07518916
_cell_formula_units_Z   1
loop_
 _symmetry_equiv_pos_site_id
 _symmetry_equiv_pos_as_xyz
  1  'x, y, z'
loop_
 _atom_site_type_symbol
 _atom_site_label
 _atom_site_symmetry_multiplicity
 _atom_site_fract_x
 _atom_site_fract_y
 _atom_site_fract_z
 _atom_site_occupancy
  Nd  Nd0  1  0.333956  0.667079  0.500000  1
  Nd  Nd1  1  0.667079  0.333956  0.500000  1
  Nd  Nd2  1  0.186467  0.186467  0.000000  1
  Tm  Tm3  1  0.813699  0.999961  0.000000  1
  Tm  Tm4  1  0.999961  0.813699  0.000000  1
  P  P5  1  0.306916  0.830540  0.000000  1
  P  P6  1  0.168887  0.475351  0.000000  1
  P  P7  1  0.525492  0.694299  0.000000  1
  P  P8  1  0.830540  0.306916  0.000000  1
  P  P9  1  0.475351  0.168887  0.000000  1
  P  P10  1  0.694299  0.525492  0.000000  1
  P  P11  1  0.375479  0.375479  0.500000  1
  P  P12  1  0.626197  0.999807  0.500000  1
  P  P13  1  0.999807  0.626197  0.500000  1
  P  P14  1  0.814688  0.814688  0.500000  1
  P  P15  1  0.183906  0.997672  0.500000  1
  P  P16  1  0.997672  0.183906  0.500000  1
  Ir  Ir17  1  0.997053  0.997053  0.500000  1
  Ru  Ru18  1  0.189694  0.814551  0.500000  1
  Ru  Ru19  1  0.183409  0.377103  0.500000  1
  Ru  Ru20  1  0.625830  0.810038  0.500000  1
  Ru  Ru21  1  0.814551  0.189694  0.500000  1
  Ru  Ru22  1  0.377103  0.183409  0.500000  1
  Ru  Ru23  1  0.810038  0.625830  0.500000  1
  Ru  Ru24  1  0.124710  0.634392  0.000000  1
  Ru  Ru25  1  0.366441  0.491074  0.000000  1
  Ru  Ru26  1  0.510808  0.875778  0.000000  1
  Ru  Ru27  1  0.634392  0.124710  0.000000  1
  Ru  Ru28  1  0.491074  0.366441  0.000000  1
  Ru  Ru29  1  0.875778  0.510808  0.000000  1
  Ru  Ru30  1  0.556639  0.556639  0.500000  1
  Ru  Ru31  1  0.444038  0.998837  0.500000  1
  Ru  Ru32  1  0.998837  0.444038  0.500000  1
  Ru  Ru33  1  0.719972  0.719972  0.000000  1
  Ru  Ru34  1  0.280983  0.998253  0.000000  1
  Ru  Ru35  1  0.998253  0.280983  0.000000  1
