# generated using pymatgen
data_TbErAg2(Pt2O7)2
_symmetry_space_group_name_H-M   'P 1'
_cell_length_a   7.38293669
_cell_length_b   7.23790127
_cell_length_c   7.23790078
_cell_angle_alpha   59.28877369
_cell_angle_beta   59.22581491
_cell_angle_gamma   59.22581364
_symmetry_Int_Tables_number   1
_chemical_formula_structural   TbErAg2(Pt2O7)2
_chemical_formula_sum   'Tb1 Er1 Ag2 Pt4 O14'
_cell_volume   268.79657118
_cell_formula_units_Z   1
loop_
 _symmetry_equiv_pos_site_id
 _symmetry_equiv_pos_as_xyz
  1  'x, y, z'
loop_
 _atom_site_type_symbol
 _atom_site_label
 _atom_site_symmetry_multiplicity
 _atom_site_fract_x
 _atom_site_fract_y
 _atom_site_fract_z
 _atom_site_occupancy
  Tb  Tb0  1  0.125000  0.625000  0.625000  1
  Er  Er1  1  0.625000  0.625000  0.625000  1
  Ag  Ag2  1  0.625000  0.625000  0.125000  1
  Ag  Ag3  1  0.625000  0.125000  0.625000  1
  Pt  Pt4  1  0.625000  0.125000  0.125000  1
  Pt  Pt5  1  0.125000  0.125000  0.125000  1
  Pt  Pt6  1  0.125000  0.625000  0.125000  1
  Pt  Pt7  1  0.125000  0.125000  0.625000  1
  O  O8  1  0.028551  0.469214  0.469214  1
  O  O9  1  0.793372  0.788673  0.223770  1
  O  O10  1  0.794798  0.204891  0.204891  1
  O  O11  1  0.734696  0.761551  0.761551  1
  O  O12  1  0.054143  0.460853  0.029540  1
  O  O13  1  0.456628  0.026230  0.461327  1
  O  O14  1  0.054143  0.029540  0.460853  1
  O  O15  1  0.515304  0.488449  0.488449  1
  O  O16  1  0.195857  0.220460  0.789147  1
  O  O17  1  0.195857  0.789147  0.220460  1
  O  O18  1  0.793372  0.223770  0.788673  1
  O  O19  1  0.455202  0.045109  0.045109  1
  O  O20  1  0.456628  0.461327  0.026230  1
  O  O21  1  0.221449  0.780786  0.780786  1
