# generated using pymatgen
data_La12Cu3Si8Rh
_symmetry_space_group_name_H-M   'P 1'
_cell_length_a   4.37449300
_cell_length_b   11.89191672
_cell_length_c   11.90493700
_cell_angle_alpha   90.11681356
_cell_angle_beta   90.00000000
_cell_angle_gamma   90.00000000
_symmetry_Int_Tables_number   1
_chemical_formula_structural   La12Cu3Si8Rh
_chemical_formula_sum   'La12 Cu3 Si8 Rh1'
_cell_volume   619.30670757
_cell_formula_units_Z   1
loop_
 _symmetry_equiv_pos_site_id
 _symmetry_equiv_pos_as_xyz
  1  'x, y, z'
loop_
 _atom_site_type_symbol
 _atom_site_label
 _atom_site_symmetry_multiplicity
 _atom_site_fract_x
 _atom_site_fract_y
 _atom_site_fract_z
 _atom_site_occupancy
  La  La0  1  0.250000  0.056051  0.878341  1
  La  La1  1  0.250000  0.435767  0.378282  1
  La  La2  1  0.750000  0.939538  0.114868  1
  La  La3  1  0.750000  0.560493  0.622208  1
  La  La4  1  0.250000  0.120224  0.554183  1
  La  La5  1  0.250000  0.382724  0.059722  1
  La  La6  1  0.750000  0.878995  0.442124  1
  La  La7  1  0.750000  0.624054  0.939523  1
  La  La8  1  0.250000  0.809655  0.708001  1
  La  La9  1  0.250000  0.700406  0.207627  1
  La  La10  1  0.750000  0.195146  0.296535  1
  La  La11  1  0.750000  0.294110  0.793767  1
  Cu  Cu12  1  0.250000  0.365645  0.630342  1
  Cu  Cu13  1  0.250000  0.138078  0.131670  1
  Cu  Cu14  1  0.750000  0.632185  0.371635  1
  Si  Si15  1  0.250000  0.813964  0.970930  1
  Si  Si16  1  0.250000  0.680807  0.470428  1
  Si  Si17  1  0.750000  0.189822  0.033749  1
  Si  Si18  1  0.750000  0.318591  0.530427  1
  Si  Si19  1  0.250000  0.485162  0.804121  1
  Si  Si20  1  0.250000  0.004769  0.299402  1
  Si  Si21  1  0.750000  0.511779  0.198597  1
  Si  Si22  1  0.750000  0.998344  0.695575  1
  Rh  Rh23  1  0.750000  0.863691  0.867946  1
