# generated using pymatgen
data_Ca3Y(GePd14)2
_symmetry_space_group_name_H-M   'P 1'
_cell_length_a   8.97051600
_cell_length_b   8.97051600
_cell_length_c   7.14407600
_cell_angle_alpha   90.00000000
_cell_angle_beta   90.00000000
_cell_angle_gamma   90.00000000
_symmetry_Int_Tables_number   1
_chemical_formula_structural   Ca3Y(GePd14)2
_chemical_formula_sum   'Ca3 Y1 Ge2 Pd28'
_cell_volume   574.88491953
_cell_formula_units_Z   1
loop_
 _symmetry_equiv_pos_site_id
 _symmetry_equiv_pos_as_xyz
  1  'x, y, z'
loop_
 _atom_site_type_symbol
 _atom_site_label
 _atom_site_symmetry_multiplicity
 _atom_site_fract_x
 _atom_site_fract_y
 _atom_site_fract_z
 _atom_site_occupancy
  Ca  Ca0  1  0.500000  0.000000  0.939048  1
  Ca  Ca1  1  0.000000  0.500000  0.060952  1
  Ca  Ca2  1  0.500000  0.500000  0.500000  1
  Y  Y3  1  0.000000  0.000000  0.500000  1
  Ge  Ge4  1  0.500000  0.000000  0.450084  1
  Ge  Ge5  1  0.000000  0.500000  0.549916  1
  Pd  Pd6  1  0.329323  0.830307  0.622180  1
  Pd  Pd7  1  0.329323  0.169693  0.622180  1
  Pd  Pd8  1  0.670677  0.830307  0.622180  1
  Pd  Pd9  1  0.670677  0.169693  0.622180  1
  Pd  Pd10  1  0.169693  0.670677  0.377820  1
  Pd  Pd11  1  0.169693  0.329323  0.377820  1
  Pd  Pd12  1  0.830307  0.670677  0.377820  1
  Pd  Pd13  1  0.830307  0.329323  0.377820  1
  Pd  Pd14  1  0.500000  0.766761  0.253834  1
  Pd  Pd15  1  0.500000  0.233239  0.253834  1
  Pd  Pd16  1  0.264752  0.000000  0.256147  1
  Pd  Pd17  1  0.735248  0.000000  0.256147  1
  Pd  Pd18  1  0.000000  0.735248  0.743853  1
  Pd  Pd19  1  0.000000  0.264752  0.743853  1
  Pd  Pd20  1  0.233239  0.500000  0.746166  1
  Pd  Pd21  1  0.766761  0.500000  0.746166  1
  Pd  Pd22  1  0.500000  0.348989  0.857404  1
  Pd  Pd23  1  0.500000  0.651011  0.857404  1
  Pd  Pd24  1  0.849581  0.000000  0.855235  1
  Pd  Pd25  1  0.150419  0.000000  0.855235  1
  Pd  Pd26  1  0.000000  0.150419  0.144765  1
  Pd  Pd27  1  0.000000  0.849581  0.144765  1
  Pd  Pd28  1  0.651011  0.500000  0.142596  1
  Pd  Pd29  1  0.348989  0.500000  0.142596  1
  Pd  Pd30  1  0.249904  0.750096  0.000000  1
  Pd  Pd31  1  0.249904  0.249904  0.000000  1
  Pd  Pd32  1  0.750096  0.750096  0.000000  1
  Pd  Pd33  1  0.750096  0.249904  0.000000  1
