# generated using pymatgen
data_Y7Tm6Th3(CdIr)4
_symmetry_space_group_name_H-M   'P 1'
_cell_length_a   9.68506426
_cell_length_b   9.69745786
_cell_length_c   9.69630200
_cell_angle_alpha   60.00394278
_cell_angle_beta   59.96160961
_cell_angle_gamma   60.12987584
_symmetry_Int_Tables_number   1
_chemical_formula_structural   Y7Tm6Th3(CdIr)4
_chemical_formula_sum   'Y7 Tm6 Th3 Cd4 Ir4'
_cell_volume   644.41041953
_cell_formula_units_Z   1
loop_
 _symmetry_equiv_pos_site_id
 _symmetry_equiv_pos_as_xyz
  1  'x, y, z'
loop_
 _atom_site_type_symbol
 _atom_site_label
 _atom_site_symmetry_multiplicity
 _atom_site_fract_x
 _atom_site_fract_y
 _atom_site_fract_z
 _atom_site_occupancy
  Y  Y0  1  0.812851  0.811584  0.187783  1
  Y  Y1  1  0.938650  0.561633  0.563214  1
  Y  Y2  1  0.563403  0.937088  0.935039  1
  Y  Y3  1  0.563403  0.937088  0.564469  1
  Y  Y4  1  0.938650  0.561633  0.936501  1
  Y  Y5  1  0.564508  0.563975  0.935758  1
  Y  Y6  1  0.937901  0.938077  0.562010  1
  Tm  Tm7  1  0.950336  0.349354  0.350156  1
  Tm  Tm8  1  0.812169  0.188690  0.188557  1
  Tm  Tm9  1  0.186427  0.813568  0.813725  1
  Tm  Tm10  1  0.186427  0.813568  0.186279  1
  Tm  Tm11  1  0.812169  0.188690  0.810584  1
  Tm  Tm12  1  0.186073  0.186724  0.813601  1
  Th  Th13  1  0.347656  0.350116  0.349865  1
  Th  Th14  1  0.347656  0.350116  0.952363  1
  Th  Th15  1  0.347166  0.951814  0.350510  1
  Cd  Cd16  1  0.584103  0.580232  0.580894  1
  Cd  Cd17  1  0.584103  0.580232  0.254772  1
  Cd  Cd18  1  0.584096  0.254017  0.580944  1
  Cd  Cd19  1  0.252181  0.582125  0.582848  1
  Ir  Ir20  1  0.142048  0.141480  0.142705  1
  Ir  Ir21  1  0.142048  0.141480  0.573766  1
  Ir  Ir22  1  0.144627  0.572025  0.141674  1
  Ir  Ir23  1  0.571352  0.144687  0.141980  1
