# generated using pymatgen
data_YbTh3(GaPd2)4
_symmetry_space_group_name_H-M   'P 1'
_cell_length_a   5.81683654
_cell_length_b   7.13088500
_cell_length_c   7.51995424
_cell_angle_alpha   90.00000000
_cell_angle_beta   89.85325377
_cell_angle_gamma   90.00000000
_symmetry_Int_Tables_number   1
_chemical_formula_structural   YbTh3(GaPd2)4
_chemical_formula_sum   'Yb1 Th3 Ga4 Pd8'
_cell_volume   311.92060578
_cell_formula_units_Z   1
loop_
 _symmetry_equiv_pos_site_id
 _symmetry_equiv_pos_as_xyz
  1  'x, y, z'
loop_
 _atom_site_type_symbol
 _atom_site_label
 _atom_site_symmetry_multiplicity
 _atom_site_fract_x
 _atom_site_fract_y
 _atom_site_fract_z
 _atom_site_occupancy
  Yb  Yb0  1  0.844140  0.250000  0.470320  1
  Th  Th1  1  0.346404  0.750000  0.031893  1
  Th  Th2  1  0.152182  0.750000  0.533947  1
  Th  Th3  1  0.653809  0.250000  0.964317  1
  Ga  Ga4  1  0.654914  0.750000  0.386865  1
  Ga  Ga5  1  0.846923  0.750000  0.884553  1
  Ga  Ga6  1  0.343939  0.250000  0.607684  1
  Ga  Ga7  1  0.150612  0.250000  0.122975  1
  Pd  Pd8  1  0.916437  0.552170  0.182910  1
  Pd  Pd9  1  0.579491  0.949676  0.685981  1
  Pd  Pd10  1  0.088016  0.051051  0.816256  1
  Pd  Pd11  1  0.419594  0.451794  0.313576  1
  Pd  Pd12  1  0.088016  0.448949  0.816256  1
  Pd  Pd13  1  0.419594  0.048206  0.313576  1
  Pd  Pd14  1  0.916437  0.947830  0.182910  1
  Pd  Pd15  1  0.579491  0.550324  0.685981  1
