# generated using pymatgen
data_Pu2AlGaIrPd
_symmetry_space_group_name_H-M   'P 1'
_cell_length_a   7.12933900
_cell_length_b   7.12933795
_cell_length_c   8.05066800
_cell_angle_alpha   90.00000000
_cell_angle_beta   90.00000000
_cell_angle_gamma   119.99999641
_symmetry_Int_Tables_number   1
_chemical_formula_structural   Pu2AlGaIrPd
_chemical_formula_sum   'Pu6 Al3 Ga3 Ir3 Pd3'
_cell_volume   354.37333232
_cell_formula_units_Z   3
loop_
 _symmetry_equiv_pos_site_id
 _symmetry_equiv_pos_as_xyz
  1  'x, y, z'
loop_
 _atom_site_type_symbol
 _atom_site_label
 _atom_site_symmetry_multiplicity
 _atom_site_fract_x
 _atom_site_fract_y
 _atom_site_fract_z
 _atom_site_occupancy
  Pu  Pu0  1  0.575471  0.578414  0.253024  1
  Pu  Pu1  1  0.003903  0.425150  0.746938  1
  Pu  Pu2  1  0.421586  0.997057  0.253024  1
  Pu  Pu3  1  0.002943  0.424529  0.253024  1
  Pu  Pu4  1  0.421247  0.996097  0.746938  1
  Pu  Pu5  1  0.574850  0.578753  0.746938  1
  Al  Al6  1  0.240593  0.239289  0.499945  1
  Al  Al7  1  0.760711  0.001304  0.499945  1
  Al  Al8  1  0.998696  0.759407  0.499945  1
  Ga  Ga9  1  0.753636  0.996810  0.000217  1
  Ga  Ga10  1  0.243173  0.246364  0.000217  1
  Ga  Ga11  1  0.003190  0.756827  0.000217  1
  Ir  Ir12  1  0.333333  0.666667  0.499395  1
  Ir  Ir13  1  0.333333  0.666667  0.000974  1
  Ir  Ir14  1  0.666667  0.333333  0.499865  1
  Pd  Pd15  1  0.000000  0.000000  0.747285  1
  Pd  Pd16  1  0.000000  0.000000  0.253227  1
  Pd  Pd17  1  0.666667  0.333333  0.998884  1
