# generated using pymatgen
data_Dy14Tm2MgCo4Ag3
_symmetry_space_group_name_H-M   'P 1'
_cell_length_a   9.39621640
_cell_length_b   9.41194998
_cell_length_c   9.41202080
_cell_angle_alpha   60.30210022
_cell_angle_beta   60.17047753
_cell_angle_gamma   60.16911516
_symmetry_Int_Tables_number   1
_chemical_formula_structural   Dy14Tm2MgCo4Ag3
_chemical_formula_sum   'Dy14 Tm2 Mg1 Co4 Ag3'
_cell_volume   591.42160079
_cell_formula_units_Z   1
loop_
 _symmetry_equiv_pos_site_id
 _symmetry_equiv_pos_as_xyz
  1  'x, y, z'
loop_
 _atom_site_type_symbol
 _atom_site_label
 _atom_site_symmetry_multiplicity
 _atom_site_fract_x
 _atom_site_fract_y
 _atom_site_fract_z
 _atom_site_occupancy
  Dy  Dy0  1  0.184710  0.814194  0.185768  1
  Dy  Dy1  1  0.810464  0.187885  0.812829  1
  Dy  Dy2  1  0.184708  0.185765  0.814200  1
  Dy  Dy3  1  0.810461  0.812833  0.187882  1
  Dy  Dy4  1  0.935547  0.562813  0.562827  1
  Dy  Dy5  1  0.562883  0.937451  0.937457  1
  Dy  Dy6  1  0.561949  0.937348  0.562891  1
  Dy  Dy7  1  0.936823  0.562788  0.937961  1
  Dy  Dy8  1  0.561951  0.562889  0.937349  1
  Dy  Dy9  1  0.936816  0.937960  0.562792  1
  Dy  Dy10  1  0.346171  0.345559  0.345557  1
  Dy  Dy11  1  0.346486  0.346640  0.961625  1
  Dy  Dy12  1  0.346479  0.961626  0.346646  1
  Dy  Dy13  1  0.948386  0.351003  0.351009  1
  Tm  Tm14  1  0.809786  0.188471  0.188462  1
  Tm  Tm15  1  0.185262  0.813849  0.813785  1
  Mg  Mg16  1  0.289324  0.570295  0.570313  1
  Co  Co17  1  0.138120  0.142246  0.142247  1
  Co  Co18  1  0.139197  0.142408  0.576889  1
  Co  Co19  1  0.139185  0.576902  0.142390  1
  Co  Co20  1  0.576131  0.141891  0.141894  1
  Ag  Ag21  1  0.583014  0.583651  0.583669  1
  Ag  Ag22  1  0.583070  0.583394  0.250154  1
  Ag  Ag23  1  0.583073  0.250139  0.583401  1
