# generated using pymatgen
data_YHoTm2(ReB6)2
_symmetry_space_group_name_H-M   'P 1'
_cell_length_a   3.66006100
_cell_length_b   9.13732800
_cell_length_c   11.52352300
_cell_angle_alpha   90.00134218
_cell_angle_beta   90.00000000
_cell_angle_gamma   90.00000000
_symmetry_Int_Tables_number   1
_chemical_formula_structural   YHoTm2(ReB6)2
_chemical_formula_sum   'Y2 Ho2 Tm4 Re4 B24'
_cell_volume   385.38322918
_cell_formula_units_Z   2
loop_
 _symmetry_equiv_pos_site_id
 _symmetry_equiv_pos_as_xyz
  1  'x, y, z'
loop_
 _atom_site_type_symbol
 _atom_site_label
 _atom_site_symmetry_multiplicity
 _atom_site_fract_x
 _atom_site_fract_y
 _atom_site_fract_z
 _atom_site_occupancy
  Y  Y0  1  0.000000  0.323207  0.413901  1
  Y  Y1  1  0.000000  0.676793  0.586099  1
  Ho  Ho2  1  0.000000  0.823382  0.086098  1
  Ho  Ho3  1  0.000000  0.176618  0.913902  1
  Tm  Tm4  1  0.000000  0.943387  0.370195  1
  Tm  Tm5  1  0.000000  0.056613  0.629805  1
  Tm  Tm6  1  0.000000  0.443397  0.129653  1
  Tm  Tm7  1  0.000000  0.556603  0.870347  1
  Re  Re8  1  0.000000  0.639294  0.320095  1
  Re  Re9  1  0.000000  0.360706  0.679905  1
  Re  Re10  1  0.000000  0.138961  0.179455  1
  Re  Re11  1  0.000000  0.861039  0.820545  1
  B  B12  1  0.500000  0.553528  0.432696  1
  B  B13  1  0.500000  0.446472  0.567304  1
  B  B14  1  0.500000  0.053390  0.067110  1
  B  B15  1  0.500000  0.946610  0.932890  1
  B  B16  1  0.500000  0.750222  0.418459  1
  B  B17  1  0.500000  0.249778  0.581541  1
  B  B18  1  0.500000  0.250089  0.081257  1
  B  B19  1  0.500000  0.749911  0.918743  1
  B  B20  1  0.500000  0.792861  0.265403  1
  B  B21  1  0.500000  0.207139  0.734597  1
  B  B22  1  0.500000  0.292778  0.234327  1
  B  B23  1  0.500000  0.707222  0.765673  1
  B  B24  1  0.500000  0.630651  0.185102  1
  B  B25  1  0.500000  0.369349  0.814898  1
  B  B26  1  0.500000  0.130397  0.314703  1
  B  B27  1  0.500000  0.869603  0.685297  1
  B  B28  1  0.500000  0.981849  0.212309  1
  B  B29  1  0.500000  0.018151  0.787691  1
  B  B30  1  0.500000  0.482068  0.287467  1
  B  B31  1  0.500000  0.517932  0.712533  1
  B  B32  1  0.500000  0.599199  0.027660  1
  B  B33  1  0.500000  0.400801  0.972340  1
  B  B34  1  0.500000  0.098987  0.472398  1
  B  B35  1  0.500000  0.901013  0.527602  1
