# generated using pymatgen
data_Tb2Tm2B12OsW
_symmetry_space_group_name_H-M   'P 1'
_cell_length_a   3.62229200
_cell_length_b   9.20196190
_cell_length_c   11.61086569
_cell_angle_alpha   89.86191756
_cell_angle_beta   90.00000000
_cell_angle_gamma   90.00000000
_symmetry_Int_Tables_number   1
_chemical_formula_structural   Tb2Tm2B12OsW
_chemical_formula_sum   'Tb4 Tm4 B24 Os2 W2'
_cell_volume   387.01449159
_cell_formula_units_Z   2
loop_
 _symmetry_equiv_pos_site_id
 _symmetry_equiv_pos_as_xyz
  1  'x, y, z'
loop_
 _atom_site_type_symbol
 _atom_site_label
 _atom_site_symmetry_multiplicity
 _atom_site_fract_x
 _atom_site_fract_y
 _atom_site_fract_z
 _atom_site_occupancy
  Tb  Tb0  1  0.000000  0.321114  0.413613  1
  Tb  Tb1  1  0.000000  0.678886  0.586387  1
  Tb  Tb2  1  0.000000  0.821669  0.086296  1
  Tb  Tb3  1  0.000000  0.178331  0.913704  1
  Tm  Tm4  1  0.000000  0.944963  0.371518  1
  Tm  Tm5  1  0.000000  0.055037  0.628483  1
  Tm  Tm6  1  0.000000  0.442064  0.127877  1
  Tm  Tm7  1  0.000000  0.557936  0.872122  1
  B  B8  1  0.500000  0.551335  0.434156  1
  B  B9  1  0.500000  0.448665  0.565844  1
  B  B10  1  0.500000  0.054058  0.067402  1
  B  B11  1  0.500000  0.945942  0.932598  1
  B  B12  1  0.500000  0.752452  0.420807  1
  B  B13  1  0.500000  0.247548  0.579193  1
  B  B14  1  0.500000  0.249032  0.082044  1
  B  B15  1  0.500000  0.750968  0.917956  1
  B  B16  1  0.500000  0.795931  0.263721  1
  B  B17  1  0.500000  0.204069  0.736279  1
  B  B18  1  0.500000  0.290175  0.233096  1
  B  B19  1  0.500000  0.709824  0.766904  1
  B  B20  1  0.500000  0.631182  0.181434  1
  B  B21  1  0.500000  0.368818  0.818566  1
  B  B22  1  0.500000  0.129916  0.313209  1
  B  B23  1  0.500000  0.870084  0.686791  1
  B  B24  1  0.500000  0.983683  0.212081  1
  B  B25  1  0.500000  0.016317  0.787919  1
  B  B26  1  0.500000  0.477818  0.285394  1
  B  B27  1  0.500000  0.522182  0.714606  1
  B  B28  1  0.500000  0.601571  0.027434  1
  B  B29  1  0.500000  0.398429  0.972566  1
  B  B30  1  0.500000  0.101310  0.470978  1
  B  B31  1  0.500000  0.898690  0.529022  1
  Os  Os32  1  0.000000  0.138138  0.178433  1
  Os  Os33  1  0.000000  0.861862  0.821567  1
  W  W34  1  0.000000  0.639151  0.319209  1
  W  W35  1  0.000000  0.360849  0.680791  1
