# generated using pymatgen
data_Sr6DyYSb6
_symmetry_space_group_name_H-M   'P 1'
_cell_length_a   8.45813213
_cell_length_b   8.45692342
_cell_length_c   8.58717960
_cell_angle_alpha   109.76288594
_cell_angle_beta   109.76827574
_cell_angle_gamma   108.87241657
_symmetry_Int_Tables_number   1
_chemical_formula_structural   Sr6DyYSb6
_chemical_formula_sum   'Sr6 Dy1 Y1 Sb6'
_cell_volume   472.87159908
_cell_formula_units_Z   1
loop_
 _symmetry_equiv_pos_site_id
 _symmetry_equiv_pos_as_xyz
  1  'x, y, z'
loop_
 _atom_site_type_symbol
 _atom_site_label
 _atom_site_symmetry_multiplicity
 _atom_site_fract_x
 _atom_site_fract_y
 _atom_site_fract_z
 _atom_site_occupancy
  Sr  Sr0  1  0.500310  0.003615  0.361134  1
  Sr  Sr1  1  0.995093  0.360539  0.494472  1
  Sr  Sr2  1  0.503545  0.000338  0.861144  1
  Sr  Sr3  1  0.641088  0.639693  0.644446  1
  Sr  Sr4  1  0.139757  0.141116  0.144531  1
  Sr  Sr5  1  0.860548  0.495175  0.994573  1
  Dy  Dy6  1  0.997832  0.860791  0.497031  1
  Y  Y7  1  0.360437  0.497924  0.997100  1
  Sb  Sb8  1  0.744334  0.860575  0.135167  1
  Sb  Sb9  1  0.360279  0.243735  0.634658  1
  Sb  Sb10  1  0.247486  0.629637  0.370557  1
  Sb  Sb11  1  0.895875  0.123470  0.747236  1
  Sb  Sb12  1  0.623853  0.395884  0.247518  1
  Sb  Sb13  1  0.129562  0.747507  0.870431  1
