# generated using pymatgen
data_Sc2PaNi8Ir
_symmetry_space_group_name_H-M   'P 1'
_cell_length_a   8.61064014
_cell_length_b   8.61063985
_cell_length_c   8.61064000
_cell_angle_alpha   32.65739925
_cell_angle_beta   32.65738998
_cell_angle_gamma   32.65739582
_symmetry_Int_Tables_number   1
_chemical_formula_structural   Sc2PaNi8Ir
_chemical_formula_sum   'Sc2 Pa1 Ni8 Ir1'
_cell_volume   165.34136485
_cell_formula_units_Z   1
loop_
 _symmetry_equiv_pos_site_id
 _symmetry_equiv_pos_as_xyz
  1  'x, y, z'
loop_
 _atom_site_type_symbol
 _atom_site_label
 _atom_site_symmetry_multiplicity
 _atom_site_fract_x
 _atom_site_fract_y
 _atom_site_fract_z
 _atom_site_occupancy
  Sc  Sc0  1  0.858876  0.858876  0.858876  1
  Sc  Sc1  1  0.141124  0.141124  0.141124  1
  Pa  Pa2  1  0.000000  0.000000  0.000000  1
  Ni  Ni3  1  0.665800  0.665800  0.665800  1
  Ni  Ni4  1  0.334200  0.334200  0.334200  1
  Ni  Ni5  1  0.414932  0.922555  0.414932  1
  Ni  Ni6  1  0.414932  0.414932  0.922555  1
  Ni  Ni7  1  0.922555  0.414932  0.414932  1
  Ni  Ni8  1  0.585068  0.077445  0.585068  1
  Ni  Ni9  1  0.585068  0.585068  0.077445  1
  Ni  Ni10  1  0.077445  0.585068  0.585068  1
  Ir  Ir11  1  0.500000  0.500000  0.500000  1
