# generated using pymatgen
data_Tm6Fe5Ni13As12
_symmetry_space_group_name_H-M   'P 1'
_cell_length_a   3.84222900
_cell_length_b   10.90406300
_cell_length_c   12.69024000
_cell_angle_alpha   90.00034309
_cell_angle_beta   90.00000000
_cell_angle_gamma   90.00000000
_symmetry_Int_Tables_number   1
_chemical_formula_structural   Tm6Fe5Ni13As12
_chemical_formula_sum   'Tm6 Fe5 Ni13 As12'
_cell_volume   531.66911585
_cell_formula_units_Z   1
loop_
 _symmetry_equiv_pos_site_id
 _symmetry_equiv_pos_as_xyz
  1  'x, y, z'
loop_
 _atom_site_type_symbol
 _atom_site_label
 _atom_site_symmetry_multiplicity
 _atom_site_fract_x
 _atom_site_fract_y
 _atom_site_fract_z
 _atom_site_occupancy
  Tm  Tm0  1  0.000000  0.498931  0.522137  1
  Tm  Tm1  1  0.500000  0.000795  0.477225  1
  Tm  Tm2  1  0.500000  0.819083  0.207908  1
  Tm  Tm3  1  0.500000  0.182647  0.206502  1
  Tm  Tm4  1  0.000000  0.679313  0.793749  1
  Tm  Tm5  1  0.000000  0.318463  0.793735  1
  Fe  Fe6  1  0.500000  0.502634  0.150250  1
  Fe  Fe7  1  0.000000  0.998204  0.847251  1
  Fe  Fe8  1  0.000000  0.501943  0.986196  1
  Fe  Fe9  1  0.500000  0.000311  0.014303  1
  Fe  Fe10  1  0.500000  0.331907  0.996332  1
  Ni  Ni11  1  0.500000  0.500017  0.701711  1
  Ni  Ni12  1  0.000000  0.999987  0.299820  1
  Ni  Ni13  1  0.500000  0.670113  0.992947  1
  Ni  Ni14  1  0.000000  0.165327  0.005565  1
  Ni  Ni15  1  0.000000  0.832702  0.006154  1
  Ni  Ni16  1  0.500000  0.303689  0.427337  1
  Ni  Ni17  1  0.500000  0.696451  0.428131  1
  Ni  Ni18  1  0.000000  0.196579  0.571911  1
  Ni  Ni19  1  0.000000  0.802720  0.572635  1
  Ni  Ni20  1  0.500000  0.879076  0.705575  1
  Ni  Ni21  1  0.500000  0.121676  0.708210  1
  Ni  Ni22  1  0.000000  0.620707  0.293727  1
  Ni  Ni23  1  0.000000  0.377915  0.290748  1
  As  As24  1  0.500000  0.496711  0.880745  1
  As  As25  1  0.000000  0.999456  0.122253  1
  As  As26  1  0.500000  0.499773  0.344929  1
  As  As27  1  0.000000  0.000186  0.653666  1
  As  As28  1  0.500000  0.315864  0.614966  1
  As  As29  1  0.500000  0.682945  0.614605  1
  As  As30  1  0.000000  0.184306  0.385513  1
  As  As31  1  0.000000  0.816120  0.386210  1
  As  As32  1  0.500000  0.848655  0.887741  1
  As  As33  1  0.500000  0.155283  0.890448  1
  As  As34  1  0.000000  0.653226  0.111555  1
  As  As35  1  0.000000  0.346289  0.107311  1
