# generated using pymatgen
data_Dy19YCd3Hg3Ru2
_symmetry_space_group_name_H-M   'P 1'
_cell_length_a   9.60690200
_cell_length_b   9.60654524
_cell_length_c   9.80368100
_cell_angle_alpha   90.00000000
_cell_angle_beta   90.00000000
_cell_angle_gamma   119.99877403
_symmetry_Int_Tables_number   1
_chemical_formula_structural   Dy19YCd3Hg3Ru2
_chemical_formula_sum   'Dy19 Y1 Cd3 Hg3 Ru2'
_cell_volume   783.56632087
_cell_formula_units_Z   1
loop_
 _symmetry_equiv_pos_site_id
 _symmetry_equiv_pos_as_xyz
  1  'x, y, z'
loop_
 _atom_site_type_symbol
 _atom_site_label
 _atom_site_symmetry_multiplicity
 _atom_site_fract_x
 _atom_site_fract_y
 _atom_site_fract_z
 _atom_site_occupancy
  Dy  Dy0  1  0.999987  0.999993  0.491385  1
  Dy  Dy1  1  0.999987  0.999993  0.008615  1
  Dy  Dy2  1  0.209571  0.790608  0.439197  1
  Dy  Dy3  1  0.209571  0.418964  0.439197  1
  Dy  Dy4  1  0.580954  0.790478  0.439304  1
  Dy  Dy5  1  0.790138  0.209654  0.559795  1
  Dy  Dy6  1  0.790138  0.580484  0.559795  1
  Dy  Dy7  1  0.419494  0.209747  0.559850  1
  Dy  Dy8  1  0.790138  0.209654  0.940205  1
  Dy  Dy9  1  0.790138  0.580484  0.940205  1
  Dy  Dy10  1  0.419494  0.209747  0.940150  1
  Dy  Dy11  1  0.209571  0.790608  0.060803  1
  Dy  Dy12  1  0.209571  0.418964  0.060803  1
  Dy  Dy13  1  0.580954  0.790478  0.060696  1
  Dy  Dy14  1  0.541265  0.458710  0.250000  1
  Dy  Dy15  1  0.541265  0.082556  0.250000  1
  Dy  Dy16  1  0.917475  0.458738  0.250000  1
  Dy  Dy17  1  0.458868  0.541146  0.750000  1
  Dy  Dy18  1  0.458868  0.917723  0.750000  1
  Y  Y19  1  0.082586  0.541293  0.750000  1
  Cd  Cd20  1  0.113421  0.886717  0.750000  1
  Cd  Cd21  1  0.113421  0.226704  0.750000  1
  Cd  Cd22  1  0.773225  0.886612  0.750000  1
  Hg  Hg23  1  0.879860  0.120153  0.250000  1
  Hg  Hg24  1  0.879860  0.759709  0.250000  1
  Hg  Hg25  1  0.240302  0.120151  0.250000  1
  Ru  Ru26  1  0.333350  0.666676  0.250000  1
  Ru  Ru27  1  0.666526  0.333262  0.750000  1
