# generated using pymatgen
data_Ho12Si12RuAu3
_symmetry_space_group_name_H-M   'P 1'
_cell_length_a   4.22651000
_cell_length_b   10.83107690
_cell_length_c   12.35735763
_cell_angle_alpha   90.00511881
_cell_angle_beta   90.00000000
_cell_angle_gamma   90.00000000
_symmetry_Int_Tables_number   1
_chemical_formula_structural   Ho12Si12RuAu3
_chemical_formula_sum   'Ho12 Si12 Ru1 Au3'
_cell_volume   565.69084969
_cell_formula_units_Z   1
loop_
 _symmetry_equiv_pos_site_id
 _symmetry_equiv_pos_as_xyz
  1  'x, y, z'
loop_
 _atom_site_type_symbol
 _atom_site_label
 _atom_site_symmetry_multiplicity
 _atom_site_fract_x
 _atom_site_fract_y
 _atom_site_fract_z
 _atom_site_occupancy
  Ho  Ho0  1  0.250000  0.876146  0.017794  1
  Ho  Ho1  1  0.250000  0.625097  0.521252  1
  Ho  Ho2  1  0.750000  0.120489  0.978445  1
  Ho  Ho3  1  0.750000  0.374505  0.481569  1
  Ho  Ho4  1  0.250000  0.921896  0.603623  1
  Ho  Ho5  1  0.250000  0.579386  0.100155  1
  Ho  Ho6  1  0.750000  0.077288  0.398771  1
  Ho  Ho7  1  0.750000  0.421418  0.896798  1
  Ho  Ho8  1  0.250000  0.665136  0.801454  1
  Ho  Ho9  1  0.250000  0.836992  0.301485  1
  Ho  Ho10  1  0.750000  0.336890  0.198016  1
  Ho  Ho11  1  0.750000  0.156031  0.701667  1
  Si  Si12  1  0.250000  0.009198  0.823375  1
  Si  Si13  1  0.250000  0.475139  0.326538  1
  Si  Si14  1  0.750000  0.975395  0.176251  1
  Si  Si15  1  0.750000  0.527607  0.672044  1
  Si  Si16  1  0.250000  0.241783  0.847720  1
  Si  Si17  1  0.250000  0.252073  0.348091  1
  Si  Si18  1  0.750000  0.754127  0.150840  1
  Si  Si19  1  0.750000  0.754754  0.661505  1
  Si  Si20  1  0.250000  0.185318  0.538499  1
  Si  Si21  1  0.250000  0.315879  0.035377  1
  Si  Si22  1  0.750000  0.814240  0.464711  1
  Si  Si23  1  0.750000  0.701136  0.954566  1
  Ru  Ru24  1  0.750000  0.890566  0.820088  1
  Au  Au25  1  0.250000  0.388286  0.681135  1
  Au  Au26  1  0.250000  0.111079  0.179526  1
  Au  Au27  1  0.750000  0.612146  0.318704  1
