# generated using pymatgen
data_PrNdSCl2
_symmetry_space_group_name_H-M   'P 1'
_cell_length_a   10.45899737
_cell_length_b   10.45899777
_cell_length_c   10.45899700
_cell_angle_alpha   22.49657806
_cell_angle_beta   22.49657273
_cell_angle_gamma   22.49657402
_symmetry_Int_Tables_number   1
_chemical_formula_structural   PrNdSCl2
_chemical_formula_sum   'Pr1 Nd1 S1 Cl2'
_cell_volume   146.92516660
_cell_formula_units_Z   1
loop_
 _symmetry_equiv_pos_site_id
 _symmetry_equiv_pos_as_xyz
  1  'x, y, z'
loop_
 _atom_site_type_symbol
 _atom_site_label
 _atom_site_symmetry_multiplicity
 _atom_site_fract_x
 _atom_site_fract_y
 _atom_site_fract_z
 _atom_site_occupancy
  Pr  Pr0  1  0.116329  0.116329  0.116329  1
  Nd  Nd1  1  0.883776  0.883776  0.883776  1
  S  S2  1  0.501126  0.501126  0.501126  1
  Cl  Cl3  1  0.273062  0.273062  0.273062  1
  Cl  Cl4  1  0.725708  0.725708  0.725708  1
