# generated using pymatgen
data_Ce2ErMg3Sn2Au
_symmetry_space_group_name_H-M   'P 1'
_cell_length_a   7.74020377
_cell_length_b   7.74020304
_cell_length_c   4.53822000
_cell_angle_alpha   90.00000000
_cell_angle_beta   90.00000000
_cell_angle_gamma   119.31470717
_symmetry_Int_Tables_number   1
_chemical_formula_structural   Ce2ErMg3Sn2Au
_chemical_formula_sum   'Ce2 Er1 Mg3 Sn2 Au1'
_cell_volume   237.07114592
_cell_formula_units_Z   1
loop_
 _symmetry_equiv_pos_site_id
 _symmetry_equiv_pos_as_xyz
  1  'x, y, z'
loop_
 _atom_site_type_symbol
 _atom_site_label
 _atom_site_symmetry_multiplicity
 _atom_site_fract_x
 _atom_site_fract_y
 _atom_site_fract_z
 _atom_site_occupancy
  Ce  Ce0  1  0.591075  0.997485  0.000000  1
  Ce  Ce1  1  0.997485  0.591075  0.000000  1
  Er  Er2  1  0.400754  0.400754  0.000000  1
  Mg  Mg3  1  0.234960  0.000813  0.500000  1
  Mg  Mg4  1  0.000813  0.234960  0.500000  1
  Mg  Mg5  1  0.766560  0.766560  0.500000  1
  Sn  Sn6  1  0.336872  0.660826  0.500000  1
  Sn  Sn7  1  0.660826  0.336872  0.500000  1
  Au  Au8  1  0.010656  0.010656  0.000000  1
