# generated using pymatgen
data_Y8Lu2Ir5Pt
_symmetry_space_group_name_H-M   'P 1'
_cell_length_a   10.94522202
_cell_length_b   10.94061000
_cell_length_c   6.35115801
_cell_angle_alpha   90.00000000
_cell_angle_beta   89.99311751
_cell_angle_gamma   90.00000000
_symmetry_Int_Tables_number   1
_chemical_formula_structural   Y8Lu2Ir5Pt
_chemical_formula_sum   'Y16 Lu4 Ir10 Pt2'
_cell_volume   760.53468819
_cell_formula_units_Z   2
loop_
 _symmetry_equiv_pos_site_id
 _symmetry_equiv_pos_as_xyz
  1  'x, y, z'
loop_
 _atom_site_type_symbol
 _atom_site_label
 _atom_site_symmetry_multiplicity
 _atom_site_fract_x
 _atom_site_fract_y
 _atom_site_fract_z
 _atom_site_occupancy
  Y  Y0  1  0.290406  0.087844  0.377521  1
  Y  Y1  1  0.290406  0.912156  0.877521  1
  Y  Y2  1  0.706660  0.089347  0.875436  1
  Y  Y3  1  0.706660  0.910653  0.375436  1
  Y  Y4  1  0.584334  0.789698  0.880201  1
  Y  Y5  1  0.584334  0.210302  0.380201  1
  Y  Y6  1  0.411726  0.790191  0.379000  1
  Y  Y7  1  0.411726  0.209809  0.879000  1
  Y  Y8  1  0.209962  0.412014  0.620780  1
  Y  Y9  1  0.209962  0.587986  0.120780  1
  Y  Y10  1  0.789572  0.414954  0.121070  1
  Y  Y11  1  0.789572  0.585046  0.621070  1
  Y  Y12  1  0.913749  0.707998  0.124885  1
  Y  Y13  1  0.913749  0.292002  0.624885  1
  Y  Y14  1  0.090533  0.708047  0.621324  1
  Y  Y15  1  0.090533  0.291953  0.121324  1
  Lu  Lu16  1  0.003011  0.999863  0.499691  1
  Lu  Lu17  1  0.003011  0.000137  0.999691  1
  Lu  Lu18  1  0.499839  0.499929  0.000344  1
  Lu  Lu19  1  0.499839  0.500071  0.500344  1
  Ir  Ir20  1  0.149122  0.150238  0.749783  1
  Ir  Ir21  1  0.149122  0.849762  0.249783  1
  Ir  Ir22  1  0.651493  0.348972  0.749893  1
  Ir  Ir23  1  0.651493  0.651028  0.249893  1
  Ir  Ir24  1  0.349750  0.349508  0.250172  1
  Ir  Ir25  1  0.349750  0.650492  0.750172  1
  Ir  Ir26  1  0.500790  0.999912  0.125958  1
  Ir  Ir27  1  0.500790  0.000088  0.625958  1
  Ir  Ir28  1  0.999658  0.500116  0.874134  1
  Ir  Ir29  1  0.999658  0.499884  0.374134  1
  Pt  Pt30  1  0.849394  0.149428  0.249807  1
  Pt  Pt31  1  0.849394  0.850572  0.749807  1
