# generated using pymatgen
data_Y4(Ga8Pd3)3
_symmetry_space_group_name_H-M   'P 1'
_cell_length_a   7.51327019
_cell_length_b   7.58411518
_cell_length_c   13.45765714
_cell_angle_alpha   84.89997006
_cell_angle_beta   79.80184361
_cell_angle_gamma   60.26519759
_symmetry_Int_Tables_number   1
_chemical_formula_structural   Y4(Ga8Pd3)3
_chemical_formula_sum   'Y4 Ga24 Pd9'
_cell_volume   655.34801034
_cell_formula_units_Z   1
loop_
 _symmetry_equiv_pos_site_id
 _symmetry_equiv_pos_as_xyz
  1  'x, y, z'
loop_
 _atom_site_type_symbol
 _atom_site_label
 _atom_site_symmetry_multiplicity
 _atom_site_fract_x
 _atom_site_fract_y
 _atom_site_fract_z
 _atom_site_occupancy
  Y  Y0  1  0.393950  0.168848  0.811209  1
  Y  Y1  1  0.606050  0.831152  0.188791  1
  Y  Y2  1  0.732191  0.497169  0.811370  1
  Y  Y3  1  0.267809  0.502831  0.188630  1
  Ga  Ga4  1  0.686879  0.833629  0.939472  1
  Ga  Ga5  1  0.313121  0.166371  0.060528  1
  Ga  Ga6  1  0.144907  0.834683  0.558146  1
  Ga  Ga7  1  0.855093  0.165317  0.441854  1
  Ga  Ga8  1  0.478516  0.166922  0.556001  1
  Ga  Ga9  1  0.521484  0.833078  0.443999  1
  Ga  Ga10  1  0.219097  0.165044  0.326479  1
  Ga  Ga11  1  0.780903  0.834956  0.673521  1
  Ga  Ga12  1  0.436555  0.504631  0.673045  1
  Ga  Ga13  1  0.563445  0.495369  0.326955  1
  Ga  Ga14  1  0.107703  0.161722  0.672051  1
  Ga  Ga15  1  0.892297  0.838278  0.327949  1
  Ga  Ga16  1  0.355887  0.499406  0.940244  1
  Ga  Ga17  1  0.644113  0.500594  0.059756  1
  Ga  Ga18  1  0.018722  0.167606  0.945971  1
  Ga  Ga19  1  0.981278  0.832394  0.054029  1
  Ga  Ga20  1  0.186831  0.500200  0.443387  1
  Ga  Ga21  1  0.813169  0.499800  0.556613  1
  Ga  Ga22  1  0.734385  0.163182  0.182483  1
  Ga  Ga23  1  0.265615  0.836818  0.817517  1
  Ga  Ga24  1  0.061029  0.630579  0.816674  1
  Ga  Ga25  1  0.938971  0.369421  0.183326  1
  Ga  Ga26  1  0.856556  0.040502  0.816671  1
  Ga  Ga27  1  0.143444  0.959498  0.183329  1
  Pd  Pd28  1  0.116963  0.495932  0.638480  1
  Pd  Pd29  1  0.883037  0.504068  0.361520  1
  Pd  Pd30  1  0.659457  0.169684  0.999097  1
  Pd  Pd31  1  0.340543  0.830316  0.000903  1
  Pd  Pd32  1  0.541570  0.167298  0.360845  1
  Pd  Pd33  1  0.458430  0.832701  0.639155  1
  Pd  Pd34  1  0.778515  0.172257  0.637647  1
  Pd  Pd35  1  0.221485  0.827743  0.362353  1
  Pd  Pd36  1  0.000000  0.500000  0.000000  1
