# generated using pymatgen
data_Tb4TiFe16(P4Ru)3
_symmetry_space_group_name_H-M   'P 1'
_cell_length_a   3.71474800
_cell_length_b   10.41731797
_cell_length_c   11.90602034
_cell_angle_alpha   90.15836991
_cell_angle_beta   90.00000000
_cell_angle_gamma   90.00000000
_symmetry_Int_Tables_number   1
_chemical_formula_structural   Tb4TiFe16(P4Ru)3
_chemical_formula_sum   'Tb4 Ti1 Fe16 P12 Ru3'
_cell_volume   460.73397560
_cell_formula_units_Z   1
loop_
 _symmetry_equiv_pos_site_id
 _symmetry_equiv_pos_as_xyz
  1  'x, y, z'
loop_
 _atom_site_type_symbol
 _atom_site_label
 _atom_site_symmetry_multiplicity
 _atom_site_fract_x
 _atom_site_fract_y
 _atom_site_fract_z
 _atom_site_occupancy
  Tb  Tb0  1  0.250000  0.580113  0.702655  1
  Tb  Tb1  1  0.250000  0.921344  0.206046  1
  Tb  Tb2  1  0.750000  0.415810  0.296247  1
  Tb  Tb3  1  0.750000  0.084482  0.793748  1
  Ti  Ti4  1  0.250000  0.699763  0.991012  1
  Fe  Fe5  1  0.250000  0.402917  0.489233  1
  Fe  Fe6  1  0.250000  0.095810  0.991475  1
  Fe  Fe7  1  0.750000  0.593389  0.510588  1
  Fe  Fe8  1  0.750000  0.908298  0.007114  1
  Fe  Fe9  1  0.250000  0.223958  0.174036  1
  Fe  Fe10  1  0.250000  0.280553  0.674855  1
  Fe  Fe11  1  0.750000  0.784899  0.822048  1
  Fe  Fe12  1  0.750000  0.718264  0.327551  1
  Fe  Fe13  1  0.250000  0.877436  0.703744  1
  Fe  Fe14  1  0.250000  0.625533  0.205854  1
  Fe  Fe15  1  0.750000  0.119091  0.298533  1
  Fe  Fe16  1  0.750000  0.375804  0.795236  1
  Fe  Fe17  1  0.250000  0.462050  0.931730  1
  Fe  Fe18  1  0.250000  0.036209  0.434525  1
  Fe  Fe19  1  0.750000  0.535794  0.067215  1
  Fe  Fe20  1  0.750000  0.961988  0.567435  1
  P  P21  1  0.250000  0.425912  0.113599  1
  P  P22  1  0.250000  0.075665  0.613412  1
  P  P23  1  0.750000  0.572581  0.884335  1
  P  P24  1  0.750000  0.926016  0.386570  1
  P  P25  1  0.250000  0.266652  0.868237  1
  P  P26  1  0.250000  0.228370  0.362909  1
  P  P27  1  0.750000  0.732802  0.136780  1
  P  P28  1  0.750000  0.765538  0.628972  1
  P  P29  1  0.250000  0.594164  0.396939  1
  P  P30  1  0.250000  0.911563  0.894581  1
  P  P31  1  0.750000  0.402191  0.603160  1
  P  P32  1  0.750000  0.103588  0.109814  1
  Ru  Ru33  1  0.250000  0.791605  0.489065  1
  Ru  Ru34  1  0.750000  0.293553  0.009058  1
  Ru  Ru35  1  0.750000  0.206294  0.511687  1
