# generated using pymatgen
data_Ho8Mg2Zn3CuBi2
_symmetry_space_group_name_H-M   'P 1'
_cell_length_a   8.59632757
_cell_length_b   8.59632732
_cell_length_c   8.56009226
_cell_angle_alpha   125.93898516
_cell_angle_beta   125.93899819
_cell_angle_gamma   80.27618325
_symmetry_Int_Tables_number   1
_chemical_formula_structural   Ho8Mg2Zn3CuBi2
_chemical_formula_sum   'Ho8 Mg2 Zn3 Cu1 Bi2'
_cell_volume   399.50759289
_cell_formula_units_Z   1
loop_
 _symmetry_equiv_pos_site_id
 _symmetry_equiv_pos_as_xyz
  1  'x, y, z'
loop_
 _atom_site_type_symbol
 _atom_site_label
 _atom_site_symmetry_multiplicity
 _atom_site_fract_x
 _atom_site_fract_y
 _atom_site_fract_z
 _atom_site_occupancy
  Ho  Ho0  1  0.025437  0.525437  0.827423  1
  Ho  Ho1  1  0.701043  0.201043  0.184453  1
  Ho  Ho2  1  0.512919  0.700464  0.493359  1
  Ho  Ho3  1  0.200464  0.012919  0.493359  1
  Ho  Ho4  1  0.983410  0.483410  0.184453  1
  Ho  Ho5  1  0.301985  0.801985  0.827423  1
  Ho  Ho6  1  0.480440  0.292894  0.493359  1
  Ho  Ho7  1  0.792894  0.980440  0.493359  1
  Mg  Mg8  1  0.000559  0.999925  0.000484  1
  Mg  Mg9  1  0.499925  0.500559  0.000484  1
  Zn  Zn10  1  0.633923  0.133923  0.767848  1
  Zn  Zn11  1  0.864713  0.636160  0.500872  1
  Zn  Zn12  1  0.136160  0.364713  0.500872  1
  Cu  Cu13  1  0.371489  0.871489  0.242976  1
  Bi  Bi14  1  0.747319  0.747319  0.994639  1
  Bi  Bi15  1  0.247319  0.247319  0.994639  1
