# generated using pymatgen
data_La2Nb3Ni9As7
_symmetry_space_group_name_H-M   'P 1'
_cell_length_a   3.92717500
_cell_length_b   9.71767111
_cell_length_c   9.71738400
_cell_angle_alpha   119.99844397
_cell_angle_beta   90.00000000
_cell_angle_gamma   90.00000000
_symmetry_Int_Tables_number   1
_chemical_formula_structural   La2Nb3Ni9As7
_chemical_formula_sum   'La2 Nb3 Ni9 As7'
_cell_volume   321.16577387
_cell_formula_units_Z   1
loop_
 _symmetry_equiv_pos_site_id
 _symmetry_equiv_pos_as_xyz
  1  'x, y, z'
loop_
 _atom_site_type_symbol
 _atom_site_label
 _atom_site_symmetry_multiplicity
 _atom_site_fract_x
 _atom_site_fract_y
 _atom_site_fract_z
 _atom_site_occupancy
  La  La0  1  0.000000  0.666654  0.333340  1
  La  La1  1  0.500000  0.333305  0.666607  1
  Nb  Nb2  1  0.500000  0.780488  0.890928  1
  Nb  Nb3  1  0.500000  0.110419  0.219531  1
  Nb  Nb4  1  0.500000  0.109105  0.889564  1
  Ni  Ni5  1  0.000000  0.576123  0.930115  1
  Ni  Ni6  1  0.000000  0.353934  0.423875  1
  Ni  Ni7  1  0.000000  0.069787  0.646134  1
  Ni  Ni8  1  0.000000  0.866886  0.147836  1
  Ni  Ni9  1  0.000000  0.281153  0.133054  1
  Ni  Ni10  1  0.000000  0.851939  0.718866  1
  Ni  Ni11  1  0.500000  0.936288  0.368097  1
  Ni  Ni12  1  0.500000  0.431935  0.063599  1
  Ni  Ni13  1  0.500000  0.631981  0.568450  1
  As  As14  1  0.500000  0.697966  0.104920  1
  As  As15  1  0.500000  0.406985  0.302079  1
  As  As16  1  0.500000  0.895056  0.593033  1
  As  As17  1  0.000000  0.000039  0.999977  1
  As  As18  1  0.000000  0.587458  0.686066  1
  As  As19  1  0.000000  0.098534  0.412519  1
  As  As20  1  0.000000  0.313969  0.901408  1
