# generated using pymatgen
data_RbNa7Zn2O6
_symmetry_space_group_name_H-M   'P 1'
_cell_length_a   5.98875193
_cell_length_b   5.98875128
_cell_length_c   11.00424569
_cell_angle_alpha   88.89543270
_cell_angle_beta   88.89543441
_cell_angle_gamma   42.62111080
_symmetry_Int_Tables_number   1
_chemical_formula_structural   RbNa7Zn2O6
_chemical_formula_sum   'Rb1 Na7 Zn2 O6'
_cell_volume   267.19168229
_cell_formula_units_Z   1
loop_
 _symmetry_equiv_pos_site_id
 _symmetry_equiv_pos_as_xyz
  1  'x, y, z'
loop_
 _atom_site_type_symbol
 _atom_site_label
 _atom_site_symmetry_multiplicity
 _atom_site_fract_x
 _atom_site_fract_y
 _atom_site_fract_z
 _atom_site_occupancy
  Rb  Rb0  1  0.000000  0.000000  0.500000  1
  Na  Na1  1  0.845307  0.845307  0.225003  1
  Na  Na2  1  0.724311  0.724311  0.600014  1
  Na  Na3  1  0.240715  0.240715  0.090580  1
  Na  Na4  1  0.275689  0.275689  0.399986  1
  Na  Na5  1  0.154693  0.154693  0.774997  1
  Na  Na6  1  0.759285  0.759285  0.909420  1
  Na  Na7  1  0.500000  0.500000  0.000000  1
  Zn  Zn8  1  0.582253  0.582253  0.254365  1
  Zn  Zn9  1  0.417747  0.417747  0.745635  1
  O  O10  1  0.587024  0.587024  0.767133  1
  O  O11  1  0.675273  0.675273  0.102313  1
  O  O12  1  0.324727  0.324727  0.897687  1
  O  O13  1  0.681337  0.681337  0.394380  1
  O  O14  1  0.412976  0.412976  0.232867  1
  O  O15  1  0.318663  0.318663  0.605620  1
