# generated using pymatgen
data_Ho10(SnBi)3
_symmetry_space_group_name_H-M   'P 1'
_cell_length_a   9.04426100
_cell_length_b   9.04426007
_cell_length_c   6.42452200
_cell_angle_alpha   90.00000000
_cell_angle_beta   90.00000000
_cell_angle_gamma   119.99999974
_symmetry_Int_Tables_number   1
_chemical_formula_structural   Ho10(SnBi)3
_chemical_formula_sum   'Ho10 Sn3 Bi3'
_cell_volume   455.11126184
_cell_formula_units_Z   1
loop_
 _symmetry_equiv_pos_site_id
 _symmetry_equiv_pos_as_xyz
  1  'x, y, z'
loop_
 _atom_site_type_symbol
 _atom_site_label
 _atom_site_symmetry_multiplicity
 _atom_site_fract_x
 _atom_site_fract_y
 _atom_site_fract_z
 _atom_site_occupancy
  Ho  Ho0  1  0.666667  0.333333  0.005519  1
  Ho  Ho1  1  0.333333  0.666667  0.005519  1
  Ho  Ho2  1  0.333333  0.666667  0.494481  1
  Ho  Ho3  1  0.666667  0.333333  0.494481  1
  Ho  Ho4  1  0.762476  0.762476  0.750000  1
  Ho  Ho5  1  0.237524  0.000000  0.750000  1
  Ho  Ho6  1  0.000000  0.237524  0.750000  1
  Ho  Ho7  1  0.238454  0.238454  0.250000  1
  Ho  Ho8  1  0.761546  0.000000  0.250000  1
  Ho  Ho9  1  0.000000  0.761546  0.250000  1
  Sn  Sn10  1  0.607470  0.607470  0.250000  1
  Sn  Sn11  1  0.392530  0.000000  0.250000  1
  Sn  Sn12  1  0.000000  0.392530  0.250000  1
  Bi  Bi13  1  0.395035  0.395035  0.750000  1
  Bi  Bi14  1  0.604965  0.000000  0.750000  1
  Bi  Bi15  1  0.000000  0.604965  0.750000  1
