# generated using pymatgen
data_La3In3SnPb
_symmetry_space_group_name_H-M   'P 1'
_cell_length_a   6.72165800
_cell_length_b   6.72165775
_cell_length_c   10.52256500
_cell_angle_alpha   90.00000000
_cell_angle_beta   90.00000000
_cell_angle_gamma   102.88751390
_symmetry_Int_Tables_number   1
_chemical_formula_structural   La3In3SnPb
_chemical_formula_sum   'La6 In6 Sn2 Pb2'
_cell_volume   463.44085964
_cell_formula_units_Z   2
loop_
 _symmetry_equiv_pos_site_id
 _symmetry_equiv_pos_as_xyz
  1  'x, y, z'
loop_
 _atom_site_type_symbol
 _atom_site_label
 _atom_site_symmetry_multiplicity
 _atom_site_fract_x
 _atom_site_fract_y
 _atom_site_fract_z
 _atom_site_occupancy
  La  La0  1  0.632112  0.627103  0.250000  1
  La  La1  1  0.372897  0.367888  0.750000  1
  La  La2  1  0.205376  0.794624  0.500000  1
  La  La3  1  0.205376  0.794624  0.000000  1
  La  La4  1  0.794459  0.205541  0.500000  1
  La  La5  1  0.794459  0.205541  0.000000  1
  In  In6  1  0.017988  0.019598  0.250000  1
  In  In7  1  0.980402  0.982012  0.750000  1
  In  In8  1  0.302974  0.307522  0.048570  1
  In  In9  1  0.692478  0.697026  0.951430  1
  In  In10  1  0.302974  0.307522  0.451430  1
  In  In11  1  0.692478  0.697026  0.548570  1
  Sn  Sn12  1  0.504027  0.925458  0.750000  1
  Sn  Sn13  1  0.074542  0.495973  0.250000  1
  Pb  Pb14  1  0.499926  0.072466  0.250000  1
  Pb  Pb15  1  0.927534  0.500074  0.750000  1
