# generated using pymatgen
data_Dy3Tm(OsC2)2
_symmetry_space_group_name_H-M   'P 1'
_cell_length_a   5.12306800
_cell_length_b   6.43666886
_cell_length_c   9.76234819
_cell_angle_alpha   90.29300285
_cell_angle_beta   90.00000000
_cell_angle_gamma   90.00000000
_symmetry_Int_Tables_number   1
_chemical_formula_structural   Dy3Tm(OsC2)2
_chemical_formula_sum   'Dy6 Tm2 Os4 C8'
_cell_volume   321.91402783
_cell_formula_units_Z   2
loop_
 _symmetry_equiv_pos_site_id
 _symmetry_equiv_pos_as_xyz
  1  'x, y, z'
loop_
 _atom_site_type_symbol
 _atom_site_label
 _atom_site_symmetry_multiplicity
 _atom_site_fract_x
 _atom_site_fract_y
 _atom_site_fract_z
 _atom_site_occupancy
  Dy  Dy0  1  0.750000  0.814618  0.052420  1
  Dy  Dy1  1  0.250000  0.185382  0.947580  1
  Dy  Dy2  1  0.250000  0.525634  0.220582  1
  Dy  Dy3  1  0.750000  0.474366  0.779418  1
  Dy  Dy4  1  0.750000  0.974717  0.717148  1
  Dy  Dy5  1  0.250000  0.025283  0.282852  1
  Tm  Tm6  1  0.250000  0.680771  0.553006  1
  Tm  Tm7  1  0.750000  0.319229  0.446994  1
  Os  Os8  1  0.250000  0.726509  0.863992  1
  Os  Os9  1  0.750000  0.273491  0.136008  1
  Os  Os10  1  0.750000  0.774352  0.367150  1
  Os  Os11  1  0.250000  0.225648  0.632850  1
  C  C12  1  0.250000  0.462232  0.756550  1
  C  C13  1  0.750000  0.537768  0.243450  1
  C  C14  1  0.750000  0.038679  0.259924  1
  C  C15  1  0.250000  0.961321  0.740076  1
  C  C16  1  0.250000  0.824415  0.052720  1
  C  C17  1  0.750000  0.175585  0.947280  1
  C  C18  1  0.750000  0.671114  0.554056  1
  C  C19  1  0.250000  0.328886  0.445944  1
