# generated using pymatgen
data_TbY3PdPt3O14
_symmetry_space_group_name_H-M   'P 1'
_cell_length_a   7.28323679
_cell_length_b   7.27390993
_cell_length_c   7.27390900
_cell_angle_alpha   59.99999970
_cell_angle_beta   60.04235231
_cell_angle_gamma   60.04235846
_symmetry_Int_Tables_number   1
_chemical_formula_structural   TbY3PdPt3O14
_chemical_formula_sum   'Tb1 Y3 Pd1 Pt3 O14'
_cell_volume   272.66095607
_cell_formula_units_Z   1
loop_
 _symmetry_equiv_pos_site_id
 _symmetry_equiv_pos_as_xyz
  1  'x, y, z'
loop_
 _atom_site_type_symbol
 _atom_site_label
 _atom_site_symmetry_multiplicity
 _atom_site_fract_x
 _atom_site_fract_y
 _atom_site_fract_z
 _atom_site_occupancy
  Tb  Tb0  1  0.625000  0.125000  0.125000  1
  Y  Y1  1  0.125000  0.625000  0.125000  1
  Y  Y2  1  0.125000  0.125000  0.625000  1
  Y  Y3  1  0.125000  0.125000  0.125000  1
  Pd  Pd4  1  0.125000  0.625000  0.625000  1
  Pt  Pt5  1  0.625000  0.625000  0.625000  1
  Pt  Pt6  1  0.625000  0.625000  0.125000  1
  Pt  Pt7  1  0.625000  0.125000  0.625000  1
  O  O8  1  0.286085  0.715184  0.715184  1
  O  O9  1  0.534432  0.965667  0.965667  1
  O  O10  1  0.715568  0.715765  0.284333  1
  O  O11  1  0.286085  0.283548  0.715184  1
  O  O12  1  0.000865  0.999712  0.999712  1
  O  O13  1  0.286085  0.715184  0.283548  1
  O  O14  1  0.715568  0.284333  0.715765  1
  O  O15  1  0.963915  0.534816  0.966452  1
  O  O16  1  0.534432  0.534235  0.965667  1
  O  O17  1  0.963915  0.966452  0.534816  1
  O  O18  1  0.249135  0.250288  0.250288  1
  O  O19  1  0.534432  0.965667  0.534235  1
  O  O20  1  0.715568  0.284333  0.284333  1
  O  O21  1  0.963915  0.534816  0.534816  1
