# generated using pymatgen
data_Be4AlCr4Co3O16
_symmetry_space_group_name_H-M   'P 1'
_cell_length_a   4.51845410
_cell_length_b   5.65073711
_cell_length_c   9.83157117
_cell_angle_alpha   90.01502589
_cell_angle_beta   89.98488166
_cell_angle_gamma   90.01772411
_symmetry_Int_Tables_number   1
_chemical_formula_structural   Be4AlCr4Co3O16
_chemical_formula_sum   'Be4 Al1 Cr4 Co3 O16'
_cell_volume   251.02550785
_cell_formula_units_Z   1
loop_
 _symmetry_equiv_pos_site_id
 _symmetry_equiv_pos_as_xyz
  1  'x, y, z'
loop_
 _atom_site_type_symbol
 _atom_site_label
 _atom_site_symmetry_multiplicity
 _atom_site_fract_x
 _atom_site_fract_y
 _atom_site_fract_z
 _atom_site_occupancy
  Be  Be0  1  0.928617  0.751449  0.413133  1
  Be  Be1  1  0.572243  0.750020  0.913851  1
  Be  Be2  1  0.071386  0.248552  0.586866  1
  Be  Be3  1  0.427759  0.249984  0.086149  1
  Al  Al4  1  0.500000  0.500000  0.500000  1
  Cr  Cr5  1  0.498621  0.750110  0.232104  1
  Cr  Cr6  1  0.001683  0.749837  0.732460  1
  Cr  Cr7  1  0.501375  0.249881  0.767898  1
  Cr  Cr8  1  0.998300  0.250159  0.267542  1
  Co  Co9  1  0.000002  0.000002  0.999999  1
  Co  Co10  1  0.500000  0.000002  0.500001  1
  Co  Co11  1  0.000002  0.500002  0.000000  1
  O  O12  1  0.279541  0.746321  0.414117  1
  O  O13  1  0.220122  0.750065  0.912982  1
  O  O14  1  0.720462  0.253682  0.585884  1
  O  O15  1  0.779880  0.249938  0.087017  1
  O  O16  1  0.744053  0.750122  0.062217  1
  O  O17  1  0.753137  0.746763  0.562599  1
  O  O18  1  0.255950  0.249881  0.937783  1
  O  O19  1  0.246863  0.253238  0.437400  1
  O  O20  1  0.757729  0.978257  0.341571  1
  O  O21  1  0.740710  0.521841  0.841888  1
  O  O22  1  0.244259  0.479753  0.657062  1
  O  O23  1  0.258809  0.021536  0.158236  1
  O  O24  1  0.242270  0.021740  0.658429  1
  O  O25  1  0.259289  0.478157  0.158111  1
  O  O26  1  0.755742  0.520247  0.342938  1
  O  O27  1  0.741193  0.978466  0.841764  1
