# generated using pymatgen
data_Ac4MgAg3Sn4
_symmetry_space_group_name_H-M   'P 1'
_cell_length_a   5.02969200
_cell_length_b   8.03832274
_cell_length_c   8.61769900
_cell_angle_alpha   90.92906039
_cell_angle_beta   90.00000000
_cell_angle_gamma   90.00000000
_symmetry_Int_Tables_number   1
_chemical_formula_structural   Ac4MgAg3Sn4
_chemical_formula_sum   'Ac4 Mg1 Ag3 Sn4'
_cell_volume   348.37024511
_cell_formula_units_Z   1
loop_
 _symmetry_equiv_pos_site_id
 _symmetry_equiv_pos_as_xyz
  1  'x, y, z'
loop_
 _atom_site_type_symbol
 _atom_site_label
 _atom_site_symmetry_multiplicity
 _atom_site_fract_x
 _atom_site_fract_y
 _atom_site_fract_z
 _atom_site_occupancy
  Ac  Ac0  1  0.250000  0.993893  0.281896  1
  Ac  Ac1  1  0.250000  0.507009  0.204017  1
  Ac  Ac2  1  0.750000  0.001157  0.721435  1
  Ac  Ac3  1  0.750000  0.504128  0.792486  1
  Mg  Mg4  1  0.750000  0.322144  0.420969  1
  Ag  Ag5  1  0.250000  0.184612  0.922527  1
  Ag  Ag6  1  0.250000  0.675823  0.577825  1
  Ag  Ag7  1  0.750000  0.812481  0.078836  1
  Sn  Sn8  1  0.250000  0.280197  0.593162  1
  Sn  Sn9  1  0.250000  0.786107  0.905127  1
  Sn  Sn10  1  0.750000  0.716430  0.408252  1
  Sn  Sn11  1  0.750000  0.216018  0.093466  1
