# generated using pymatgen
data_SrCu6Ni3Ge2P3
_symmetry_space_group_name_H-M   'P 1'
_cell_length_a   6.79671100
_cell_length_b   6.79671128
_cell_length_c   10.93747300
_cell_angle_alpha   90.00000000
_cell_angle_beta   90.00000000
_cell_angle_gamma   119.99999377
_symmetry_Int_Tables_number   1
_chemical_formula_structural   SrCu6Ni3Ge2P3
_chemical_formula_sum   'Sr2 Cu12 Ni6 Ge4 P6'
_cell_volume   437.56772256
_cell_formula_units_Z   2
loop_
 _symmetry_equiv_pos_site_id
 _symmetry_equiv_pos_as_xyz
  1  'x, y, z'
loop_
 _atom_site_type_symbol
 _atom_site_label
 _atom_site_symmetry_multiplicity
 _atom_site_fract_x
 _atom_site_fract_y
 _atom_site_fract_z
 _atom_site_occupancy
  Sr  Sr0  1  0.000000  0.000000  0.000000  1
  Sr  Sr1  1  0.000000  0.000000  0.500000  1
  Cu  Cu2  1  0.538771  0.077543  0.110321  1
  Cu  Cu3  1  0.461229  0.538771  0.610321  1
  Cu  Cu4  1  0.077543  0.538771  0.610321  1
  Cu  Cu5  1  0.922457  0.461229  0.110321  1
  Cu  Cu6  1  0.538771  0.461229  0.110321  1
  Cu  Cu7  1  0.461229  0.922457  0.889679  1
  Cu  Cu8  1  0.461229  0.538771  0.889679  1
  Cu  Cu9  1  0.461229  0.922457  0.610321  1
  Cu  Cu10  1  0.077543  0.538771  0.889679  1
  Cu  Cu11  1  0.922457  0.461229  0.389679  1
  Cu  Cu12  1  0.538771  0.077543  0.389679  1
  Cu  Cu13  1  0.538771  0.461229  0.389679  1
  Ni  Ni14  1  0.198601  0.397202  0.250000  1
  Ni  Ni15  1  0.801399  0.198601  0.750000  1
  Ni  Ni16  1  0.397202  0.198601  0.750000  1
  Ni  Ni17  1  0.602798  0.801399  0.250000  1
  Ni  Ni18  1  0.198601  0.801399  0.250000  1
  Ni  Ni19  1  0.801399  0.602798  0.750000  1
  Ge  Ge20  1  0.333333  0.666667  0.069908  1
  Ge  Ge21  1  0.666667  0.333333  0.569908  1
  Ge  Ge22  1  0.666667  0.333333  0.930092  1
  Ge  Ge23  1  0.333333  0.666667  0.430092  1
  P  P24  1  0.839332  0.678665  0.250000  1
  P  P25  1  0.160668  0.839332  0.750000  1
  P  P26  1  0.678665  0.839332  0.750000  1
  P  P27  1  0.321335  0.160668  0.250000  1
  P  P28  1  0.839332  0.160668  0.250000  1
  P  P29  1  0.160668  0.321335  0.750000  1
