# generated using pymatgen
data_Sc2Co9B6Rh
_symmetry_space_group_name_H-M   'P 1'
_cell_length_a   5.66449131
_cell_length_b   5.66449145
_cell_length_c   5.66449100
_cell_angle_alpha   95.76114802
_cell_angle_beta   95.76114815
_cell_angle_gamma   95.76115299
_symmetry_Int_Tables_number   1
_chemical_formula_structural   Sc2Co9B6Rh
_chemical_formula_sum   'Sc2 Co9 B6 Rh1'
_cell_volume   178.79846082
_cell_formula_units_Z   1
loop_
 _symmetry_equiv_pos_site_id
 _symmetry_equiv_pos_as_xyz
  1  'x, y, z'
loop_
 _atom_site_type_symbol
 _atom_site_label
 _atom_site_symmetry_multiplicity
 _atom_site_fract_x
 _atom_site_fract_y
 _atom_site_fract_z
 _atom_site_occupancy
  Sc  Sc0  1  0.684945  0.684945  0.684945  1
  Sc  Sc1  1  0.315055  0.315055  0.315055  1
  Co  Co2  1  0.500000  0.000000  0.000000  1
  Co  Co3  1  0.000000  0.500000  0.000000  1
  Co  Co4  1  0.000000  0.000000  0.500000  1
  Co  Co5  1  0.705006  0.201130  0.705006  1
  Co  Co6  1  0.705006  0.705006  0.201130  1
  Co  Co7  1  0.201130  0.705006  0.705006  1
  Co  Co8  1  0.294994  0.798870  0.294994  1
  Co  Co9  1  0.294994  0.294994  0.798870  1
  Co  Co10  1  0.798870  0.294994  0.294994  1
  B  B11  1  0.387228  0.000000  0.612772  1
  B  B12  1  0.612772  0.387228  0.000000  1
  B  B13  1  0.000000  0.612772  0.387228  1
  B  B14  1  0.612772  0.000000  0.387228  1
  B  B15  1  0.387228  0.612772  0.000000  1
  B  B16  1  0.000000  0.387228  0.612772  1
  Rh  Rh17  1  0.000000  0.000000  0.000000  1
