# generated using pymatgen
data_Ho4ZrSc3Pt4
_symmetry_space_group_name_H-M   'P 1'
_cell_length_a   4.63591100
_cell_length_b   6.99789000
_cell_length_c   8.34543221
_cell_angle_alpha   90.63462185
_cell_angle_beta   90.00000000
_cell_angle_gamma   90.00000000
_symmetry_Int_Tables_number   1
_chemical_formula_structural   Ho4ZrSc3Pt4
_chemical_formula_sum   'Ho4 Zr1 Sc3 Pt4'
_cell_volume   270.72252636
_cell_formula_units_Z   1
loop_
 _symmetry_equiv_pos_site_id
 _symmetry_equiv_pos_as_xyz
  1  'x, y, z'
loop_
 _atom_site_type_symbol
 _atom_site_label
 _atom_site_symmetry_multiplicity
 _atom_site_fract_x
 _atom_site_fract_y
 _atom_site_fract_z
 _atom_site_occupancy
  Ho  Ho0  1  0.250000  0.015949  0.677696  1
  Ho  Ho1  1  0.250000  0.516581  0.824608  1
  Ho  Ho2  1  0.750000  0.981911  0.321665  1
  Ho  Ho3  1  0.750000  0.482320  0.174991  1
  Zr  Zr4  1  0.750000  0.359479  0.573184  1
  Sc  Sc5  1  0.250000  0.141976  0.074187  1
  Sc  Sc6  1  0.250000  0.642535  0.424040  1
  Sc  Sc7  1  0.750000  0.859116  0.927661  1
  Pt  Pt8  1  0.250000  0.257252  0.405562  1
  Pt  Pt9  1  0.250000  0.755176  0.100228  1
  Pt  Pt10  1  0.750000  0.743471  0.597468  1
  Pt  Pt11  1  0.750000  0.244233  0.898711  1
