# generated using pymatgen
data_RbTa(IO3)6
_symmetry_space_group_name_H-M   'P 1'
_cell_length_a   7.84213500
_cell_length_b   7.84213532
_cell_length_c   7.84213656
_cell_angle_alpha   97.69079611
_cell_angle_beta   97.69078621
_cell_angle_gamma   97.69078516
_symmetry_Int_Tables_number   1
_chemical_formula_structural   RbTa(IO3)6
_chemical_formula_sum   'Rb1 Ta1 I6 O18'
_cell_volume   467.95923755
_cell_formula_units_Z   1
loop_
 _symmetry_equiv_pos_site_id
 _symmetry_equiv_pos_as_xyz
  1  'x, y, z'
loop_
 _atom_site_type_symbol
 _atom_site_label
 _atom_site_symmetry_multiplicity
 _atom_site_fract_x
 _atom_site_fract_y
 _atom_site_fract_z
 _atom_site_occupancy
  Rb  Rb0  1  0.638674  0.638674  0.638674  1
  Ta  Ta1  1  0.005919  0.005919  0.005919  1
  I  I2  1  0.627260  0.834976  0.201471  1
  I  I3  1  0.201471  0.627260  0.834976  1
  I  I4  1  0.834976  0.201471  0.627260  1
  I  I5  1  0.373193  0.166759  0.790296  1
  I  I6  1  0.790296  0.373193  0.166759  1
  I  I7  1  0.166759  0.790296  0.373193  1
  O  O8  1  0.794819  0.845578  0.046564  1
  O  O9  1  0.046564  0.794819  0.845578  1
  O  O10  1  0.845578  0.046564  0.794819  1
  O  O11  1  0.203238  0.154197  0.946328  1
  O  O12  1  0.946328  0.203238  0.154197  1
  O  O13  1  0.154197  0.946328  0.203238  1
  O  O14  1  0.598867  0.599164  0.186870  1
  O  O15  1  0.186870  0.598867  0.599164  1
  O  O16  1  0.599164  0.186870  0.598867  1
  O  O17  1  0.402140  0.402905  0.810153  1
  O  O18  1  0.810153  0.402140  0.402905  1
  O  O19  1  0.402905  0.810153  0.402140  1
  O  O20  1  0.785587  0.897309  0.400919  1
  O  O21  1  0.400919  0.785587  0.897309  1
  O  O22  1  0.897309  0.400919  0.785587  1
  O  O23  1  0.210607  0.098974  0.596791  1
  O  O24  1  0.596791  0.210607  0.098974  1
  O  O25  1  0.098974  0.596791  0.210607  1
