# generated using pymatgen
data_Lu6Th2MgCdIr2
_symmetry_space_group_name_H-M   'P 1'
_cell_length_a   9.63037692
_cell_length_b   9.63037664
_cell_length_c   9.65228700
_cell_angle_alpha   59.92470729
_cell_angle_beta   59.92470825
_cell_angle_gamma   59.83503367
_symmetry_Int_Tables_number   1
_chemical_formula_structural   Lu6Th2MgCdIr2
_chemical_formula_sum   'Lu12 Th4 Mg2 Cd2 Ir4'
_cell_volume   631.48561091
_cell_formula_units_Z   2
loop_
 _symmetry_equiv_pos_site_id
 _symmetry_equiv_pos_as_xyz
  1  'x, y, z'
loop_
 _atom_site_type_symbol
 _atom_site_label
 _atom_site_symmetry_multiplicity
 _atom_site_fract_x
 _atom_site_fract_y
 _atom_site_fract_z
 _atom_site_occupancy
  Lu  Lu0  1  0.813401  0.187461  0.185798  1
  Lu  Lu1  1  0.187461  0.813401  0.813340  1
  Lu  Lu2  1  0.187461  0.813401  0.185798  1
  Lu  Lu3  1  0.813401  0.187461  0.813340  1
  Lu  Lu4  1  0.188010  0.188010  0.811990  1
  Lu  Lu5  1  0.814062  0.814062  0.185938  1
  Lu  Lu6  1  0.936225  0.567160  0.565283  1
  Lu  Lu7  1  0.567160  0.936225  0.931332  1
  Lu  Lu8  1  0.567160  0.936225  0.565283  1
  Lu  Lu9  1  0.936225  0.567160  0.931332  1
  Lu  Lu10  1  0.567557  0.567557  0.932443  1
  Lu  Lu11  1  0.935013  0.935013  0.564987  1
  Th  Th12  1  0.350784  0.350784  0.349260  1
  Th  Th13  1  0.350784  0.350784  0.949171  1
  Th  Th14  1  0.351662  0.947464  0.350437  1
  Th  Th15  1  0.947464  0.351662  0.350437  1
  Mg  Mg16  1  0.577970  0.577970  0.583542  1
  Mg  Mg17  1  0.577970  0.577970  0.260517  1
  Cd  Cd18  1  0.582651  0.247889  0.584729  1
  Cd  Cd19  1  0.247889  0.582651  0.584729  1
  Ir  Ir20  1  0.141917  0.141917  0.142863  1
  Ir  Ir21  1  0.141917  0.141917  0.573300  1
  Ir  Ir22  1  0.140742  0.575111  0.142073  1
  Ir  Ir23  1  0.575111  0.140742  0.142073  1
