# generated using pymatgen
data_NaNp2F12
_symmetry_space_group_name_H-M   'P 1'
_cell_length_a   7.47690522
_cell_length_b   7.47690518
_cell_length_c   10.67834300
_cell_angle_alpha   68.24435517
_cell_angle_beta   68.24435529
_cell_angle_gamma   76.90409219
_symmetry_Int_Tables_number   1
_chemical_formula_structural   NaNp2F12
_chemical_formula_sum   'Na2 Np4 F24'
_cell_volume   512.19147341
_cell_formula_units_Z   2
loop_
 _symmetry_equiv_pos_site_id
 _symmetry_equiv_pos_as_xyz
  1  'x, y, z'
loop_
 _atom_site_type_symbol
 _atom_site_label
 _atom_site_symmetry_multiplicity
 _atom_site_fract_x
 _atom_site_fract_y
 _atom_site_fract_z
 _atom_site_occupancy
  Na  Na0  1  0.172651  0.827349  0.750000  1
  Na  Na1  1  0.827349  0.172651  0.250000  1
  Np  Np2  1  0.248669  0.254721  0.369295  1
  Np  Np3  1  0.254721  0.248669  0.869295  1
  Np  Np4  1  0.751331  0.745279  0.630705  1
  Np  Np5  1  0.745279  0.751331  0.130705  1
  F  F6  1  0.859265  0.874217  0.225498  1
  F  F7  1  0.140735  0.125783  0.774502  1
  F  F8  1  0.292870  0.983184  0.506985  1
  F  F9  1  0.983277  0.283433  0.510671  1
  F  F10  1  0.283433  0.983277  0.010671  1
  F  F11  1  0.368517  0.362430  0.464311  1
  F  F12  1  0.362430  0.368517  0.964311  1
  F  F13  1  0.874217  0.859265  0.725498  1
  F  F14  1  0.783988  0.476802  0.269058  1
  F  F15  1  0.016816  0.707130  0.993015  1
  F  F16  1  0.707130  0.016816  0.493015  1
  F  F17  1  0.983184  0.292870  0.006985  1
  F  F18  1  0.521245  0.203053  0.737725  1
  F  F19  1  0.631483  0.637570  0.535689  1
  F  F20  1  0.216012  0.523198  0.730942  1
  F  F21  1  0.637570  0.631483  0.035689  1
  F  F22  1  0.476802  0.783988  0.769058  1
  F  F23  1  0.796947  0.478755  0.762275  1
  F  F24  1  0.523198  0.216012  0.230942  1
  F  F25  1  0.478755  0.796947  0.262275  1
  F  F26  1  0.203053  0.521245  0.237725  1
  F  F27  1  0.716567  0.016723  0.989329  1
  F  F28  1  0.125783  0.140735  0.274502  1
  F  F29  1  0.016723  0.716567  0.489329  1
