# generated using pymatgen
data_Sm3UIn2Ir3
_symmetry_space_group_name_H-M   'P 1'
_cell_length_a   7.50908704
_cell_length_b   7.32867935
_cell_length_c   4.31150100
_cell_angle_alpha   90.00000000
_cell_angle_beta   90.00000000
_cell_angle_gamma   119.34165387
_symmetry_Int_Tables_number   1
_chemical_formula_structural   Sm3UIn2Ir3
_chemical_formula_sum   'Sm3 U1 In2 Ir3'
_cell_volume   206.83070077
_cell_formula_units_Z   1
loop_
 _symmetry_equiv_pos_site_id
 _symmetry_equiv_pos_as_xyz
  1  'x, y, z'
loop_
 _atom_site_type_symbol
 _atom_site_label
 _atom_site_symmetry_multiplicity
 _atom_site_fract_x
 _atom_site_fract_y
 _atom_site_fract_z
 _atom_site_occupancy
  Sm  Sm0  1  0.570649  0.593327  0.000000  1
  Sm  Sm1  1  0.429259  0.022626  0.000000  1
  Sm  Sm2  1  0.000313  0.382146  0.000000  1
  U  U3  1  0.999899  0.734488  0.500000  1
  In  In4  1  0.253774  0.252226  0.500000  1
  In  In5  1  0.746202  0.998577  0.500000  1
  Ir  Ir6  1  0.000008  0.974131  0.000000  1
  Ir  Ir7  1  0.687003  0.364741  0.500000  1
  Ir  Ir8  1  0.312892  0.677736  0.500000  1
