# generated using pymatgen
data_YErB24
_symmetry_space_group_name_H-M   'P 1'
_cell_length_a   5.29480200
_cell_length_b   5.29480188
_cell_length_c   9.17022000
_cell_angle_alpha   73.22012204
_cell_angle_beta   90.00000000
_cell_angle_gamma   120.00000078
_symmetry_Int_Tables_number   1
_chemical_formula_structural   YErB24
_chemical_formula_sum   'Y1 Er1 B24'
_cell_volume   209.90835070
_cell_formula_units_Z   1
loop_
 _symmetry_equiv_pos_site_id
 _symmetry_equiv_pos_as_xyz
  1  'x, y, z'
loop_
 _atom_site_type_symbol
 _atom_site_label
 _atom_site_symmetry_multiplicity
 _atom_site_fract_x
 _atom_site_fract_y
 _atom_site_fract_z
 _atom_site_occupancy
  Y  Y0  1  0.000000  0.000000  0.000000  1
  Er  Er1  1  0.500000  0.000000  0.500000  1
  B  B2  1  0.911967  0.499732  0.250091  1
  B  B3  1  0.412234  0.500268  0.749909  1
  B  B4  1  0.081108  0.500177  0.418715  1
  B  B5  1  0.581088  0.500164  0.918748  1
  B  B6  1  0.250177  0.837942  0.250091  1
  B  B7  1  0.749823  0.837856  0.749909  1
  B  B8  1  0.081108  0.162215  0.418715  1
  B  B9  1  0.581088  0.162176  0.918748  1
  B  B10  1  0.911967  0.162144  0.250091  1
  B  B11  1  0.412234  0.162058  0.749909  1
  B  B12  1  0.250177  0.162144  0.250091  1
  B  B13  1  0.749823  0.162058  0.749909  1
  B  B14  1  0.418912  0.837824  0.081252  1
  B  B15  1  0.918892  0.837785  0.581285  1
  B  B16  1  0.418912  0.499836  0.081252  1
  B  B17  1  0.918892  0.499823  0.581285  1
  B  B18  1  0.080924  0.499836  0.081252  1
  B  B19  1  0.580931  0.499823  0.581285  1
  B  B20  1  0.587766  0.499732  0.250091  1
  B  B21  1  0.088033  0.500268  0.749909  1
  B  B22  1  0.587766  0.837942  0.250091  1
  B  B23  1  0.088033  0.837856  0.749909  1
  B  B24  1  0.419069  0.500177  0.418715  1
  B  B25  1  0.919076  0.500164  0.918748  1
