# generated using pymatgen
data_Dy3YEr4(B6Os)4
_symmetry_space_group_name_H-M   'P 1'
_cell_length_a   3.64145300
_cell_length_b   9.12892500
_cell_length_c   11.51116000
_cell_angle_alpha   89.99703553
_cell_angle_beta   90.00000000
_cell_angle_gamma   90.00000000
_symmetry_Int_Tables_number   1
_chemical_formula_structural   Dy3YEr4(B6Os)4
_chemical_formula_sum   'Dy3 Y1 Er4 B24 Os4'
_cell_volume   382.66032689
_cell_formula_units_Z   1
loop_
 _symmetry_equiv_pos_site_id
 _symmetry_equiv_pos_as_xyz
  1  'x, y, z'
loop_
 _atom_site_type_symbol
 _atom_site_label
 _atom_site_symmetry_multiplicity
 _atom_site_fract_x
 _atom_site_fract_y
 _atom_site_fract_z
 _atom_site_occupancy
  Dy  Dy0  1  0.000000  0.677997  0.586174  1
  Dy  Dy1  1  0.000000  0.822027  0.086169  1
  Dy  Dy2  1  0.000000  0.177996  0.913828  1
  Y  Y3  1  0.000000  0.321820  0.413848  1
  Er  Er4  1  0.000000  0.944192  0.373025  1
  Er  Er5  1  0.000000  0.055719  0.627031  1
  Er  Er6  1  0.000000  0.444258  0.126954  1
  Er  Er7  1  0.000000  0.555775  0.873049  1
  B  B8  1  0.500000  0.554302  0.432972  1
  B  B9  1  0.500000  0.445966  0.567163  1
  B  B10  1  0.500000  0.054129  0.067030  1
  B  B11  1  0.500000  0.945866  0.932947  1
  B  B12  1  0.500000  0.748601  0.419878  1
  B  B13  1  0.500000  0.251373  0.580290  1
  B  B14  1  0.500000  0.248582  0.080090  1
  B  B15  1  0.500000  0.751441  0.919871  1
  B  B16  1  0.500000  0.791581  0.266608  1
  B  B17  1  0.500000  0.208425  0.733396  1
  B  B18  1  0.500000  0.291534  0.233237  1
  B  B19  1  0.500000  0.708463  0.766634  1
  B  B20  1  0.500000  0.631676  0.185150  1
  B  B21  1  0.500000  0.368365  0.814841  1
  B  B22  1  0.500000  0.131496  0.314724  1
  B  B23  1  0.500000  0.868352  0.685180  1
  B  B24  1  0.500000  0.983220  0.213319  1
  B  B25  1  0.500000  0.016748  0.786675  1
  B  B26  1  0.500000  0.483382  0.286564  1
  B  B27  1  0.500000  0.516776  0.713353  1
  B  B28  1  0.500000  0.607037  0.029602  1
  B  B29  1  0.500000  0.392985  0.970379  1
  B  B30  1  0.500000  0.106868  0.470428  1
  B  B31  1  0.500000  0.892994  0.529614  1
  Os  Os32  1  0.000000  0.637952  0.321004  1
  Os  Os33  1  0.000000  0.362174  0.679062  1
  Os  Os34  1  0.000000  0.137764  0.178846  1
  Os  Os35  1  0.000000  0.862162  0.821063  1
