# generated using pymatgen
data_Ca5Ce(Si3Ru)8
_symmetry_space_group_name_H-M   'P 1'
_cell_length_a   10.18558555
_cell_length_b   10.18558529
_cell_length_c   8.20393403
_cell_angle_alpha   89.99062682
_cell_angle_beta   89.99061528
_cell_angle_gamma   132.55071431
_symmetry_Int_Tables_number   1
_chemical_formula_structural   Ca5Ce(Si3Ru)8
_chemical_formula_sum   'Ca5 Ce1 Si24 Ru8'
_cell_volume   627.00707372
_cell_formula_units_Z   1
loop_
 _symmetry_equiv_pos_site_id
 _symmetry_equiv_pos_as_xyz
  1  'x, y, z'
loop_
 _atom_site_type_symbol
 _atom_site_label
 _atom_site_symmetry_multiplicity
 _atom_site_fract_x
 _atom_site_fract_y
 _atom_site_fract_z
 _atom_site_occupancy
  Ca  Ca0  1  0.498268  0.998435  0.250456  1
  Ca  Ca1  1  0.001565  0.501732  0.749544  1
  Ca  Ca2  1  0.501732  0.001565  0.749544  1
  Ca  Ca3  1  0.998435  0.498268  0.250456  1
  Ca  Ca4  1  0.500000  0.500000  0.500000  1
  Ce  Ce5  1  0.000000  0.000000  0.000000  1
  Si  Si6  1  0.392654  0.157734  0.005163  1
  Si  Si7  1  0.653878  0.887002  0.493446  1
  Si  Si8  1  0.112998  0.346122  0.506554  1
  Si  Si9  1  0.842266  0.607346  0.994837  1
  Si  Si10  1  0.607346  0.842266  0.994837  1
  Si  Si11  1  0.346122  0.112998  0.506554  1
  Si  Si12  1  0.887002  0.653878  0.493446  1
  Si  Si13  1  0.157734  0.392654  0.005163  1
  Si  Si14  1  0.609778  0.376705  0.229519  1
  Si  Si15  1  0.876421  0.110875  0.274326  1
  Si  Si16  1  0.889125  0.123579  0.725674  1
  Si  Si17  1  0.623295  0.390222  0.770481  1
  Si  Si18  1  0.390222  0.623295  0.770481  1
  Si  Si19  1  0.123579  0.889125  0.725674  1
  Si  Si20  1  0.707224  0.292776  0.000000  1
  Si  Si21  1  0.793439  0.206561  0.500000  1
  Si  Si22  1  0.292776  0.707224  0.000000  1
  Si  Si23  1  0.206561  0.793439  0.500000  1
  Si  Si24  1  0.167885  0.167885  0.335597  1
  Si  Si25  1  0.662864  0.662864  0.169591  1
  Si  Si26  1  0.337136  0.337136  0.830409  1
  Si  Si27  1  0.832115  0.832115  0.664403  1
  Si  Si28  1  0.376705  0.609778  0.229519  1
  Si  Si29  1  0.110875  0.876421  0.274326  1
  Ru  Ru30  1  0.629082  0.629082  0.876832  1
  Ru  Ru31  1  0.124839  0.124839  0.627017  1
  Ru  Ru32  1  0.875161  0.875161  0.372983  1
  Ru  Ru33  1  0.370918  0.370918  0.123168  1
  Ru  Ru34  1  0.331334  0.668666  0.500000  1
  Ru  Ru35  1  0.166839  0.833161  0.000000  1
  Ru  Ru36  1  0.668666  0.331334  0.500000  1
  Ru  Ru37  1  0.833161  0.166839  0.000000  1
