# generated using pymatgen
data_Tb3Tm(Lu3Sn4)2
_symmetry_space_group_name_H-M   'P 1'
_cell_length_a   7.95029500
_cell_length_b   8.08262330
_cell_length_c   15.26336900
_cell_angle_alpha   90.01569452
_cell_angle_beta   90.00000000
_cell_angle_gamma   90.00000000
_symmetry_Int_Tables_number   1
_chemical_formula_structural   Tb3Tm(Lu3Sn4)2
_chemical_formula_sum   'Tb6 Tm2 Lu12 Sn16'
_cell_volume   980.81244941
_cell_formula_units_Z   2
loop_
 _symmetry_equiv_pos_site_id
 _symmetry_equiv_pos_as_xyz
  1  'x, y, z'
loop_
 _atom_site_type_symbol
 _atom_site_label
 _atom_site_symmetry_multiplicity
 _atom_site_fract_x
 _atom_site_fract_y
 _atom_site_fract_z
 _atom_site_occupancy
  Tb  Tb0  1  0.481152  0.679210  0.404516  1
  Tb  Tb1  1  0.981152  0.820790  0.095484  1
  Tb  Tb2  1  0.480558  0.678032  0.095472  1
  Tb  Tb3  1  0.980558  0.821968  0.404528  1
  Tb  Tb4  1  0.518229  0.321283  0.595671  1
  Tb  Tb5  1  0.018229  0.178717  0.904329  1
  Tm  Tm6  1  0.521230  0.320988  0.903022  1
  Tm  Tm7  1  0.021230  0.179012  0.596978  1
  Lu  Lu8  1  0.362706  0.838043  0.875982  1
  Lu  Lu9  1  0.862706  0.661957  0.624018  1
  Lu  Lu10  1  0.635748  0.161973  0.376490  1
  Lu  Lu11  1  0.135748  0.338027  0.123510  1
  Lu  Lu12  1  0.636100  0.162330  0.123367  1
  Lu  Lu13  1  0.136100  0.337670  0.376633  1
  Lu  Lu14  1  0.364277  0.838672  0.624155  1
  Lu  Lu15  1  0.864277  0.661328  0.875845  1
  Lu  Lu16  1  0.194687  0.504686  0.749965  1
  Lu  Lu17  1  0.694687  0.995314  0.750035  1
  Lu  Lu18  1  0.805164  0.494822  0.249945  1
  Lu  Lu19  1  0.305164  0.005178  0.250055  1
  Sn  Sn20  1  0.298536  0.040606  0.041376  1
  Sn  Sn21  1  0.798536  0.459394  0.458624  1
  Sn  Sn22  1  0.704489  0.962120  0.542393  1
  Sn  Sn23  1  0.204489  0.537880  0.957607  1
  Sn  Sn24  1  0.700338  0.959664  0.958100  1
  Sn  Sn25  1  0.200338  0.540336  0.541900  1
  Sn  Sn26  1  0.296827  0.041166  0.459539  1
  Sn  Sn27  1  0.796827  0.458834  0.040461  1
  Sn  Sn28  1  0.560091  0.620193  0.750194  1
  Sn  Sn29  1  0.060091  0.879807  0.749806  1
  Sn  Sn30  1  0.439454  0.379399  0.249951  1
  Sn  Sn31  1  0.939454  0.120601  0.250049  1
  Sn  Sn32  1  0.329665  0.150464  0.750596  1
  Sn  Sn33  1  0.829665  0.349536  0.749404  1
  Sn  Sn34  1  0.670750  0.850694  0.249873  1
  Sn  Sn35  1  0.170750  0.649306  0.250127  1
