# generated using pymatgen
data_TbZnFeCo
_symmetry_space_group_name_H-M   'P 1'
_cell_length_a   3.91859300
_cell_length_b   4.95552400
_cell_length_c   6.91254900
_cell_angle_alpha   90.00000000
_cell_angle_beta   90.00000000
_cell_angle_gamma   90.00000000
_symmetry_Int_Tables_number   1
_chemical_formula_structural   TbZnFeCo
_chemical_formula_sum   'Tb2 Zn2 Fe2 Co2'
_cell_volume   134.23258847
_cell_formula_units_Z   2
loop_
 _symmetry_equiv_pos_site_id
 _symmetry_equiv_pos_as_xyz
  1  'x, y, z'
loop_
 _atom_site_type_symbol
 _atom_site_label
 _atom_site_symmetry_multiplicity
 _atom_site_fract_x
 _atom_site_fract_y
 _atom_site_fract_z
 _atom_site_occupancy
  Tb  Tb0  1  0.500000  0.750000  0.308751  1
  Tb  Tb1  1  0.500000  0.250000  0.691249  1
  Zn  Zn2  1  0.000000  0.750000  0.661473  1
  Zn  Zn3  1  0.000000  0.250000  0.338527  1
  Fe  Fe4  1  0.000000  0.500000  0.000000  1
  Fe  Fe5  1  0.000000  0.000000  0.000000  1
  Co  Co6  1  0.500000  0.250000  0.092666  1
  Co  Co7  1  0.500000  0.750000  0.907334  1
