# generated using pymatgen
data_LaNd3Ga4Pt3Rh
_symmetry_space_group_name_H-M   'P 1'
_cell_length_a   4.53106100
_cell_length_b   7.11658487
_cell_length_c   7.86043990
_cell_angle_alpha   89.69673750
_cell_angle_beta   90.00000000
_cell_angle_gamma   90.00000000
_symmetry_Int_Tables_number   1
_chemical_formula_structural   LaNd3Ga4Pt3Rh
_chemical_formula_sum   'La1 Nd3 Ga4 Pt3 Rh1'
_cell_volume   253.46168061
_cell_formula_units_Z   1
loop_
 _symmetry_equiv_pos_site_id
 _symmetry_equiv_pos_as_xyz
  1  'x, y, z'
loop_
 _atom_site_type_symbol
 _atom_site_label
 _atom_site_symmetry_multiplicity
 _atom_site_fract_x
 _atom_site_fract_y
 _atom_site_fract_z
 _atom_site_occupancy
  La  La0  1  0.250000  0.032504  0.681856  1
  Nd  Nd1  1  0.250000  0.529033  0.811501  1
  Nd  Nd2  1  0.750000  0.973965  0.306609  1
  Nd  Nd3  1  0.750000  0.472130  0.192687  1
  Ga  Ga4  1  0.250000  0.161624  0.073645  1
  Ga  Ga5  1  0.250000  0.651523  0.429882  1
  Ga  Ga6  1  0.750000  0.839674  0.932195  1
  Ga  Ga7  1  0.750000  0.341032  0.565366  1
  Pt  Pt8  1  0.250000  0.780574  0.109421  1
  Pt  Pt9  1  0.750000  0.718582  0.609212  1
  Pt  Pt10  1  0.750000  0.221938  0.892679  1
  Rh  Rh11  1  0.250000  0.277423  0.394947  1
