# generated using pymatgen
data_Tm4Ga2FeRu5
_symmetry_space_group_name_H-M   'P 1'
_cell_length_a   5.22931200
_cell_length_b   5.22931159
_cell_length_c   8.95789100
_cell_angle_alpha   90.00000000
_cell_angle_beta   90.00000000
_cell_angle_gamma   120.80892063
_symmetry_Int_Tables_number   1
_chemical_formula_structural   Tm4Ga2FeRu5
_chemical_formula_sum   'Tm4 Ga2 Fe1 Ru5'
_cell_volume   210.39112754
_cell_formula_units_Z   1
loop_
 _symmetry_equiv_pos_site_id
 _symmetry_equiv_pos_as_xyz
  1  'x, y, z'
loop_
 _atom_site_type_symbol
 _atom_site_label
 _atom_site_symmetry_multiplicity
 _atom_site_fract_x
 _atom_site_fract_y
 _atom_site_fract_z
 _atom_site_occupancy
  Tm  Tm0  1  0.334005  0.665995  0.430362  1
  Tm  Tm1  1  0.670172  0.329828  0.558688  1
  Tm  Tm2  1  0.670172  0.329828  0.941312  1
  Tm  Tm3  1  0.334005  0.665995  0.069638  1
  Ga  Ga4  1  0.162185  0.338137  0.750000  1
  Ga  Ga5  1  0.661863  0.837815  0.750000  1
  Fe  Fe6  1  0.833219  0.166781  0.250000  1
  Ru  Ru7  1  0.998406  0.001594  0.498810  1
  Ru  Ru8  1  0.998406  0.001594  0.001190  1
  Ru  Ru9  1  0.829121  0.658830  0.250000  1
  Ru  Ru10  1  0.341170  0.170879  0.250000  1
  Ru  Ru11  1  0.167274  0.832726  0.750000  1
