# generated using pymatgen
data_Yb9Pr8Sm3Pb16
_symmetry_space_group_name_H-M   'P 1'
_cell_length_a   8.08020002
_cell_length_b   8.60631519
_cell_length_c   16.18630100
_cell_angle_alpha   90.10934805
_cell_angle_beta   89.90975425
_cell_angle_gamma   89.93531580
_symmetry_Int_Tables_number   1
_chemical_formula_structural   Yb9Pr8Sm3Pb16
_chemical_formula_sum   'Yb9 Pr8 Sm3 Pb16'
_cell_volume   1125.60331441
_cell_formula_units_Z   1
loop_
 _symmetry_equiv_pos_site_id
 _symmetry_equiv_pos_as_xyz
  1  'x, y, z'
loop_
 _atom_site_type_symbol
 _atom_site_label
 _atom_site_symmetry_multiplicity
 _atom_site_fract_x
 _atom_site_fract_y
 _atom_site_fract_z
 _atom_site_occupancy
  Yb  Yb0  1  0.832945  0.664657  0.377101  1
  Yb  Yb1  1  0.331524  0.835408  0.376920  1
  Yb  Yb2  1  0.832610  0.665125  0.121950  1
  Yb  Yb3  1  0.668904  0.163500  0.877435  1
  Yb  Yb4  1  0.168795  0.336530  0.622579  1
  Yb  Yb5  1  0.835547  0.497707  0.749512  1
  Yb  Yb6  1  0.335673  0.002463  0.750746  1
  Yb  Yb7  1  0.162491  0.503857  0.250168  1
  Yb  Yb8  1  0.665187  0.996062  0.251890  1
  Pr  Pr9  1  0.501571  0.684924  0.595235  1
  Pr  Pr10  1  0.001234  0.814670  0.905543  1
  Pr  Pr11  1  0.500048  0.314642  0.094836  1
  Pr  Pr12  1  0.997686  0.187138  0.405568  1
  Pr  Pr13  1  0.496240  0.314966  0.404235  1
  Pr  Pr14  1  0.995111  0.185307  0.094106  1
  Pr  Pr15  1  0.503268  0.684854  0.904729  1
  Pr  Pr16  1  0.002805  0.813783  0.594397  1
  Sm  Sm17  1  0.666082  0.167309  0.623962  1
  Sm  Sm18  1  0.165625  0.332450  0.876497  1
  Sm  Sm19  1  0.335791  0.832235  0.124121  1
  Pb  Pb20  1  0.678756  0.961643  0.459741  1
  Pb  Pb21  1  0.182341  0.538951  0.040252  1
  Pb  Pb22  1  0.318702  0.038592  0.960000  1
  Pb  Pb23  1  0.820242  0.461716  0.540522  1
  Pb  Pb24  1  0.321879  0.039561  0.541500  1
  Pb  Pb25  1  0.821303  0.460805  0.957912  1
  Pb  Pb26  1  0.678242  0.960707  0.041380  1
  Pb  Pb27  1  0.179426  0.539646  0.459084  1
  Pb  Pb28  1  0.469751  0.387380  0.752337  1
  Pb  Pb29  1  0.969460  0.113740  0.747547  1
  Pb  Pb30  1  0.530716  0.611513  0.250457  1
  Pb  Pb31  1  0.030919  0.889163  0.248457  1
  Pb  Pb32  1  0.705239  0.853993  0.750042  1
  Pb  Pb33  1  0.204491  0.646122  0.750662  1
  Pb  Pb34  1  0.294931  0.145723  0.249075  1
  Pb  Pb35  1  0.794467  0.353157  0.249505  1
