# generated using pymatgen
data_Yb2BN2F
_symmetry_space_group_name_H-M   'P 1'
_cell_length_a   3.61780100
_cell_length_b   9.11148400
_cell_length_c   9.83606600
_cell_angle_alpha   90.00000000
_cell_angle_beta   90.00000000
_cell_angle_gamma   90.00000000
_symmetry_Int_Tables_number   1
_chemical_formula_structural   Yb2BN2F
_chemical_formula_sum   'Yb8 B4 N8 F4'
_cell_volume   324.23151497
_cell_formula_units_Z   4
loop_
 _symmetry_equiv_pos_site_id
 _symmetry_equiv_pos_as_xyz
  1  'x, y, z'
loop_
 _atom_site_type_symbol
 _atom_site_label
 _atom_site_symmetry_multiplicity
 _atom_site_fract_x
 _atom_site_fract_y
 _atom_site_fract_z
 _atom_site_occupancy
  Yb  Yb0  1  0.250000  0.673954  0.024406  1
  Yb  Yb1  1  0.750000  0.826046  0.524406  1
  Yb  Yb2  1  0.250000  0.173954  0.475594  1
  Yb  Yb3  1  0.750000  0.326046  0.975594  1
  Yb  Yb4  1  0.250000  0.523725  0.657066  1
  Yb  Yb5  1  0.750000  0.476275  0.342934  1
  Yb  Yb6  1  0.250000  0.023725  0.842934  1
  Yb  Yb7  1  0.750000  0.976275  0.157066  1
  B  B8  1  0.250000  0.734536  0.324894  1
  B  B9  1  0.750000  0.265464  0.675106  1
  B  B10  1  0.250000  0.234536  0.175106  1
  B  B11  1  0.750000  0.765464  0.824894  1
  N  N12  1  0.250000  0.652332  0.439266  1
  N  N13  1  0.750000  0.347668  0.560734  1
  N  N14  1  0.250000  0.152332  0.060734  1
  N  N15  1  0.750000  0.178510  0.783325  1
  N  N16  1  0.250000  0.321490  0.283325  1
  N  N17  1  0.750000  0.678510  0.716675  1
  N  N18  1  0.250000  0.821490  0.216675  1
  N  N19  1  0.750000  0.847668  0.939266  1
  F  F20  1  0.750000  0.542204  0.105320  1
  F  F21  1  0.750000  0.042204  0.394680  1
  F  F22  1  0.250000  0.457796  0.894680  1
  F  F23  1  0.250000  0.957796  0.605320  1
