# generated using pymatgen
data_Ba3Tm2MoO9
_symmetry_space_group_name_H-M   'P 1'
_cell_length_a   6.04000819
_cell_length_b   8.55673766
_cell_length_c   10.46457299
_cell_angle_alpha   65.86781370
_cell_angle_beta   73.22625356
_cell_angle_gamma   89.99999579
_symmetry_Int_Tables_number   1
_chemical_formula_structural   Ba3Tm2MoO9
_chemical_formula_sum   'Ba6 Tm4 Mo2 O18'
_cell_volume   468.24249856
_cell_formula_units_Z   2
loop_
 _symmetry_equiv_pos_site_id
 _symmetry_equiv_pos_as_xyz
  1  'x, y, z'
loop_
 _atom_site_type_symbol
 _atom_site_label
 _atom_site_symmetry_multiplicity
 _atom_site_fract_x
 _atom_site_fract_y
 _atom_site_fract_z
 _atom_site_occupancy
  Ba  Ba0  1  0.500000  0.263663  0.000000  1
  Ba  Ba1  1  0.838663  0.579776  0.322672  1
  Ba  Ba2  1  0.161337  0.902450  0.677328  1
  Ba  Ba3  1  0.500000  0.736337  0.000000  1
  Ba  Ba4  1  0.838663  0.097550  0.322672  1
  Ba  Ba5  1  0.161337  0.420224  0.677328  1
  Tm  Tm6  1  0.000000  0.000000  0.000000  1
  Tm  Tm7  1  0.329617  0.329617  0.340764  1
  Tm  Tm8  1  0.670383  0.670383  0.659236  1
  Tm  Tm9  1  0.000000  0.500000  0.000000  1
  Mo  Mo10  1  0.334060  0.834060  0.331879  1
  Mo  Mo11  1  0.665940  0.165940  0.668121  1
  O  O12  1  0.000000  0.246678  0.000000  1
  O  O13  1  0.329867  0.599156  0.340264  1
  O  O14  1  0.670133  0.939421  0.659736  1
  O  O15  1  0.161391  0.410951  0.178098  1
  O  O16  1  0.491892  0.759353  0.481294  1
  O  O17  1  0.818027  0.088834  0.822331  1
  O  O18  1  0.339489  0.589049  0.821902  1
  O  O19  1  0.640359  0.911166  0.177669  1
  O  O20  1  0.973186  0.240647  0.518706  1
  O  O21  1  0.000000  0.753322  0.000000  1
  O  O22  1  0.329867  0.060579  0.340264  1
  O  O23  1  0.670133  0.400844  0.659736  1
  O  O24  1  0.838609  0.589049  0.821902  1
  O  O25  1  0.181973  0.911166  0.177669  1
  O  O26  1  0.508108  0.240647  0.518706  1
  O  O27  1  0.660511  0.410951  0.178098  1
  O  O28  1  0.026814  0.759353  0.481294  1
  O  O29  1  0.359641  0.088834  0.822331  1
