# generated using pymatgen
data_Ca3Sc(Si3Ni5)4
_symmetry_space_group_name_H-M   'P 1'
_cell_length_a   3.76138900
_cell_length_b   18.63849307
_cell_length_c   6.64036880
_cell_angle_alpha   90.10186102
_cell_angle_beta   90.00000000
_cell_angle_gamma   90.00000000
_symmetry_Int_Tables_number   1
_chemical_formula_structural   Ca3Sc(Si3Ni5)4
_chemical_formula_sum   'Ca3 Sc1 Si12 Ni20'
_cell_volume   465.53309535
_cell_formula_units_Z   1
loop_
 _symmetry_equiv_pos_site_id
 _symmetry_equiv_pos_as_xyz
  1  'x, y, z'
loop_
 _atom_site_type_symbol
 _atom_site_label
 _atom_site_symmetry_multiplicity
 _atom_site_fract_x
 _atom_site_fract_y
 _atom_site_fract_z
 _atom_site_occupancy
  Ca  Ca0  1  0.750000  0.642425  0.122638  1
  Ca  Ca1  1  0.250000  0.356137  0.876961  1
  Ca  Ca2  1  0.250000  0.859224  0.624556  1
  Sc  Sc3  1  0.750000  0.143624  0.377025  1
  Si  Si4  1  0.750000  0.739208  0.624271  1
  Si  Si5  1  0.250000  0.257280  0.377049  1
  Si  Si6  1  0.250000  0.762420  0.122989  1
  Si  Si7  1  0.750000  0.236679  0.877921  1
  Si  Si8  1  0.750000  0.925888  0.342420  1
  Si  Si9  1  0.250000  0.075992  0.645928  1
  Si  Si10  1  0.250000  0.573559  0.843101  1
  Si  Si11  1  0.750000  0.424163  0.158418  1
  Si  Si12  1  0.750000  0.917749  0.919884  1
  Si  Si13  1  0.250000  0.088089  0.092813  1
  Si  Si14  1  0.250000  0.585963  0.421800  1
  Si  Si15  1  0.750000  0.411810  0.577388  1
  Ni  Ni16  1  0.750000  0.800510  0.314865  1
  Ni  Ni17  1  0.250000  0.197810  0.681945  1
  Ni  Ni18  1  0.250000  0.700182  0.814750  1
  Ni  Ni19  1  0.750000  0.297921  0.187857  1
  Ni  Ni20  1  0.750000  0.997235  0.629663  1
  Ni  Ni21  1  0.250000  0.005909  0.365574  1
  Ni  Ni22  1  0.250000  0.502964  0.134842  1
  Ni  Ni23  1  0.750000  0.494971  0.865966  1
  Ni  Ni24  1  0.750000  0.514903  0.385997  1
  Ni  Ni25  1  0.250000  0.483477  0.612924  1
  Ni  Ni26  1  0.250000  0.989625  0.885140  1
  Ni  Ni27  1  0.750000  0.018166  0.121360  1
  Ni  Ni28  1  0.750000  0.795315  0.934169  1
  Ni  Ni29  1  0.250000  0.206345  0.067480  1
  Ni  Ni30  1  0.250000  0.707407  0.433881  1
  Ni  Ni31  1  0.750000  0.290070  0.566226  1
  Ni  Ni32  1  0.750000  0.616406  0.641531  1
  Ni  Ni33  1  0.250000  0.380828  0.358822  1
  Ni  Ni34  1  0.250000  0.885438  0.138139  1
  Ni  Ni35  1  0.750000  0.114307  0.853706  1
