# generated using pymatgen
data_Ce2Tm2B12RuW
_symmetry_space_group_name_H-M   'P 1'
_cell_length_a   3.70053400
_cell_length_b   9.19554154
_cell_length_c   11.59884130
_cell_angle_alpha   89.77011019
_cell_angle_beta   90.00000000
_cell_angle_gamma   90.00000000
_symmetry_Int_Tables_number   1
_chemical_formula_structural   Ce2Tm2B12RuW
_chemical_formula_sum   'Ce4 Tm4 B24 Ru2 W2'
_cell_volume   394.68699789
_cell_formula_units_Z   2
loop_
 _symmetry_equiv_pos_site_id
 _symmetry_equiv_pos_as_xyz
  1  'x, y, z'
loop_
 _atom_site_type_symbol
 _atom_site_label
 _atom_site_symmetry_multiplicity
 _atom_site_fract_x
 _atom_site_fract_y
 _atom_site_fract_z
 _atom_site_occupancy
  Ce  Ce0  1  0.000000  0.323360  0.415135  1
  Ce  Ce1  1  0.000000  0.676640  0.584865  1
  Ce  Ce2  1  0.000000  0.820775  0.087150  1
  Ce  Ce3  1  0.000000  0.179225  0.912850  1
  Tm  Tm4  1  0.000000  0.945278  0.373402  1
  Tm  Tm5  1  0.000000  0.054722  0.626598  1
  Tm  Tm6  1  0.000000  0.444577  0.126656  1
  Tm  Tm7  1  0.000000  0.555423  0.873344  1
  B  B8  1  0.500000  0.553629  0.432455  1
  B  B9  1  0.500000  0.446371  0.567545  1
  B  B10  1  0.500000  0.055326  0.068689  1
  B  B11  1  0.500000  0.944674  0.931311  1
  B  B12  1  0.500000  0.750803  0.419807  1
  B  B13  1  0.500000  0.249197  0.580193  1
  B  B14  1  0.500000  0.250070  0.081356  1
  B  B15  1  0.500000  0.749930  0.918644  1
  B  B16  1  0.500000  0.795030  0.264881  1
  B  B17  1  0.500000  0.204970  0.735119  1
  B  B18  1  0.500000  0.291216  0.233505  1
  B  B19  1  0.500000  0.708784  0.766495  1
  B  B20  1  0.500000  0.632340  0.183441  1
  B  B21  1  0.500000  0.367660  0.816559  1
  B  B22  1  0.500000  0.131131  0.314533  1
  B  B23  1  0.500000  0.868869  0.685467  1
  B  B24  1  0.500000  0.984703  0.213355  1
  B  B25  1  0.500000  0.015297  0.786645  1
  B  B26  1  0.500000  0.481358  0.285542  1
  B  B27  1  0.500000  0.518642  0.714458  1
  B  B28  1  0.500000  0.605810  0.027977  1
  B  B29  1  0.500000  0.394190  0.972023  1
  B  B30  1  0.500000  0.104649  0.470361  1
  B  B31  1  0.500000  0.895351  0.529639  1
  Ru  Ru32  1  0.000000  0.139235  0.179350  1
  Ru  Ru33  1  0.000000  0.860765  0.820650  1
  W  W34  1  0.000000  0.639856  0.319397  1
  W  W35  1  0.000000  0.360144  0.680603  1
