# generated using pymatgen
data_Nd6Al24Re3Pd4Ru
_symmetry_space_group_name_H-M   'P 1'
_cell_length_a   8.95223400
_cell_length_b   9.01175567
_cell_length_c   9.72583413
_cell_angle_alpha   89.66441805
_cell_angle_beta   90.00000000
_cell_angle_gamma   119.78175871
_symmetry_Int_Tables_number   1
_chemical_formula_structural   Nd6Al24Re3Pd4Ru
_chemical_formula_sum   'Nd6 Al24 Re3 Pd4 Ru1'
_cell_volume   680.98777773
_cell_formula_units_Z   1
loop_
 _symmetry_equiv_pos_site_id
 _symmetry_equiv_pos_as_xyz
  1  'x, y, z'
loop_
 _atom_site_type_symbol
 _atom_site_label
 _atom_site_symmetry_multiplicity
 _atom_site_fract_x
 _atom_site_fract_y
 _atom_site_fract_z
 _atom_site_occupancy
  Nd  Nd0  1  0.189508  0.379014  0.250306  1
  Nd  Nd1  1  0.810492  0.620986  0.749694  1
  Nd  Nd2  1  0.617705  0.813264  0.248478  1
  Nd  Nd3  1  0.382295  0.186736  0.751522  1
  Nd  Nd4  1  0.195560  0.813264  0.248478  1
  Nd  Nd5  1  0.804440  0.186736  0.751522  1
  Al  Al6  1  0.334969  0.669940  0.021703  1
  Al  Al7  1  0.665031  0.330060  0.978297  1
  Al  Al8  1  0.663749  0.327495  0.521181  1
  Al  Al9  1  0.336251  0.672505  0.478819  1
  Al  Al10  1  0.161822  0.323644  0.575771  1
  Al  Al11  1  0.838178  0.676356  0.424229  1
  Al  Al12  1  0.673753  0.842629  0.575739  1
  Al  Al13  1  0.837722  0.675444  0.075637  1
  Al  Al14  1  0.326247  0.157371  0.424261  1
  Al  Al15  1  0.162278  0.324556  0.924363  1
  Al  Al16  1  0.168877  0.842629  0.575739  1
  Al  Al17  1  0.325424  0.156925  0.075894  1
  Al  Al18  1  0.831123  0.157371  0.424261  1
  Al  Al19  1  0.674576  0.843075  0.924106  1
  Al  Al20  1  0.831501  0.156925  0.075894  1
  Al  Al21  1  0.168499  0.843075  0.924106  1
  Al  Al22  1  0.563250  0.126501  0.251373  1
  Al  Al23  1  0.436750  0.873499  0.748627  1
  Al  Al24  1  0.871457  0.434996  0.250582  1
  Al  Al25  1  0.128543  0.565004  0.749418  1
  Al  Al26  1  0.563538  0.434996  0.250582  1
  Al  Al27  1  0.436462  0.565004  0.749418  1
  Al  Al28  1  0.001927  0.003852  0.250028  1
  Al  Al29  1  0.998073  0.996148  0.749972  1
  Re  Re30  1  0.500000  0.000000  0.000000  1
  Re  Re31  1  0.000000  0.000000  0.000000  1
  Re  Re32  1  0.000000  0.000000  0.500000  1
  Pd  Pd33  1  0.000000  0.500000  0.000000  1
  Pd  Pd34  1  0.500000  0.500000  0.000000  1
  Pd  Pd35  1  0.000000  0.500000  0.500000  1
  Pd  Pd36  1  0.500000  0.500000  0.500000  1
  Ru  Ru37  1  0.500000  0.000000  0.500000  1
