# generated using pymatgen
data_CeDy7(ZnCo)2
_symmetry_space_group_name_H-M   'P 1'
_cell_length_a   9.24829819
_cell_length_b   9.46936860
_cell_length_c   9.46936783
_cell_angle_alpha   58.46137202
_cell_angle_beta   60.76931930
_cell_angle_gamma   60.76930926
_symmetry_Int_Tables_number   1
_chemical_formula_structural   CeDy7(ZnCo)2
_chemical_formula_sum   'Ce2 Dy14 Zn4 Co4'
_cell_volume   585.76838391
_cell_formula_units_Z   2
loop_
 _symmetry_equiv_pos_site_id
 _symmetry_equiv_pos_as_xyz
  1  'x, y, z'
loop_
 _atom_site_type_symbol
 _atom_site_label
 _atom_site_symmetry_multiplicity
 _atom_site_fract_x
 _atom_site_fract_y
 _atom_site_fract_z
 _atom_site_occupancy
  Ce  Ce0  1  0.814979  0.185021  0.185021  1
  Ce  Ce1  1  0.185021  0.814979  0.814979  1
  Dy  Dy2  1  0.192977  0.807023  0.192977  1
  Dy  Dy3  1  0.807023  0.192977  0.807023  1
  Dy  Dy4  1  0.192977  0.192977  0.807023  1
  Dy  Dy5  1  0.807023  0.807023  0.192977  1
  Dy  Dy6  1  0.926378  0.573622  0.573622  1
  Dy  Dy7  1  0.573622  0.926378  0.926378  1
  Dy  Dy8  1  0.559613  0.940387  0.559613  1
  Dy  Dy9  1  0.940387  0.559613  0.940387  1
  Dy  Dy10  1  0.559613  0.559613  0.940387  1
  Dy  Dy11  1  0.940387  0.940387  0.559613  1
  Dy  Dy12  1  0.339513  0.352481  0.352481  1
  Dy  Dy13  1  0.352481  0.339513  0.955525  1
  Dy  Dy14  1  0.352481  0.955525  0.339513  1
  Dy  Dy15  1  0.955525  0.352481  0.352481  1
  Zn  Zn16  1  0.581712  0.576547  0.576547  1
  Zn  Zn17  1  0.576547  0.581712  0.265194  1
  Zn  Zn18  1  0.576547  0.265194  0.581712  1
  Zn  Zn19  1  0.265194  0.576547  0.576547  1
  Co  Co20  1  0.098695  0.154333  0.154333  1
  Co  Co21  1  0.154333  0.098695  0.592638  1
  Co  Co22  1  0.154333  0.592638  0.098695  1
  Co  Co23  1  0.592638  0.154333  0.154333  1
