# generated using pymatgen
data_Ho12Ni2Ru3Pb
_symmetry_space_group_name_H-M   'P 1'
_cell_length_a   8.36320846
_cell_length_b   8.36334735
_cell_length_c   8.36320900
_cell_angle_alpha   112.89251301
_cell_angle_beta   109.99249263
_cell_angle_gamma   105.61003402
_symmetry_Int_Tables_number   1
_chemical_formula_structural   Ho12Ni2Ru3Pb
_chemical_formula_sum   'Ho12 Ni2 Ru3 Pb1'
_cell_volume   448.47647825
_cell_formula_units_Z   1
loop_
 _symmetry_equiv_pos_site_id
 _symmetry_equiv_pos_as_xyz
  1  'x, y, z'
loop_
 _atom_site_type_symbol
 _atom_site_label
 _atom_site_symmetry_multiplicity
 _atom_site_fract_x
 _atom_site_fract_y
 _atom_site_fract_z
 _atom_site_occupancy
  Ho  Ho0  1  0.822214  0.724940  0.547152  1
  Ho  Ho1  1  0.177786  0.275060  0.452848  1
  Ho  Ho2  1  0.177789  0.724940  0.902727  1
  Ho  Ho3  1  0.822211  0.275060  0.097273  1
  Ho  Ho4  1  0.674389  0.360002  0.685613  1
  Ho  Ho5  1  0.325611  0.639998  0.314387  1
  Ho  Ho6  1  0.674339  0.988706  0.314368  1
  Ho  Ho7  1  0.325661  0.011294  0.685632  1
  Ho  Ho8  1  0.587263  0.774333  0.812938  1
  Ho  Ho9  1  0.412737  0.225667  0.187062  1
  Ho  Ho10  1  0.961396  0.774333  0.187070  1
  Ho  Ho11  1  0.038604  0.225667  0.812930  1
  Ni  Ni12  1  0.115516  0.615572  0.500056  1
  Ni  Ni13  1  0.884484  0.384428  0.499944  1
  Ru  Ru14  1  0.662146  0.000000  0.662146  1
  Ru  Ru15  1  0.337854  0.000000  0.337854  1
  Ru  Ru16  1  0.000000  0.000000  0.000000  1
  Pb  Pb17  1  0.500000  0.500000  0.000000  1
