# generated using pymatgen
data_DyLu15(In3Ru)2
_symmetry_space_group_name_H-M   'P 1'
_cell_length_a   10.20826400
_cell_length_b   10.20826541
_cell_length_c   6.93947800
_cell_angle_alpha   90.00000000
_cell_angle_beta   90.00000000
_cell_angle_gamma   120.00000192
_symmetry_Int_Tables_number   1
_chemical_formula_structural   DyLu15(In3Ru)2
_chemical_formula_sum   'Dy1 Lu15 In6 Ru2'
_cell_volume   626.26951556
_cell_formula_units_Z   1
loop_
 _symmetry_equiv_pos_site_id
 _symmetry_equiv_pos_as_xyz
  1  'x, y, z'
loop_
 _atom_site_type_symbol
 _atom_site_label
 _atom_site_symmetry_multiplicity
 _atom_site_fract_x
 _atom_site_fract_y
 _atom_site_fract_z
 _atom_site_occupancy
  Dy  Dy0  1  0.000000  0.000000  0.000131  1
  Lu  Lu1  1  0.533071  0.066143  0.514522  1
  Lu  Lu2  1  0.933857  0.466929  0.514522  1
  Lu  Lu3  1  0.533071  0.466929  0.514522  1
  Lu  Lu4  1  0.466865  0.933730  0.014518  1
  Lu  Lu5  1  0.066270  0.533135  0.014518  1
  Lu  Lu6  1  0.466865  0.533135  0.014518  1
  Lu  Lu7  1  0.177830  0.355661  0.717826  1
  Lu  Lu8  1  0.644339  0.822170  0.717826  1
  Lu  Lu9  1  0.177830  0.822170  0.717826  1
  Lu  Lu10  1  0.822087  0.644176  0.219267  1
  Lu  Lu11  1  0.355824  0.177913  0.219267  1
  Lu  Lu12  1  0.822087  0.177913  0.219267  1
  Lu  Lu13  1  0.666667  0.333333  0.896589  1
  Lu  Lu14  1  0.333333  0.666667  0.397714  1
  Lu  Lu15  1  0.000000  0.000000  0.499425  1
  In  In16  1  0.836423  0.672845  0.759936  1
  In  In17  1  0.327155  0.163577  0.759936  1
  In  In18  1  0.836423  0.163577  0.759936  1
  In  In19  1  0.163531  0.327061  0.262617  1
  In  In20  1  0.672939  0.836469  0.262617  1
  In  In21  1  0.163531  0.836469  0.262617  1
  Ru  Ru22  1  0.666667  0.333333  0.291650  1
  Ru  Ru23  1  0.333333  0.666667  0.792632  1
