# generated using pymatgen
data_CaNd3(BeSi3)2
_symmetry_space_group_name_H-M   'P 1'
_cell_length_a   8.11052434
_cell_length_b   7.92889279
_cell_length_c   5.84805563
_cell_angle_alpha   70.28344118
_cell_angle_beta   66.96875284
_cell_angle_gamma   42.74782009
_symmetry_Int_Tables_number   1
_chemical_formula_structural   CaNd3(BeSi3)2
_chemical_formula_sum   'Ca1 Nd3 Be2 Si6'
_cell_volume   234.16581188
_cell_formula_units_Z   1
loop_
 _symmetry_equiv_pos_site_id
 _symmetry_equiv_pos_as_xyz
  1  'x, y, z'
loop_
 _atom_site_type_symbol
 _atom_site_label
 _atom_site_symmetry_multiplicity
 _atom_site_fract_x
 _atom_site_fract_y
 _atom_site_fract_z
 _atom_site_occupancy
  Ca  Ca0  1  0.245170  0.754830  0.245170  1
  Nd  Nd1  1  0.750028  0.749972  0.750028  1
  Nd  Nd2  1  0.755090  0.244910  0.755090  1
  Nd  Nd3  1  0.250028  0.249972  0.250028  1
  Be  Be4  1  0.666025  0.667143  0.332857  1
  Be  Be5  1  0.332857  0.333975  0.666025  1
  Si  Si6  1  0.824278  0.347009  0.174814  1
  Si  Si7  1  0.652991  0.175722  0.346101  1
  Si  Si8  1  0.174814  0.653899  0.824278  1
  Si  Si9  1  0.346101  0.825186  0.652991  1
  Si  Si10  1  0.173628  0.171009  0.828991  1
  Si  Si11  1  0.828991  0.826372  0.173628  1
