# generated using pymatgen
data_YZr3(Pd5Pt)2
_symmetry_space_group_name_H-M   'P 1'
_cell_length_a   5.69964100
_cell_length_b   5.70388922
_cell_length_c   9.28176900
_cell_angle_alpha   90.00000000
_cell_angle_beta   90.00000000
_cell_angle_gamma   119.97535969
_symmetry_Int_Tables_number   1
_chemical_formula_structural   YZr3(Pd5Pt)2
_chemical_formula_sum   'Y1 Zr3 Pd10 Pt2'
_cell_volume   261.38926634
_cell_formula_units_Z   1
loop_
 _symmetry_equiv_pos_site_id
 _symmetry_equiv_pos_as_xyz
  1  'x, y, z'
loop_
 _atom_site_type_symbol
 _atom_site_label
 _atom_site_symmetry_multiplicity
 _atom_site_fract_x
 _atom_site_fract_y
 _atom_site_fract_z
 _atom_site_occupancy
  Y  Y0  1  0.333362  0.666724  0.250000  1
  Zr  Zr1  1  0.999246  0.998492  0.500621  1
  Zr  Zr2  1  0.999246  0.998492  0.999379  1
  Zr  Zr3  1  0.667689  0.335376  0.750000  1
  Pd  Pd4  1  0.501188  0.497573  0.502753  1
  Pd  Pd5  1  0.501776  0.003551  0.503047  1
  Pd  Pd6  1  0.996386  0.497573  0.502753  1
  Pd  Pd7  1  0.501188  0.497573  0.997247  1
  Pd  Pd8  1  0.501776  0.003551  0.996953  1
  Pd  Pd9  1  0.996386  0.497573  0.997247  1
  Pd  Pd10  1  0.830221  0.660441  0.250000  1
  Pd  Pd11  1  0.341283  0.170724  0.250000  1
  Pd  Pd12  1  0.829444  0.170724  0.250000  1
  Pd  Pd13  1  0.169745  0.339491  0.750000  1
  Pt  Pt14  1  0.661095  0.831069  0.750000  1
  Pt  Pt15  1  0.169974  0.831069  0.750000  1
