# generated using pymatgen
data_Nd3Gd2Sn3Se
_symmetry_space_group_name_H-M   'P 1'
_cell_length_a   9.49175700
_cell_length_b   9.49175529
_cell_length_c   6.97474000
_cell_angle_alpha   90.00000000
_cell_angle_beta   90.00000000
_cell_angle_gamma   120.00000248
_symmetry_Int_Tables_number   1
_chemical_formula_structural   Nd3Gd2Sn3Se
_chemical_formula_sum   'Nd6 Gd4 Sn6 Se2'
_cell_volume   544.19154239
_cell_formula_units_Z   2
loop_
 _symmetry_equiv_pos_site_id
 _symmetry_equiv_pos_as_xyz
  1  'x, y, z'
loop_
 _atom_site_type_symbol
 _atom_site_label
 _atom_site_symmetry_multiplicity
 _atom_site_fract_x
 _atom_site_fract_y
 _atom_site_fract_z
 _atom_site_occupancy
  Nd  Nd0  1  0.747458  0.747458  0.750000  1
  Nd  Nd1  1  0.252542  0.000000  0.750000  1
  Nd  Nd2  1  0.000000  0.252542  0.750000  1
  Nd  Nd3  1  0.252542  0.252542  0.250000  1
  Nd  Nd4  1  0.747458  0.000000  0.250000  1
  Nd  Nd5  1  0.000000  0.747458  0.250000  1
  Gd  Gd6  1  0.666667  0.333333  0.000000  1
  Gd  Gd7  1  0.333333  0.666667  0.000000  1
  Gd  Gd8  1  0.333333  0.666667  0.500000  1
  Gd  Gd9  1  0.666667  0.333333  0.500000  1
  Sn  Sn10  1  0.398595  0.398595  0.750000  1
  Sn  Sn11  1  0.601405  0.000000  0.750000  1
  Sn  Sn12  1  0.000000  0.601405  0.750000  1
  Sn  Sn13  1  0.601405  0.601405  0.250000  1
  Sn  Sn14  1  0.398595  0.000000  0.250000  1
  Sn  Sn15  1  0.000000  0.398595  0.250000  1
  Se  Se16  1  0.000000  0.000000  0.000000  1
  Se  Se17  1  0.000000  0.000000  0.500000  1
