# generated using pymatgen
data_Gd12Fe(TcHg)2
_symmetry_space_group_name_H-M   'P 1'
_cell_length_a   8.48927055
_cell_length_b   8.48927027
_cell_length_c   8.48927200
_cell_angle_alpha   108.66243700
_cell_angle_beta   108.66243638
_cell_angle_gamma   111.10119370
_symmetry_Int_Tables_number   1
_chemical_formula_structural   Gd12Fe(TcHg)2
_chemical_formula_sum   'Gd12 Fe1 Tc2 Hg2'
_cell_volume   470.67889448
_cell_formula_units_Z   1
loop_
 _symmetry_equiv_pos_site_id
 _symmetry_equiv_pos_as_xyz
  1  'x, y, z'
loop_
 _atom_site_type_symbol
 _atom_site_label
 _atom_site_symmetry_multiplicity
 _atom_site_fract_x
 _atom_site_fract_y
 _atom_site_fract_z
 _atom_site_occupancy
  Gd  Gd0  1  0.189506  0.432204  0.242697  1
  Gd  Gd1  1  0.810671  0.569670  0.759000  1
  Gd  Gd2  1  0.189416  0.946950  0.757533  1
  Gd  Gd3  1  0.946121  0.188445  0.757202  1
  Gd  Gd4  1  0.809879  0.050938  0.241061  1
  Gd  Gd5  1  0.050568  0.810027  0.240521  1
  Gd  Gd6  1  0.431244  0.188445  0.242325  1
  Gd  Gd7  1  0.569505  0.810027  0.759458  1
  Gd  Gd8  1  0.307832  0.308337  0.618325  1
  Gd  Gd9  1  0.689039  0.688931  0.381214  1
  Gd  Gd10  1  0.690013  0.308337  0.000506  1
  Gd  Gd11  1  0.307716  0.688931  0.999891  1
  Fe  Fe12  1  0.635845  0.635131  0.999286  1
  Tc  Tc13  1  0.378637  0.379442  0.000805  1
  Tc  Tc14  1  0.998366  0.998453  0.000088  1
  Hg  Hg15  1  0.997831  0.498181  0.500351  1
  Hg  Hg16  1  0.497813  0.997552  0.499739  1
