# generated using pymatgen
data_Pa3Co6Cu
_symmetry_space_group_name_H-M   'P 1'
_cell_length_a   5.19837700
_cell_length_b   7.21829200
_cell_length_c   8.15325100
_cell_angle_alpha   90.00000000
_cell_angle_beta   90.00000000
_cell_angle_gamma   90.00000000
_symmetry_Int_Tables_number   1
_chemical_formula_structural   Pa3Co6Cu
_chemical_formula_sum   'Pa6 Co12 Cu2'
_cell_volume   305.93772395
_cell_formula_units_Z   2
loop_
 _symmetry_equiv_pos_site_id
 _symmetry_equiv_pos_as_xyz
  1  'x, y, z'
loop_
 _atom_site_type_symbol
 _atom_site_label
 _atom_site_symmetry_multiplicity
 _atom_site_fract_x
 _atom_site_fract_y
 _atom_site_fract_z
 _atom_site_occupancy
  Pa  Pa0  1  0.750000  0.897759  0.856037  1
  Pa  Pa1  1  0.750000  0.397759  0.643963  1
  Pa  Pa2  1  0.250000  0.100397  0.142329  1
  Pa  Pa3  1  0.250000  0.600397  0.357671  1
  Pa  Pa4  1  0.750000  0.951433  0.431559  1
  Pa  Pa5  1  0.750000  0.451433  0.068441  1
  Co  Co6  1  0.750000  0.588573  0.362247  1
  Co  Co7  1  0.750000  0.088573  0.137753  1
  Co  Co8  1  0.250000  0.401301  0.631043  1
  Co  Co9  1  0.250000  0.901301  0.868957  1
  Co  Co10  1  0.001448  0.262433  0.376243  1
  Co  Co11  1  0.498552  0.762433  0.123757  1
  Co  Co12  1  0.491235  0.736976  0.620632  1
  Co  Co13  1  0.008765  0.236976  0.879368  1
  Co  Co14  1  0.008765  0.736976  0.620632  1
  Co  Co15  1  0.491235  0.236976  0.879368  1
  Co  Co16  1  0.498552  0.262433  0.376243  1
  Co  Co17  1  0.001448  0.762433  0.123757  1
  Cu  Cu18  1  0.250000  0.061720  0.602209  1
  Cu  Cu19  1  0.250000  0.561720  0.897791  1
