# generated using pymatgen
data_Dy7(HoIn2)3
_symmetry_space_group_name_H-M   'P 1'
_cell_length_a   6.01442270
_cell_length_b   9.17057755
_cell_length_c   9.17081772
_cell_angle_alpha   84.00866349
_cell_angle_beta   70.85797591
_cell_angle_gamma   70.85745173
_symmetry_Int_Tables_number   1
_chemical_formula_structural   Dy7(HoIn2)3
_chemical_formula_sum   'Dy7 Ho3 In6'
_cell_volume   451.42998445
_cell_formula_units_Z   1
loop_
 _symmetry_equiv_pos_site_id
 _symmetry_equiv_pos_as_xyz
  1  'x, y, z'
loop_
 _atom_site_type_symbol
 _atom_site_label
 _atom_site_symmetry_multiplicity
 _atom_site_fract_x
 _atom_site_fract_y
 _atom_site_fract_z
 _atom_site_occupancy
  Dy  Dy0  1  0.719671  0.862228  0.698429  1
  Dy  Dy1  1  0.280427  0.137626  0.301519  1
  Dy  Dy2  1  0.780358  0.301413  0.137872  1
  Dy  Dy3  1  0.219571  0.698478  0.862380  1
  Dy  Dy4  1  0.581586  0.698941  0.137887  1
  Dy  Dy5  1  0.418332  0.301062  0.862273  1
  Dy  Dy6  1  0.081593  0.137769  0.699045  1
  Ho  Ho7  1  0.918460  0.862386  0.300693  1
  Ho  Ho8  1  0.750000  0.500119  0.499914  1
  Ho  Ho9  1  0.249967  0.500119  0.499914  1
  In  In10  1  0.161978  0.500301  0.175744  1
  In  In11  1  0.837968  0.499822  0.824242  1
  In  In12  1  0.337981  0.824295  0.499743  1
  In  In13  1  0.662173  0.175544  0.500110  1
  In  In14  1  0.249899  0.999948  0.000117  1
  In  In15  1  0.750036  0.999948  0.000117  1
