# generated using pymatgen
data_Li2PrNd(PO3)8
_symmetry_space_group_name_H-M   'P 1'
_cell_length_a   7.17324030
_cell_length_b   9.08089961
_cell_length_c   9.08344635
_cell_angle_alpha   95.38727515
_cell_angle_beta   113.25675073
_cell_angle_gamma   113.26366902
_symmetry_Int_Tables_number   1
_chemical_formula_structural   Li2PrNd(PO3)8
_chemical_formula_sum   'Li2 Pr1 Nd1 P8 O24'
_cell_volume   477.03552533
_cell_formula_units_Z   1
loop_
 _symmetry_equiv_pos_site_id
 _symmetry_equiv_pos_as_xyz
  1  'x, y, z'
loop_
 _atom_site_type_symbol
 _atom_site_label
 _atom_site_symmetry_multiplicity
 _atom_site_fract_x
 _atom_site_fract_y
 _atom_site_fract_z
 _atom_site_occupancy
  Li  Li0  1  0.452306  0.750001  0.250000  1
  Li  Li1  1  0.547784  0.250000  0.750000  1
  Pr  Pr2  1  0.951080  0.750001  0.250000  1
  Nd  Nd3  1  0.049413  0.250000  0.750000  1
  P  P4  1  0.606179  0.300093  0.096812  1
  P  P5  1  0.080876  0.386168  0.162964  1
  P  P6  1  0.531745  0.113832  0.337037  1
  P  P7  1  0.209275  0.199907  0.403187  1
  P  P8  1  0.790921  0.800693  0.597141  1
  P  P9  1  0.469248  0.886636  0.663672  1
  P  P10  1  0.918939  0.613363  0.836328  1
  P  P11  1  0.393088  0.699308  0.902859  1
  O  O12  1  0.149561  0.319806  0.046662  1
  O  O13  1  0.808554  0.268293  0.087442  1
  O  O14  1  0.559552  0.732206  0.082542  1
  O  O15  1  0.487962  0.145077  0.157072  1
  O  O16  1  0.144131  0.570144  0.203972  1
  O  O17  1  0.708469  0.464907  0.223226  1
  O  O18  1  0.020334  0.035093  0.276775  1
  O  O19  1  0.370015  0.929855  0.296027  1
  O  O20  1  0.185814  0.354922  0.342928  1
  O  O21  1  0.744804  0.767794  0.417457  1
  O  O22  1  0.452817  0.231707  0.412557  1
  O  O23  1  0.783093  0.180194  0.453339  1
  O  O24  1  0.217838  0.820349  0.548086  1
  O  O25  1  0.547332  0.768383  0.587802  1
  O  O26  1  0.254646  0.232424  0.582785  1
  O  O27  1  0.814611  0.645501  0.656838  1
  O  O28  1  0.631234  0.070506  0.704349  1
  O  O29  1  0.979446  0.966121  0.723027  1
  O  O30  1  0.290297  0.533878  0.776973  1
  O  O31  1  0.856380  0.429495  0.795652  1
  O  O32  1  0.512274  0.854499  0.843162  1
  O  O33  1  0.439439  0.267577  0.917215  1
  O  O34  1  0.191145  0.731616  0.912197  1
  O  O35  1  0.849402  0.679651  0.951913  1
