# generated using pymatgen
data_Lu12TcNi4Hg
_symmetry_space_group_name_H-M   'P 1'
_cell_length_a   8.09009157
_cell_length_b   8.09009303
_cell_length_c   8.09009200
_cell_angle_alpha   111.54912985
_cell_angle_beta   110.06633049
_cell_angle_gamma   106.83360985
_symmetry_Int_Tables_number   1
_chemical_formula_structural   Lu12TcNi4Hg
_chemical_formula_sum   'Lu12 Tc1 Ni4 Hg1'
_cell_volume   406.88837615
_cell_formula_units_Z   1
loop_
 _symmetry_equiv_pos_site_id
 _symmetry_equiv_pos_as_xyz
  1  'x, y, z'
loop_
 _atom_site_type_symbol
 _atom_site_label
 _atom_site_symmetry_multiplicity
 _atom_site_fract_x
 _atom_site_fract_y
 _atom_site_fract_z
 _atom_site_occupancy
  Lu  Lu0  1  0.421221  0.230684  0.190538  1
  Lu  Lu1  1  0.578779  0.769316  0.809462  1
  Lu  Lu2  1  0.040146  0.230684  0.809462  1
  Lu  Lu3  1  0.959854  0.769316  0.190538  1
  Lu  Lu4  1  0.178970  0.275872  0.454842  1
  Lu  Lu5  1  0.821030  0.724128  0.545158  1
  Lu  Lu6  1  0.178970  0.724128  0.903097  1
  Lu  Lu7  1  0.821030  0.275872  0.096903  1
  Lu  Lu8  1  0.323445  0.626701  0.303256  1
  Lu  Lu9  1  0.676555  0.373299  0.696744  1
  Lu  Lu10  1  0.323445  0.020189  0.696744  1
  Lu  Lu11  1  0.676555  0.979811  0.303256  1
  Tc  Tc12  1  0.000000  0.000000  0.000000  1
  Ni  Ni13  1  0.353432  0.000000  0.353432  1
  Ni  Ni14  1  0.646568  0.000000  0.646568  1
  Ni  Ni15  1  0.120088  0.620088  0.500000  1
  Ni  Ni16  1  0.879912  0.379912  0.500000  1
  Hg  Hg17  1  0.500000  0.500000  0.000000  1
