# generated using pymatgen
data_Sc22Tc6HgIr
_symmetry_space_group_name_H-M   'P 1'
_cell_length_a   9.48583381
_cell_length_b   9.62640241
_cell_length_c   9.62640300
_cell_angle_alpha   59.42337730
_cell_angle_beta   60.48188071
_cell_angle_gamma   60.48188159
_symmetry_Int_Tables_number   1
_chemical_formula_structural   Sc22Tc6HgIr
_chemical_formula_sum   'Sc22 Tc6 Hg1 Ir1'
_cell_volume   623.24468635
_cell_formula_units_Z   1
loop_
 _symmetry_equiv_pos_site_id
 _symmetry_equiv_pos_as_xyz
  1  'x, y, z'
loop_
 _atom_site_type_symbol
 _atom_site_label
 _atom_site_symmetry_multiplicity
 _atom_site_fract_x
 _atom_site_fract_y
 _atom_site_fract_z
 _atom_site_occupancy
  Sc  Sc0  1  0.804155  0.803459  0.196541  1
  Sc  Sc1  1  0.195845  0.803459  0.196541  1
  Sc  Sc2  1  0.802102  0.197898  0.197898  1
  Sc  Sc3  1  0.195845  0.196541  0.803459  1
  Sc  Sc4  1  0.804155  0.196541  0.803459  1
  Sc  Sc5  1  0.197898  0.802102  0.802102  1
  Sc  Sc6  1  0.622286  0.601874  0.153552  1
  Sc  Sc7  1  0.622286  0.153552  0.601874  1
  Sc  Sc8  1  0.147689  0.613659  0.613659  1
  Sc  Sc9  1  0.624990  0.613659  0.613659  1
  Sc  Sc10  1  0.377714  0.398126  0.846448  1
  Sc  Sc11  1  0.377714  0.846448  0.398126  1
  Sc  Sc12  1  0.852311  0.386341  0.386341  1
  Sc  Sc13  1  0.375010  0.386341  0.386341  1
  Sc  Sc14  1  0.843861  0.846238  0.466039  1
  Sc  Sc15  1  0.843861  0.466039  0.846238  1
  Sc  Sc16  1  0.474243  0.834065  0.834065  1
  Sc  Sc17  1  0.857625  0.834065  0.834065  1
  Sc  Sc18  1  0.156139  0.153762  0.533961  1
  Sc  Sc19  1  0.156139  0.533961  0.153762  1
  Sc  Sc20  1  0.525757  0.165935  0.165935  1
  Sc  Sc21  1  0.142375  0.165935  0.165935  1
  Tc  Tc22  1  0.000000  0.000000  0.000000  1
  Tc  Tc23  1  0.000000  0.000000  0.500000  1
  Tc  Tc24  1  0.500000  0.000000  0.500000  1
  Tc  Tc25  1  0.000000  0.500000  0.500000  1
  Tc  Tc26  1  0.500000  0.500000  0.000000  1
  Tc  Tc27  1  0.000000  0.500000  0.000000  1
  Hg  Hg28  1  0.500000  0.000000  0.000000  1
  Ir  Ir29  1  0.500000  0.500000  0.500000  1
