# generated using pymatgen
data_Pm4Cr3FeO12
_symmetry_space_group_name_H-M   'P 1'
_cell_length_a   5.45841949
_cell_length_b   5.67203309
_cell_length_c   7.81870100
_cell_angle_alpha   90.01462691
_cell_angle_beta   90.02435251
_cell_angle_gamma   89.94205184
_symmetry_Int_Tables_number   1
_chemical_formula_structural   Pm4Cr3FeO12
_chemical_formula_sum   'Pm4 Cr3 Fe1 O12'
_cell_volume   242.06945618
_cell_formula_units_Z   1
loop_
 _symmetry_equiv_pos_site_id
 _symmetry_equiv_pos_as_xyz
  1  'x, y, z'
loop_
 _atom_site_type_symbol
 _atom_site_label
 _atom_site_symmetry_multiplicity
 _atom_site_fract_x
 _atom_site_fract_y
 _atom_site_fract_z
 _atom_site_occupancy
  Pm  Pm0  1  0.984887  0.058583  0.249891  1
  Pm  Pm1  1  0.514924  0.559208  0.249744  1
  Pm  Pm2  1  0.485075  0.440790  0.750257  1
  Pm  Pm3  1  0.015114  0.941417  0.750110  1
  Cr  Cr4  1  0.500001  0.000000  0.000000  1
  Cr  Cr5  1  0.000000  0.499999  0.000000  1
  Cr  Cr6  1  0.500001  0.000000  0.500000  1
  Fe  Fe7  1  0.000000  0.499999  0.500000  1
  O  O8  1  0.700096  0.297391  0.051211  1
  O  O9  1  0.799776  0.797633  0.051340  1
  O  O10  1  0.096000  0.470158  0.249179  1
  O  O11  1  0.402724  0.969328  0.249470  1
  O  O12  1  0.700943  0.296223  0.449650  1
  O  O13  1  0.797854  0.797622  0.449503  1
  O  O14  1  0.202147  0.202378  0.550498  1
  O  O15  1  0.299057  0.703777  0.550351  1
  O  O16  1  0.597275  0.030671  0.750531  1
  O  O17  1  0.904001  0.529842  0.750822  1
  O  O18  1  0.200225  0.202367  0.948660  1
  O  O19  1  0.299904  0.702609  0.948789  1
