# generated using pymatgen
data_Y3Er5(AgIr)2
_symmetry_space_group_name_H-M   'P 1'
_cell_length_a   9.50670832
_cell_length_b   9.50670828
_cell_length_c   9.50670900
_cell_angle_alpha   60.00000099
_cell_angle_beta   60.00000110
_cell_angle_gamma   60.00000263
_symmetry_Int_Tables_number   1
_chemical_formula_structural   Y3Er5(AgIr)2
_chemical_formula_sum   'Y6 Er10 Ag4 Ir4'
_cell_volume   607.54094844
_cell_formula_units_Z   2
loop_
 _symmetry_equiv_pos_site_id
 _symmetry_equiv_pos_as_xyz
  1  'x, y, z'
loop_
 _atom_site_type_symbol
 _atom_site_label
 _atom_site_symmetry_multiplicity
 _atom_site_fract_x
 _atom_site_fract_y
 _atom_site_fract_z
 _atom_site_occupancy
  Y  Y0  1  0.937235  0.562765  0.562765  1
  Y  Y1  1  0.562765  0.937235  0.937235  1
  Y  Y2  1  0.562765  0.937235  0.562765  1
  Y  Y3  1  0.937235  0.562765  0.937235  1
  Y  Y4  1  0.562765  0.562765  0.937235  1
  Y  Y5  1  0.937235  0.937235  0.562765  1
  Er  Er6  1  0.351349  0.351349  0.351349  1
  Er  Er7  1  0.351349  0.351349  0.945955  1
  Er  Er8  1  0.351349  0.945955  0.351349  1
  Er  Er9  1  0.945955  0.351349  0.351349  1
  Er  Er10  1  0.811327  0.188673  0.188673  1
  Er  Er11  1  0.188673  0.811327  0.811327  1
  Er  Er12  1  0.188673  0.811327  0.188673  1
  Er  Er13  1  0.811327  0.188673  0.811327  1
  Er  Er14  1  0.188673  0.188673  0.811327  1
  Er  Er15  1  0.811327  0.811327  0.188673  1
  Ag  Ag16  1  0.581055  0.581055  0.581055  1
  Ag  Ag17  1  0.581055  0.581055  0.256835  1
  Ag  Ag18  1  0.581055  0.256835  0.581055  1
  Ag  Ag19  1  0.256835  0.581055  0.581055  1
  Ir  Ir20  1  0.142175  0.142175  0.142175  1
  Ir  Ir21  1  0.142175  0.142175  0.573475  1
  Ir  Ir22  1  0.142175  0.573475  0.142175  1
  Ir  Ir23  1  0.573475  0.142175  0.142175  1
