# generated using pymatgen
data_SmLuSc3Si7Pt9
_symmetry_space_group_name_H-M   'P 1'
_cell_length_a   10.05512800
_cell_length_b   10.05512725
_cell_length_c   3.98150300
_cell_angle_alpha   90.00000000
_cell_angle_beta   90.00000000
_cell_angle_gamma   119.99999588
_symmetry_Int_Tables_number   1
_chemical_formula_structural   SmLuSc3Si7Pt9
_chemical_formula_sum   'Sm1 Lu1 Sc3 Si7 Pt9'
_cell_volume   348.62046003
_cell_formula_units_Z   1
loop_
 _symmetry_equiv_pos_site_id
 _symmetry_equiv_pos_as_xyz
  1  'x, y, z'
loop_
 _atom_site_type_symbol
 _atom_site_label
 _atom_site_symmetry_multiplicity
 _atom_site_fract_x
 _atom_site_fract_y
 _atom_site_fract_z
 _atom_site_occupancy
  Sm  Sm0  1  0.000000  0.000000  0.000000  1
  Lu  Lu1  1  0.333333  0.666667  0.500000  1
  Sc  Sc2  1  0.895166  0.455502  0.500000  1
  Sc  Sc3  1  0.560336  0.104834  0.500000  1
  Sc  Sc4  1  0.544498  0.439664  0.500000  1
  Si  Si5  1  0.247263  0.196145  0.500000  1
  Si  Si6  1  0.803855  0.051121  0.500000  1
  Si  Si7  1  0.948879  0.752737  0.500000  1
  Si  Si8  1  0.555634  0.647214  0.000000  1
  Si  Si9  1  0.352786  0.908420  0.000000  1
  Si  Si10  1  0.091580  0.444366  0.000000  1
  Si  Si11  1  0.666667  0.333333  0.000000  1
  Pt  Pt12  1  0.220287  0.935367  0.500000  1
  Pt  Pt13  1  0.064633  0.284921  0.500000  1
  Pt  Pt14  1  0.715079  0.779713  0.500000  1
  Pt  Pt15  1  0.314235  0.414447  0.000000  1
  Pt  Pt16  1  0.585553  0.899787  0.000000  1
  Pt  Pt17  1  0.100213  0.685765  0.000000  1
  Pt  Pt18  1  0.383996  0.171557  0.000000  1
  Pt  Pt19  1  0.828443  0.212436  0.000000  1
  Pt  Pt20  1  0.787564  0.616004  0.000000  1
