# generated using pymatgen
data_Hf15ZrCo4MoIr3
_symmetry_space_group_name_H-M   'P 1'
_cell_length_a   8.57666650
_cell_length_b   8.60411040
_cell_length_c   8.63049466
_cell_angle_alpha   60.11018814
_cell_angle_beta   60.18401641
_cell_angle_gamma   59.89715058
_symmetry_Int_Tables_number   1
_chemical_formula_structural   Hf15ZrCo4MoIr3
_chemical_formula_sum   'Hf15 Zr1 Co4 Mo1 Ir3'
_cell_volume   450.98977070
_cell_formula_units_Z   1
loop_
 _symmetry_equiv_pos_site_id
 _symmetry_equiv_pos_as_xyz
  1  'x, y, z'
loop_
 _atom_site_type_symbol
 _atom_site_label
 _atom_site_symmetry_multiplicity
 _atom_site_fract_x
 _atom_site_fract_y
 _atom_site_fract_z
 _atom_site_occupancy
  Hf  Hf0  1  0.195383  0.601238  0.602073  1
  Hf  Hf1  1  0.601433  0.194685  0.601787  1
  Hf  Hf2  1  0.601403  0.602039  0.601700  1
  Hf  Hf3  1  0.604521  0.604494  0.186448  1
  Hf  Hf4  1  0.448373  0.450710  0.050327  1
  Hf  Hf5  1  0.052172  0.051480  0.446151  1
  Hf  Hf6  1  0.448345  0.050639  0.050386  1
  Hf  Hf7  1  0.052137  0.450279  0.446122  1
  Hf  Hf8  1  0.050785  0.449709  0.049849  1
  Hf  Hf9  1  0.448793  0.052464  0.446272  1
  Hf  Hf10  1  0.813808  0.813391  0.191249  1
  Hf  Hf11  1  0.186552  0.186170  0.814469  1
  Hf  Hf12  1  0.813730  0.181574  0.191306  1
  Hf  Hf13  1  0.186509  0.812870  0.814552  1
  Hf  Hf14  1  0.180383  0.814595  0.190373  1
  Zr  Zr15  1  0.814152  0.185164  0.815571  1
  Co  Co16  1  0.826296  0.392692  0.388272  1
  Co  Co17  1  0.393094  0.825812  0.388827  1
  Co  Co18  1  0.393103  0.392198  0.388823  1
  Co  Co19  1  0.390876  0.390817  0.827419  1
  Mo  Mo20  1  0.831442  0.831604  0.505439  1
  Ir  Ir21  1  0.495452  0.835279  0.834000  1
  Ir  Ir22  1  0.835628  0.496792  0.834297  1
  Ir  Ir23  1  0.835631  0.833305  0.834292  1
