# generated using pymatgen
data_Dy5Zr3P12Ir15Pt
_symmetry_space_group_name_H-M   'P 1'
_cell_length_a   12.91061370
_cell_length_b   12.91080517
_cell_length_c   3.98497800
_cell_angle_alpha   90.00000000
_cell_angle_beta   90.00000000
_cell_angle_gamma   119.74549415
_symmetry_Int_Tables_number   1
_chemical_formula_structural   Dy5Zr3P12Ir15Pt
_chemical_formula_sum   'Dy5 Zr3 P12 Ir15 Pt1'
_cell_volume   576.71978369
_cell_formula_units_Z   1
loop_
 _symmetry_equiv_pos_site_id
 _symmetry_equiv_pos_as_xyz
  1  'x, y, z'
loop_
 _atom_site_type_symbol
 _atom_site_label
 _atom_site_symmetry_multiplicity
 _atom_site_fract_x
 _atom_site_fract_y
 _atom_site_fract_z
 _atom_site_occupancy
  Dy  Dy0  1  0.330396  0.663125  0.500000  1
  Dy  Dy1  1  0.666747  0.333676  0.500000  1
  Dy  Dy2  1  0.000227  0.815681  0.000000  1
  Dy  Dy3  1  0.184876  0.184475  0.000000  1
  Dy  Dy4  1  0.816886  0.000391  0.000000  1
  Zr  Zr5  1  0.999885  0.449336  0.500000  1
  Zr  Zr6  1  0.551085  0.550368  0.500000  1
  Zr  Zr7  1  0.450457  0.999852  0.500000  1
  P  P8  1  0.999808  0.650075  0.500000  1
  P  P9  1  0.351063  0.350477  0.500000  1
  P  P10  1  0.654911  0.005819  0.500000  1
  P  P11  1  0.518836  0.682812  0.000000  1
  P  P12  1  0.307333  0.829902  0.000000  1
  P  P13  1  0.168821  0.481969  0.000000  1
  P  P14  1  0.483540  0.169207  0.000000  1
  P  P15  1  0.686550  0.517284  0.000000  1
  P  P16  1  0.831429  0.314382  0.000000  1
  P  P17  1  0.000679  0.176289  0.500000  1
  P  P18  1  0.824147  0.824305  0.500000  1
  P  P19  1  0.175519  0.000767  0.500000  1
  Ir  Ir20  1  0.135036  0.642762  0.000000  1
  Ir  Ir21  1  0.356108  0.492791  0.000000  1
  Ir  Ir22  1  0.493306  0.355887  0.000000  1
  Ir  Ir23  1  0.863107  0.506778  0.000000  1
  Ir  Ir24  1  0.645137  0.135716  0.000000  1
  Ir  Ir25  1  0.000770  0.279324  0.000000  1
  Ir  Ir26  1  0.721134  0.722221  0.000000  1
  Ir  Ir27  1  0.279189  0.000646  0.000000  1
  Ir  Ir28  1  0.627232  0.808003  0.500000  1
  Ir  Ir29  1  0.193904  0.822216  0.500000  1
  Ir  Ir30  1  0.178319  0.371096  0.500000  1
  Ir  Ir31  1  0.371592  0.177703  0.500000  1
  Ir  Ir32  1  0.806983  0.629425  0.500000  1
  Ir  Ir33  1  0.823874  0.196436  0.500000  1
  Ir  Ir34  1  0.999407  0.000023  0.500000  1
  Pt  Pt35  1  0.501708  0.858781  0.000000  1
