# generated using pymatgen
data_DyHo2Pa(VB4)4
_symmetry_space_group_name_H-M   'P 1'
_cell_length_a   3.47772300
_cell_length_b   5.99159700
_cell_length_c   11.59559615
_cell_angle_alpha   90.11400186
_cell_angle_beta   90.00000000
_cell_angle_gamma   90.00000000
_symmetry_Int_Tables_number   1
_chemical_formula_structural   DyHo2Pa(VB4)4
_chemical_formula_sum   'Dy1 Ho2 Pa1 V4 B16'
_cell_volume   241.61828873
_cell_formula_units_Z   1
loop_
 _symmetry_equiv_pos_site_id
 _symmetry_equiv_pos_as_xyz
  1  'x, y, z'
loop_
 _atom_site_type_symbol
 _atom_site_label
 _atom_site_symmetry_multiplicity
 _atom_site_fract_x
 _atom_site_fract_y
 _atom_site_fract_z
 _atom_site_occupancy
  Dy  Dy0  1  0.500000  0.874328  0.348044  1
  Ho  Ho1  1  0.500000  0.623497  0.850608  1
  Ho  Ho2  1  0.500000  0.375433  0.150670  1
  Pa  Pa3  1  0.500000  0.125873  0.651208  1
  V  V4  1  0.500000  0.126262  0.915823  1
  V  V5  1  0.500000  0.872604  0.082397  1
  V  V6  1  0.500000  0.627799  0.583796  1
  V  V7  1  0.500000  0.372043  0.418220  1
  B  B8  1  0.000000  0.475244  0.691704  1
  B  B9  1  0.000000  0.522650  0.306974  1
  B  B10  1  0.000000  0.976621  0.808637  1
  B  B11  1  0.000000  0.023565  0.192408  1
  B  B12  1  0.000000  0.285351  0.814794  1
  B  B13  1  0.000000  0.713775  0.185774  1
  B  B14  1  0.000000  0.785061  0.685114  1
  B  B15  1  0.000000  0.215595  0.313623  1
  B  B16  1  0.000000  0.365207  0.967757  1
  B  B17  1  0.000000  0.635158  0.032634  1
  B  B18  1  0.000000  0.864778  0.532612  1
  B  B19  1  0.000000  0.136770  0.467289  1
  B  B20  1  0.000000  0.387711  0.546588  1
  B  B21  1  0.000000  0.614386  0.452393  1
  B  B22  1  0.000000  0.885470  0.953421  1
  B  B23  1  0.000000  0.114819  0.047511  1
