# generated using pymatgen
data_Ti5ZnFe2(Co2B)4
_symmetry_space_group_name_H-M   'P 1'
_cell_length_a   8.51078700
_cell_length_b   8.51078700
_cell_length_c   2.96073900
_cell_angle_alpha   90.00000000
_cell_angle_beta   90.00000000
_cell_angle_gamma   90.00000000
_symmetry_Int_Tables_number   1
_chemical_formula_structural   Ti5ZnFe2(Co2B)4
_chemical_formula_sum   'Ti5 Zn1 Fe2 Co8 B4'
_cell_volume   214.45667462
_cell_formula_units_Z   1
loop_
 _symmetry_equiv_pos_site_id
 _symmetry_equiv_pos_as_xyz
  1  'x, y, z'
loop_
 _atom_site_type_symbol
 _atom_site_label
 _atom_site_symmetry_multiplicity
 _atom_site_fract_x
 _atom_site_fract_y
 _atom_site_fract_z
 _atom_site_occupancy
  Ti  Ti0  1  0.500000  0.500000  0.000000  1
  Ti  Ti1  1  0.829892  0.324950  0.000000  1
  Ti  Ti2  1  0.324950  0.170108  0.000000  1
  Ti  Ti3  1  0.675050  0.829892  0.000000  1
  Ti  Ti4  1  0.170108  0.675050  0.000000  1
  Zn  Zn5  1  0.000000  0.000000  0.000000  1
  Fe  Fe6  1  0.500000  0.000000  0.500000  1
  Fe  Fe7  1  0.000000  0.500000  0.500000  1
  Co  Co8  1  0.074378  0.218913  0.500000  1
  Co  Co9  1  0.218913  0.925622  0.500000  1
  Co  Co10  1  0.781087  0.074378  0.500000  1
  Co  Co11  1  0.925622  0.781087  0.500000  1
  Co  Co12  1  0.428432  0.718640  0.500000  1
  Co  Co13  1  0.571568  0.281360  0.500000  1
  Co  Co14  1  0.718640  0.571568  0.500000  1
  Co  Co15  1  0.281360  0.428432  0.500000  1
  B  B16  1  0.624702  0.121907  0.000000  1
  B  B17  1  0.121907  0.375298  0.000000  1
  B  B18  1  0.878093  0.624702  0.000000  1
  B  B19  1  0.375298  0.878093  0.000000  1
