# generated using pymatgen
data_YbZr(NbSe2)8
_symmetry_space_group_name_H-M   'P 1'
_cell_length_a   7.01227500
_cell_length_b   7.01227537
_cell_length_c   14.14825700
_cell_angle_alpha   90.00000000
_cell_angle_beta   90.00000000
_cell_angle_gamma   119.99999355
_symmetry_Int_Tables_number   1
_chemical_formula_structural   YbZr(NbSe2)8
_chemical_formula_sum   'Yb1 Zr1 Nb8 Se16'
_cell_volume   602.49230096
_cell_formula_units_Z   1
loop_
 _symmetry_equiv_pos_site_id
 _symmetry_equiv_pos_as_xyz
  1  'x, y, z'
loop_
 _atom_site_type_symbol
 _atom_site_label
 _atom_site_symmetry_multiplicity
 _atom_site_fract_x
 _atom_site_fract_y
 _atom_site_fract_z
 _atom_site_occupancy
  Yb  Yb0  1  0.000000  0.000000  0.500000  1
  Zr  Zr1  1  0.000000  0.000000  0.000000  1
  Nb  Nb2  1  0.000000  0.000000  0.237203  1
  Nb  Nb3  1  0.000000  0.000000  0.762797  1
  Nb  Nb4  1  0.506594  0.013187  0.238219  1
  Nb  Nb5  1  0.986813  0.493406  0.238219  1
  Nb  Nb6  1  0.506594  0.493406  0.238219  1
  Nb  Nb7  1  0.493406  0.986813  0.761781  1
  Nb  Nb8  1  0.013187  0.506594  0.761781  1
  Nb  Nb9  1  0.493406  0.506594  0.761781  1
  Se  Se10  1  0.333333  0.666667  0.883183  1
  Se  Se11  1  0.666667  0.333333  0.116817  1
  Se  Se12  1  0.666667  0.333333  0.360320  1
  Se  Se13  1  0.333333  0.666667  0.639680  1
  Se  Se14  1  0.168554  0.831446  0.355204  1
  Se  Se15  1  0.168554  0.337107  0.355204  1
  Se  Se16  1  0.662893  0.831446  0.355204  1
  Se  Se17  1  0.831446  0.168554  0.644796  1
  Se  Se18  1  0.831446  0.662893  0.644796  1
  Se  Se19  1  0.337107  0.168554  0.644796  1
  Se  Se20  1  0.829634  0.170366  0.879991  1
  Se  Se21  1  0.829634  0.659269  0.879991  1
  Se  Se22  1  0.340731  0.170366  0.879991  1
  Se  Se23  1  0.170366  0.829634  0.120009  1
  Se  Se24  1  0.170366  0.340731  0.120009  1
  Se  Se25  1  0.659269  0.829634  0.120009  1
