# generated using pymatgen
data_Er4Al18(OsPt)3
_symmetry_space_group_name_H-M   'P 1'
_cell_length_a   7.56595825
_cell_length_b   7.56595746
_cell_length_c   9.46946126
_cell_angle_alpha   90.06678145
_cell_angle_beta   90.06677895
_cell_angle_gamma   119.15305012
_symmetry_Int_Tables_number   1
_chemical_formula_structural   Er4Al18(OsPt)3
_chemical_formula_sum   'Er4 Al18 Os3 Pt3'
_cell_volume   473.39769038
_cell_formula_units_Z   1
loop_
 _symmetry_equiv_pos_site_id
 _symmetry_equiv_pos_as_xyz
  1  'x, y, z'
loop_
 _atom_site_type_symbol
 _atom_site_label
 _atom_site_symmetry_multiplicity
 _atom_site_fract_x
 _atom_site_fract_y
 _atom_site_fract_z
 _atom_site_occupancy
  Er  Er0  1  0.993375  0.674580  0.247386  1
  Er  Er1  1  0.005051  0.324256  0.751898  1
  Er  Er2  1  0.675744  0.994949  0.248102  1
  Er  Er3  1  0.325420  0.006625  0.752614  1
  Al  Al4  1  0.127574  0.128960  0.249878  1
  Al  Al5  1  0.871040  0.872426  0.750122  1
  Al  Al6  1  0.997153  0.331139  0.074791  1
  Al  Al7  1  0.994557  0.662001  0.924422  1
  Al  Al8  1  0.998492  0.668391  0.577156  1
  Al  Al9  1  0.331609  0.001508  0.422844  1
  Al  Al10  1  0.000787  0.332952  0.424337  1
  Al  Al11  1  0.667048  0.999213  0.575663  1
  Al  Al12  1  0.668861  0.002847  0.925209  1
  Al  Al13  1  0.337999  0.005443  0.075578  1
  Al  Al14  1  0.328529  0.329236  0.554596  1
  Al  Al15  1  0.670764  0.671471  0.445404  1
  Al  Al16  1  0.672709  0.666747  0.048157  1
  Al  Al17  1  0.333253  0.327291  0.951843  1
  Al  Al18  1  0.341252  0.548796  0.249432  1
  Al  Al19  1  0.657477  0.449678  0.753283  1
  Al  Al20  1  0.550322  0.342523  0.246717  1
  Al  Al21  1  0.451204  0.658748  0.750568  1
  Os  Os22  1  0.672227  0.327773  0.000000  1
  Os  Os23  1  0.001034  0.998966  0.000000  1
  Os  Os24  1  0.999529  0.000471  0.500000  1
  Pt  Pt25  1  0.328023  0.671977  0.000000  1
  Pt  Pt26  1  0.327443  0.672557  0.500000  1
  Pt  Pt27  1  0.671522  0.328478  0.500000  1
