# generated using pymatgen
data_Re5TcSb14
_symmetry_space_group_name_H-M   'P 1'
_cell_length_a   8.29273928
_cell_length_b   8.29273885
_cell_length_c   8.29274001
_cell_angle_alpha   109.38225474
_cell_angle_beta   109.38225166
_cell_angle_gamma   109.64930729
_symmetry_Int_Tables_number   1
_chemical_formula_structural   Re5TcSb14
_chemical_formula_sum   'Re5 Tc1 Sb14'
_cell_volume   439.00451389
_cell_formula_units_Z   1
loop_
 _symmetry_equiv_pos_site_id
 _symmetry_equiv_pos_as_xyz
  1  'x, y, z'
loop_
 _atom_site_type_symbol
 _atom_site_label
 _atom_site_symmetry_multiplicity
 _atom_site_fract_x
 _atom_site_fract_y
 _atom_site_fract_z
 _atom_site_occupancy
  Re  Re0  1  0.000089  0.339448  0.339358  1
  Re  Re1  1  0.000089  0.660731  0.660642  1
  Re  Re2  1  0.660731  0.000089  0.660642  1
  Re  Re3  1  0.339448  0.000089  0.339358  1
  Re  Re4  1  0.662276  0.662276  0.000000  1
  Tc  Tc5  1  0.337351  0.337351  0.000000  1
  Sb  Sb6  1  0.749847  0.249847  0.500000  1
  Sb  Sb7  1  0.499466  0.249711  0.750245  1
  Sb  Sb8  1  0.499466  0.749221  0.249755  1
  Sb  Sb9  1  0.249711  0.499466  0.750245  1
  Sb  Sb10  1  0.749221  0.499466  0.249755  1
  Sb  Sb11  1  0.249847  0.749847  0.500000  1
  Sb  Sb12  1  0.326868  0.326868  0.325999  1
  Sb  Sb13  1  0.000203  0.000203  0.326916  1
  Sb  Sb14  1  0.326868  0.000869  0.000000  1
  Sb  Sb15  1  0.000869  0.326868  0.000000  1
  Sb  Sb16  1  0.673288  0.000203  0.000000  1
  Sb  Sb17  1  0.000203  0.673288  0.000000  1
  Sb  Sb18  1  0.000869  0.000869  0.674001  1
  Sb  Sb19  1  0.673288  0.673288  0.673084  1
