# generated using pymatgen
data_LaTh7Zn8RuRh7
_symmetry_space_group_name_H-M   'P 1'
_cell_length_a   3.95457300
_cell_length_b   7.53170152
_cell_length_c   16.62596912
_cell_angle_alpha   89.53809053
_cell_angle_beta   90.00000000
_cell_angle_gamma   90.00000000
_symmetry_Int_Tables_number   1
_chemical_formula_structural   LaTh7Zn8RuRh7
_chemical_formula_sum   'La1 Th7 Zn8 Ru1 Rh7'
_cell_volume   495.18280310
_cell_formula_units_Z   1
loop_
 _symmetry_equiv_pos_site_id
 _symmetry_equiv_pos_as_xyz
  1  'x, y, z'
loop_
 _atom_site_type_symbol
 _atom_site_label
 _atom_site_symmetry_multiplicity
 _atom_site_fract_x
 _atom_site_fract_y
 _atom_site_fract_z
 _atom_site_occupancy
  La  La0  1  0.750000  0.940947  0.285602  1
  Th  Th1  1  0.750000  0.327360  0.440176  1
  Th  Th2  1  0.250000  0.064066  0.716804  1
  Th  Th3  1  0.250000  0.556343  0.785625  1
  Th  Th4  1  0.250000  0.674708  0.560717  1
  Th  Th5  1  0.750000  0.823143  0.059908  1
  Th  Th6  1  0.250000  0.174287  0.937303  1
  Th  Th7  1  0.750000  0.440537  0.214335  1
  Zn  Zn8  1  0.250000  0.113261  0.152580  1
  Zn  Zn9  1  0.250000  0.997701  0.440585  1
  Zn  Zn10  1  0.750000  0.886691  0.847216  1
  Zn  Zn11  1  0.750000  0.005381  0.560233  1
  Zn  Zn12  1  0.250000  0.491186  0.057920  1
  Zn  Zn13  1  0.750000  0.387350  0.653629  1
  Zn  Zn14  1  0.750000  0.503022  0.940397  1
  Zn  Zn15  1  0.250000  0.615739  0.347927  1
  Ru  Ru16  1  0.750000  0.258241  0.815342  1
  Rh  Rh17  1  0.250000  0.257173  0.315318  1
  Rh  Rh18  1  0.250000  0.753896  0.937440  1
  Rh  Rh19  1  0.250000  0.257128  0.561982  1
  Rh  Rh20  1  0.250000  0.728290  0.180188  1
  Rh  Rh21  1  0.750000  0.742638  0.440674  1
  Rh  Rh22  1  0.750000  0.240994  0.061870  1
  Rh  Rh23  1  0.750000  0.759920  0.686230  1
