# generated using pymatgen
data_Yb2HoLu(Al8Pt3)3
_symmetry_space_group_name_H-M   'P 1'
_cell_length_a   7.51676064
_cell_length_b   7.53958404
_cell_length_c   13.22119612
_cell_angle_alpha   84.64589856
_cell_angle_beta   79.13514828
_cell_angle_gamma   59.83831187
_symmetry_Int_Tables_number   1
_chemical_formula_structural   Yb2HoLu(Al8Pt3)3
_chemical_formula_sum   'Yb2 Ho1 Lu1 Al24 Pt9'
_cell_volume   636.22898815
_cell_formula_units_Z   1
loop_
 _symmetry_equiv_pos_site_id
 _symmetry_equiv_pos_as_xyz
  1  'x, y, z'
loop_
 _atom_site_type_symbol
 _atom_site_label
 _atom_site_symmetry_multiplicity
 _atom_site_fract_x
 _atom_site_fract_y
 _atom_site_fract_z
 _atom_site_occupancy
  Yb  Yb0  1  0.605847  0.831109  0.192549  1
  Yb  Yb1  1  0.733696  0.499530  0.807658  1
  Ho  Ho2  1  0.394848  0.168071  0.807867  1
  Lu  Lu3  1  0.266481  0.500570  0.193248  1
  Al  Al4  1  0.684348  0.833695  0.945579  1
  Al  Al5  1  0.315740  0.166820  0.056098  1
  Al  Al6  1  0.147395  0.831509  0.560913  1
  Al  Al7  1  0.852587  0.168744  0.438826  1
  Al  Al8  1  0.480320  0.165882  0.558568  1
  Al  Al9  1  0.520123  0.833944  0.440996  1
  Al  Al10  1  0.217807  0.164970  0.328368  1
  Al  Al11  1  0.782446  0.834391  0.671165  1
  Al  Al12  1  0.436838  0.507188  0.670812  1
  Al  Al13  1  0.563352  0.493359  0.328336  1
  Al  Al14  1  0.109032  0.160464  0.669205  1
  Al  Al15  1  0.890511  0.839589  0.330139  1
  Al  Al16  1  0.352412  0.499818  0.945297  1
  Al  Al17  1  0.646888  0.500254  0.055037  1
  Al  Al18  1  0.015557  0.167782  0.954195  1
  Al  Al19  1  0.984792  0.831526  0.046786  1
  Al  Al20  1  0.186193  0.500115  0.441137  1
  Al  Al21  1  0.814044  0.500077  0.558601  1
  Al  Al22  1  0.731313  0.167938  0.183102  1
  Al  Al23  1  0.265051  0.837675  0.816914  1
  Al  Al24  1  0.063883  0.629719  0.815768  1
  Al  Al25  1  0.941188  0.368163  0.184128  1
  Al  Al26  1  0.853785  0.040254  0.816195  1
  Al  Al27  1  0.143565  0.956666  0.183588  1
  Pt  Pt28  1  0.120398  0.491404  0.638150  1
  Pt  Pt29  1  0.880486  0.508371  0.361419  1
  Pt  Pt30  1  0.657345  0.171339  0.999684  1
  Pt  Pt31  1  0.342335  0.828928  0.000421  1
  Pt  Pt32  1  0.537111  0.167480  0.361429  1
  Pt  Pt33  1  0.462077  0.833288  0.638042  1
  Pt  Pt34  1  0.779239  0.174639  0.636772  1
  Pt  Pt35  1  0.220584  0.824894  0.362877  1
  Pt  Pt36  1  0.000382  0.499836  0.000134  1
