# generated using pymatgen
data_Ca6SbRuO12
_symmetry_space_group_name_H-M   'P 1'
_cell_length_a   6.60249818
_cell_length_b   6.60249745
_cell_length_c   6.60249931
_cell_angle_alpha   91.96576401
_cell_angle_beta   91.96576968
_cell_angle_gamma   91.96577324
_symmetry_Int_Tables_number   1
_chemical_formula_structural   Ca6SbRuO12
_chemical_formula_sum   'Ca6 Sb1 Ru1 O12'
_cell_volume   287.30251393
_cell_formula_units_Z   1
loop_
 _symmetry_equiv_pos_site_id
 _symmetry_equiv_pos_as_xyz
  1  'x, y, z'
loop_
 _atom_site_type_symbol
 _atom_site_label
 _atom_site_symmetry_multiplicity
 _atom_site_fract_x
 _atom_site_fract_y
 _atom_site_fract_z
 _atom_site_occupancy
  Ca  Ca0  1  0.933254  0.434852  0.749941  1
  Ca  Ca1  1  0.749941  0.933254  0.434852  1
  Ca  Ca2  1  0.565148  0.250059  0.066746  1
  Ca  Ca3  1  0.434852  0.749941  0.933254  1
  Ca  Ca4  1  0.250059  0.066746  0.565148  1
  Ca  Ca5  1  0.066746  0.565148  0.250059  1
  Sb  Sb6  1  0.000000  0.000000  0.000000  1
  Ru  Ru7  1  0.500000  0.500000  0.500000  1
  O  O8  1  0.930653  0.290540  0.070685  1
  O  O9  1  0.929315  0.069347  0.709460  1
  O  O10  1  0.778199  0.574946  0.453017  1
  O  O11  1  0.709460  0.929315  0.069347  1
  O  O12  1  0.574946  0.453017  0.778199  1
  O  O13  1  0.546983  0.221801  0.425054  1
  O  O14  1  0.453017  0.778199  0.574946  1
  O  O15  1  0.425054  0.546983  0.221801  1
  O  O16  1  0.290540  0.070685  0.930653  1
  O  O17  1  0.221801  0.425054  0.546983  1
  O  O18  1  0.070685  0.930653  0.290540  1
  O  O19  1  0.069347  0.709460  0.929315  1
