# generated using pymatgen
data_Nd6Ti2Fe(Co5P4)3
_symmetry_space_group_name_H-M   'P 1'
_cell_length_a   3.77156300
_cell_length_b   10.78693800
_cell_length_c   12.49708100
_cell_angle_alpha   90.00000000
_cell_angle_beta   90.00000000
_cell_angle_gamma   90.00000000
_symmetry_Int_Tables_number   1
_chemical_formula_structural   Nd6Ti2Fe(Co5P4)3
_chemical_formula_sum   'Nd6 Ti2 Fe1 Co15 P12'
_cell_volume   508.42644758
_cell_formula_units_Z   1
loop_
 _symmetry_equiv_pos_site_id
 _symmetry_equiv_pos_as_xyz
  1  'x, y, z'
loop_
 _atom_site_type_symbol
 _atom_site_label
 _atom_site_symmetry_multiplicity
 _atom_site_fract_x
 _atom_site_fract_y
 _atom_site_fract_z
 _atom_site_occupancy
  Nd  Nd0  1  0.000000  0.500000  0.524353  1
  Nd  Nd1  1  0.500000  0.000000  0.475154  1
  Nd  Nd2  1  0.500000  0.819867  0.204783  1
  Nd  Nd3  1  0.500000  0.180133  0.204783  1
  Nd  Nd4  1  0.000000  0.678789  0.795669  1
  Nd  Nd5  1  0.000000  0.321211  0.795669  1
  Ti  Ti6  1  0.500000  0.500000  0.149950  1
  Ti  Ti7  1  0.000000  0.000000  0.848753  1
  Fe  Fe8  1  0.000000  0.500000  0.989528  1
  Co  Co9  1  0.500000  0.500000  0.703768  1
  Co  Co10  1  0.000000  0.000000  0.295707  1
  Co  Co11  1  0.500000  0.000000  0.011069  1
  Co  Co12  1  0.500000  0.330082  0.995840  1
  Co  Co13  1  0.500000  0.669918  0.995840  1
  Co  Co14  1  0.000000  0.166628  0.004791  1
  Co  Co15  1  0.000000  0.833372  0.004791  1
  Co  Co16  1  0.500000  0.296048  0.431896  1
  Co  Co17  1  0.500000  0.703952  0.431896  1
  Co  Co18  1  0.000000  0.203990  0.568625  1
  Co  Co19  1  0.000000  0.796010  0.568625  1
  Co  Co20  1  0.500000  0.880717  0.706237  1
  Co  Co21  1  0.500000  0.119283  0.706237  1
  Co  Co22  1  0.000000  0.619718  0.293525  1
  Co  Co23  1  0.000000  0.380282  0.293525  1
  P  P24  1  0.500000  0.500000  0.890236  1
  P  P25  1  0.000000  0.000000  0.112571  1
  P  P26  1  0.500000  0.500000  0.347729  1
  P  P27  1  0.000000  0.000000  0.651694  1
  P  P28  1  0.500000  0.305443  0.614236  1
  P  P29  1  0.500000  0.694557  0.614236  1
  P  P30  1  0.000000  0.194804  0.385978  1
  P  P31  1  0.000000  0.805196  0.385978  1
  P  P32  1  0.500000  0.844548  0.894568  1
  P  P33  1  0.500000  0.155452  0.894568  1
  P  P34  1  0.000000  0.654972  0.103596  1
  P  P35  1  0.000000  0.345028  0.103596  1
