# generated using pymatgen
data_YLu2Al12Os3Rh
_symmetry_space_group_name_H-M   'P 1'
_cell_length_a   8.76447173
_cell_length_b   8.83253918
_cell_length_c   9.56063000
_cell_angle_alpha   90.00000000
_cell_angle_beta   90.00000000
_cell_angle_gamma   120.21710707
_symmetry_Int_Tables_number   1
_chemical_formula_structural   YLu2Al12Os3Rh
_chemical_formula_sum   'Y2 Lu4 Al24 Os6 Rh2'
_cell_volume   639.54953033
_cell_formula_units_Z   2
loop_
 _symmetry_equiv_pos_site_id
 _symmetry_equiv_pos_as_xyz
  1  'x, y, z'
loop_
 _atom_site_type_symbol
 _atom_site_label
 _atom_site_symmetry_multiplicity
 _atom_site_fract_x
 _atom_site_fract_y
 _atom_site_fract_z
 _atom_site_occupancy
  Y  Y0  1  0.198355  0.813472  0.250000  1
  Y  Y1  1  0.801645  0.186528  0.750000  1
  Lu  Lu2  1  0.201932  0.389487  0.250000  1
  Lu  Lu3  1  0.798068  0.610513  0.750000  1
  Lu  Lu4  1  0.606404  0.803021  0.250000  1
  Lu  Lu5  1  0.393596  0.196979  0.750000  1
  Al  Al6  1  0.333762  0.666616  0.022679  1
  Al  Al7  1  0.666238  0.333384  0.977321  1
  Al  Al8  1  0.666238  0.333384  0.522679  1
  Al  Al9  1  0.333762  0.666616  0.477321  1
  Al  Al10  1  0.163420  0.326173  0.577006  1
  Al  Al11  1  0.836580  0.673827  0.422994  1
  Al  Al12  1  0.671745  0.835227  0.575528  1
  Al  Al13  1  0.836580  0.673827  0.077006  1
  Al  Al14  1  0.328255  0.164773  0.424472  1
  Al  Al15  1  0.163420  0.326173  0.922994  1
  Al  Al16  1  0.162781  0.837488  0.578055  1
  Al  Al17  1  0.328255  0.164773  0.075528  1
  Al  Al18  1  0.837219  0.162512  0.421945  1
  Al  Al19  1  0.671745  0.835227  0.924472  1
  Al  Al20  1  0.837219  0.162512  0.078055  1
  Al  Al21  1  0.162781  0.837488  0.921945  1
  Al  Al22  1  0.565235  0.125749  0.250000  1
  Al  Al23  1  0.434765  0.874251  0.750000  1
  Al  Al24  1  0.879965  0.439443  0.250000  1
  Al  Al25  1  0.120035  0.560557  0.750000  1
  Al  Al26  1  0.564017  0.439444  0.250000  1
  Al  Al27  1  0.435983  0.560556  0.750000  1
  Al  Al28  1  0.000295  0.002925  0.250000  1
  Al  Al29  1  0.999705  0.997075  0.750000  1
  Os  Os30  1  0.500000  0.000000  0.000000  1
  Os  Os31  1  0.500000  0.000000  0.500000  1
  Os  Os32  1  0.500000  0.500000  0.000000  1
  Os  Os33  1  0.500000  0.500000  0.500000  1
  Os  Os34  1  0.000000  0.000000  0.000000  1
  Os  Os35  1  0.000000  0.000000  0.500000  1
  Rh  Rh36  1  0.000000  0.500000  0.000000  1
  Rh  Rh37  1  0.000000  0.500000  0.500000  1
