# generated using pymatgen
data_Nd2HgPdRh
_symmetry_space_group_name_H-M   'P 1'
_cell_length_a   7.78720339
_cell_length_b   7.78720365
_cell_length_c   3.87815300
_cell_angle_alpha   90.00000000
_cell_angle_beta   90.00000000
_cell_angle_gamma   90.58051943
_symmetry_Int_Tables_number   1
_chemical_formula_structural   Nd2HgPdRh
_chemical_formula_sum   'Nd4 Hg2 Pd2 Rh2'
_cell_volume   235.16121592
_cell_formula_units_Z   2
loop_
 _symmetry_equiv_pos_site_id
 _symmetry_equiv_pos_as_xyz
  1  'x, y, z'
loop_
 _atom_site_type_symbol
 _atom_site_label
 _atom_site_symmetry_multiplicity
 _atom_site_fract_x
 _atom_site_fract_y
 _atom_site_fract_z
 _atom_site_occupancy
  Nd  Nd0  1  0.680364  0.180364  0.500000  1
  Nd  Nd1  1  0.319636  0.819636  0.500000  1
  Nd  Nd2  1  0.167510  0.332490  0.500000  1
  Nd  Nd3  1  0.832490  0.667510  0.500000  1
  Hg  Hg4  1  0.000000  0.000000  0.000000  1
  Hg  Hg5  1  0.500000  0.500000  0.000000  1
  Pd  Pd6  1  0.626942  0.873058  0.000000  1
  Pd  Pd7  1  0.373058  0.126942  0.000000  1
  Rh  Rh8  1  0.129988  0.629988  0.000000  1
  Rh  Rh9  1  0.870012  0.370012  0.000000  1
