# generated using pymatgen
data_Ho4Ga4Ir3Au
_symmetry_space_group_name_H-M   'P 1'
_cell_length_a   6.83438510
_cell_length_b   4.40366000
_cell_length_c   7.76606625
_cell_angle_alpha   90.00000000
_cell_angle_beta   90.64505206
_cell_angle_gamma   90.00000000
_symmetry_Int_Tables_number   1
_chemical_formula_structural   Ho4Ga4Ir3Au
_chemical_formula_sum   'Ho4 Ga4 Ir3 Au1'
_cell_volume   233.71511165
_cell_formula_units_Z   1
loop_
 _symmetry_equiv_pos_site_id
 _symmetry_equiv_pos_as_xyz
  1  'x, y, z'
loop_
 _atom_site_type_symbol
 _atom_site_label
 _atom_site_symmetry_multiplicity
 _atom_site_fract_x
 _atom_site_fract_y
 _atom_site_fract_z
 _atom_site_occupancy
  Ho  Ho0  1  0.465943  0.250001  0.189246  1
  Ho  Ho1  1  0.982973  0.250001  0.318213  1
  Ho  Ho2  1  0.022009  0.750000  0.687405  1
  Ho  Ho3  1  0.513918  0.750000  0.803088  1
  Ga  Ga4  1  0.172357  0.750000  0.066691  1
  Ga  Ga5  1  0.652480  0.750000  0.438729  1
  Ga  Ga6  1  0.342600  0.250001  0.570288  1
  Ga  Ga7  1  0.846702  0.250001  0.926276  1
  Ir  Ir8  1  0.269248  0.750000  0.389669  1
  Ir  Ir9  1  0.730664  0.250001  0.608929  1
  Ir  Ir10  1  0.229519  0.250001  0.889441  1
  Au  Au11  1  0.771587  0.750000  0.112028  1
