# generated using pymatgen
data_Na2La4LuAu10
_symmetry_space_group_name_H-M   'P 1'
_cell_length_a   8.80550239
_cell_length_b   8.80550392
_cell_length_c   10.75494900
_cell_angle_alpha   90.00000000
_cell_angle_beta   90.00000000
_cell_angle_gamma   105.71051081
_symmetry_Int_Tables_number   1
_chemical_formula_structural   Na2La4LuAu10
_chemical_formula_sum   'Na4 La8 Lu2 Au20'
_cell_volume   802.75229381
_cell_formula_units_Z   2
loop_
 _symmetry_equiv_pos_site_id
 _symmetry_equiv_pos_as_xyz
  1  'x, y, z'
loop_
 _atom_site_type_symbol
 _atom_site_label
 _atom_site_symmetry_multiplicity
 _atom_site_fract_x
 _atom_site_fract_y
 _atom_site_fract_z
 _atom_site_occupancy
  Na  Na0  1  0.514088  0.014088  0.250000  1
  Na  Na1  1  0.985912  0.485912  0.750000  1
  Na  Na2  1  0.014088  0.514088  0.250000  1
  Na  Na3  1  0.485912  0.985912  0.750000  1
  La  La4  1  0.701778  0.298222  0.000000  1
  La  La5  1  0.201778  0.798222  0.500000  1
  La  La6  1  0.802392  0.802392  0.297338  1
  La  La7  1  0.302392  0.302392  0.202662  1
  La  La8  1  0.798222  0.201778  0.500000  1
  La  La9  1  0.298222  0.701778  0.000000  1
  La  La10  1  0.697608  0.697608  0.797338  1
  La  La11  1  0.197608  0.197608  0.702662  1
  Lu  Lu12  1  0.000000  0.000000  0.000000  1
  Lu  Lu13  1  0.500000  0.500000  0.500000  1
  Au  Au14  1  0.154663  0.430743  0.486282  1
  Au  Au15  1  0.903012  0.903012  0.594304  1
  Au  Au16  1  0.569257  0.845337  0.513718  1
  Au  Au17  1  0.882825  0.159742  0.207385  1
  Au  Au18  1  0.382825  0.659742  0.292615  1
  Au  Au19  1  0.659742  0.382825  0.292615  1
  Au  Au20  1  0.403012  0.403012  0.905696  1
  Au  Au21  1  0.930743  0.654663  0.013718  1
  Au  Au22  1  0.340258  0.617175  0.707385  1
  Au  Au23  1  0.345337  0.069257  0.986282  1
  Au  Au24  1  0.596988  0.596988  0.094304  1
  Au  Au25  1  0.654663  0.930743  0.013718  1
  Au  Au26  1  0.096988  0.096988  0.405696  1
  Au  Au27  1  0.617175  0.340258  0.707385  1
  Au  Au28  1  0.117175  0.840258  0.792615  1
  Au  Au29  1  0.069257  0.345337  0.986282  1
  Au  Au30  1  0.845337  0.569257  0.513718  1
  Au  Au31  1  0.159742  0.882825  0.207385  1
  Au  Au32  1  0.430743  0.154663  0.486282  1
  Au  Au33  1  0.840258  0.117175  0.792615  1
