# generated using pymatgen
data_Nb6SiGe5(MoRu2)2
_symmetry_space_group_name_H-M   'P 1'
_cell_length_a   7.62835404
_cell_length_b   7.63507087
_cell_length_c   7.62835437
_cell_angle_alpha   126.71336178
_cell_angle_beta   124.42457926
_cell_angle_gamma   80.58899057
_symmetry_Int_Tables_number   1
_chemical_formula_structural   Nb6SiGe5(MoRu2)2
_chemical_formula_sum   'Nb6 Si1 Ge5 Mo2 Ru4'
_cell_volume   283.38355967
_cell_formula_units_Z   1
loop_
 _symmetry_equiv_pos_site_id
 _symmetry_equiv_pos_as_xyz
  1  'x, y, z'
loop_
 _atom_site_type_symbol
 _atom_site_label
 _atom_site_symmetry_multiplicity
 _atom_site_fract_x
 _atom_site_fract_y
 _atom_site_fract_z
 _atom_site_occupancy
  Nb  Nb0  1  0.560229  0.096715  0.036487  1
  Nb  Nb1  1  0.438932  0.476932  0.538000  1
  Nb  Nb2  1  0.957915  0.489991  0.032075  1
  Nb  Nb3  1  0.038901  0.066059  0.527159  1
  Nb  Nb4  1  0.753092  0.917671  0.664578  1
  Nb  Nb5  1  0.249296  0.918284  0.168988  1
  Si  Si6  1  0.780298  0.553586  0.273288  1
  Ge  Ge7  1  0.217748  0.488991  0.771243  1
  Ge  Ge8  1  0.334636  0.817597  0.490921  1
  Ge  Ge9  1  0.666283  0.158380  0.483927  1
  Ge  Ge10  1  0.826676  0.817597  0.982962  1
  Ge  Ge11  1  0.174453  0.158380  0.992098  1
  Mo  Mo12  1  0.506427  0.252101  0.757225  1
  Mo  Mo13  1  0.994876  0.252101  0.245675  1
  Ru  Ru14  1  0.158969  0.745526  0.652880  1
  Ru  Ru15  1  0.831122  0.493380  0.575881  1
  Ru  Ru16  1  0.592646  0.745526  0.086557  1
  Ru  Ru17  1  0.417499  0.493380  0.162259  1
