# generated using pymatgen
data_YHo3Al15(SiRh2)3
_symmetry_space_group_name_H-M   'P 1'
_cell_length_a   7.54174113
_cell_length_b   7.49024629
_cell_length_c   9.39321051
_cell_angle_alpha   89.97443013
_cell_angle_beta   89.95053188
_cell_angle_gamma   119.83313904
_symmetry_Int_Tables_number   1
_chemical_formula_structural   YHo3Al15(SiRh2)3
_chemical_formula_sum   'Y1 Ho3 Al15 Si3 Rh6'
_cell_volume   460.29874767
_cell_formula_units_Z   1
loop_
 _symmetry_equiv_pos_site_id
 _symmetry_equiv_pos_as_xyz
  1  'x, y, z'
loop_
 _atom_site_type_symbol
 _atom_site_label
 _atom_site_symmetry_multiplicity
 _atom_site_fract_x
 _atom_site_fract_y
 _atom_site_fract_z
 _atom_site_occupancy
  Y  Y0  1  0.319689  0.992460  0.749924  1
  Ho  Ho1  1  0.994407  0.664463  0.247272  1
  Ho  Ho2  1  0.006166  0.341591  0.753962  1
  Ho  Ho3  1  0.675499  0.001211  0.247670  1
  Al  Al4  1  0.128388  0.126108  0.249986  1
  Al  Al5  1  0.871588  0.871471  0.749364  1
  Al  Al6  1  0.338574  0.002652  0.423008  1
  Al  Al7  1  0.001086  0.330387  0.429407  1
  Al  Al8  1  0.666468  0.002037  0.575465  1
  Al  Al9  1  0.662553  0.998348  0.922493  1
  Al  Al10  1  0.338594  0.002830  0.077270  1
  Al  Al11  1  0.333121  0.331580  0.555213  1
  Al  Al12  1  0.664070  0.668077  0.445861  1
  Al  Al13  1  0.663691  0.667679  0.055574  1
  Al  Al14  1  0.335491  0.332199  0.945227  1
  Al  Al15  1  0.338059  0.550577  0.250239  1
  Al  Al16  1  0.661944  0.450397  0.750469  1
  Al  Al17  1  0.548759  0.343113  0.249990  1
  Al  Al18  1  0.454627  0.657686  0.749768  1
  Si  Si19  1  0.001934  0.328776  0.075757  1
  Si  Si20  1  0.996992  0.671327  0.930620  1
  Si  Si21  1  0.998209  0.665350  0.565076  1
  Rh  Rh22  1  0.689418  0.337262  0.001439  1
  Rh  Rh23  1  0.310703  0.662927  0.997500  1
  Rh  Rh24  1  0.319288  0.670438  0.502495  1
  Rh  Rh25  1  0.680120  0.335830  0.499594  1
  Rh  Rh26  1  0.999872  0.000110  0.999372  1
  Rh  Rh27  1  0.000686  0.993114  0.499989  1
