# generated using pymatgen
data_La2SiPdI2
_symmetry_space_group_name_H-M   'P 1'
_cell_length_a   4.41004400
_cell_length_b   4.41004302
_cell_length_c   11.83754300
_cell_angle_alpha   90.00000000
_cell_angle_beta   90.00000000
_cell_angle_gamma   120.00000738
_symmetry_Int_Tables_number   1
_chemical_formula_structural   La2SiPdI2
_chemical_formula_sum   'La2 Si1 Pd1 I2'
_cell_volume   199.37831311
_cell_formula_units_Z   1
loop_
 _symmetry_equiv_pos_site_id
 _symmetry_equiv_pos_as_xyz
  1  'x, y, z'
loop_
 _atom_site_type_symbol
 _atom_site_label
 _atom_site_symmetry_multiplicity
 _atom_site_fract_x
 _atom_site_fract_y
 _atom_site_fract_z
 _atom_site_occupancy
  La  La0  1  0.000000  0.000000  0.159442  1
  La  La1  1  0.000000  0.000000  0.838803  1
  Si  Si2  1  0.666667  0.333333  0.992635  1
  Pd  Pd3  1  0.333333  0.666667  0.005937  1
  I  I4  1  0.333333  0.666667  0.659097  1
  I  I5  1  0.666667  0.333333  0.344086  1
