# generated using pymatgen
data_La8NdThRu4
_symmetry_space_group_name_H-M   'P 1'
_cell_length_a   9.14489076
_cell_length_b   9.14489301
_cell_length_c   7.32058361
_cell_angle_alpha   85.30872564
_cell_angle_beta   85.30872223
_cell_angle_gamma   42.91510496
_symmetry_Int_Tables_number   1
_chemical_formula_structural   La8NdThRu4
_chemical_formula_sum   'La8 Nd1 Th1 Ru4'
_cell_volume   415.25194352
_cell_formula_units_Z   1
loop_
 _symmetry_equiv_pos_site_id
 _symmetry_equiv_pos_as_xyz
  1  'x, y, z'
loop_
 _atom_site_type_symbol
 _atom_site_label
 _atom_site_symmetry_multiplicity
 _atom_site_fract_x
 _atom_site_fract_y
 _atom_site_fract_z
 _atom_site_occupancy
  La  La0  1  0.013029  0.803627  0.908746  1
  La  La1  1  0.196373  0.986971  0.591254  1
  La  La2  1  0.983176  0.200151  0.092216  1
  La  La3  1  0.799849  0.016824  0.407784  1
  La  La4  1  0.360207  0.213271  0.819277  1
  La  La5  1  0.786729  0.639793  0.680723  1
  La  La6  1  0.640032  0.787825  0.180334  1
  La  La7  1  0.212175  0.359968  0.319666  1
  Nd  Nd8  1  0.425591  0.574409  0.250000  1
  Th  Th9  1  0.567214  0.432786  0.750000  1
  Ru  Ru10  1  0.193420  0.594025  0.586847  1
  Ru  Ru11  1  0.405975  0.806580  0.913153  1
  Ru  Ru12  1  0.815115  0.398886  0.432142  1
  Ru  Ru13  1  0.601114  0.184885  0.067858  1
