# generated using pymatgen
data_TmHfFeB6
_symmetry_space_group_name_H-M   'P 1'
_cell_length_a   3.40825100
_cell_length_b   8.91190700
_cell_length_c   11.26212500
_cell_angle_alpha   90.00000000
_cell_angle_beta   90.00000000
_cell_angle_gamma   90.00000000
_symmetry_Int_Tables_number   1
_chemical_formula_structural   TmHfFeB6
_chemical_formula_sum   'Tm4 Hf4 Fe4 B24'
_cell_volume   342.07596432
_cell_formula_units_Z   4
loop_
 _symmetry_equiv_pos_site_id
 _symmetry_equiv_pos_as_xyz
  1  'x, y, z'
loop_
 _atom_site_type_symbol
 _atom_site_label
 _atom_site_symmetry_multiplicity
 _atom_site_fract_x
 _atom_site_fract_y
 _atom_site_fract_z
 _atom_site_occupancy
  Tm  Tm0  1  0.000000  0.822861  0.085814  1
  Tm  Tm1  1  0.000000  0.177139  0.914186  1
  Tm  Tm2  1  0.000000  0.322861  0.414186  1
  Tm  Tm3  1  0.000000  0.677139  0.585814  1
  Hf  Hf4  1  0.000000  0.443604  0.128243  1
  Hf  Hf5  1  0.000000  0.556396  0.871757  1
  Hf  Hf6  1  0.000000  0.943604  0.371757  1
  Hf  Hf7  1  0.000000  0.056396  0.628243  1
  Fe  Fe8  1  0.000000  0.142596  0.182519  1
  Fe  Fe9  1  0.000000  0.857404  0.817481  1
  Fe  Fe10  1  0.000000  0.642596  0.317481  1
  Fe  Fe11  1  0.000000  0.357404  0.682519  1
  B  B12  1  0.500000  0.054349  0.067153  1
  B  B13  1  0.500000  0.945651  0.932847  1
  B  B14  1  0.500000  0.554349  0.432847  1
  B  B15  1  0.500000  0.445651  0.567153  1
  B  B16  1  0.500000  0.249954  0.082466  1
  B  B17  1  0.500000  0.750046  0.917534  1
  B  B18  1  0.500000  0.749954  0.417534  1
  B  B19  1  0.500000  0.250046  0.582466  1
  B  B20  1  0.500000  0.293841  0.235981  1
  B  B21  1  0.500000  0.706159  0.764019  1
  B  B22  1  0.500000  0.793841  0.264019  1
  B  B23  1  0.500000  0.206159  0.735981  1
  B  B24  1  0.500000  0.131231  0.315858  1
  B  B25  1  0.500000  0.868769  0.684142  1
  B  B26  1  0.500000  0.631231  0.184142  1
  B  B27  1  0.500000  0.368769  0.815858  1
  B  B28  1  0.500000  0.483759  0.288054  1
  B  B29  1  0.500000  0.516241  0.711946  1
  B  B30  1  0.500000  0.983759  0.211946  1
  B  B31  1  0.500000  0.016241  0.788054  1
  B  B32  1  0.500000  0.102064  0.472604  1
  B  B33  1  0.500000  0.897936  0.527396  1
  B  B34  1  0.500000  0.602064  0.027396  1
  B  B35  1  0.500000  0.397936  0.972604  1
