# generated using pymatgen
data_CaPr2Be(PPd4)5
_symmetry_space_group_name_H-M   'P 1'
_cell_length_a   8.72888976
_cell_length_b   8.69583253
_cell_length_c   8.69583159
_cell_angle_alpha   60.25166563
_cell_angle_beta   59.87416797
_cell_angle_gamma   59.87416477
_symmetry_Int_Tables_number   1
_chemical_formula_structural   CaPr2Be(PPd4)5
_chemical_formula_sum   'Ca1 Pr2 Be1 P5 Pd20'
_cell_volume   466.71707777
_cell_formula_units_Z   1
loop_
 _symmetry_equiv_pos_site_id
 _symmetry_equiv_pos_as_xyz
  1  'x, y, z'
loop_
 _atom_site_type_symbol
 _atom_site_label
 _atom_site_symmetry_multiplicity
 _atom_site_fract_x
 _atom_site_fract_y
 _atom_site_fract_z
 _atom_site_occupancy
  Ca  Ca0  1  0.997202  0.002798  0.002798  1
  Pr  Pr1  1  0.249802  0.250198  0.250198  1
  Pr  Pr2  1  0.749802  0.750198  0.750198  1
  Be  Be3  1  0.732496  0.267504  0.267504  1
  P  P4  1  0.261443  0.738557  0.738557  1
  P  P5  1  0.263672  0.736328  0.262422  1
  P  P6  1  0.737578  0.262422  0.736328  1
  P  P7  1  0.263672  0.262422  0.736328  1
  P  P8  1  0.737578  0.736328  0.262422  1
  Pd  Pd9  1  0.388237  0.384765  0.384765  1
  Pd  Pd10  1  0.614076  0.613321  0.613321  1
  Pd  Pd11  1  0.386679  0.385924  0.840718  1
  Pd  Pd12  1  0.386679  0.840718  0.385924  1
  Pd  Pd13  1  0.615235  0.611763  0.157766  1
  Pd  Pd14  1  0.615235  0.157766  0.611763  1
  Pd  Pd15  1  0.842234  0.384765  0.384765  1
  Pd  Pd16  1  0.159282  0.613321  0.613321  1
  Pd  Pd17  1  0.344763  0.001014  0.001014  1
  Pd  Pd18  1  0.653209  0.001014  0.001014  1
  Pd  Pd19  1  0.998986  0.346791  0.655237  1
  Pd  Pd20  1  0.998986  0.655237  0.346791  1
  Pd  Pd21  1  0.997162  0.343712  0.002838  1
  Pd  Pd22  1  0.656288  0.002838  0.343712  1
  Pd  Pd23  1  0.000427  0.652300  0.999573  1
  Pd  Pd24  1  0.347700  0.999573  0.652300  1
  Pd  Pd25  1  0.997162  0.002838  0.343712  1
  Pd  Pd26  1  0.000427  0.999573  0.652300  1
  Pd  Pd27  1  0.656288  0.343712  0.002838  1
  Pd  Pd28  1  0.347700  0.652300  0.999573  1
