# generated using pymatgen
data_Dy5Er11(TmSn4)4
_symmetry_space_group_name_H-M   'P 1'
_cell_length_a   7.99297265
_cell_length_b   8.11272649
_cell_length_c   15.35151702
_cell_angle_alpha   90.00486084
_cell_angle_beta   89.85819876
_cell_angle_gamma   89.87213591
_symmetry_Int_Tables_number   1
_chemical_formula_structural   Dy5Er11(TmSn4)4
_chemical_formula_sum   'Dy5 Er11 Tm4 Sn16'
_cell_volume   995.46053328
_cell_formula_units_Z   1
loop_
 _symmetry_equiv_pos_site_id
 _symmetry_equiv_pos_as_xyz
  1  'x, y, z'
loop_
 _atom_site_type_symbol
 _atom_site_label
 _atom_site_symmetry_multiplicity
 _atom_site_fract_x
 _atom_site_fract_y
 _atom_site_fract_z
 _atom_site_occupancy
  Dy  Dy0  1  0.978694  0.820453  0.097109  1
  Dy  Dy1  1  0.478794  0.678844  0.096595  1
  Dy  Dy2  1  0.978340  0.820801  0.403155  1
  Dy  Dy3  1  0.521471  0.320982  0.596699  1
  Dy  Dy4  1  0.020877  0.179527  0.903372  1
  Er  Er5  1  0.367198  0.837035  0.877083  1
  Er  Er6  1  0.867946  0.662828  0.622617  1
  Er  Er7  1  0.631812  0.163041  0.377368  1
  Er  Er8  1  0.132466  0.337234  0.122817  1
  Er  Er9  1  0.632258  0.162987  0.122903  1
  Er  Er10  1  0.131715  0.337047  0.377593  1
  Er  Er11  1  0.368454  0.837142  0.622632  1
  Er  Er12  1  0.867450  0.662604  0.877078  1
  Er  Er13  1  0.522262  0.320805  0.902585  1
  Er  Er14  1  0.022668  0.179080  0.597432  1
  Er  Er15  1  0.477199  0.678760  0.402730  1
  Tm  Tm16  1  0.198603  0.503882  0.749908  1
  Tm  Tm17  1  0.698499  0.996198  0.749806  1
  Tm  Tm18  1  0.801335  0.496091  0.250339  1
  Tm  Tm19  1  0.301697  0.004001  0.250279  1
  Sn  Sn20  1  0.294133  0.037306  0.041719  1
  Sn  Sn21  1  0.792035  0.463839  0.458124  1
  Sn  Sn22  1  0.707836  0.964165  0.541943  1
  Sn  Sn23  1  0.207317  0.536374  0.958097  1
  Sn  Sn24  1  0.705176  0.962989  0.958260  1
  Sn  Sn25  1  0.206701  0.537652  0.541234  1
  Sn  Sn26  1  0.293367  0.037095  0.458750  1
  Sn  Sn27  1  0.793520  0.461558  0.041097  1
  Sn  Sn28  1  0.564699  0.618953  0.749867  1
  Sn  Sn29  1  0.064614  0.880787  0.749879  1
  Sn  Sn30  1  0.435293  0.380705  0.250079  1
  Sn  Sn31  1  0.935408  0.119891  0.250114  1
  Sn  Sn32  1  0.331350  0.148847  0.750392  1
  Sn  Sn33  1  0.831278  0.351030  0.749658  1
  Sn  Sn34  1  0.668062  0.851140  0.250456  1
  Sn  Sn35  1  0.169475  0.648322  0.250229  1
