# generated using pymatgen
data_Pr16MgIn(Co2Hg)2
_symmetry_space_group_name_H-M   'P 1'
_cell_length_a   9.87860210
_cell_length_b   9.87546770
_cell_length_c   9.87860136
_cell_angle_alpha   60.07331024
_cell_angle_beta   60.11647303
_cell_angle_gamma   60.07331224
_symmetry_Int_Tables_number   1
_chemical_formula_structural   Pr16MgIn(Co2Hg)2
_chemical_formula_sum   'Pr16 Mg1 In1 Co4 Hg2'
_cell_volume   682.80337034
_cell_formula_units_Z   1
loop_
 _symmetry_equiv_pos_site_id
 _symmetry_equiv_pos_as_xyz
  1  'x, y, z'
loop_
 _atom_site_type_symbol
 _atom_site_label
 _atom_site_symmetry_multiplicity
 _atom_site_fract_x
 _atom_site_fract_y
 _atom_site_fract_z
 _atom_site_occupancy
  Pr  Pr0  1  0.289521  0.903514  0.902291  1
  Pr  Pr1  1  0.688060  0.689646  0.309084  1
  Pr  Pr2  1  0.902291  0.903514  0.289521  1
  Pr  Pr3  1  0.308529  0.692705  0.308529  1
  Pr  Pr4  1  0.691015  0.311989  0.307105  1
  Pr  Pr5  1  0.063129  0.438374  0.438187  1
  Pr  Pr6  1  0.440431  0.060386  0.059053  1
  Pr  Pr7  1  0.059053  0.060386  0.440431  1
  Pr  Pr8  1  0.307105  0.311989  0.691015  1
  Pr  Pr9  1  0.440790  0.061956  0.440790  1
  Pr  Pr10  1  0.902676  0.903545  0.902676  1
  Pr  Pr11  1  0.438187  0.438374  0.063129  1
  Pr  Pr12  1  0.309084  0.689646  0.688060  1
  Pr  Pr13  1  0.687446  0.311466  0.687446  1
  Pr  Pr14  1  0.059495  0.441027  0.059495  1
  Pr  Pr15  1  0.903116  0.288870  0.903116  1
  Mg  Mg16  1  0.679413  0.673684  0.679413  1
  In  In17  1  0.670765  0.991192  0.670765  1
  Co  Co18  1  0.107818  0.108968  0.107818  1
  Co  Co19  1  0.109167  0.108061  0.670708  1
  Co  Co20  1  0.670708  0.108061  0.109167  1
  Co  Co21  1  0.107943  0.671637  0.107943  1
  Hg  Hg22  1  0.664609  0.665503  0.999652  1
  Hg  Hg23  1  0.999652  0.665503  0.664609  1
