# generated using pymatgen
data_Tb4Ho4SiGeBr12
_symmetry_space_group_name_H-M   'P 1'
_cell_length_a   4.06817600
_cell_length_b   13.25438224
_cell_length_c   14.04250726
_cell_angle_alpha   90.02184627
_cell_angle_beta   90.00000000
_cell_angle_gamma   90.00000000
_symmetry_Int_Tables_number   1
_chemical_formula_structural   Tb4Ho4SiGeBr12
_chemical_formula_sum   'Tb4 Ho4 Si1 Ge1 Br12'
_cell_volume   757.18822164
_cell_formula_units_Z   1
loop_
 _symmetry_equiv_pos_site_id
 _symmetry_equiv_pos_as_xyz
  1  'x, y, z'
loop_
 _atom_site_type_symbol
 _atom_site_label
 _atom_site_symmetry_multiplicity
 _atom_site_fract_x
 _atom_site_fract_y
 _atom_site_fract_z
 _atom_site_occupancy
  Tb  Tb0  1  0.000000  0.119656  0.579527  1
  Tb  Tb1  1  0.000000  0.880344  0.420473  1
  Tb  Tb2  1  0.000000  0.618457  0.921274  1
  Tb  Tb3  1  0.000000  0.381543  0.078726  1
  Ho  Ho4  1  0.500000  0.118478  0.340554  1
  Ho  Ho5  1  0.500000  0.881522  0.659446  1
  Ho  Ho6  1  0.500000  0.617580  0.158213  1
  Ho  Ho7  1  0.500000  0.382420  0.841787  1
  Si  Si8  1  0.500000  0.500000  0.000000  1
  Ge  Ge9  1  0.500000  0.000000  0.500000  1
  Br  Br10  1  0.500000  0.242458  0.164213  1
  Br  Br11  1  0.500000  0.757542  0.835787  1
  Br  Br12  1  0.500000  0.742647  0.335968  1
  Br  Br13  1  0.500000  0.257353  0.664032  1
  Br  Br14  1  0.000000  0.254778  0.409812  1
  Br  Br15  1  0.000000  0.745222  0.590188  1
  Br  Br16  1  0.000000  0.754806  0.090297  1
  Br  Br17  1  0.000000  0.245194  0.909703  1
  Br  Br18  1  0.000000  0.003527  0.242948  1
  Br  Br19  1  0.000000  0.996473  0.757052  1
  Br  Br20  1  0.000000  0.503623  0.257115  1
  Br  Br21  1  0.000000  0.496377  0.742885  1
