# generated using pymatgen
data_Dy8Al2FePt
_symmetry_space_group_name_H-M   'P 1'
_cell_length_a   9.50884534
_cell_length_b   9.50884586
_cell_length_c   9.51654300
_cell_angle_alpha   59.97317389
_cell_angle_beta   59.97318802
_cell_angle_gamma   60.00840982
_symmetry_Int_Tables_number   1
_chemical_formula_structural   Dy8Al2FePt
_chemical_formula_sum   'Dy16 Al4 Fe2 Pt2'
_cell_volume   608.23472550
_cell_formula_units_Z   2
loop_
 _symmetry_equiv_pos_site_id
 _symmetry_equiv_pos_as_xyz
  1  'x, y, z'
loop_
 _atom_site_type_symbol
 _atom_site_label
 _atom_site_symmetry_multiplicity
 _atom_site_fract_x
 _atom_site_fract_y
 _atom_site_fract_z
 _atom_site_occupancy
  Dy  Dy0  1  0.348724  0.348724  0.360122  1
  Dy  Dy1  1  0.348723  0.348724  0.942434  1
  Dy  Dy2  1  0.342941  0.952994  0.352032  1
  Dy  Dy3  1  0.952994  0.342941  0.352032  1
  Dy  Dy4  1  0.815952  0.190902  0.194222  1
  Dy  Dy5  1  0.190891  0.815963  0.798919  1
  Dy  Dy6  1  0.190902  0.815952  0.194222  1
  Dy  Dy7  1  0.815963  0.190892  0.798918  1
  Dy  Dy8  1  0.190363  0.190363  0.809635  1
  Dy  Dy9  1  0.804167  0.804167  0.195827  1
  Dy  Dy10  1  0.935932  0.558980  0.565968  1
  Dy  Dy11  1  0.558975  0.935932  0.939132  1
  Dy  Dy12  1  0.558981  0.935932  0.565968  1
  Dy  Dy13  1  0.935932  0.558974  0.939132  1
  Dy  Dy14  1  0.560908  0.560908  0.939097  1
  Dy  Dy15  1  0.936531  0.936531  0.563469  1
  Al  Al16  1  0.577581  0.577581  0.574484  1
  Al  Al17  1  0.577584  0.577583  0.270351  1
  Al  Al18  1  0.579770  0.268049  0.576092  1
  Al  Al19  1  0.268049  0.579770  0.576092  1
  Fe  Fe20  1  0.143269  0.143269  0.136074  1
  Fe  Fe21  1  0.143268  0.143269  0.577374  1
  Pt  Pt22  1  0.146675  0.574926  0.139202  1
  Pt  Pt23  1  0.574926  0.146675  0.139202  1
