# generated using pymatgen
data_Tb2LuAl3GeAu2
_symmetry_space_group_name_H-M   'P 1'
_cell_length_a   7.01425304
_cell_length_b   7.07782320
_cell_length_c   4.31359500
_cell_angle_alpha   90.00000000
_cell_angle_beta   90.00000000
_cell_angle_gamma   120.05338337
_symmetry_Int_Tables_number   1
_chemical_formula_structural   Tb2LuAl3GeAu2
_chemical_formula_sum   'Tb2 Lu1 Al3 Ge1 Au2'
_cell_volume   185.36053230
_cell_formula_units_Z   1
loop_
 _symmetry_equiv_pos_site_id
 _symmetry_equiv_pos_as_xyz
  1  'x, y, z'
loop_
 _atom_site_type_symbol
 _atom_site_label
 _atom_site_symmetry_multiplicity
 _atom_site_fract_x
 _atom_site_fract_y
 _atom_site_fract_z
 _atom_site_occupancy
  Tb  Tb0  1  0.422601  0.422025  0.500000  1
  Tb  Tb1  1  0.578707  0.002759  0.500000  1
  Lu  Lu2  1  0.002303  0.580769  0.500000  1
  Al  Al3  1  0.751831  0.764150  0.000000  1
  Al  Al4  1  0.235089  0.986765  0.000000  1
  Al  Al5  1  0.010576  0.248240  0.000000  1
  Ge  Ge6  1  0.671513  0.336107  0.000000  1
  Au  Au7  1  0.327176  0.664759  0.000000  1
  Au  Au8  1  0.000204  0.994426  0.500000  1
