# generated using pymatgen
data_Nd8Al(Pd3Pt)6
_symmetry_space_group_name_H-M   'P 1'
_cell_length_a   8.50260500
_cell_length_b   8.49730700
_cell_length_c   8.51682800
_cell_angle_alpha   90.00000000
_cell_angle_beta   90.00295578
_cell_angle_gamma   90.00000000
_symmetry_Int_Tables_number   1
_chemical_formula_structural   Nd8Al(Pd3Pt)6
_chemical_formula_sum   'Nd8 Al1 Pd18 Pt6'
_cell_volume   615.33439226
_cell_formula_units_Z   1
loop_
 _symmetry_equiv_pos_site_id
 _symmetry_equiv_pos_as_xyz
  1  'x, y, z'
loop_
 _atom_site_type_symbol
 _atom_site_label
 _atom_site_symmetry_multiplicity
 _atom_site_fract_x
 _atom_site_fract_y
 _atom_site_fract_z
 _atom_site_occupancy
  Nd  Nd0  1  0.250394  0.250632  0.250310  1
  Nd  Nd1  1  0.748804  0.748843  0.748814  1
  Nd  Nd2  1  0.749586  0.749605  0.250620  1
  Nd  Nd3  1  0.748804  0.251157  0.748814  1
  Nd  Nd4  1  0.251158  0.251404  0.749161  1
  Nd  Nd5  1  0.250394  0.749368  0.250310  1
  Nd  Nd6  1  0.251158  0.748596  0.749161  1
  Nd  Nd7  1  0.749586  0.250395  0.250620  1
  Al  Al8  1  0.000707  0.000000  0.004088  1
  Pd  Pd9  1  0.738513  0.500000  0.999907  1
  Pd  Pd10  1  0.999927  0.261926  0.499969  1
  Pd  Pd11  1  0.499827  0.261338  0.999925  1
  Pd  Pd12  1  0.999927  0.738074  0.499969  1
  Pd  Pd13  1  0.499827  0.738662  0.999925  1
  Pd  Pd14  1  0.500123  0.000000  0.260980  1
  Pd  Pd15  1  0.262088  0.000000  0.499935  1
  Pd  Pd16  1  0.500110  0.000000  0.737961  1
  Pd  Pd17  1  0.738072  0.000000  0.499978  1
  Pd  Pd18  1  0.999920  0.500000  0.261369  1
  Pd  Pd19  1  0.999922  0.500000  0.737549  1
  Pd  Pd20  1  0.253148  0.500000  0.499980  1
  Pd  Pd21  1  0.746590  0.500000  0.499955  1
  Pd  Pd22  1  0.500172  0.253232  0.500013  1
  Pd  Pd23  1  0.500172  0.746768  0.500013  1
  Pd  Pd24  1  0.499655  0.500000  0.252962  1
  Pd  Pd25  1  0.499704  0.500000  0.747099  1
  Pd  Pd26  1  0.999994  0.000000  0.707463  1
  Pt  Pt27  1  0.261155  0.500000  0.999970  1
  Pt  Pt28  1  0.293342  0.000000  0.998898  1
  Pt  Pt29  1  0.707470  0.000000  0.998897  1
  Pt  Pt30  1  0.999878  0.293203  0.998883  1
  Pt  Pt31  1  0.999878  0.706797  0.998883  1
  Pt  Pt32  1  0.999996  0.000000  0.297620  1
