# generated using pymatgen
data_LaPrSiPd14
_symmetry_space_group_name_H-M   'P 1'
_cell_length_a   8.98684100
_cell_length_b   8.98684100
_cell_length_c   7.19558700
_cell_angle_alpha   90.00000000
_cell_angle_beta   90.00000000
_cell_angle_gamma   90.00000000
_symmetry_Int_Tables_number   1
_chemical_formula_structural   LaPrSiPd14
_chemical_formula_sum   'La2 Pr2 Si2 Pd28'
_cell_volume   581.13943185
_cell_formula_units_Z   2
loop_
 _symmetry_equiv_pos_site_id
 _symmetry_equiv_pos_as_xyz
  1  'x, y, z'
loop_
 _atom_site_type_symbol
 _atom_site_label
 _atom_site_symmetry_multiplicity
 _atom_site_fract_x
 _atom_site_fract_y
 _atom_site_fract_z
 _atom_site_occupancy
  La  La0  1  0.000000  0.000000  0.500000  1
  La  La1  1  0.500000  0.500000  0.500000  1
  Pr  Pr2  1  0.500000  0.000000  0.936702  1
  Pr  Pr3  1  0.000000  0.500000  0.063298  1
  Si  Si4  1  0.500000  0.000000  0.449009  1
  Si  Si5  1  0.000000  0.500000  0.550991  1
  Pd  Pd6  1  0.334713  0.834713  0.614891  1
  Pd  Pd7  1  0.334713  0.165287  0.614891  1
  Pd  Pd8  1  0.665287  0.834713  0.614891  1
  Pd  Pd9  1  0.665287  0.165287  0.614891  1
  Pd  Pd10  1  0.165287  0.665287  0.385109  1
  Pd  Pd11  1  0.165287  0.334713  0.385109  1
  Pd  Pd12  1  0.834713  0.665287  0.385109  1
  Pd  Pd13  1  0.834713  0.334713  0.385109  1
  Pd  Pd14  1  0.500000  0.770956  0.257126  1
  Pd  Pd15  1  0.500000  0.229044  0.257126  1
  Pd  Pd16  1  0.270956  0.000000  0.257126  1
  Pd  Pd17  1  0.729044  0.000000  0.257126  1
  Pd  Pd18  1  0.000000  0.729044  0.742874  1
  Pd  Pd19  1  0.000000  0.270956  0.742874  1
  Pd  Pd20  1  0.229044  0.500000  0.742874  1
  Pd  Pd21  1  0.770956  0.500000  0.742874  1
  Pd  Pd22  1  0.500000  0.348745  0.856139  1
  Pd  Pd23  1  0.500000  0.651255  0.856139  1
  Pd  Pd24  1  0.848745  0.000000  0.856139  1
  Pd  Pd25  1  0.151255  0.000000  0.856139  1
  Pd  Pd26  1  0.000000  0.151255  0.143861  1
  Pd  Pd27  1  0.000000  0.848745  0.143861  1
  Pd  Pd28  1  0.651255  0.500000  0.143861  1
  Pd  Pd29  1  0.348745  0.500000  0.143861  1
  Pd  Pd30  1  0.250000  0.750000  0.000000  1
  Pd  Pd31  1  0.250000  0.250000  0.000000  1
  Pd  Pd32  1  0.750000  0.750000  0.000000  1
  Pd  Pd33  1  0.750000  0.250000  0.000000  1
