# generated using pymatgen
data_Tb5Ho7Ru4
_symmetry_space_group_name_H-M   'P 1'
_cell_length_a   7.31573422
_cell_length_b   9.14274024
_cell_length_c   6.30213500
_cell_angle_alpha   89.94113179
_cell_angle_beta   89.97373928
_cell_angle_gamma   89.99079454
_symmetry_Int_Tables_number   1
_chemical_formula_structural   Tb5Ho7Ru4
_chemical_formula_sum   'Tb5 Ho7 Ru4'
_cell_volume   421.52343161
_cell_formula_units_Z   1
loop_
 _symmetry_equiv_pos_site_id
 _symmetry_equiv_pos_as_xyz
  1  'x, y, z'
loop_
 _atom_site_type_symbol
 _atom_site_label
 _atom_site_symmetry_multiplicity
 _atom_site_fract_x
 _atom_site_fract_y
 _atom_site_fract_z
 _atom_site_occupancy
  Tb  Tb0  1  0.460108  0.749867  0.132568  1
  Tb  Tb1  1  0.176917  0.064355  0.168253  1
  Tb  Tb2  1  0.959864  0.749824  0.367532  1
  Tb  Tb3  1  0.039789  0.250208  0.632777  1
  Tb  Tb4  1  0.540105  0.250124  0.867184  1
  Ho  Ho5  1  0.176665  0.435762  0.168201  1
  Ho  Ho6  1  0.676661  0.064539  0.332046  1
  Ho  Ho7  1  0.676735  0.435500  0.331910  1
  Ho  Ho8  1  0.323334  0.564501  0.668094  1
  Ho  Ho9  1  0.323432  0.935338  0.668071  1
  Ho  Ho10  1  0.823290  0.564516  0.831790  1
  Ho  Ho11  1  0.823065  0.935329  0.831630  1
  Ru  Ru12  1  0.884222  0.250182  0.039785  1
  Ru  Ru13  1  0.384706  0.250200  0.460411  1
  Ru  Ru14  1  0.615602  0.750067  0.539874  1
  Ru  Ru15  1  0.115502  0.749687  0.959880  1
