# generated using pymatgen
data_AlSbCl6
_symmetry_space_group_name_H-M   'P 1'
_cell_length_a   12.17632300
_cell_length_b   8.10425182
_cell_length_c   11.55218326
_cell_angle_alpha   77.20638867
_cell_angle_beta   90.00000000
_cell_angle_gamma   90.00000000
_symmetry_Int_Tables_number   1
_chemical_formula_structural   AlSbCl6
_chemical_formula_sum   'Al4 Sb4 Cl24'
_cell_volume   1111.66848463
_cell_formula_units_Z   4
loop_
 _symmetry_equiv_pos_site_id
 _symmetry_equiv_pos_as_xyz
  1  'x, y, z'
loop_
 _atom_site_type_symbol
 _atom_site_label
 _atom_site_symmetry_multiplicity
 _atom_site_fract_x
 _atom_site_fract_y
 _atom_site_fract_z
 _atom_site_occupancy
  Al  Al0  1  0.772506  0.494519  0.712333  1
  Al  Al1  1  0.727494  0.494519  0.212333  1
  Al  Al2  1  0.272506  0.505481  0.787667  1
  Al  Al3  1  0.227494  0.505481  0.287667  1
  Sb  Sb4  1  0.970382  0.195130  0.354927  1
  Sb  Sb5  1  0.529618  0.195130  0.854927  1
  Sb  Sb6  1  0.029618  0.804870  0.645073  1
  Sb  Sb7  1  0.470382  0.804870  0.145073  1
  Cl  Cl8  1  0.437762  0.985157  0.274376  1
  Cl  Cl9  1  0.898487  0.543416  0.174199  1
  Cl  Cl10  1  0.653819  0.687714  0.295855  1
  Cl  Cl11  1  0.132584  0.500923  0.443956  1
  Cl  Cl12  1  0.867416  0.499077  0.556044  1
  Cl  Cl13  1  0.062238  0.985157  0.774376  1
  Cl  Cl14  1  0.367416  0.500923  0.943956  1
  Cl  Cl15  1  0.101513  0.456584  0.825801  1
  Cl  Cl16  1  0.153819  0.312286  0.204145  1
  Cl  Cl17  1  0.398487  0.456584  0.325801  1
  Cl  Cl18  1  0.601513  0.543416  0.674199  1
  Cl  Cl19  1  0.632584  0.499077  0.056044  1
  Cl  Cl20  1  0.630005  0.987577  0.040006  1
  Cl  Cl21  1  0.722002  0.251688  0.336398  1
  Cl  Cl22  1  0.222002  0.748312  0.163602  1
  Cl  Cl23  1  0.369995  0.012423  0.959994  1
  Cl  Cl24  1  0.277998  0.748312  0.663602  1
  Cl  Cl25  1  0.937762  0.014843  0.225624  1
  Cl  Cl26  1  0.346181  0.312286  0.704145  1
  Cl  Cl27  1  0.777998  0.251688  0.836398  1
  Cl  Cl28  1  0.130005  0.012423  0.459994  1
  Cl  Cl29  1  0.846181  0.687714  0.795855  1
  Cl  Cl30  1  0.562238  0.014843  0.725624  1
  Cl  Cl31  1  0.869995  0.987577  0.540006  1
