# generated using pymatgen
data_Tb2HoCo(P3Rh4)2
_symmetry_space_group_name_H-M   'P 1'
_cell_length_a   3.86748500
_cell_length_b   11.14379400
_cell_length_c   12.79623600
_cell_angle_alpha   90.00000000
_cell_angle_beta   90.00000000
_cell_angle_gamma   90.00000000
_symmetry_Int_Tables_number   1
_chemical_formula_structural   Tb2HoCo(P3Rh4)2
_chemical_formula_sum   'Tb4 Ho2 Co2 P12 Rh16'
_cell_volume   551.49801598
_cell_formula_units_Z   2
loop_
 _symmetry_equiv_pos_site_id
 _symmetry_equiv_pos_as_xyz
  1  'x, y, z'
loop_
 _atom_site_type_symbol
 _atom_site_label
 _atom_site_symmetry_multiplicity
 _atom_site_fract_x
 _atom_site_fract_y
 _atom_site_fract_z
 _atom_site_occupancy
  Tb  Tb0  1  0.000000  0.500000  0.521509  1
  Tb  Tb1  1  0.500000  0.000000  0.478451  1
  Tb  Tb2  1  0.000000  0.684448  0.797969  1
  Tb  Tb3  1  0.000000  0.315552  0.797969  1
  Ho  Ho4  1  0.500000  0.815568  0.202074  1
  Ho  Ho5  1  0.500000  0.184432  0.202074  1
  Co  Co6  1  0.000000  0.500000  0.980577  1
  Co  Co7  1  0.500000  0.000000  0.019719  1
  P  P8  1  0.500000  0.500000  0.882066  1
  P  P9  1  0.000000  0.000000  0.118276  1
  P  P10  1  0.500000  0.500000  0.350673  1
  P  P11  1  0.000000  0.000000  0.649314  1
  P  P12  1  0.500000  0.315555  0.619116  1
  P  P13  1  0.500000  0.684445  0.619116  1
  P  P14  1  0.000000  0.184347  0.380517  1
  P  P15  1  0.000000  0.815653  0.380517  1
  P  P16  1  0.500000  0.853029  0.895862  1
  P  P17  1  0.500000  0.146971  0.895862  1
  P  P18  1  0.000000  0.647311  0.104344  1
  P  P19  1  0.000000  0.352689  0.104344  1
  Rh  Rh20  1  0.500000  0.500000  0.167724  1
  Rh  Rh21  1  0.000000  0.000000  0.832335  1
  Rh  Rh22  1  0.500000  0.500000  0.703333  1
  Rh  Rh23  1  0.000000  0.000000  0.296173  1
  Rh  Rh24  1  0.500000  0.336556  0.994267  1
  Rh  Rh25  1  0.500000  0.663444  0.994267  1
  Rh  Rh26  1  0.000000  0.163302  0.006287  1
  Rh  Rh27  1  0.000000  0.836698  0.006287  1
  Rh  Rh28  1  0.500000  0.293950  0.430011  1
  Rh  Rh29  1  0.500000  0.706050  0.430011  1
  Rh  Rh30  1  0.000000  0.205994  0.569753  1
  Rh  Rh31  1  0.000000  0.794006  0.569753  1
  Rh  Rh32  1  0.500000  0.873775  0.712170  1
  Rh  Rh33  1  0.500000  0.126225  0.712170  1
  Rh  Rh34  1  0.000000  0.626713  0.287554  1
  Rh  Rh35  1  0.000000  0.373287  0.287554  1
