# generated using pymatgen
data_Sm8Sc12Si15Ni
_symmetry_space_group_name_H-M   'P 1'
_cell_length_a   7.14703900
_cell_length_b   7.50979401
_cell_length_c   14.07190100
_cell_angle_alpha   90.00000000
_cell_angle_beta   90.00000000
_cell_angle_gamma   89.99607873
_symmetry_Int_Tables_number   1
_chemical_formula_structural   Sm8Sc12Si15Ni
_chemical_formula_sum   'Sm8 Sc12 Si15 Ni1'
_cell_volume   755.27819484
_cell_formula_units_Z   1
loop_
 _symmetry_equiv_pos_site_id
 _symmetry_equiv_pos_as_xyz
  1  'x, y, z'
loop_
 _atom_site_type_symbol
 _atom_site_label
 _atom_site_symmetry_multiplicity
 _atom_site_fract_x
 _atom_site_fract_y
 _atom_site_fract_z
 _atom_site_occupancy
  Sm  Sm0  1  0.011689  0.176114  0.096573  1
  Sm  Sm1  1  0.990103  0.825459  0.903555  1
  Sm  Sm2  1  0.488381  0.676134  0.903085  1
  Sm  Sm3  1  0.990103  0.825459  0.596445  1
  Sm  Sm4  1  0.511295  0.324156  0.096466  1
  Sm  Sm5  1  0.011689  0.176114  0.403427  1
  Sm  Sm6  1  0.511295  0.324156  0.403534  1
  Sm  Sm7  1  0.488381  0.676134  0.596915  1
  Sc  Sc8  1  0.160186  0.501348  0.750000  1
  Sc  Sc9  1  0.839039  0.498699  0.250000  1
  Sc  Sc10  1  0.338951  0.002085  0.250000  1
  Sc  Sc11  1  0.670357  0.002219  0.750000  1
  Sc  Sc12  1  0.318802  0.172846  0.627378  1
  Sc  Sc13  1  0.671227  0.825502  0.374279  1
  Sc  Sc14  1  0.170777  0.676307  0.374217  1
  Sc  Sc15  1  0.671227  0.825502  0.125721  1
  Sc  Sc16  1  0.833706  0.320432  0.627521  1
  Sc  Sc17  1  0.318802  0.172846  0.872622  1
  Sc  Sc18  1  0.833706  0.320432  0.872479  1
  Sc  Sc19  1  0.170777  0.676307  0.125783  1
  Si  Si20  1  0.968158  0.879218  0.250000  1
  Si  Si21  1  0.468188  0.619384  0.250000  1
  Si  Si22  1  0.532400  0.382065  0.750000  1
  Si  Si23  1  0.283108  0.880320  0.750000  1
  Si  Si24  1  0.711932  0.124097  0.250000  1
  Si  Si25  1  0.211506  0.376315  0.250000  1
  Si  Si26  1  0.783591  0.621744  0.750000  1
  Si  Si27  1  0.155583  0.465325  0.538744  1
  Si  Si28  1  0.845590  0.536370  0.461771  1
  Si  Si29  1  0.347036  0.963701  0.460942  1
  Si  Si30  1  0.845590  0.536370  0.038229  1
  Si  Si31  1  0.655119  0.035808  0.539753  1
  Si  Si32  1  0.155583  0.465325  0.961256  1
  Si  Si33  1  0.655119  0.035808  0.960247  1
  Si  Si34  1  0.347036  0.963701  0.039058  1
  Ni  Ni35  1  0.033969  0.116199  0.750000  1
