# generated using pymatgen
data_Ac4Mn3MoO12
_symmetry_space_group_name_H-M   'P 1'
_cell_length_a   5.79694689
_cell_length_b   5.84804602
_cell_length_c   8.36296800
_cell_angle_alpha   89.74591280
_cell_angle_beta   89.93361060
_cell_angle_gamma   90.37509627
_symmetry_Int_Tables_number   1
_chemical_formula_structural   Ac4Mn3MoO12
_chemical_formula_sum   'Ac4 Mn3 Mo1 O12'
_cell_volume   283.50234451
_cell_formula_units_Z   1
loop_
 _symmetry_equiv_pos_site_id
 _symmetry_equiv_pos_as_xyz
  1  'x, y, z'
loop_
 _atom_site_type_symbol
 _atom_site_label
 _atom_site_symmetry_multiplicity
 _atom_site_fract_x
 _atom_site_fract_y
 _atom_site_fract_z
 _atom_site_occupancy
  Ac  Ac0  1  0.999915  0.963275  0.737076  1
  Ac  Ac1  1  0.999990  0.037105  0.262945  1
  Ac  Ac2  1  0.513730  0.455116  0.739370  1
  Ac  Ac3  1  0.486363  0.544324  0.260624  1
  Mn  Mn4  1  0.499882  0.999916  0.499904  1
  Mn  Mn5  1  0.499906  0.999420  0.000180  1
  Mn  Mn6  1  0.000110  0.500321  0.499953  1
  Mo  Mo7  1  0.000024  0.499973  0.000010  1
  O  O8  1  0.730451  0.704610  0.538858  1
  O  O9  1  0.277049  0.304288  0.048738  1
  O  O10  1  0.269503  0.295739  0.461008  1
  O  O11  1  0.722904  0.695593  0.951356  1
  O  O12  1  0.091369  0.522212  0.765631  1
  O  O13  1  0.908670  0.477925  0.234357  1
  O  O14  1  0.797762  0.225155  0.537713  1
  O  O15  1  0.193071  0.772865  0.053260  1
  O  O16  1  0.202429  0.775294  0.462053  1
  O  O17  1  0.806905  0.227037  0.946863  1
  O  O18  1  0.421196  0.025145  0.750913  1
  O  O19  1  0.578770  0.974686  0.249188  1
