# generated using pymatgen
data_Li2Ni2Sb2Pt
_symmetry_space_group_name_H-M   'P 1'
_cell_length_a   7.37242230
_cell_length_b   7.37242155
_cell_length_c   7.37242082
_cell_angle_alpha   33.75079064
_cell_angle_beta   33.75079870
_cell_angle_gamma   33.75079288
_symmetry_Int_Tables_number   1
_chemical_formula_structural   Li2Ni2Sb2Pt
_chemical_formula_sum   'Li2 Ni2 Sb2 Pt1'
_cell_volume   110.20667864
_cell_formula_units_Z   1
loop_
 _symmetry_equiv_pos_site_id
 _symmetry_equiv_pos_as_xyz
  1  'x, y, z'
loop_
 _atom_site_type_symbol
 _atom_site_label
 _atom_site_symmetry_multiplicity
 _atom_site_fract_x
 _atom_site_fract_y
 _atom_site_fract_z
 _atom_site_occupancy
  Li  Li0  1  0.244512  0.244512  0.244512  1
  Li  Li1  1  0.752823  0.752823  0.752823  1
  Ni  Ni2  1  0.370179  0.370179  0.370179  1
  Ni  Ni3  1  0.625180  0.625180  0.625180  1
  Sb  Sb4  1  0.008607  0.008607  0.008607  1
  Sb  Sb5  1  0.493614  0.493614  0.493614  1
  Pt  Pt6  1  0.880084  0.880084  0.880084  1
