# generated using pymatgen
data_NbIr5RhW
_symmetry_space_group_name_H-M   'P 1'
_cell_length_a   5.57857700
_cell_length_b   5.56735179
_cell_length_c   4.44172300
_cell_angle_alpha   90.00000000
_cell_angle_beta   90.00000000
_cell_angle_gamma   120.06672560
_symmetry_Int_Tables_number   1
_chemical_formula_structural   NbIr5RhW
_chemical_formula_sum   'Nb1 Ir5 Rh1 W1'
_cell_volume   119.38830858
_cell_formula_units_Z   1
loop_
 _symmetry_equiv_pos_site_id
 _symmetry_equiv_pos_as_xyz
  1  'x, y, z'
loop_
 _atom_site_type_symbol
 _atom_site_label
 _atom_site_symmetry_multiplicity
 _atom_site_fract_x
 _atom_site_fract_y
 _atom_site_fract_z
 _atom_site_occupancy
  Nb  Nb0  1  0.333168  0.666337  0.250000  1
  Ir  Ir1  1  0.833733  0.667466  0.250000  1
  Ir  Ir2  1  0.163756  0.836099  0.750000  1
  Ir  Ir3  1  0.672342  0.836099  0.750000  1
  Ir  Ir4  1  0.332962  0.166505  0.250000  1
  Ir  Ir5  1  0.833544  0.166505  0.250000  1
  Rh  Rh6  1  0.164690  0.329382  0.750000  1
  W  W7  1  0.665805  0.331608  0.750000  1
