# generated using pymatgen
data_TiV3(AsC)2
_symmetry_space_group_name_H-M   'P 1'
_cell_length_a   3.13653500
_cell_length_b   3.13653649
_cell_length_c   11.53102900
_cell_angle_alpha   90.00000000
_cell_angle_beta   90.00000000
_cell_angle_gamma   119.99997373
_symmetry_Int_Tables_number   1
_chemical_formula_structural   TiV3(AsC)2
_chemical_formula_sum   'Ti1 V3 As2 C2'
_cell_volume   98.24247470
_cell_formula_units_Z   1
loop_
 _symmetry_equiv_pos_site_id
 _symmetry_equiv_pos_as_xyz
  1  'x, y, z'
loop_
 _atom_site_type_symbol
 _atom_site_label
 _atom_site_symmetry_multiplicity
 _atom_site_fract_x
 _atom_site_fract_y
 _atom_site_fract_z
 _atom_site_occupancy
  Ti  Ti0  1  0.666667  0.333333  0.591071  1
  V  V1  1  0.333333  0.666667  0.404332  1
  V  V2  1  0.333333  0.666667  0.091399  1
  V  V3  1  0.666667  0.333333  0.911590  1
  As  As4  1  0.666667  0.333333  0.247459  1
  As  As5  1  0.333333  0.666667  0.758691  1
  C  C6  1  0.000000  0.000000  0.493391  1
  C  C7  1  0.000000  0.000000  0.002067  1
