# generated using pymatgen
data_Dy3Er2(OsO6)2
_symmetry_space_group_name_H-M   'P 1'
_cell_length_a   6.86094518
_cell_length_b   6.86094604
_cell_length_c   7.46692807
_cell_angle_alpha   74.01887316
_cell_angle_beta   74.01886957
_cell_angle_gamma   48.59101508
_symmetry_Int_Tables_number   1
_chemical_formula_structural   Dy3Er2(OsO6)2
_chemical_formula_sum   'Dy3 Er2 Os2 O12'
_cell_volume   251.30319224
_cell_formula_units_Z   1
loop_
 _symmetry_equiv_pos_site_id
 _symmetry_equiv_pos_as_xyz
  1  'x, y, z'
loop_
 _atom_site_type_symbol
 _atom_site_label
 _atom_site_symmetry_multiplicity
 _atom_site_fract_x
 _atom_site_fract_y
 _atom_site_fract_z
 _atom_site_occupancy
  Dy  Dy0  1  0.698919  0.698919  0.642447  1
  Dy  Dy1  1  0.301013  0.301013  0.358532  1
  Dy  Dy2  1  0.687814  0.687814  0.171201  1
  Er  Er3  1  0.312237  0.312237  0.828139  1
  Er  Er4  1  0.999797  0.999797  0.500361  1
  Os  Os5  1  0.780768  0.219350  0.999711  1
  Os  Os6  1  0.219350  0.780768  0.999711  1
  O  O7  1  0.000987  0.000987  0.204669  1
  O  O8  1  0.998983  0.998983  0.795377  1
  O  O9  1  0.579379  0.087641  0.084931  1
  O  O10  1  0.418725  0.915230  0.913415  1
  O  O11  1  0.915230  0.418725  0.913415  1
  O  O12  1  0.087641  0.579379  0.084931  1
  O  O13  1  0.499091  0.499091  0.174247  1
  O  O14  1  0.500140  0.500140  0.825202  1
  O  O15  1  0.402118  0.901193  0.427958  1
  O  O16  1  0.596762  0.099854  0.573898  1
  O  O17  1  0.099854  0.596762  0.573898  1
  O  O18  1  0.901193  0.402118  0.427958  1
