# generated using pymatgen
data_Tb7Tm3(GePb3)2
_symmetry_space_group_name_H-M   'P 1'
_cell_length_a   9.33755300
_cell_length_b   9.33758188
_cell_length_c   6.57150500
_cell_angle_alpha   90.00000000
_cell_angle_beta   90.00000000
_cell_angle_gamma   120.00009962
_symmetry_Int_Tables_number   1
_chemical_formula_structural   Tb7Tm3(GePb3)2
_chemical_formula_sum   'Tb7 Tm3 Ge2 Pb6'
_cell_volume   496.20660559
_cell_formula_units_Z   1
loop_
 _symmetry_equiv_pos_site_id
 _symmetry_equiv_pos_as_xyz
  1  'x, y, z'
loop_
 _atom_site_type_symbol
 _atom_site_label
 _atom_site_symmetry_multiplicity
 _atom_site_fract_x
 _atom_site_fract_y
 _atom_site_fract_z
 _atom_site_occupancy
  Tb  Tb0  1  0.252207  0.000261  0.250213  1
  Tb  Tb1  1  0.748054  0.000261  0.749787  1
  Tb  Tb2  1  0.999739  0.251945  0.250213  1
  Tb  Tb3  1  0.999739  0.747794  0.749787  1
  Tb  Tb4  1  0.748055  0.747794  0.250213  1
  Tb  Tb5  1  0.252206  0.251945  0.749787  1
  Tb  Tb6  1  0.333333  0.666667  0.500000  1
  Tm  Tm7  1  0.333333  0.666667  0.000000  1
  Tm  Tm8  1  0.666667  0.333333  0.000000  1
  Tm  Tm9  1  0.666667  0.333333  0.500000  1
  Ge  Ge10  1  0.000000  0.000000  0.000000  1
  Ge  Ge11  1  0.000000  0.000000  0.500000  1
  Pb  Pb12  1  0.606394  0.000676  0.249690  1
  Pb  Pb13  1  0.394282  0.000676  0.750310  1
  Pb  Pb14  1  0.999324  0.605719  0.249690  1
  Pb  Pb15  1  0.999324  0.393605  0.750310  1
  Pb  Pb16  1  0.394282  0.393606  0.249690  1
  Pb  Pb17  1  0.606394  0.605718  0.750310  1
