# generated using pymatgen
data_Ba2SiP2
_symmetry_space_group_name_H-M   'P 1'
_cell_length_a   9.61517900
_cell_length_b   7.50021955
_cell_length_c   8.62057443
_cell_angle_alpha   73.44949922
_cell_angle_beta   90.00000000
_cell_angle_gamma   90.00000000
_symmetry_Int_Tables_number   1
_chemical_formula_structural   Ba2SiP2
_chemical_formula_sum   'Ba8 Si4 P8'
_cell_volume   595.92410072
_cell_formula_units_Z   4
loop_
 _symmetry_equiv_pos_site_id
 _symmetry_equiv_pos_as_xyz
  1  'x, y, z'
loop_
 _atom_site_type_symbol
 _atom_site_label
 _atom_site_symmetry_multiplicity
 _atom_site_fract_x
 _atom_site_fract_y
 _atom_site_fract_z
 _atom_site_occupancy
  Ba  Ba0  1  0.665183  0.399382  0.480315  1
  Ba  Ba1  1  0.165183  0.100618  0.519685  1
  Ba  Ba2  1  0.334817  0.600618  0.519685  1
  Ba  Ba3  1  0.834817  0.899382  0.480315  1
  Ba  Ba4  1  0.858875  0.763598  0.990475  1
  Ba  Ba5  1  0.358875  0.736402  0.009525  1
  Ba  Ba6  1  0.141125  0.236402  0.009525  1
  Ba  Ba7  1  0.641125  0.263598  0.990475  1
  Si  Si8  1  0.515582  0.965995  0.637767  1
  Si  Si9  1  0.015582  0.534005  0.362233  1
  Si  Si10  1  0.484418  0.034005  0.362233  1
  Si  Si11  1  0.984418  0.465995  0.637767  1
  P  P12  1  0.903323  0.181741  0.752743  1
  P  P13  1  0.403323  0.318259  0.247257  1
  P  P14  1  0.096677  0.818259  0.247257  1
  P  P15  1  0.596677  0.681741  0.752743  1
  P  P16  1  0.409158  0.155113  0.757784  1
  P  P17  1  0.909158  0.344887  0.242216  1
  P  P18  1  0.590842  0.844887  0.242216  1
  P  P19  1  0.090842  0.655113  0.757784  1
