# generated using pymatgen
data_DyHo3Er2(Si3Ru)8
_symmetry_space_group_name_H-M   'P 1'
_cell_length_a   10.10954413
_cell_length_b   10.10954347
_cell_length_c   8.13163302
_cell_angle_alpha   90.03839588
_cell_angle_beta   89.96160413
_cell_angle_gamma   132.61522356
_symmetry_Int_Tables_number   1
_chemical_formula_structural   DyHo3Er2(Si3Ru)8
_chemical_formula_sum   'Dy1 Ho3 Er2 Si24 Ru8'
_cell_volume   611.60317683
_cell_formula_units_Z   1
loop_
 _symmetry_equiv_pos_site_id
 _symmetry_equiv_pos_as_xyz
  1  'x, y, z'
loop_
 _atom_site_type_symbol
 _atom_site_label
 _atom_site_symmetry_multiplicity
 _atom_site_fract_x
 _atom_site_fract_y
 _atom_site_fract_z
 _atom_site_occupancy
  Dy  Dy0  1  0.497505  0.997505  0.250000  1
  Ho  Ho1  1  0.002320  0.502320  0.750000  1
  Ho  Ho2  1  0.502459  0.002459  0.750000  1
  Ho  Ho3  1  0.997598  0.497598  0.250000  1
  Er  Er4  1  0.500029  0.499969  0.499983  1
  Er  Er5  1  0.999969  0.000029  0.000017  1
  Si  Si6  1  0.388053  0.154307  0.004805  1
  Si  Si7  1  0.654307  0.888053  0.495195  1
  Si  Si8  1  0.111742  0.345069  0.504882  1
  Si  Si9  1  0.845069  0.611742  0.995118  1
  Si  Si10  1  0.611934  0.845788  0.994674  1
  Si  Si11  1  0.345788  0.111934  0.505326  1
  Si  Si12  1  0.888254  0.654896  0.494938  1
  Si  Si13  1  0.154896  0.388254  0.005062  1
  Si  Si14  1  0.612672  0.378122  0.228623  1
  Si  Si15  1  0.878122  0.112672  0.271377  1
  Si  Si16  1  0.886871  0.121200  0.728568  1
  Si  Si17  1  0.621200  0.386871  0.771432  1
  Si  Si18  1  0.387750  0.622162  0.771589  1
  Si  Si19  1  0.122162  0.887750  0.728411  1
  Si  Si20  1  0.705012  0.294802  0.999881  1
  Si  Si21  1  0.794802  0.205012  0.500119  1
  Si  Si22  1  0.294923  0.705180  0.999868  1
  Si  Si23  1  0.205180  0.794923  0.500132  1
  Si  Si24  1  0.167657  0.167590  0.333308  1
  Si  Si25  1  0.667590  0.667657  0.166692  1
  Si  Si26  1  0.332417  0.332347  0.833336  1
  Si  Si27  1  0.832347  0.832417  0.666664  1
  Si  Si28  1  0.378364  0.612906  0.228832  1
  Si  Si29  1  0.112906  0.878364  0.271168  1
  Ru  Ru30  1  0.626361  0.626289  0.872531  1
  Ru  Ru31  1  0.126289  0.126361  0.627469  1
  Ru  Ru32  1  0.873700  0.873756  0.372441  1
  Ru  Ru33  1  0.373756  0.373700  0.127559  1
  Ru  Ru34  1  0.329678  0.668105  0.500690  1
  Ru  Ru35  1  0.168105  0.829678  0.999310  1
  Ru  Ru36  1  0.670322  0.331894  0.500281  1
  Ru  Ru37  1  0.831894  0.170322  0.999719  1
