# generated using pymatgen
data_Eu3HoEr2Ta2O14
_symmetry_space_group_name_H-M   'P 1'
_cell_length_a   6.50552030
_cell_length_b   6.46508593
_cell_length_c   7.57882269
_cell_angle_alpha   90.00061055
_cell_angle_beta   89.99604573
_cell_angle_gamma   109.25494751
_symmetry_Int_Tables_number   1
_chemical_formula_structural   Eu3HoEr2Ta2O14
_chemical_formula_sum   'Eu3 Ho1 Er2 Ta2 O14'
_cell_volume   300.92476690
_cell_formula_units_Z   1
loop_
 _symmetry_equiv_pos_site_id
 _symmetry_equiv_pos_as_xyz
  1  'x, y, z'
loop_
 _atom_site_type_symbol
 _atom_site_label
 _atom_site_symmetry_multiplicity
 _atom_site_fract_x
 _atom_site_fract_y
 _atom_site_fract_z
 _atom_site_occupancy
  Eu  Eu0  1  0.524247  0.997183  0.750185  1
  Eu  Eu1  1  0.497769  0.497450  0.496247  1
  Eu  Eu2  1  0.496434  0.496436  0.003864  1
  Ho  Ho3  1  0.999970  0.461957  0.749727  1
  Er  Er4  1  0.465280  0.001188  0.250210  1
  Er  Er5  1  0.000770  0.533762  0.249683  1
  Ta  Ta6  1  0.997469  0.998837  0.498044  1
  Ta  Ta7  1  0.997560  0.998832  0.002009  1
  O  O8  1  0.061766  0.924589  0.250038  1
  O  O9  1  0.061447  0.320427  0.465586  1
  O  O10  1  0.062575  0.321059  0.033767  1
  O  O11  1  0.356750  0.640940  0.250180  1
  O  O12  1  0.363714  0.627455  0.749881  1
  O  O13  1  0.324495  0.079547  0.980489  1
  O  O14  1  0.324077  0.079316  0.520027  1
  O  O15  1  0.683177  0.931088  0.040022  1
  O  O16  1  0.682617  0.930516  0.460600  1
  O  O17  1  0.638151  0.368397  0.249935  1
  O  O18  1  0.639461  0.360715  0.750125  1
  O  O19  1  0.938224  0.681804  0.537878  1
  O  O20  1  0.939359  0.682462  0.961505  1
  O  O21  1  0.944688  0.066042  0.750001  1
