# generated using pymatgen
data_Ac2GaPtI
_symmetry_space_group_name_H-M   'P 1'
_cell_length_a   4.52841200
_cell_length_b   4.52841265
_cell_length_c   18.00018600
_cell_angle_alpha   90.00000000
_cell_angle_beta   90.00000000
_cell_angle_gamma   120.00000989
_symmetry_Int_Tables_number   1
_chemical_formula_structural   Ac2GaPtI
_chemical_formula_sum   'Ac4 Ga2 Pt2 I2'
_cell_volume   319.66825356
_cell_formula_units_Z   2
loop_
 _symmetry_equiv_pos_site_id
 _symmetry_equiv_pos_as_xyz
  1  'x, y, z'
loop_
 _atom_site_type_symbol
 _atom_site_label
 _atom_site_symmetry_multiplicity
 _atom_site_fract_x
 _atom_site_fract_y
 _atom_site_fract_z
 _atom_site_occupancy
  Ac  Ac0  1  0.000000  0.000000  0.102610  1
  Ac  Ac1  1  0.000000  0.000000  0.397390  1
  Ac  Ac2  1  0.000000  0.000000  0.605707  1
  Ac  Ac3  1  0.000000  0.000000  0.894293  1
  Ga  Ga4  1  0.666666  0.333332  0.503594  1
  Ga  Ga5  1  0.666666  0.333332  0.996406  1
  Pt  Pt6  1  0.333334  0.666668  0.002415  1
  Pt  Pt7  1  0.333334  0.666668  0.497585  1
  I  I8  1  0.666666  0.333332  0.250000  1
  I  I9  1  0.333334  0.666668  0.750000  1
