# generated using pymatgen
data_HoTm5ScCo17P12
_symmetry_space_group_name_H-M   'P 1'
_cell_length_a   3.68342900
_cell_length_b   10.53159900
_cell_length_c   12.19761800
_cell_angle_alpha   90.00000000
_cell_angle_beta   90.00000000
_cell_angle_gamma   90.00000000
_symmetry_Int_Tables_number   1
_chemical_formula_structural   HoTm5ScCo17P12
_chemical_formula_sum   'Ho1 Tm5 Sc1 Co17 P12'
_cell_volume   473.17484202
_cell_formula_units_Z   1
loop_
 _symmetry_equiv_pos_site_id
 _symmetry_equiv_pos_as_xyz
  1  'x, y, z'
loop_
 _atom_site_type_symbol
 _atom_site_label
 _atom_site_symmetry_multiplicity
 _atom_site_fract_x
 _atom_site_fract_y
 _atom_site_fract_z
 _atom_site_occupancy
  Ho  Ho0  1  0.500000  0.000000  0.477369  1
  Tm  Tm1  1  0.000000  0.500000  0.528109  1
  Tm  Tm2  1  0.500000  0.822040  0.207303  1
  Tm  Tm3  1  0.500000  0.177960  0.207303  1
  Tm  Tm4  1  0.000000  0.682089  0.795571  1
  Tm  Tm5  1  0.000000  0.317911  0.795571  1
  Sc  Sc6  1  0.500000  0.500000  0.153236  1
  Co  Co7  1  0.000000  0.500000  0.984093  1
  Co  Co8  1  0.500000  0.000000  0.013503  1
  Co  Co9  1  0.500000  0.295074  0.434356  1
  Co  Co10  1  0.500000  0.704926  0.434356  1
  Co  Co11  1  0.000000  0.202330  0.570756  1
  Co  Co12  1  0.000000  0.797670  0.570756  1
  Co  Co13  1  0.500000  0.879553  0.707941  1
  Co  Co14  1  0.500000  0.120447  0.707941  1
  Co  Co15  1  0.000000  0.623298  0.296083  1
  Co  Co16  1  0.000000  0.376702  0.296083  1
  Co  Co17  1  0.500000  0.326705  0.989347  1
  Co  Co18  1  0.500000  0.673295  0.989347  1
  Co  Co19  1  0.000000  0.162359  0.001645  1
  Co  Co20  1  0.000000  0.837641  0.001645  1
  Co  Co21  1  0.000000  0.000000  0.836938  1
  Co  Co22  1  0.500000  0.500000  0.703126  1
  Co  Co23  1  0.000000  0.000000  0.295454  1
  P  P24  1  0.500000  0.310491  0.618457  1
  P  P25  1  0.500000  0.689509  0.618457  1
  P  P26  1  0.000000  0.188134  0.385382  1
  P  P27  1  0.000000  0.811866  0.385382  1
  P  P28  1  0.500000  0.500000  0.882102  1
  P  P29  1  0.000000  0.000000  0.116810  1
  P  P30  1  0.500000  0.851101  0.888299  1
  P  P31  1  0.500000  0.148899  0.888299  1
  P  P32  1  0.000000  0.664072  0.102656  1
  P  P33  1  0.000000  0.335928  0.102656  1
  P  P34  1  0.500000  0.500000  0.359402  1
  P  P35  1  0.000000  0.000000  0.654256  1
