# generated using pymatgen
data_Tm8Si8Pt7Au
_symmetry_space_group_name_H-M   'P 1'
_cell_length_a   4.28711500
_cell_length_b   7.46125496
_cell_length_c   13.93776700
_cell_angle_alpha   89.97098065
_cell_angle_beta   90.00000000
_cell_angle_gamma   90.00000000
_symmetry_Int_Tables_number   1
_chemical_formula_structural   Tm8Si8Pt7Au
_chemical_formula_sum   'Tm8 Si8 Pt7 Au1'
_cell_volume   445.83089242
_cell_formula_units_Z   1
loop_
 _symmetry_equiv_pos_site_id
 _symmetry_equiv_pos_as_xyz
  1  'x, y, z'
loop_
 _atom_site_type_symbol
 _atom_site_label
 _atom_site_symmetry_multiplicity
 _atom_site_fract_x
 _atom_site_fract_y
 _atom_site_fract_z
 _atom_site_occupancy
  Tm  Tm0  1  0.000000  0.299628  0.000859  1
  Tm  Tm1  1  0.500000  0.702869  0.497586  1
  Tm  Tm2  1  0.000000  0.290441  0.496307  1
  Tm  Tm3  1  0.500000  0.707278  0.001275  1
  Tm  Tm4  1  0.000000  0.205101  0.249171  1
  Tm  Tm5  1  0.500000  0.794431  0.250122  1
  Tm  Tm6  1  0.000000  0.203063  0.752077  1
  Tm  Tm7  1  0.500000  0.797022  0.753770  1
  Si  Si8  1  0.000000  0.915686  0.590529  1
  Si  Si9  1  0.500000  0.094256  0.907437  1
  Si  Si10  1  0.000000  0.907757  0.405410  1
  Si  Si11  1  0.500000  0.091829  0.093182  1
  Si  Si12  1  0.000000  0.591250  0.147321  1
  Si  Si13  1  0.500000  0.409138  0.351444  1
  Si  Si14  1  0.000000  0.592505  0.858302  1
  Si  Si15  1  0.500000  0.397450  0.645310  1
  Pt  Pt16  1  0.500000  0.071536  0.609046  1
  Pt  Pt17  1  0.000000  0.925172  0.891524  1
  Pt  Pt18  1  0.500000  0.075729  0.390594  1
  Pt  Pt19  1  0.000000  0.923627  0.109272  1
  Pt  Pt20  1  0.500000  0.420482  0.154041  1
  Pt  Pt21  1  0.000000  0.580193  0.348807  1
  Pt  Pt22  1  0.500000  0.421057  0.844212  1
  Au  Au23  1  0.000000  0.582502  0.652404  1
