# generated using pymatgen
data_Er5TlIn3CoPd
_symmetry_space_group_name_H-M   'P 1'
_cell_length_a   3.57622300
_cell_length_b   8.04600390
_cell_length_c   18.00955191
_cell_angle_alpha   90.00916146
_cell_angle_beta   90.00000000
_cell_angle_gamma   90.00000000
_symmetry_Int_Tables_number   1
_chemical_formula_structural   Er5TlIn3CoPd
_chemical_formula_sum   'Er10 Tl2 In6 Co2 Pd2'
_cell_volume   518.21231871
_cell_formula_units_Z   2
loop_
 _symmetry_equiv_pos_site_id
 _symmetry_equiv_pos_as_xyz
  1  'x, y, z'
loop_
 _atom_site_type_symbol
 _atom_site_label
 _atom_site_symmetry_multiplicity
 _atom_site_fract_x
 _atom_site_fract_y
 _atom_site_fract_z
 _atom_site_occupancy
  Er  Er0  1  0.000000  0.500000  0.500000  1
  Er  Er1  1  0.000000  0.000000  0.000000  1
  Er  Er2  1  0.000000  0.727575  0.277252  1
  Er  Er3  1  0.000000  0.272425  0.722748  1
  Er  Er4  1  0.000000  0.738116  0.781225  1
  Er  Er5  1  0.000000  0.261884  0.218775  1
  Er  Er6  1  0.000000  0.612385  0.090658  1
  Er  Er7  1  0.000000  0.387615  0.909342  1
  Er  Er8  1  0.000000  0.880901  0.585912  1
  Er  Er9  1  0.000000  0.119099  0.414088  1
  Tl  Tl10  1  0.500000  0.706018  0.933107  1
  Tl  Tl11  1  0.500000  0.293982  0.066893  1
  In  In12  1  0.500000  0.793496  0.432522  1
  In  In13  1  0.500000  0.206504  0.567478  1
  In  In14  1  0.500000  0.574191  0.651247  1
  In  In15  1  0.500000  0.425809  0.348753  1
  In  In16  1  0.500000  0.920102  0.150159  1
  In  In17  1  0.500000  0.079898  0.849841  1
  Co  Co18  1  0.500000  0.524335  0.196558  1
  Co  Co19  1  0.500000  0.475665  0.803442  1
  Pd  Pd20  1  0.500000  0.977474  0.697680  1
  Pd  Pd21  1  0.500000  0.022526  0.302320  1
