# generated using pymatgen
data_YbEr4HfH18
_symmetry_space_group_name_H-M   'P 1'
_cell_length_a   6.19140225
_cell_length_b   6.19820377
_cell_length_c   6.45417903
_cell_angle_alpha   89.90442625
_cell_angle_beta   90.00675949
_cell_angle_gamma   119.93218438
_symmetry_Int_Tables_number   1
_chemical_formula_structural   YbEr4HfH18
_chemical_formula_sum   'Yb1 Er4 Hf1 H18'
_cell_volume   214.64566919
_cell_formula_units_Z   1
loop_
 _symmetry_equiv_pos_site_id
 _symmetry_equiv_pos_as_xyz
  1  'x, y, z'
loop_
 _atom_site_type_symbol
 _atom_site_label
 _atom_site_symmetry_multiplicity
 _atom_site_fract_x
 _atom_site_fract_y
 _atom_site_fract_z
 _atom_site_occupancy
  Yb  Yb0  1  0.335347  0.337621  0.750191  1
  Er  Er1  1  0.995953  0.658772  0.749636  1
  Er  Er2  1  0.662431  0.663414  0.252646  1
  Er  Er3  1  0.000909  0.334686  0.246175  1
  Er  Er4  1  0.336798  0.001997  0.251081  1
  Hf  Hf5  1  0.657508  0.998964  0.750167  1
  H  H6  1  0.344739  0.958045  0.904762  1
  H  H7  1  0.649474  0.705551  0.904333  1
  H  H8  1  0.013553  0.351204  0.907404  1
  H  H9  1  0.316096  0.342046  0.405066  1
  H  H10  1  0.031069  0.680183  0.409508  1
  H  H11  1  0.657834  0.973699  0.421474  1
  H  H12  1  0.682463  0.027454  0.078852  1
  H  H13  1  0.347593  0.320185  0.095109  1
  H  H14  1  0.972754  0.659623  0.090247  1
  H  H15  1  0.684863  0.659939  0.591687  1
  H  H16  1  0.936307  0.304149  0.595713  1
  H  H17  1  0.379951  0.025426  0.595748  1
  H  H18  1  0.666714  0.311984  0.816345  1
  H  H19  1  0.668365  0.334654  0.309356  1
  H  H20  1  0.332774  0.667138  0.190224  1
  H  H21  1  0.349555  0.688977  0.683685  1
  H  H22  1  0.977205  0.995672  0.750092  1
  H  H23  1  0.999745  0.998616  0.250499  1
