# generated using pymatgen
data_SmEr(Tc2P)4
_symmetry_space_group_name_H-M   'P 1'
_cell_length_a   7.43454479
_cell_length_b   7.43454479
_cell_length_c   3.95381900
_cell_angle_alpha   90.00000000
_cell_angle_beta   90.00000000
_cell_angle_gamma   89.74236492
_symmetry_Int_Tables_number   1
_chemical_formula_structural   SmEr(Tc2P)4
_chemical_formula_sum   'Sm1 Er1 Tc8 P4'
_cell_volume   218.53507832
_cell_formula_units_Z   1
loop_
 _symmetry_equiv_pos_site_id
 _symmetry_equiv_pos_as_xyz
  1  'x, y, z'
loop_
 _atom_site_type_symbol
 _atom_site_label
 _atom_site_symmetry_multiplicity
 _atom_site_fract_x
 _atom_site_fract_y
 _atom_site_fract_z
 _atom_site_occupancy
  Sm  Sm0  1  0.500000  0.500000  0.000000  1
  Er  Er1  1  0.000000  0.000000  0.500000  1
  Tc  Tc2  1  0.583484  0.158522  0.500000  1
  Tc  Tc3  1  0.416516  0.841478  0.500000  1
  Tc  Tc4  1  0.081351  0.338163  0.000000  1
  Tc  Tc5  1  0.918649  0.661837  0.000000  1
  Tc  Tc6  1  0.158522  0.583484  0.500000  1
  Tc  Tc7  1  0.841478  0.416516  0.500000  1
  Tc  Tc8  1  0.338163  0.081351  0.000000  1
  Tc  Tc9  1  0.661837  0.918649  0.000000  1
  P  P10  1  0.713958  0.713958  0.500000  1
  P  P11  1  0.286042  0.286042  0.500000  1
  P  P12  1  0.210360  0.789640  0.000000  1
  P  P13  1  0.789640  0.210360  0.000000  1
