# generated using pymatgen
data_HfZr9(Sn3P)2
_symmetry_space_group_name_H-M   'P 1'
_cell_length_a   8.62899600
_cell_length_b   8.62899522
_cell_length_c   5.96487500
_cell_angle_alpha   90.00000000
_cell_angle_beta   90.00000000
_cell_angle_gamma   119.99998765
_symmetry_Int_Tables_number   1
_chemical_formula_structural   HfZr9(Sn3P)2
_chemical_formula_sum   'Hf1 Zr9 Sn6 P2'
_cell_volume   384.63830208
_cell_formula_units_Z   1
loop_
 _symmetry_equiv_pos_site_id
 _symmetry_equiv_pos_as_xyz
  1  'x, y, z'
loop_
 _atom_site_type_symbol
 _atom_site_label
 _atom_site_symmetry_multiplicity
 _atom_site_fract_x
 _atom_site_fract_y
 _atom_site_fract_z
 _atom_site_occupancy
  Hf  Hf0  1  0.666667  0.333333  0.000000  1
  Zr  Zr1  1  0.333333  0.666667  0.000000  1
  Zr  Zr2  1  0.333333  0.666667  0.500000  1
  Zr  Zr3  1  0.666667  0.333333  0.500000  1
  Zr  Zr4  1  0.750839  0.750696  0.749999  1
  Zr  Zr5  1  0.249304  0.000143  0.749999  1
  Zr  Zr6  1  0.999857  0.249161  0.749999  1
  Zr  Zr7  1  0.249304  0.249161  0.250001  1
  Zr  Zr8  1  0.750839  0.000143  0.250001  1
  Zr  Zr9  1  0.999857  0.750696  0.250001  1
  Sn  Sn10  1  0.400051  0.399639  0.750398  1
  Sn  Sn11  1  0.600361  0.000412  0.750398  1
  Sn  Sn12  1  0.999588  0.599949  0.750398  1
  Sn  Sn13  1  0.600361  0.599949  0.249602  1
  Sn  Sn14  1  0.400051  0.000412  0.249602  1
  Sn  Sn15  1  0.999588  0.399639  0.249602  1
  P  P16  1  0.000000  0.000000  0.000000  1
  P  P17  1  0.000000  0.000000  0.500000  1
