# generated using pymatgen
data_Tb2Nd(Cd2Ga)2
_symmetry_space_group_name_H-M   'P 1'
_cell_length_a   7.45262200
_cell_length_b   7.51188863
_cell_length_c   4.44009700
_cell_angle_alpha   90.00000000
_cell_angle_beta   90.00000000
_cell_angle_gamma   119.73934309
_symmetry_Int_Tables_number   1
_chemical_formula_structural   Tb2Nd(Cd2Ga)2
_chemical_formula_sum   'Tb2 Nd1 Cd4 Ga2'
_cell_volume   215.83210154
_cell_formula_units_Z   1
loop_
 _symmetry_equiv_pos_site_id
 _symmetry_equiv_pos_as_xyz
  1  'x, y, z'
loop_
 _atom_site_type_symbol
 _atom_site_label
 _atom_site_symmetry_multiplicity
 _atom_site_fract_x
 _atom_site_fract_y
 _atom_site_fract_z
 _atom_site_occupancy
  Tb  Tb0  1  0.998780  0.571366  0.000000  1
  Tb  Tb1  1  0.427414  0.428634  0.000000  1
  Nd  Nd2  1  0.571891  0.000000  0.000000  1
  Cd  Cd3  1  0.252495  0.000000  0.500000  1
  Cd  Cd4  1  0.001294  0.254814  0.500000  1
  Cd  Cd5  1  0.746481  0.745186  0.500000  1
  Cd  Cd6  1  0.003632  0.000000  0.000000  1
  Ga  Ga7  1  0.330246  0.662479  0.500000  1
  Ga  Ga8  1  0.667768  0.337521  0.500000  1
