# generated using pymatgen
data_DyMnTeO6
_symmetry_space_group_name_H-M   'P 1'
_cell_length_a   5.17701868
_cell_length_b   5.17037834
_cell_length_c   4.89714419
_cell_angle_alpha   90.90922067
_cell_angle_beta   90.73345594
_cell_angle_gamma   117.85665393
_symmetry_Int_Tables_number   1
_chemical_formula_structural   DyMnTeO6
_chemical_formula_sum   'Dy1 Mn1 Te1 O6'
_cell_volume   115.84774569
_cell_formula_units_Z   1
loop_
 _symmetry_equiv_pos_site_id
 _symmetry_equiv_pos_as_xyz
  1  'x, y, z'
loop_
 _atom_site_type_symbol
 _atom_site_label
 _atom_site_symmetry_multiplicity
 _atom_site_fract_x
 _atom_site_fract_y
 _atom_site_fract_z
 _atom_site_occupancy
  Dy  Dy0  1  0.520739  0.481214  0.500202  1
  Mn  Mn1  1  0.853168  0.150961  0.000687  1
  Te  Te2  1  0.189360  0.812079  0.999831  1
  O  O3  1  0.157774  0.115989  0.222403  1
  O  O4  1  0.494015  0.822090  0.233276  1
  O  O5  1  0.883561  0.492997  0.208762  1
  O  O6  1  0.505488  0.117135  0.790283  1
  O  O7  1  0.173465  0.506092  0.762186  1
  O  O8  1  0.881762  0.842129  0.782405  1
