# generated using pymatgen
data_TbYb2Er(Pd2Pb)2
_symmetry_space_group_name_H-M   'P 1'
_cell_length_a   7.87008549
_cell_length_b   7.87013688
_cell_length_c   3.66007900
_cell_angle_alpha   90.00000000
_cell_angle_beta   90.00000000
_cell_angle_gamma   91.11970865
_symmetry_Int_Tables_number   1
_chemical_formula_structural   TbYb2Er(Pd2Pb)2
_chemical_formula_sum   'Tb1 Yb2 Er1 Pd4 Pb2'
_cell_volume   226.65706387
_cell_formula_units_Z   1
loop_
 _symmetry_equiv_pos_site_id
 _symmetry_equiv_pos_as_xyz
  1  'x, y, z'
loop_
 _atom_site_type_symbol
 _atom_site_label
 _atom_site_symmetry_multiplicity
 _atom_site_fract_x
 _atom_site_fract_y
 _atom_site_fract_z
 _atom_site_occupancy
  Tb  Tb0  1  0.672043  0.172043  0.500000  1
  Yb  Yb1  1  0.169610  0.330736  0.500000  1
  Yb  Yb2  1  0.830733  0.669613  0.500000  1
  Er  Er3  1  0.328783  0.828783  0.500000  1
  Pd  Pd4  1  0.372956  0.122967  0.000000  1
  Pd  Pd5  1  0.129545  0.629549  0.000000  1
  Pd  Pd6  1  0.622964  0.872955  0.000000  1
  Pd  Pd7  1  0.873519  0.373527  0.000000  1
  Pb  Pb8  1  0.000103  0.999732  0.000000  1
  Pb  Pb9  1  0.499744  0.500097  0.000000  1
