# generated using pymatgen
data_Tb4TcOs7
_symmetry_space_group_name_H-M   'P 1'
_cell_length_a   5.32746609
_cell_length_b   5.32746648
_cell_length_c   8.85739600
_cell_angle_alpha   90.00000000
_cell_angle_beta   90.00000000
_cell_angle_gamma   118.86767571
_symmetry_Int_Tables_number   1
_chemical_formula_structural   Tb4TcOs7
_chemical_formula_sum   'Tb4 Tc1 Os7'
_cell_volume   220.15127248
_cell_formula_units_Z   1
loop_
 _symmetry_equiv_pos_site_id
 _symmetry_equiv_pos_as_xyz
  1  'x, y, z'
loop_
 _atom_site_type_symbol
 _atom_site_label
 _atom_site_symmetry_multiplicity
 _atom_site_fract_x
 _atom_site_fract_y
 _atom_site_fract_z
 _atom_site_occupancy
  Tb  Tb0  1  0.332091  0.667909  0.435697  1
  Tb  Tb1  1  0.666716  0.333284  0.565694  1
  Tb  Tb2  1  0.666716  0.333284  0.934306  1
  Tb  Tb3  1  0.332091  0.667909  0.064303  1
  Tc  Tc4  1  0.829702  0.170298  0.250000  1
  Os  Os5  1  0.996834  0.003166  0.499825  1
  Os  Os6  1  0.996834  0.003166  0.000175  1
  Os  Os7  1  0.827327  0.653414  0.250000  1
  Os  Os8  1  0.346586  0.172673  0.250000  1
  Os  Os9  1  0.174991  0.825009  0.750000  1
  Os  Os10  1  0.171675  0.341563  0.750000  1
  Os  Os11  1  0.658437  0.828325  0.750000  1
