# generated using pymatgen
data_Ti2AlB2Ir3Ru2
_symmetry_space_group_name_H-M   'P 1'
_cell_length_a   9.29718208
_cell_length_b   2.96157200
_cell_length_c   9.29890108
_cell_angle_alpha   90.00000000
_cell_angle_beta   90.01528209
_cell_angle_gamma   90.00000000
_symmetry_Int_Tables_number   1
_chemical_formula_structural   Ti2AlB2Ir3Ru2
_chemical_formula_sum   'Ti4 Al2 B4 Ir6 Ru4'
_cell_volume   256.03848246
_cell_formula_units_Z   2
loop_
 _symmetry_equiv_pos_site_id
 _symmetry_equiv_pos_as_xyz
  1  'x, y, z'
loop_
 _atom_site_type_symbol
 _atom_site_label
 _atom_site_symmetry_multiplicity
 _atom_site_fract_x
 _atom_site_fract_y
 _atom_site_fract_z
 _atom_site_occupancy
  Ti  Ti0  1  0.321625  0.000000  0.174380  1
  Ti  Ti1  1  0.831677  0.000000  0.317448  1
  Ti  Ti2  1  0.173202  0.000000  0.672453  1
  Ti  Ti3  1  0.676175  0.000000  0.832792  1
  Al  Al4  1  0.996944  0.000000  0.005235  1
  Al  Al5  1  0.500455  0.000000  0.499254  1
  B  B6  1  0.627570  0.000000  0.121610  1
  B  B7  1  0.121541  0.000000  0.371735  1
  B  B8  1  0.878426  0.000000  0.623358  1
  B  B9  1  0.375832  0.000000  0.878229  1
  Ir  Ir10  1  0.572106  0.500002  0.286878  1
  Ir  Ir11  1  0.286603  0.500002  0.430114  1
  Ir  Ir12  1  0.713431  0.500002  0.573624  1
  Ir  Ir13  1  0.428711  0.500002  0.713855  1
  Ir  Ir14  1  0.928290  0.500002  0.787209  1
  Ir  Ir15  1  0.211226  0.500002  0.925459  1
  Ru  Ru16  1  0.496735  0.500002  0.002121  1
  Ru  Ru17  1  0.784501  0.500002  0.071262  1
  Ru  Ru18  1  0.075193  0.500002  0.213556  1
  Ru  Ru19  1  0.999756  0.500002  0.499427  1
