# generated using pymatgen
data_Ho4Sc8In3Tc2
_symmetry_space_group_name_H-M   'P 1'
_cell_length_a   8.13141037
_cell_length_b   8.13141071
_cell_length_c   8.13141051
_cell_angle_alpha   110.51198622
_cell_angle_beta   110.51198421
_cell_angle_gamma   107.40916416
_symmetry_Int_Tables_number   1
_chemical_formula_structural   Ho4Sc8In3Tc2
_chemical_formula_sum   'Ho4 Sc8 In3 Tc2'
_cell_volume   413.48099558
_cell_formula_units_Z   1
loop_
 _symmetry_equiv_pos_site_id
 _symmetry_equiv_pos_as_xyz
  1  'x, y, z'
loop_
 _atom_site_type_symbol
 _atom_site_label
 _atom_site_symmetry_multiplicity
 _atom_site_fract_x
 _atom_site_fract_y
 _atom_site_fract_z
 _atom_site_occupancy
  Ho  Ho0  1  0.309274  0.309274  0.618548  1
  Ho  Ho1  1  0.690726  0.690726  0.381452  1
  Ho  Ho2  1  0.309274  0.690726  0.000000  1
  Ho  Ho3  1  0.690726  0.309274  0.000000  1
  Sc  Sc4  1  0.457343  0.204401  0.252942  1
  Sc  Sc5  1  0.542657  0.795599  0.747058  1
  Sc  Sc6  1  0.951459  0.204401  0.747058  1
  Sc  Sc7  1  0.204401  0.951459  0.747058  1
  Sc  Sc8  1  0.048541  0.795599  0.252942  1
  Sc  Sc9  1  0.795599  0.048541  0.252942  1
  Sc  Sc10  1  0.204401  0.457343  0.252942  1
  Sc  Sc11  1  0.795599  0.542657  0.747058  1
  In  In12  1  0.500000  0.000000  0.500000  1
  In  In13  1  0.000000  0.500000  0.500000  1
  In  In14  1  0.000000  0.000000  0.000000  1
  Tc  Tc15  1  0.334607  0.334607  0.000000  1
  Tc  Tc16  1  0.665393  0.665393  0.000000  1
