# generated using pymatgen
data_Rb2ScSn(PO4)3
_symmetry_space_group_name_H-M   'P 1'
_cell_length_a   10.25453100
_cell_length_b   10.25453100
_cell_length_c   10.25453100
_cell_angle_alpha   90.00000000
_cell_angle_beta   90.00000000
_cell_angle_gamma   90.00000000
_symmetry_Int_Tables_number   1
_chemical_formula_structural   Rb2ScSn(PO4)3
_chemical_formula_sum   'Rb8 Sc4 Sn4 P12 O48'
_cell_volume   1078.31937095
_cell_formula_units_Z   4
loop_
 _symmetry_equiv_pos_site_id
 _symmetry_equiv_pos_as_xyz
  1  'x, y, z'
loop_
 _atom_site_type_symbol
 _atom_site_label
 _atom_site_symmetry_multiplicity
 _atom_site_fract_x
 _atom_site_fract_y
 _atom_site_fract_z
 _atom_site_occupancy
  Rb  Rb0  1  0.070725  0.070725  0.070725  1
  Rb  Rb1  1  0.211761  0.711761  0.788239  1
  Rb  Rb2  1  0.288239  0.288239  0.288239  1
  Rb  Rb3  1  0.429275  0.929275  0.570725  1
  Rb  Rb4  1  0.570725  0.429275  0.929275  1
  Rb  Rb5  1  0.711761  0.788239  0.211761  1
  Rb  Rb6  1  0.788239  0.211761  0.711761  1
  Rb  Rb7  1  0.929275  0.570725  0.429275  1
  Sc  Sc8  1  0.086242  0.913758  0.413758  1
  Sc  Sc9  1  0.413758  0.086242  0.913758  1
  Sc  Sc10  1  0.586242  0.586242  0.586242  1
  Sc  Sc11  1  0.913758  0.413758  0.086242  1
  Sn  Sn12  1  0.147903  0.352097  0.647903  1
  Sn  Sn13  1  0.352097  0.647903  0.147903  1
  Sn  Sn14  1  0.647903  0.147903  0.352097  1
  Sn  Sn15  1  0.852097  0.852097  0.852097  1
  P  P16  1  0.039651  0.729867  0.123655  1
  P  P17  1  0.123655  0.039651  0.729867  1
  P  P18  1  0.229867  0.376345  0.960349  1
  P  P19  1  0.270133  0.623655  0.460349  1
  P  P20  1  0.376345  0.960349  0.229867  1
  P  P21  1  0.460349  0.270133  0.623655  1
  P  P22  1  0.539651  0.770133  0.876345  1
  P  P23  1  0.623655  0.460349  0.270133  1
  P  P24  1  0.729867  0.123655  0.039651  1
  P  P25  1  0.770133  0.876345  0.539651  1
  P  P26  1  0.876345  0.539651  0.770133  1
  P  P27  1  0.960349  0.229867  0.376345  1
  O  O28  1  0.002356  0.088596  0.355709  1
  O  O29  1  0.018721  0.954830  0.799566  1
  O  O30  1  0.021718  0.807384  0.250355  1
  O  O31  1  0.045170  0.299566  0.481279  1
  O  O32  1  0.075055  0.185425  0.737612  1
  O  O33  1  0.088596  0.355709  0.002356  1
  O  O34  1  0.144291  0.997644  0.588596  1
  O  O35  1  0.185425  0.737612  0.075055  1
  O  O36  1  0.192616  0.750355  0.478282  1
  O  O37  1  0.200434  0.518721  0.545170  1
  O  O38  1  0.237612  0.424945  0.814575  1
  O  O39  1  0.249645  0.978282  0.307384  1
  O  O40  1  0.250355  0.021718  0.807384  1
  O  O41  1  0.262388  0.575055  0.314575  1
  O  O42  1  0.299566  0.481279  0.045170  1
  O  O43  1  0.307384  0.249645  0.978282  1
  O  O44  1  0.314575  0.262388  0.575055  1
  O  O45  1  0.355709  0.002356  0.088596  1
  O  O46  1  0.411404  0.644291  0.502356  1
  O  O47  1  0.424945  0.814575  0.237612  1
  O  O48  1  0.454830  0.700434  0.981279  1
  O  O49  1  0.478282  0.192616  0.750355  1
  O  O50  1  0.481279  0.045170  0.299566  1
  O  O51  1  0.497644  0.911404  0.855709  1
  O  O52  1  0.502356  0.411404  0.644291  1
  O  O53  1  0.518721  0.545170  0.200434  1
  O  O54  1  0.521718  0.692616  0.749645  1
  O  O55  1  0.545170  0.200434  0.518721  1
  O  O56  1  0.575055  0.314575  0.262388  1
  O  O57  1  0.588596  0.144291  0.997644  1
  O  O58  1  0.644291  0.502356  0.411404  1
  O  O59  1  0.685425  0.762388  0.924945  1
  O  O60  1  0.692616  0.749645  0.521718  1
  O  O61  1  0.700434  0.981279  0.454830  1
  O  O62  1  0.737612  0.075055  0.185425  1
  O  O63  1  0.749645  0.521718  0.692616  1
  O  O64  1  0.750355  0.478282  0.192616  1
  O  O65  1  0.762388  0.924945  0.685425  1
  O  O66  1  0.799566  0.018721  0.954830  1
  O  O67  1  0.807384  0.250355  0.021718  1
  O  O68  1  0.814575  0.237612  0.424945  1
  O  O69  1  0.855709  0.497644  0.911404  1
  O  O70  1  0.911404  0.855709  0.497644  1
  O  O71  1  0.924945  0.685425  0.762388  1
  O  O72  1  0.954830  0.799566  0.018721  1
  O  O73  1  0.978282  0.307384  0.249645  1
  O  O74  1  0.981279  0.454830  0.700434  1
  O  O75  1  0.997644  0.588596  0.144291  1
