# generated using pymatgen
data_Sc2Nb4Re6Si5B
_symmetry_space_group_name_H-M   'P 1'
_cell_length_a   7.59042485
_cell_length_b   7.57398172
_cell_length_c   7.59042364
_cell_angle_alpha   126.38329136
_cell_angle_beta   127.90992316
_cell_angle_gamma   78.06693106
_symmetry_Int_Tables_number   1
_chemical_formula_structural   Sc2Nb4Re6Si5B
_chemical_formula_sum   'Sc2 Nb4 Re6 Si5 B1'
_cell_volume   268.49620416
_cell_formula_units_Z   1
loop_
 _symmetry_equiv_pos_site_id
 _symmetry_equiv_pos_as_xyz
  1  'x, y, z'
loop_
 _atom_site_type_symbol
 _atom_site_label
 _atom_site_symmetry_multiplicity
 _atom_site_fract_x
 _atom_site_fract_y
 _atom_site_fract_z
 _atom_site_occupancy
  Sc  Sc0  1  0.551526  0.098247  0.046720  1
  Sc  Sc1  1  0.450378  0.494401  0.544022  1
  Nb  Nb2  1  0.947785  0.493445  0.045661  1
  Nb  Nb3  1  0.051213  0.096573  0.545361  1
  Nb  Nb4  1  0.749602  0.894883  0.645281  1
  Nb  Nb5  1  0.249673  0.901806  0.152134  1
  Re  Re6  1  0.509896  0.247213  0.756863  1
  Re  Re7  1  0.990351  0.247213  0.237317  1
  Re  Re8  1  0.100772  0.744748  0.599243  1
  Re  Re9  1  0.873165  0.499681  0.619696  1
  Re  Re10  1  0.645505  0.744748  0.143976  1
  Re  Re11  1  0.379985  0.499681  0.126517  1
  Si  Si12  1  0.253694  0.503651  0.749957  1
  Si  Si13  1  0.331604  0.829126  0.495307  1
  Si  Si14  1  0.667735  0.161859  0.495963  1
  Si  Si15  1  0.833819  0.829126  0.997522  1
  Si  Si16  1  0.165896  0.161859  0.994123  1
  B  B17  1  0.747403  0.493939  0.246536  1
