# generated using pymatgen
data_NaLa4Y2IrBr12
_symmetry_space_group_name_H-M   'P 1'
_cell_length_a   9.69675761
_cell_length_b   9.65825080
_cell_length_c   9.42451146
_cell_angle_alpha   107.57435275
_cell_angle_beta   106.67267724
_cell_angle_gamma   106.70339903
_symmetry_Int_Tables_number   1
_chemical_formula_structural   NaLa4Y2IrBr12
_chemical_formula_sum   'Na1 La4 Y2 Ir1 Br12'
_cell_volume   735.35700551
_cell_formula_units_Z   1
loop_
 _symmetry_equiv_pos_site_id
 _symmetry_equiv_pos_as_xyz
  1  'x, y, z'
loop_
 _atom_site_type_symbol
 _atom_site_label
 _atom_site_symmetry_multiplicity
 _atom_site_fract_x
 _atom_site_fract_y
 _atom_site_fract_z
 _atom_site_occupancy
  Na  Na0  1  0.499814  0.500391  0.501718  1
  La  La1  1  0.111571  0.332211  0.029014  1
  La  La2  1  0.330695  0.028944  0.115866  1
  La  La3  1  0.026530  0.102943  0.303403  1
  La  La4  1  0.972676  0.890852  0.693513  1
  Y  Y5  1  0.680768  0.968563  0.886802  1
  Y  Y6  1  0.882836  0.677583  0.968096  1
  Ir  Ir7  1  0.998762  0.997664  0.997481  1
  Br  Br8  1  0.202379  0.682421  0.069468  1
  Br  Br9  1  0.450970  0.370529  0.153737  1
  Br  Br10  1  0.684225  0.072110  0.207886  1
  Br  Br11  1  0.922089  0.771214  0.304942  1
  Br  Br12  1  0.155470  0.454650  0.376661  1
  Br  Br13  1  0.372203  0.156901  0.459283  1
  Br  Br14  1  0.627473  0.849932  0.555259  1
  Br  Br15  1  0.844338  0.543652  0.638706  1
  Br  Br16  1  0.071957  0.215945  0.677932  1
  Br  Br17  1  0.328658  0.925531  0.779707  1
  Br  Br18  1  0.559211  0.640634  0.854440  1
  Br  Br19  1  0.777381  0.317331  0.926090  1
