# generated using pymatgen
data_Ba6TbY(Tc2O9)2
_symmetry_space_group_name_H-M   'P 1'
_cell_length_a   5.99377000
_cell_length_b   5.99376906
_cell_length_c   14.58864300
_cell_angle_alpha   90.00000000
_cell_angle_beta   90.00000000
_cell_angle_gamma   120.00000518
_symmetry_Int_Tables_number   1
_chemical_formula_structural   Ba6TbY(Tc2O9)2
_chemical_formula_sum   'Ba6 Tb1 Y1 Tc4 O18'
_cell_volume   453.88474359
_cell_formula_units_Z   1
loop_
 _symmetry_equiv_pos_site_id
 _symmetry_equiv_pos_as_xyz
  1  'x, y, z'
loop_
 _atom_site_type_symbol
 _atom_site_label
 _atom_site_symmetry_multiplicity
 _atom_site_fract_x
 _atom_site_fract_y
 _atom_site_fract_z
 _atom_site_occupancy
  Ba  Ba0  1  0.333333  0.666667  0.597195  1
  Ba  Ba1  1  0.666667  0.333333  0.097459  1
  Ba  Ba2  1  0.666667  0.333333  0.402805  1
  Ba  Ba3  1  0.333333  0.666667  0.902541  1
  Ba  Ba4  1  0.000000  0.000000  0.749735  1
  Ba  Ba5  1  0.000000  0.000000  0.250265  1
  Tb  Tb6  1  0.000000  0.000000  0.000000  1
  Y  Y7  1  0.000000  0.000000  0.500000  1
  Tc  Tc8  1  0.666667  0.333333  0.663950  1
  Tc  Tc9  1  0.333333  0.666667  0.164583  1
  Tc  Tc10  1  0.666667  0.333333  0.835417  1
  Tc  Tc11  1  0.333333  0.666667  0.336050  1
  O  O12  1  0.175987  0.824013  0.089430  1
  O  O13  1  0.175987  0.351974  0.089430  1
  O  O14  1  0.648026  0.824013  0.089430  1
  O  O15  1  0.351253  0.175626  0.589202  1
  O  O16  1  0.824013  0.648026  0.910570  1
  O  O17  1  0.824374  0.175626  0.589202  1
  O  O18  1  0.824374  0.648747  0.589202  1
  O  O19  1  0.175626  0.824374  0.410798  1
  O  O20  1  0.648747  0.824374  0.410798  1
  O  O21  1  0.351974  0.175987  0.910570  1
  O  O22  1  0.824013  0.175987  0.910570  1
  O  O23  1  0.175626  0.351253  0.410798  1
  O  O24  1  0.491622  0.983243  0.250184  1
  O  O25  1  0.508378  0.491622  0.749816  1
  O  O26  1  0.983243  0.491622  0.749816  1
  O  O27  1  0.016757  0.508378  0.250184  1
  O  O28  1  0.491622  0.508378  0.250184  1
  O  O29  1  0.508378  0.016757  0.749816  1
