# generated using pymatgen
data_Sr3V4SiGePb7O24
_symmetry_space_group_name_H-M   'P 1'
_cell_length_a   7.43076055
_cell_length_b   10.19334840
_cell_length_c   10.23518400
_cell_angle_alpha   60.88127191
_cell_angle_beta   89.74680551
_cell_angle_gamma   89.95108696
_symmetry_Int_Tables_number   1
_chemical_formula_structural   Sr3V4SiGePb7O24
_chemical_formula_sum   'Sr3 V4 Si1 Ge1 Pb7 O24'
_cell_volume   677.26754259
_cell_formula_units_Z   1
loop_
 _symmetry_equiv_pos_site_id
 _symmetry_equiv_pos_as_xyz
  1  'x, y, z'
loop_
 _atom_site_type_symbol
 _atom_site_label
 _atom_site_symmetry_multiplicity
 _atom_site_fract_x
 _atom_site_fract_y
 _atom_site_fract_z
 _atom_site_occupancy
  Sr  Sr0  1  0.754804  0.327379  0.336650  1
  Sr  Sr1  1  0.240378  0.659851  0.664392  1
  Sr  Sr2  1  0.759529  0.662002  0.665929  1
  V  V3  1  0.998502  0.598665  0.026372  1
  V  V4  1  0.500197  0.971285  0.629036  1
  V  V5  1  0.501746  0.624139  0.402124  1
  V  V6  1  0.499240  0.397426  0.974657  1
  Si  Si7  1  0.996667  0.387014  0.586992  1
  Ge  Ge8  1  0.999529  0.017606  0.380450  1
  Pb  Pb9  1  0.004417  0.235202  0.029769  1
  Pb  Pb10  1  0.002609  0.040892  0.730348  1
  Pb  Pb11  1  0.000815  0.735207  0.266889  1
  Pb  Pb12  1  0.498072  0.746028  0.991403  1
  Pb  Pb13  1  0.504306  0.001991  0.262803  1
  Pb  Pb14  1  0.516117  0.265065  0.735262  1
  Pb  Pb15  1  0.247876  0.324875  0.352192  1
  O  O16  1  0.809414  0.095993  0.259461  1
  O  O17  1  0.818451  0.272212  0.637266  1
  O  O18  1  0.809705  0.654494  0.087397  1
  O  O19  1  0.314926  0.911561  0.747067  1
  O  O20  1  0.313226  0.736924  0.352200  1
  O  O21  1  0.311490  0.343184  0.913921  1
  O  O22  1  0.684638  0.910224  0.746228  1
  O  O23  1  0.683553  0.745685  0.346098  1
  O  O24  1  0.681084  0.341140  0.906454  1
  O  O25  1  0.185278  0.091370  0.252769  1
  O  O26  1  0.175216  0.274071  0.629357  1
  O  O27  1  0.185546  0.657385  0.086275  1
  O  O28  1  0.999501  0.823172  0.491097  1
  O  O29  1  0.999090  0.499934  0.654943  1
  O  O30  1  0.000069  0.664441  0.836924  1
  O  O31  1  0.502423  0.165108  0.513920  1
  O  O32  1  0.505283  0.507320  0.324303  1
  O  O33  1  0.506096  0.316703  0.166954  1
  O  O34  1  0.000709  0.118923  0.483577  1
  O  O35  1  0.991164  0.481591  0.399069  1
  O  O36  1  0.994468  0.398391  0.123828  1
  O  O37  1  0.499223  0.874317  0.524030  1
  O  O38  1  0.504079  0.522169  0.602101  1
  O  O39  1  0.500560  0.599056  0.879493  1
