# generated using pymatgen
data_Tb10Y6Cd4PdPt3
_symmetry_space_group_name_H-M   'P 1'
_cell_length_a   9.72773573
_cell_length_b   9.73405808
_cell_length_c   9.73405900
_cell_angle_alpha   60.00000028
_cell_angle_beta   59.97849844
_cell_angle_gamma   59.97849287
_symmetry_Int_Tables_number   1
_chemical_formula_structural   Tb10Y6Cd4PdPt3
_chemical_formula_sum   'Tb10 Y6 Cd4 Pd1 Pt3'
_cell_volume   651.54352904
_cell_formula_units_Z   1
loop_
 _symmetry_equiv_pos_site_id
 _symmetry_equiv_pos_as_xyz
  1  'x, y, z'
loop_
 _atom_site_type_symbol
 _atom_site_label
 _atom_site_symmetry_multiplicity
 _atom_site_fract_x
 _atom_site_fract_y
 _atom_site_fract_z
 _atom_site_occupancy
  Tb  Tb0  1  0.351669  0.353675  0.353675  1
  Tb  Tb1  1  0.351669  0.353675  0.940981  1
  Tb  Tb2  1  0.351669  0.940981  0.353675  1
  Tb  Tb3  1  0.941671  0.352776  0.352776  1
  Tb  Tb4  1  0.812211  0.189254  0.189254  1
  Tb  Tb5  1  0.189052  0.810746  0.810746  1
  Tb  Tb6  1  0.189052  0.810746  0.189456  1
  Tb  Tb7  1  0.812211  0.189254  0.809282  1
  Tb  Tb8  1  0.189052  0.189456  0.810746  1
  Tb  Tb9  1  0.812211  0.809282  0.189254  1
  Y  Y10  1  0.935073  0.564961  0.564961  1
  Y  Y11  1  0.565044  0.934392  0.934392  1
  Y  Y12  1  0.565044  0.934392  0.566171  1
  Y  Y13  1  0.935073  0.564961  0.935005  1
  Y  Y14  1  0.565044  0.566171  0.934392  1
  Y  Y15  1  0.935073  0.935005  0.564961  1
  Cd  Cd16  1  0.582492  0.582503  0.582503  1
  Cd  Cd17  1  0.582492  0.582503  0.252501  1
  Cd  Cd18  1  0.582492  0.252501  0.582503  1
  Cd  Cd19  1  0.252300  0.582567  0.582567  1
  Pd  Pd20  1  0.567817  0.144060  0.144060  1
  Pt  Pt21  1  0.143861  0.143604  0.143604  1
  Pt  Pt22  1  0.143861  0.143604  0.568929  1
  Pt  Pt23  1  0.143861  0.568929  0.143604  1
