# generated using pymatgen
data_Gd7Th(Si4W3)4
_symmetry_space_group_name_H-M   'P 1'
_cell_length_a   6.81944915
_cell_length_b   6.96554283
_cell_length_c   12.98363500
_cell_angle_alpha   89.91130330
_cell_angle_beta   90.01216583
_cell_angle_gamma   90.02137249
_symmetry_Int_Tables_number   1
_chemical_formula_structural   Gd7Th(Si4W3)4
_chemical_formula_sum   'Gd7 Th1 Si16 W12'
_cell_volume   616.73699476
_cell_formula_units_Z   1
loop_
 _symmetry_equiv_pos_site_id
 _symmetry_equiv_pos_as_xyz
  1  'x, y, z'
loop_
 _atom_site_type_symbol
 _atom_site_label
 _atom_site_symmetry_multiplicity
 _atom_site_fract_x
 _atom_site_fract_y
 _atom_site_fract_z
 _atom_site_occupancy
  Gd  Gd0  1  0.495500  0.667317  0.593072  1
  Gd  Gd1  1  0.996459  0.834140  0.907178  1
  Gd  Gd2  1  0.503260  0.333625  0.093492  1
  Gd  Gd3  1  0.003342  0.166618  0.404843  1
  Gd  Gd4  1  0.503869  0.332679  0.404954  1
  Gd  Gd5  1  0.002942  0.166704  0.093210  1
  Gd  Gd6  1  0.496977  0.665429  0.908748  1
  Th  Th7  1  0.996665  0.832786  0.593323  1
  Si  Si8  1  0.659162  0.956979  0.451217  1
  Si  Si9  1  0.159514  0.542901  0.046991  1
  Si  Si10  1  0.340055  0.042833  0.953489  1
  Si  Si11  1  0.836734  0.450670  0.545252  1
  Si  Si12  1  0.343821  0.047420  0.545600  1
  Si  Si13  1  0.841626  0.457537  0.953017  1
  Si  Si14  1  0.659318  0.957356  0.047022  1
  Si  Si15  1  0.162313  0.539478  0.451853  1
  Si  Si16  1  0.463716  0.370028  0.750069  1
  Si  Si17  1  0.961632  0.134795  0.753138  1
  Si  Si18  1  0.537294  0.630732  0.249297  1
  Si  Si19  1  0.037674  0.869429  0.249084  1
  Si  Si20  1  0.690177  0.869645  0.752957  1
  Si  Si21  1  0.199169  0.628202  0.753175  1
  Si  Si22  1  0.304248  0.130378  0.249185  1
  Si  Si23  1  0.804159  0.369180  0.248959  1
  W  W24  1  0.667108  0.162382  0.627084  1
  W  W25  1  0.168063  0.335816  0.875098  1
  W  W26  1  0.333249  0.835169  0.125573  1
  W  W27  1  0.834686  0.664034  0.373772  1
  W  W28  1  0.333731  0.835737  0.373754  1
  W  W29  1  0.834466  0.664985  0.125708  1
  W  W30  1  0.664588  0.165851  0.874880  1
  W  W31  1  0.165782  0.336793  0.626857  1
  W  W32  1  0.834736  0.500416  0.748959  1
  W  W33  1  0.332857  0.002697  0.749440  1
  W  W34  1  0.165413  0.502086  0.250124  1
  W  W35  1  0.665697  0.997170  0.249622  1
