# generated using pymatgen
data_LaEu6TmSb6
_symmetry_space_group_name_H-M   'P 1'
_cell_length_a   8.30836613
_cell_length_b   8.39532928
_cell_length_c   8.37680100
_cell_angle_alpha   109.69056430
_cell_angle_beta   109.21206748
_cell_angle_gamma   109.29473059
_symmetry_Int_Tables_number   1
_chemical_formula_structural   LaEu6TmSb6
_chemical_formula_sum   'La1 Eu6 Tm1 Sb6'
_cell_volume   450.97980101
_cell_formula_units_Z   1
loop_
 _symmetry_equiv_pos_site_id
 _symmetry_equiv_pos_as_xyz
  1  'x, y, z'
loop_
 _atom_site_type_symbol
 _atom_site_label
 _atom_site_symmetry_multiplicity
 _atom_site_fract_x
 _atom_site_fract_y
 _atom_site_fract_z
 _atom_site_occupancy
  La  La0  1  0.499407  0.994407  0.636437  1
  Eu  Eu1  1  0.000880  0.640824  0.504445  1
  Eu  Eu2  1  0.863538  0.861030  0.859557  1
  Eu  Eu3  1  0.498149  0.998303  0.145052  1
  Eu  Eu4  1  0.144969  0.499928  0.000299  1
  Eu  Eu5  1  0.999784  0.148117  0.501663  1
  Eu  Eu6  1  0.351381  0.353402  0.351739  1
  Tm  Tm7  1  0.641333  0.502856  0.002163  1
  Sb  Sb8  1  0.864551  0.254763  0.118135  1
  Sb  Sb9  1  0.626848  0.742311  0.365709  1
  Sb  Sb10  1  0.264882  0.135606  0.875268  1
  Sb  Sb11  1  0.744369  0.377114  0.635127  1
  Sb  Sb12  1  0.112835  0.866162  0.246693  1
  Sb  Sb13  1  0.387076  0.625174  0.757711  1
