# generated using pymatgen
data_Lu20Bi11Te
_symmetry_space_group_name_H-M   'P 1'
_cell_length_a   8.09533803
_cell_length_b   9.38852100
_cell_length_c   11.74605714
_cell_angle_alpha   90.00000000
_cell_angle_beta   90.18956036
_cell_angle_gamma   90.00000000
_symmetry_Int_Tables_number   1
_chemical_formula_structural   Lu20Bi11Te
_chemical_formula_sum   'Lu20 Bi11 Te1'
_cell_volume   892.73364422
_cell_formula_units_Z   1
loop_
 _symmetry_equiv_pos_site_id
 _symmetry_equiv_pos_as_xyz
  1  'x, y, z'
loop_
 _atom_site_type_symbol
 _atom_site_label
 _atom_site_symmetry_multiplicity
 _atom_site_fract_x
 _atom_site_fract_y
 _atom_site_fract_z
 _atom_site_occupancy
  Lu  Lu0  1  0.022761  0.250000  0.511622  1
  Lu  Lu1  1  0.978062  0.750000  0.490173  1
  Lu  Lu2  1  0.477017  0.750000  0.010133  1
  Lu  Lu3  1  0.522964  0.250000  0.989187  1
  Lu  Lu4  1  0.357667  0.250000  0.284887  1
  Lu  Lu5  1  0.644365  0.750000  0.717718  1
  Lu  Lu6  1  0.145457  0.750000  0.781023  1
  Lu  Lu7  1  0.854015  0.250000  0.218318  1
  Lu  Lu8  1  0.187856  0.250000  0.782883  1
  Lu  Lu9  1  0.811741  0.750000  0.216500  1
  Lu  Lu10  1  0.312725  0.750000  0.283454  1
  Lu  Lu11  1  0.682291  0.250000  0.713230  1
  Lu  Lu12  1  0.192863  0.068213  0.059288  1
  Lu  Lu13  1  0.807164  0.933037  0.941114  1
  Lu  Lu14  1  0.309472  0.935729  0.558473  1
  Lu  Lu15  1  0.807164  0.566963  0.941114  1
  Lu  Lu16  1  0.690033  0.069657  0.442126  1
  Lu  Lu17  1  0.192863  0.431787  0.059288  1
  Lu  Lu18  1  0.690033  0.430343  0.442126  1
  Lu  Lu19  1  0.309472  0.564271  0.558473  1
  Bi  Bi20  1  0.598386  0.750000  0.456559  1
  Bi  Bi21  1  0.097773  0.750000  0.043616  1
  Bi  Bi22  1  0.902009  0.250000  0.955500  1
  Bi  Bi23  1  0.068070  0.004315  0.325935  1
  Bi  Bi24  1  0.933457  0.997060  0.676348  1
  Bi  Bi25  1  0.434019  0.996737  0.823245  1
  Bi  Bi26  1  0.933457  0.502940  0.676348  1
  Bi  Bi27  1  0.567113  0.003857  0.174924  1
  Bi  Bi28  1  0.068070  0.495685  0.325935  1
  Bi  Bi29  1  0.567113  0.496143  0.174924  1
  Bi  Bi30  1  0.434019  0.503263  0.823245  1
  Te  Te31  1  0.400529  0.250000  0.542292  1
