# generated using pymatgen
data_Ce3Ga24RePd8
_symmetry_space_group_name_H-M   'P 1'
_cell_length_a   8.51654586
_cell_length_b   8.51838100
_cell_length_c   8.51142204
_cell_angle_alpha   89.79208758
_cell_angle_beta   89.77933118
_cell_angle_gamma   89.79703941
_symmetry_Int_Tables_number   1
_chemical_formula_structural   Ce3Ga24RePd8
_chemical_formula_sum   'Ce3 Ga24 Re1 Pd8'
_cell_volume   617.46719947
_cell_formula_units_Z   1
loop_
 _symmetry_equiv_pos_site_id
 _symmetry_equiv_pos_as_xyz
  1  'x, y, z'
loop_
 _atom_site_type_symbol
 _atom_site_label
 _atom_site_symmetry_multiplicity
 _atom_site_fract_x
 _atom_site_fract_y
 _atom_site_fract_z
 _atom_site_occupancy
  Ce  Ce0  1  0.000000  0.500000  0.000000  1
  Ce  Ce1  1  0.500000  0.000000  0.000000  1
  Ce  Ce2  1  0.000000  0.000000  0.500000  1
  Ga  Ga3  1  0.989957  0.642894  0.643079  1
  Ga  Ga4  1  0.643000  0.643125  0.989916  1
  Ga  Ga5  1  0.642920  0.989904  0.643177  1
  Ga  Ga6  1  0.010043  0.357106  0.356921  1
  Ga  Ga7  1  0.357000  0.356875  0.010084  1
  Ga  Ga8  1  0.357080  0.010096  0.356823  1
  Ga  Ga9  1  0.735596  0.499974  0.264449  1
  Ga  Ga10  1  0.264404  0.500026  0.735551  1
  Ga  Ga11  1  0.500070  0.264402  0.735564  1
  Ga  Ga12  1  0.499930  0.735598  0.264436  1
  Ga  Ga13  1  0.264572  0.735423  0.499943  1
  Ga  Ga14  1  0.735428  0.264577  0.500057  1
  Ga  Ga15  1  0.838981  0.141540  0.839195  1
  Ga  Ga16  1  0.141705  0.839048  0.839247  1
  Ga  Ga17  1  0.839081  0.839109  0.141547  1
  Ga  Ga18  1  0.161019  0.858460  0.160805  1
  Ga  Ga19  1  0.858295  0.160952  0.160753  1
  Ga  Ga20  1  0.160919  0.160891  0.858453  1
  Ga  Ga21  1  0.728882  0.488003  0.728864  1
  Ga  Ga22  1  0.488075  0.728975  0.728962  1
  Ga  Ga23  1  0.728830  0.728862  0.488073  1
  Ga  Ga24  1  0.271118  0.511997  0.271136  1
  Ga  Ga25  1  0.511925  0.271025  0.271038  1
  Ga  Ga26  1  0.271170  0.271138  0.511927  1
  Re  Re27  1  0.500000  0.500000  0.500000  1
  Pd  Pd28  1  0.836128  0.836141  0.836137  1
  Pd  Pd29  1  0.163872  0.163859  0.163863  1
  Pd  Pd30  1  0.663928  0.336057  0.000002  1
  Pd  Pd31  1  0.000002  0.336131  0.664035  1
  Pd  Pd32  1  0.336039  0.999984  0.664158  1
  Pd  Pd33  1  0.336072  0.663943  0.999998  1
  Pd  Pd34  1  0.999998  0.663869  0.335965  1
  Pd  Pd35  1  0.663961  0.000016  0.335842  1
