# generated using pymatgen
data_NdCo3(Ni3B2)3
_symmetry_space_group_name_H-M   'P 1'
_cell_length_a   6.01422931
_cell_length_b   6.01422830
_cell_length_c   6.01422857
_cell_angle_alpha   104.42725500
_cell_angle_beta   104.42725376
_cell_angle_gamma   104.42724972
_symmetry_Int_Tables_number   1
_chemical_formula_structural   NdCo3(Ni3B2)3
_chemical_formula_sum   'Nd1 Co3 Ni9 B6'
_cell_volume   192.47581690
_cell_formula_units_Z   1
loop_
 _symmetry_equiv_pos_site_id
 _symmetry_equiv_pos_as_xyz
  1  'x, y, z'
loop_
 _atom_site_type_symbol
 _atom_site_label
 _atom_site_symmetry_multiplicity
 _atom_site_fract_x
 _atom_site_fract_y
 _atom_site_fract_z
 _atom_site_occupancy
  Nd  Nd0  1  0.000000  0.000000  0.000000  1
  Co  Co1  1  0.500000  0.866252  0.133748  1
  Co  Co2  1  0.133748  0.500000  0.866252  1
  Co  Co3  1  0.866252  0.133748  0.500000  1
  Ni  Ni4  1  0.543663  0.812977  0.545679  1
  Ni  Ni5  1  0.545679  0.543663  0.812977  1
  Ni  Ni6  1  0.812977  0.545679  0.543663  1
  Ni  Ni7  1  0.454321  0.187023  0.456337  1
  Ni  Ni8  1  0.456337  0.454321  0.187023  1
  Ni  Ni9  1  0.187023  0.456337  0.454321  1
  Ni  Ni10  1  0.131704  0.868296  0.500000  1
  Ni  Ni11  1  0.500000  0.131704  0.868296  1
  Ni  Ni12  1  0.868296  0.500000  0.131704  1
  B  B13  1  0.771472  0.332286  0.764890  1
  B  B14  1  0.764890  0.771472  0.332286  1
  B  B15  1  0.332286  0.764890  0.771472  1
  B  B16  1  0.235110  0.667714  0.228528  1
  B  B17  1  0.228528  0.235110  0.667714  1
  B  B18  1  0.667714  0.228528  0.235110  1
