# generated using pymatgen
data_Cr(TcTe2)2
_symmetry_space_group_name_H-M   'P 1'
_cell_length_a   7.05934684
_cell_length_b   7.04831419
_cell_length_c   7.05091494
_cell_angle_alpha   94.23823757
_cell_angle_beta   93.66934217
_cell_angle_gamma   94.00752619
_symmetry_Int_Tables_number   1
_chemical_formula_structural   Cr(TcTe2)2
_chemical_formula_sum   'Cr2 Tc4 Te8'
_cell_volume   348.16946251
_cell_formula_units_Z   2
loop_
 _symmetry_equiv_pos_site_id
 _symmetry_equiv_pos_as_xyz
  1  'x, y, z'
loop_
 _atom_site_type_symbol
 _atom_site_label
 _atom_site_symmetry_multiplicity
 _atom_site_fract_x
 _atom_site_fract_y
 _atom_site_fract_z
 _atom_site_occupancy
  Cr  Cr0  1  0.239090  0.086991  0.956938  1
  Cr  Cr1  1  0.956680  0.241610  0.084801  1
  Tc  Tc2  1  0.911331  0.047057  0.747657  1
  Tc  Tc3  1  0.746926  0.910526  0.046668  1
  Tc  Tc4  1  0.047312  0.747799  0.910352  1
  Tc  Tc5  1  0.087553  0.957240  0.250094  1
  Te  Te6  1  0.710123  0.706255  0.706239  1
  Te  Te7  1  0.285109  0.295726  0.281416  1
  Te  Te8  1  0.774341  0.126957  0.380875  1
  Te  Te9  1  0.382380  0.774015  0.120863  1
  Te  Te10  1  0.124927  0.379411  0.778784  1
  Te  Te11  1  0.232097  0.887818  0.621545  1
  Te  Te12  1  0.618880  0.225291  0.890832  1
  Te  Te13  1  0.883253  0.613304  0.222937  1
