# generated using pymatgen
data_Dy5TmRu2
_symmetry_space_group_name_H-M   'P 1'
_cell_length_a   7.29583957
_cell_length_b   9.16449600
_cell_length_c   6.29628409
_cell_angle_alpha   90.00000000
_cell_angle_beta   90.11337424
_cell_angle_gamma   90.00000000
_symmetry_Int_Tables_number   1
_chemical_formula_structural   Dy5TmRu2
_chemical_formula_sum   'Dy10 Tm2 Ru4'
_cell_volume   420.98568266
_cell_formula_units_Z   2
loop_
 _symmetry_equiv_pos_site_id
 _symmetry_equiv_pos_as_xyz
  1  'x, y, z'
loop_
 _atom_site_type_symbol
 _atom_site_label
 _atom_site_symmetry_multiplicity
 _atom_site_fract_x
 _atom_site_fract_y
 _atom_site_fract_z
 _atom_site_occupancy
  Dy  Dy0  1  0.459431  0.750000  0.134485  1
  Dy  Dy1  1  0.677285  0.064728  0.330478  1
  Dy  Dy2  1  0.677285  0.435271  0.330478  1
  Dy  Dy3  1  0.960412  0.750000  0.365049  1
  Dy  Dy4  1  0.040839  0.250000  0.633752  1
  Dy  Dy5  1  0.322408  0.564356  0.669174  1
  Dy  Dy6  1  0.322408  0.935645  0.669174  1
  Dy  Dy7  1  0.823158  0.564267  0.831608  1
  Dy  Dy8  1  0.823158  0.935734  0.831608  1
  Dy  Dy9  1  0.539785  0.250000  0.866442  1
  Tm  Tm10  1  0.176879  0.065567  0.168656  1
  Tm  Tm11  1  0.176879  0.434432  0.168656  1
  Ru  Ru12  1  0.886380  0.250000  0.040561  1
  Ru  Ru13  1  0.384360  0.250000  0.458934  1
  Ru  Ru14  1  0.614430  0.750000  0.540150  1
  Ru  Ru15  1  0.114900  0.750000  0.960796  1
