# generated using pymatgen
data_RbSrSm2CuSe5
_symmetry_space_group_name_H-M   'P 1'
_cell_length_a   7.73743360
_cell_length_b   7.73743439
_cell_length_c   18.36148500
_cell_angle_alpha   90.00000000
_cell_angle_beta   90.00000000
_cell_angle_gamma   148.17160082
_symmetry_Int_Tables_number   1
_chemical_formula_structural   RbSrSm2CuSe5
_chemical_formula_sum   'Rb2 Sr2 Sm4 Cu2 Se10'
_cell_volume   579.72615168
_cell_formula_units_Z   2
loop_
 _symmetry_equiv_pos_site_id
 _symmetry_equiv_pos_as_xyz
  1  'x, y, z'
loop_
 _atom_site_type_symbol
 _atom_site_label
 _atom_site_symmetry_multiplicity
 _atom_site_fract_x
 _atom_site_fract_y
 _atom_site_fract_z
 _atom_site_occupancy
  Rb  Rb0  1  0.523317  0.476683  0.250000  1
  Rb  Rb1  1  0.476683  0.523317  0.750000  1
  Sr  Sr2  1  0.000000  0.000000  0.000000  1
  Sr  Sr3  1  0.000000  0.000000  0.500000  1
  Sm  Sm4  1  0.729885  0.270115  0.603622  1
  Sm  Sm5  1  0.270115  0.729885  0.396378  1
  Sm  Sm6  1  0.270115  0.729885  0.103622  1
  Sm  Sm7  1  0.729885  0.270115  0.896378  1
  Cu  Cu8  1  0.794936  0.205064  0.250000  1
  Cu  Cu9  1  0.205064  0.794936  0.750000  1
  Se  Se10  1  0.645251  0.354749  0.047612  1
  Se  Se11  1  0.354749  0.645251  0.952388  1
  Se  Se12  1  0.354749  0.645251  0.547612  1
  Se  Se13  1  0.645251  0.354749  0.452388  1
  Se  Se14  1  0.893142  0.106858  0.141260  1
  Se  Se15  1  0.106858  0.893142  0.858740  1
  Se  Se16  1  0.106858  0.893142  0.641260  1
  Se  Se17  1  0.893142  0.106858  0.358740  1
  Se  Se18  1  0.202292  0.797708  0.250000  1
  Se  Se19  1  0.797708  0.202292  0.750000  1
