# generated using pymatgen
data_Nd4AgRh3Pb2
_symmetry_space_group_name_H-M   'P 1'
_cell_length_a   8.01517508
_cell_length_b   8.01517654
_cell_length_c   3.77796200
_cell_angle_alpha   90.00000000
_cell_angle_beta   90.00000000
_cell_angle_gamma   89.20962586
_symmetry_Int_Tables_number   1
_chemical_formula_structural   Nd4AgRh3Pb2
_chemical_formula_sum   'Nd4 Ag1 Rh3 Pb2'
_cell_volume   242.68468385
_cell_formula_units_Z   1
loop_
 _symmetry_equiv_pos_site_id
 _symmetry_equiv_pos_as_xyz
  1  'x, y, z'
loop_
 _atom_site_type_symbol
 _atom_site_label
 _atom_site_symmetry_multiplicity
 _atom_site_fract_x
 _atom_site_fract_y
 _atom_site_fract_z
 _atom_site_occupancy
  Nd  Nd0  1  0.676826  0.176826  0.500000  1
  Nd  Nd1  1  0.349155  0.849155  0.500000  1
  Nd  Nd2  1  0.165275  0.305027  0.500000  1
  Nd  Nd3  1  0.805027  0.665275  0.500000  1
  Ag  Ag4  1  0.125193  0.625193  0.000000  1
  Rh  Rh5  1  0.877339  0.377339  0.000000  1
  Rh  Rh6  1  0.633525  0.877952  0.000000  1
  Rh  Rh7  1  0.377952  0.133525  0.000000  1
  Pb  Pb8  1  0.994867  0.994839  0.000000  1
  Pb  Pb9  1  0.494839  0.494867  0.000000  1
