# generated using pymatgen
data_Ba5Fe3Re2O15
_symmetry_space_group_name_H-M   'P 1'
_cell_length_a   10.05815299
_cell_length_b   10.05815259
_cell_length_c   10.05815300
_cell_angle_alpha   99.67262051
_cell_angle_beta   99.67262013
_cell_angle_gamma   131.60284087
_symmetry_Int_Tables_number   1
_chemical_formula_structural   Ba5Fe3Re2O15
_chemical_formula_sum   'Ba10 Fe6 Re4 O30'
_cell_volume   694.02771666
_cell_formula_units_Z   2
loop_
 _symmetry_equiv_pos_site_id
 _symmetry_equiv_pos_as_xyz
  1  'x, y, z'
loop_
 _atom_site_type_symbol
 _atom_site_label
 _atom_site_symmetry_multiplicity
 _atom_site_fract_x
 _atom_site_fract_y
 _atom_site_fract_z
 _atom_site_occupancy
  Ba  Ba0  1  0.250000  0.750000  0.500000  1
  Ba  Ba1  1  0.854905  0.950792  0.290750  1
  Ba  Ba2  1  0.435845  0.145095  0.095887  1
  Ba  Ba3  1  0.049208  0.339957  0.904113  1
  Ba  Ba4  1  0.660043  0.564155  0.709250  1
  Ba  Ba5  1  0.145095  0.049208  0.709250  1
  Ba  Ba6  1  0.750000  0.250000  0.500000  1
  Ba  Ba7  1  0.339957  0.435845  0.290750  1
  Ba  Ba8  1  0.950792  0.660043  0.095887  1
  Ba  Ba9  1  0.564155  0.854905  0.904113  1
  Fe  Fe10  1  0.700067  0.896829  0.596896  1
  Fe  Fe11  1  0.299933  0.103171  0.403104  1
  Fe  Fe12  1  0.896829  0.299933  0.196762  1
  Fe  Fe13  1  0.500000  0.500000  0.000000  1
  Fe  Fe14  1  0.103171  0.700067  0.803238  1
  Fe  Fe15  1  0.000000  0.000000  0.000000  1
  Re  Re16  1  0.599019  0.197485  0.796504  1
  Re  Re17  1  0.197485  0.400981  0.598466  1
  Re  Re18  1  0.802515  0.599019  0.401534  1
  Re  Re19  1  0.400981  0.802515  0.203496  1
  O  O20  1  0.434313  0.637839  0.595890  1
  O  O21  1  0.041948  0.838422  0.404110  1
  O  O22  1  0.637839  0.041948  0.203526  1
  O  O23  1  0.250407  0.250407  0.000000  1
  O  O24  1  0.838422  0.434313  0.796474  1
  O  O25  1  0.752681  0.742624  0.495304  1
  O  O26  1  0.354592  0.945498  0.300090  1
  O  O27  1  0.948211  0.155517  0.103728  1
  O  O28  1  0.552308  0.335886  0.888194  1
  O  O29  1  0.149979  0.546007  0.695986  1
  O  O30  1  0.844483  0.948211  0.792693  1
  O  O31  1  0.453993  0.149979  0.603973  1
  O  O32  1  0.054502  0.354592  0.409094  1
  O  O33  1  0.664114  0.552308  0.216421  1
  O  O34  1  0.257376  0.752681  0.010057  1
  O  O35  1  0.958052  0.161578  0.595890  1
  O  O36  1  0.565687  0.362161  0.404110  1
  O  O37  1  0.161578  0.565687  0.203526  1
  O  O38  1  0.749593  0.749593  0.000000  1
  O  O39  1  0.362161  0.958052  0.796474  1
  O  O40  1  0.645408  0.054502  0.699910  1
  O  O41  1  0.247319  0.257376  0.504696  1
  O  O42  1  0.850021  0.453993  0.304014  1
  O  O43  1  0.447692  0.664114  0.111806  1
  O  O44  1  0.051789  0.844483  0.896272  1
  O  O45  1  0.546007  0.850021  0.396027  1
  O  O46  1  0.155517  0.051789  0.207307  1
  O  O47  1  0.742624  0.247319  0.989943  1
  O  O48  1  0.335886  0.447692  0.783579  1
  O  O49  1  0.945498  0.645408  0.590906  1
