# generated using pymatgen
data_Y4Al16Si2Ir5Rh
_symmetry_space_group_name_H-M   'P 1'
_cell_length_a   7.54229462
_cell_length_b   7.54229492
_cell_length_c   9.37512311
_cell_angle_alpha   89.99116402
_cell_angle_beta   89.99116747
_cell_angle_gamma   119.58749323
_symmetry_Int_Tables_number   1
_chemical_formula_structural   Y4Al16Si2Ir5Rh
_chemical_formula_sum   'Y4 Al16 Si2 Ir5 Rh1'
_cell_volume   463.77235392
_cell_formula_units_Z   1
loop_
 _symmetry_equiv_pos_site_id
 _symmetry_equiv_pos_as_xyz
  1  'x, y, z'
loop_
 _atom_site_type_symbol
 _atom_site_label
 _atom_site_symmetry_multiplicity
 _atom_site_fract_x
 _atom_site_fract_y
 _atom_site_fract_z
 _atom_site_occupancy
  Y  Y0  1  0.994810  0.675130  0.250160  1
  Y  Y1  1  0.005190  0.324870  0.749840  1
  Y  Y2  1  0.675130  0.994810  0.250160  1
  Y  Y3  1  0.324870  0.005190  0.749840  1
  Al  Al4  1  0.001656  0.336146  0.076481  1
  Al  Al5  1  0.998344  0.663854  0.923519  1
  Al  Al6  1  0.998467  0.663477  0.576171  1
  Al  Al7  1  0.336523  0.001533  0.423829  1
  Al  Al8  1  0.001533  0.336523  0.423829  1
  Al  Al9  1  0.663477  0.998467  0.576171  1
  Al  Al10  1  0.663854  0.998344  0.923519  1
  Al  Al11  1  0.336146  0.001656  0.076481  1
  Al  Al12  1  0.335464  0.335464  0.556168  1
  Al  Al13  1  0.664536  0.664536  0.443832  1
  Al  Al14  1  0.664527  0.664527  0.056349  1
  Al  Al15  1  0.335473  0.335473  0.943651  1
  Al  Al16  1  0.335501  0.548530  0.250018  1
  Al  Al17  1  0.664499  0.451470  0.749982  1
  Al  Al18  1  0.548530  0.335501  0.250018  1
  Al  Al19  1  0.451470  0.664499  0.749982  1
  Si  Si20  1  0.128648  0.128648  0.249593  1
  Si  Si21  1  0.871352  0.871352  0.750407  1
  Ir  Ir22  1  0.671898  0.328102  0.000000  1
  Ir  Ir23  1  0.328102  0.671898  0.000000  1
  Ir  Ir24  1  0.328306  0.671694  0.500000  1
  Ir  Ir25  1  0.671694  0.328306  0.500000  1
  Ir  Ir26  1  0.000000  0.000000  0.500000  1
  Rh  Rh27  1  0.000000  0.000000  0.000000  1
