# generated using pymatgen
data_Tb12Th4Mg3HgRh4
_symmetry_space_group_name_H-M   'P 1'
_cell_length_a   9.80468287
_cell_length_b   9.80468332
_cell_length_c   9.80468376
_cell_angle_alpha   59.87490716
_cell_angle_beta   59.87490313
_cell_angle_gamma   59.87490463
_symmetry_Int_Tables_number   1
_chemical_formula_structural   Tb12Th4Mg3HgRh4
_chemical_formula_sum   'Tb12 Th4 Mg3 Hg1 Rh4'
_cell_volume   664.58608279
_cell_formula_units_Z   1
loop_
 _symmetry_equiv_pos_site_id
 _symmetry_equiv_pos_as_xyz
  1  'x, y, z'
loop_
 _atom_site_type_symbol
 _atom_site_label
 _atom_site_symmetry_multiplicity
 _atom_site_fract_x
 _atom_site_fract_y
 _atom_site_fract_z
 _atom_site_occupancy
  Tb  Tb0  1  0.812408  0.187887  0.187887  1
  Tb  Tb1  1  0.186307  0.812702  0.812702  1
  Tb  Tb2  1  0.187887  0.812408  0.187887  1
  Tb  Tb3  1  0.812702  0.186307  0.812702  1
  Tb  Tb4  1  0.187887  0.187887  0.812408  1
  Tb  Tb5  1  0.812702  0.812702  0.186307  1
  Tb  Tb6  1  0.933821  0.565277  0.565277  1
  Tb  Tb7  1  0.564377  0.934704  0.934704  1
  Tb  Tb8  1  0.565277  0.933821  0.565277  1
  Tb  Tb9  1  0.934704  0.564377  0.934704  1
  Tb  Tb10  1  0.565277  0.565277  0.933821  1
  Tb  Tb11  1  0.934704  0.934704  0.564377  1
  Th  Th12  1  0.347556  0.347556  0.347556  1
  Th  Th13  1  0.350247  0.350247  0.951713  1
  Th  Th14  1  0.350247  0.951713  0.350247  1
  Th  Th15  1  0.951713  0.350247  0.350247  1
  Mg  Mg16  1  0.579429  0.579429  0.262290  1
  Mg  Mg17  1  0.579429  0.262290  0.579429  1
  Mg  Mg18  1  0.262290  0.579429  0.579429  1
  Hg  Hg19  1  0.582950  0.582950  0.582950  1
  Rh  Rh20  1  0.144838  0.144838  0.144838  1
  Rh  Rh21  1  0.143986  0.143986  0.565274  1
  Rh  Rh22  1  0.143986  0.565274  0.143986  1
  Rh  Rh23  1  0.565274  0.143986  0.143986  1
