# generated using pymatgen
data_PrNd2Ta(Co4P3)2
_symmetry_space_group_name_H-M   'P 1'
_cell_length_a   3.78016200
_cell_length_b   10.79026900
_cell_length_c   12.52287700
_cell_angle_alpha   90.00000000
_cell_angle_beta   90.00000000
_cell_angle_gamma   90.00000000
_symmetry_Int_Tables_number   1
_chemical_formula_structural   PrNd2Ta(Co4P3)2
_chemical_formula_sum   'Pr2 Nd4 Ta2 Co16 P12'
_cell_volume   510.79518969
_cell_formula_units_Z   2
loop_
 _symmetry_equiv_pos_site_id
 _symmetry_equiv_pos_as_xyz
  1  'x, y, z'
loop_
 _atom_site_type_symbol
 _atom_site_label
 _atom_site_symmetry_multiplicity
 _atom_site_fract_x
 _atom_site_fract_y
 _atom_site_fract_z
 _atom_site_occupancy
  Pr  Pr0  1  0.000000  0.500000  0.527130  1
  Pr  Pr1  1  0.500000  0.000000  0.472870  1
  Nd  Nd2  1  0.500000  0.820282  0.204796  1
  Nd  Nd3  1  0.500000  0.179718  0.204796  1
  Nd  Nd4  1  0.000000  0.679718  0.795204  1
  Nd  Nd5  1  0.000000  0.320282  0.795204  1
  Ta  Ta6  1  0.500000  0.500000  0.154330  1
  Ta  Ta7  1  0.000000  0.000000  0.845670  1
  Co  Co8  1  0.500000  0.500000  0.705319  1
  Co  Co9  1  0.000000  0.000000  0.294681  1
  Co  Co10  1  0.000000  0.500000  0.988920  1
  Co  Co11  1  0.500000  0.000000  0.011080  1
  Co  Co12  1  0.500000  0.332583  0.993861  1
  Co  Co13  1  0.500000  0.667417  0.993861  1
  Co  Co14  1  0.000000  0.167417  0.006139  1
  Co  Co15  1  0.000000  0.832583  0.006139  1
  Co  Co16  1  0.500000  0.295815  0.431851  1
  Co  Co17  1  0.500000  0.704185  0.431851  1
  Co  Co18  1  0.000000  0.204185  0.568149  1
  Co  Co19  1  0.000000  0.795815  0.568149  1
  Co  Co20  1  0.500000  0.880333  0.706845  1
  Co  Co21  1  0.500000  0.119667  0.706845  1
  Co  Co22  1  0.000000  0.619667  0.293155  1
  Co  Co23  1  0.000000  0.380333  0.293155  1
  P  P24  1  0.500000  0.500000  0.887253  1
  P  P25  1  0.000000  0.000000  0.112747  1
  P  P26  1  0.500000  0.500000  0.351497  1
  P  P27  1  0.000000  0.000000  0.648503  1
  P  P28  1  0.500000  0.305253  0.614535  1
  P  P29  1  0.500000  0.694747  0.614535  1
  P  P30  1  0.000000  0.194747  0.385465  1
  P  P31  1  0.000000  0.805253  0.385465  1
  P  P32  1  0.500000  0.843103  0.895490  1
  P  P33  1  0.500000  0.156897  0.895490  1
  P  P34  1  0.000000  0.656897  0.104510  1
  P  P35  1  0.000000  0.343103  0.104510  1
