# generated using pymatgen
data_Tb8Ho2Os3Ru
_symmetry_space_group_name_H-M   'P 1'
_cell_length_a   6.39355712
_cell_length_b   7.32025802
_cell_length_c   8.47514460
_cell_angle_alpha   96.76642658
_cell_angle_beta   112.16252893
_cell_angle_gamma   89.89619353
_symmetry_Int_Tables_number   1
_chemical_formula_structural   Tb8Ho2Os3Ru
_chemical_formula_sum   'Tb8 Ho2 Os3 Ru1'
_cell_volume   364.40085556
_cell_formula_units_Z   1
loop_
 _symmetry_equiv_pos_site_id
 _symmetry_equiv_pos_as_xyz
  1  'x, y, z'
loop_
 _atom_site_type_symbol
 _atom_site_label
 _atom_site_symmetry_multiplicity
 _atom_site_fract_x
 _atom_site_fract_y
 _atom_site_fract_z
 _atom_site_occupancy
  Tb  Tb0  1  0.977116  0.915957  0.183269  1
  Tb  Tb1  1  0.793177  0.583560  0.815722  1
  Tb  Tb2  1  0.021855  0.083578  0.814289  1
  Tb  Tb3  1  0.206568  0.415269  0.183670  1
  Tb  Tb4  1  0.639293  0.815306  0.434108  1
  Tb  Tb5  1  0.205490  0.685246  0.565988  1
  Tb  Tb6  1  0.359580  0.185499  0.566688  1
  Tb  Tb7  1  0.796347  0.315585  0.434483  1
  Ho  Ho8  1  0.423847  0.749211  0.999421  1
  Ho  Ho9  1  0.576689  0.250838  0.999794  1
  Os  Os10  1  0.821902  0.576333  0.218028  1
  Os  Os11  1  0.603359  0.925094  0.781919  1
  Os  Os12  1  0.178634  0.423575  0.782782  1
  Ru  Ru13  1  0.396144  0.074948  0.219839  1
