# generated using pymatgen
data_Sm2Ho5Th(CdIr)2
_symmetry_space_group_name_H-M   'P 1'
_cell_length_a   9.71059481
_cell_length_b   9.70449762
_cell_length_c   9.70587219
_cell_angle_alpha   60.03653200
_cell_angle_beta   59.97784241
_cell_angle_gamma   60.25012552
_symmetry_Int_Tables_number   1
_chemical_formula_structural   Sm2Ho5Th(CdIr)2
_chemical_formula_sum   'Sm4 Ho10 Th2 Cd4 Ir4'
_cell_volume   648.03702829
_cell_formula_units_Z   2
loop_
 _symmetry_equiv_pos_site_id
 _symmetry_equiv_pos_as_xyz
  1  'x, y, z'
loop_
 _atom_site_type_symbol
 _atom_site_label
 _atom_site_symmetry_multiplicity
 _atom_site_fract_x
 _atom_site_fract_y
 _atom_site_fract_z
 _atom_site_occupancy
  Sm  Sm0  1  0.813845  0.188807  0.813187  1
  Sm  Sm1  1  0.188803  0.813893  0.184107  1
  Sm  Sm2  1  0.814382  0.814425  0.185578  1
  Sm  Sm3  1  0.191573  0.191579  0.808418  1
  Ho  Ho4  1  0.602572  0.197795  0.599649  1
  Ho  Ho5  1  0.197812  0.602582  0.599966  1
  Ho  Ho6  1  0.062670  0.439046  0.436942  1
  Ho  Ho7  1  0.439024  0.062660  0.061353  1
  Ho  Ho8  1  0.438432  0.062688  0.438030  1
  Ho  Ho9  1  0.062678  0.438442  0.060841  1
  Ho  Ho10  1  0.435381  0.435386  0.064635  1
  Ho  Ho11  1  0.062042  0.062030  0.437950  1
  Ho  Ho12  1  0.191026  0.810917  0.810240  1
  Ho  Ho13  1  0.810883  0.191014  0.187847  1
  Th  Th14  1  0.596501  0.595409  0.600704  1
  Th  Th15  1  0.595442  0.596509  0.207385  1
  Cd  Cd16  1  0.832614  0.830516  0.828302  1
  Cd  Cd17  1  0.830521  0.832618  0.508561  1
  Cd  Cd18  1  0.831631  0.505121  0.832652  1
  Cd  Cd19  1  0.505129  0.831634  0.830594  1
  Ir  Ir20  1  0.392154  0.389991  0.395262  1
  Ir  Ir21  1  0.390014  0.392112  0.822622  1
  Ir  Ir22  1  0.392080  0.822790  0.393865  1
  Ir  Ir23  1  0.822796  0.392040  0.391313  1
