# generated using pymatgen
data_Dy6Cd23Si
_symmetry_space_group_name_H-M   'P 1'
_cell_length_a   9.95629081
_cell_length_b   9.95629121
_cell_length_c   9.95629200
_cell_angle_alpha   60.00000403
_cell_angle_beta   60.00000268
_cell_angle_gamma   60.00000121
_symmetry_Int_Tables_number   1
_chemical_formula_structural   Dy6Cd23Si
_chemical_formula_sum   'Dy6 Cd23 Si1'
_cell_volume   697.87528361
_cell_formula_units_Z   1
loop_
 _symmetry_equiv_pos_site_id
 _symmetry_equiv_pos_as_xyz
  1  'x, y, z'
loop_
 _atom_site_type_symbol
 _atom_site_label
 _atom_site_symmetry_multiplicity
 _atom_site_fract_x
 _atom_site_fract_y
 _atom_site_fract_z
 _atom_site_occupancy
  Dy  Dy0  1  0.702253  0.297747  0.297747  1
  Dy  Dy1  1  0.702253  0.297747  0.702253  1
  Dy  Dy2  1  0.702253  0.702253  0.297747  1
  Dy  Dy3  1  0.297747  0.702253  0.702253  1
  Dy  Dy4  1  0.297747  0.702253  0.297747  1
  Dy  Dy5  1  0.297747  0.297747  0.702253  1
  Cd  Cd6  1  0.634605  0.121798  0.121798  1
  Cd  Cd7  1  0.121798  0.634605  0.121798  1
  Cd  Cd8  1  0.121798  0.121798  0.634605  1
  Cd  Cd9  1  0.121798  0.121798  0.121798  1
  Cd  Cd10  1  0.365395  0.878202  0.878202  1
  Cd  Cd11  1  0.878202  0.365395  0.878202  1
  Cd  Cd12  1  0.878202  0.878202  0.365395  1
  Cd  Cd13  1  0.878202  0.878202  0.878202  1
  Cd  Cd14  1  0.500000  0.000000  0.000000  1
  Cd  Cd15  1  0.500000  0.000000  0.500000  1
  Cd  Cd16  1  0.500000  0.500000  0.000000  1
  Cd  Cd17  1  0.000000  0.500000  0.500000  1
  Cd  Cd18  1  0.000000  0.500000  0.000000  1
  Cd  Cd19  1  0.000000  0.000000  0.500000  1
  Cd  Cd20  1  0.000000  0.000000  0.000000  1
  Cd  Cd21  1  0.986913  0.337696  0.337696  1
  Cd  Cd22  1  0.337696  0.986913  0.337696  1
  Cd  Cd23  1  0.337696  0.337696  0.986913  1
  Cd  Cd24  1  0.337696  0.337696  0.337696  1
  Cd  Cd25  1  0.013087  0.662304  0.662304  1
  Cd  Cd26  1  0.662304  0.013087  0.662304  1
  Cd  Cd27  1  0.662304  0.662304  0.013087  1
  Cd  Cd28  1  0.662304  0.662304  0.662304  1
  Si  Si29  1  0.500000  0.500000  0.500000  1
