# generated using pymatgen
data_Hf6Zr2Co11Si16Ir
_symmetry_space_group_name_H-M   'P 1'
_cell_length_a   5.23705453
_cell_length_b   6.76192106
_cell_length_c   13.72860869
_cell_angle_alpha   90.11464007
_cell_angle_beta   89.99973930
_cell_angle_gamma   89.84364958
_symmetry_Int_Tables_number   1
_chemical_formula_structural   Hf6Zr2Co11Si16Ir
_chemical_formula_sum   'Hf6 Zr2 Co11 Si16 Ir1'
_cell_volume   486.16224978
_cell_formula_units_Z   1
loop_
 _symmetry_equiv_pos_site_id
 _symmetry_equiv_pos_as_xyz
  1  'x, y, z'
loop_
 _atom_site_type_symbol
 _atom_site_label
 _atom_site_symmetry_multiplicity
 _atom_site_fract_x
 _atom_site_fract_y
 _atom_site_fract_z
 _atom_site_occupancy
  Hf  Hf0  1  0.267964  0.100414  0.644181  1
  Hf  Hf1  1  0.763722  0.401914  0.643911  1
  Hf  Hf2  1  0.232990  0.600926  0.355417  1
  Hf  Hf3  1  0.733089  0.898563  0.355251  1
  Hf  Hf4  1  0.263446  0.903483  0.852925  1
  Hf  Hf5  1  0.770487  0.601232  0.850783  1
  Zr  Zr6  1  0.236374  0.398557  0.150465  1
  Zr  Zr7  1  0.731821  0.099628  0.149248  1
  Co  Co8  1  0.506079  0.226708  0.481973  1
  Co  Co9  1  0.771891  0.999351  0.748592  1
  Co  Co10  1  0.492149  0.221105  0.978998  1
  Co  Co11  1  0.728062  0.502607  0.253695  1
  Co  Co12  1  0.494918  0.773948  0.518708  1
  Co  Co13  1  0.006379  0.273688  0.482112  1
  Co  Co14  1  0.004302  0.724640  0.019386  1
  Co  Co15  1  0.226620  0.996434  0.253586  1
  Co  Co16  1  0.275851  0.503918  0.748857  1
  Co  Co17  1  0.504045  0.771316  0.019224  1
  Co  Co18  1  0.994710  0.726677  0.518384  1
  Si  Si19  1  0.223631  0.012259  0.071289  1
  Si  Si20  1  0.720155  0.519445  0.432587  1
  Si  Si21  1  0.781052  0.019248  0.567927  1
  Si  Si22  1  0.482487  0.753279  0.189870  1
  Si  Si23  1  0.018270  0.255105  0.802440  1
  Si  Si24  1  0.516906  0.247306  0.809714  1
  Si  Si25  1  0.220091  0.980771  0.432536  1
  Si  Si26  1  0.291847  0.526641  0.930086  1
  Si  Si27  1  0.982202  0.745916  0.189197  1
  Si  Si28  1  0.711777  0.485182  0.070893  1
  Si  Si29  1  0.280104  0.482087  0.567915  1
  Si  Si30  1  0.482953  0.245977  0.314332  1
  Si  Si31  1  0.018344  0.747573  0.686436  1
  Si  Si32  1  0.772667  0.971337  0.930185  1
  Si  Si33  1  0.517019  0.755461  0.687172  1
  Si  Si34  1  0.982606  0.252842  0.314007  1
  Ir  Ir35  1  0.992988  0.274463  0.977722  1
