# generated using pymatgen
data_Ho2B2SbRh5
_symmetry_space_group_name_H-M   'P 1'
_cell_length_a   9.54040100
_cell_length_b   9.54040100
_cell_length_c   3.30795800
_cell_angle_alpha   90.00000000
_cell_angle_beta   90.00000000
_cell_angle_gamma   90.00000000
_symmetry_Int_Tables_number   1
_chemical_formula_structural   Ho2B2SbRh5
_chemical_formula_sum   'Ho4 B4 Sb2 Rh10'
_cell_volume   301.08786030
_cell_formula_units_Z   2
loop_
 _symmetry_equiv_pos_site_id
 _symmetry_equiv_pos_as_xyz
  1  'x, y, z'
loop_
 _atom_site_type_symbol
 _atom_site_label
 _atom_site_symmetry_multiplicity
 _atom_site_fract_x
 _atom_site_fract_y
 _atom_site_fract_z
 _atom_site_occupancy
  Ho  Ho0  1  0.824731  0.324731  0.000000  1
  Ho  Ho1  1  0.324731  0.175269  0.000000  1
  Ho  Ho2  1  0.675269  0.824731  0.000000  1
  Ho  Ho3  1  0.175269  0.675269  0.000000  1
  B  B4  1  0.619287  0.119287  0.000000  1
  B  B5  1  0.119287  0.380713  0.000000  1
  B  B6  1  0.880713  0.619287  0.000000  1
  B  B7  1  0.380713  0.880713  0.000000  1
  Sb  Sb8  1  0.000000  0.000000  0.000000  1
  Sb  Sb9  1  0.500000  0.500000  0.000000  1
  Rh  Rh10  1  0.070915  0.224093  0.500000  1
  Rh  Rh11  1  0.224093  0.929085  0.500000  1
  Rh  Rh12  1  0.775907  0.070915  0.500000  1
  Rh  Rh13  1  0.929085  0.775907  0.500000  1
  Rh  Rh14  1  0.429085  0.724093  0.500000  1
  Rh  Rh15  1  0.570915  0.275907  0.500000  1
  Rh  Rh16  1  0.724093  0.570915  0.500000  1
  Rh  Rh17  1  0.275907  0.429085  0.500000  1
  Rh  Rh18  1  0.500000  0.000000  0.500000  1
  Rh  Rh19  1  0.000000  0.500000  0.500000  1
