# generated using pymatgen
data_KRbDy6F20
_symmetry_space_group_name_H-M   'P 1'
_cell_length_a   8.27772686
_cell_length_b   8.27772693
_cell_length_c   8.27772700
_cell_angle_alpha   60.00000372
_cell_angle_beta   60.00000346
_cell_angle_gamma   60.00000257
_symmetry_Int_Tables_number   1
_chemical_formula_structural   KRbDy6F20
_chemical_formula_sum   'K1 Rb1 Dy6 F20'
_cell_volume   401.06828523
_cell_formula_units_Z   1
loop_
 _symmetry_equiv_pos_site_id
 _symmetry_equiv_pos_as_xyz
  1  'x, y, z'
loop_
 _atom_site_type_symbol
 _atom_site_label
 _atom_site_symmetry_multiplicity
 _atom_site_fract_x
 _atom_site_fract_y
 _atom_site_fract_z
 _atom_site_occupancy
  K  K0  1  0.750000  0.750000  0.750000  1
  Rb  Rb1  1  0.250000  0.250000  0.250000  1
  Dy  Dy2  1  0.759594  0.240406  0.240406  1
  Dy  Dy3  1  0.240406  0.759594  0.759594  1
  Dy  Dy4  1  0.240406  0.759594  0.240406  1
  Dy  Dy5  1  0.759594  0.240406  0.759594  1
  Dy  Dy6  1  0.240406  0.240406  0.759594  1
  Dy  Dy7  1  0.759594  0.759594  0.240406  1
  F  F8  1  0.829587  0.500126  0.500126  1
  F  F9  1  0.170161  0.500126  0.500126  1
  F  F10  1  0.500126  0.829587  0.170161  1
  F  F11  1  0.500126  0.170161  0.829587  1
  F  F12  1  0.500126  0.829587  0.500126  1
  F  F13  1  0.170161  0.500126  0.829587  1
  F  F14  1  0.500126  0.170161  0.500126  1
  F  F15  1  0.829587  0.500126  0.170161  1
  F  F16  1  0.500126  0.500126  0.829587  1
  F  F17  1  0.500126  0.500126  0.170161  1
  F  F18  1  0.170161  0.829587  0.500126  1
  F  F19  1  0.829587  0.170161  0.500126  1
  F  F20  1  0.109852  0.109852  0.109852  1
  F  F21  1  0.887909  0.887909  0.887909  1
  F  F22  1  0.109852  0.109852  0.670444  1
  F  F23  1  0.109852  0.670444  0.109852  1
  F  F24  1  0.887909  0.887909  0.336272  1
  F  F25  1  0.887909  0.336272  0.887909  1
  F  F26  1  0.670444  0.109852  0.109852  1
  F  F27  1  0.336272  0.887909  0.887909  1
