# generated using pymatgen
data_K2TcO4
_symmetry_space_group_name_H-M   'P 1'
_cell_length_a   7.03354395
_cell_length_b   7.03354277
_cell_length_c   7.57690823
_cell_angle_alpha   66.87023521
_cell_angle_beta   66.87023927
_cell_angle_gamma   52.64579109
_symmetry_Int_Tables_number   1
_chemical_formula_structural   K2TcO4
_chemical_formula_sum   'K4 Tc2 O8'
_cell_volume   267.81787104
_cell_formula_units_Z   2
loop_
 _symmetry_equiv_pos_site_id
 _symmetry_equiv_pos_as_xyz
  1  'x, y, z'
loop_
 _atom_site_type_symbol
 _atom_site_label
 _atom_site_symmetry_multiplicity
 _atom_site_fract_x
 _atom_site_fract_y
 _atom_site_fract_z
 _atom_site_occupancy
  K  K0  1  0.511846  0.511846  0.764030  1
  K  K1  1  0.488154  0.488154  0.235970  1
  K  K2  1  0.157816  0.157816  0.248084  1
  K  K3  1  0.842184  0.842184  0.751916  1
  Tc  Tc4  1  0.176656  0.176656  0.771376  1
  Tc  Tc5  1  0.823344  0.823344  0.228624  1
  O  O6  1  0.387310  0.902032  0.912954  1
  O  O7  1  0.097968  0.612690  0.087046  1
  O  O8  1  0.612690  0.097968  0.087046  1
  O  O9  1  0.902032  0.387310  0.912954  1
  O  O10  1  0.916048  0.916048  0.353017  1
  O  O11  1  0.083952  0.083952  0.646983  1
  O  O12  1  0.333984  0.333984  0.627692  1
  O  O13  1  0.666016  0.666016  0.372308  1
