# generated using pymatgen
data_NaLa3Ti4O12
_symmetry_space_group_name_H-M   'P 1'
_cell_length_a   7.83067700
_cell_length_b   5.48135341
_cell_length_c   5.57919400
_cell_angle_alpha   89.76421434
_cell_angle_beta   90.00000000
_cell_angle_gamma   90.00000000
_symmetry_Int_Tables_number   1
_chemical_formula_structural   NaLa3Ti4O12
_chemical_formula_sum   'Na1 La3 Ti4 O12'
_cell_volume   239.47208776
_cell_formula_units_Z   1
loop_
 _symmetry_equiv_pos_site_id
 _symmetry_equiv_pos_as_xyz
  1  'x, y, z'
loop_
 _atom_site_type_symbol
 _atom_site_label
 _atom_site_symmetry_multiplicity
 _atom_site_fract_x
 _atom_site_fract_y
 _atom_site_fract_z
 _atom_site_occupancy
  Na  Na0  1  0.000000  0.004394  0.975900  1
  La  La1  1  0.000000  0.491927  0.466568  1
  La  La2  1  0.500000  0.994647  0.031758  1
  La  La3  1  0.500000  0.503736  0.531820  1
  Ti  Ti4  1  0.244442  0.000372  0.501989  1
  Ti  Ti5  1  0.756851  0.497856  0.998983  1
  Ti  Ti6  1  0.755558  0.000372  0.501989  1
  Ti  Ti7  1  0.243149  0.497856  0.998983  1
  O  O8  1  0.000000  0.562968  0.003296  1
  O  O9  1  0.000000  0.938996  0.521802  1
  O  O10  1  0.500000  0.434317  0.995810  1
  O  O11  1  0.500000  0.060752  0.482844  1
  O  O12  1  0.705201  0.779655  0.778760  1
  O  O13  1  0.281638  0.715188  0.284524  1
  O  O14  1  0.217543  0.219824  0.221019  1
  O  O15  1  0.773764  0.291237  0.709826  1
  O  O16  1  0.782457  0.219824  0.221019  1
  O  O17  1  0.226236  0.291237  0.709826  1
  O  O18  1  0.294799  0.779655  0.778760  1
  O  O19  1  0.718362  0.715188  0.284524  1
