# generated using pymatgen
data_Dy3HfMg2Ir3
_symmetry_space_group_name_H-M   'P 1'
_cell_length_a   7.31033196
_cell_length_b   7.17436771
_cell_length_c   4.20168700
_cell_angle_alpha   90.00000000
_cell_angle_beta   90.00000000
_cell_angle_gamma   119.38663525
_symmetry_Int_Tables_number   1
_chemical_formula_structural   Dy3HfMg2Ir3
_chemical_formula_sum   'Dy3 Hf1 Mg2 Ir3'
_cell_volume   192.01105977
_cell_formula_units_Z   1
loop_
 _symmetry_equiv_pos_site_id
 _symmetry_equiv_pos_as_xyz
  1  'x, y, z'
loop_
 _atom_site_type_symbol
 _atom_site_label
 _atom_site_symmetry_multiplicity
 _atom_site_fract_x
 _atom_site_fract_y
 _atom_site_fract_z
 _atom_site_occupancy
  Dy  Dy0  1  0.582024  0.586491  0.000000  1
  Dy  Dy1  1  0.417976  0.004467  0.000000  1
  Dy  Dy2  1  0.000000  0.398303  0.000000  1
  Hf  Hf3  1  0.000000  0.753399  0.500000  1
  Mg  Mg4  1  0.248998  0.247802  0.500000  1
  Mg  Mg5  1  0.751002  0.998806  0.500000  1
  Ir  Ir6  1  0.000000  0.979711  0.000000  1
  Ir  Ir7  1  0.679296  0.355158  0.500000  1
  Ir  Ir8  1  0.320704  0.675863  0.500000  1
