# generated using pymatgen
data_Ho12Th4MgCd3Ru4
_symmetry_space_group_name_H-M   'P 1'
_cell_length_a   9.70570240
_cell_length_b   9.70436755
_cell_length_c   9.70436800
_cell_angle_alpha   59.99999846
_cell_angle_beta   60.00454792
_cell_angle_gamma   60.00455213
_symmetry_Int_Tables_number   1
_chemical_formula_structural   Ho12Th4MgCd3Ru4
_chemical_formula_sum   'Ho12 Th4 Mg1 Cd3 Ru4'
_cell_volume   646.36275964
_cell_formula_units_Z   1
loop_
 _symmetry_equiv_pos_site_id
 _symmetry_equiv_pos_as_xyz
  1  'x, y, z'
loop_
 _atom_site_type_symbol
 _atom_site_label
 _atom_site_symmetry_multiplicity
 _atom_site_fract_x
 _atom_site_fract_y
 _atom_site_fract_z
 _atom_site_occupancy
  Ho  Ho0  1  0.812381  0.187689  0.187689  1
  Ho  Ho1  1  0.186272  0.813479  0.813479  1
  Ho  Ho2  1  0.186272  0.813479  0.186770  1
  Ho  Ho3  1  0.812381  0.187689  0.812241  1
  Ho  Ho4  1  0.186272  0.186770  0.813479  1
  Ho  Ho5  1  0.812381  0.812241  0.187689  1
  Ho  Ho6  1  0.933540  0.564912  0.564912  1
  Ho  Ho7  1  0.564830  0.935232  0.935232  1
  Ho  Ho8  1  0.564830  0.935232  0.564706  1
  Ho  Ho9  1  0.933540  0.564912  0.936635  1
  Ho  Ho10  1  0.564830  0.564706  0.935232  1
  Ho  Ho11  1  0.933540  0.936635  0.564912  1
  Th  Th12  1  0.347842  0.346643  0.346643  1
  Th  Th13  1  0.347842  0.346643  0.958871  1
  Th  Th14  1  0.347842  0.958871  0.346643  1
  Th  Th15  1  0.956181  0.347939  0.347939  1
  Mg  Mg16  1  0.268709  0.577097  0.577097  1
  Cd  Cd17  1  0.580791  0.581976  0.581976  1
  Cd  Cd18  1  0.580791  0.581976  0.255258  1
  Cd  Cd19  1  0.580791  0.255258  0.581976  1
  Ru  Ru20  1  0.142786  0.143338  0.143338  1
  Ru  Ru21  1  0.142786  0.143338  0.570539  1
  Ru  Ru22  1  0.142786  0.570539  0.143338  1
  Ru  Ru23  1  0.569783  0.143406  0.143406  1
