# generated using pymatgen
data_DyErCo9P6Os
_symmetry_space_group_name_H-M   'P 1'
_cell_length_a   3.67731400
_cell_length_b   10.32426500
_cell_length_c   11.72559500
_cell_angle_alpha   90.00000000
_cell_angle_beta   90.00000000
_cell_angle_gamma   90.00000000
_symmetry_Int_Tables_number   1
_chemical_formula_structural   DyErCo9P6Os
_chemical_formula_sum   'Dy2 Er2 Co18 P12 Os2'
_cell_volume   445.16883004
_cell_formula_units_Z   2
loop_
 _symmetry_equiv_pos_site_id
 _symmetry_equiv_pos_as_xyz
  1  'x, y, z'
loop_
 _atom_site_type_symbol
 _atom_site_label
 _atom_site_symmetry_multiplicity
 _atom_site_fract_x
 _atom_site_fract_y
 _atom_site_fract_z
 _atom_site_occupancy
  Dy  Dy0  1  0.250000  0.582508  0.701869  1
  Dy  Dy1  1  0.250000  0.917492  0.201869  1
  Er  Er2  1  0.750000  0.413090  0.295444  1
  Er  Er3  1  0.750000  0.086910  0.795444  1
  Co  Co4  1  0.750000  0.283643  0.008910  1
  Co  Co5  1  0.750000  0.216357  0.508910  1
  Co  Co6  1  0.250000  0.405908  0.487405  1
  Co  Co7  1  0.250000  0.094092  0.987405  1
  Co  Co8  1  0.750000  0.591423  0.509571  1
  Co  Co9  1  0.750000  0.908577  0.009571  1
  Co  Co10  1  0.250000  0.220503  0.177095  1
  Co  Co11  1  0.250000  0.279497  0.677095  1
  Co  Co12  1  0.750000  0.777769  0.822724  1
  Co  Co13  1  0.750000  0.722231  0.322724  1
  Co  Co14  1  0.250000  0.888072  0.702102  1
  Co  Co15  1  0.250000  0.611928  0.202102  1
  Co  Co16  1  0.750000  0.116054  0.301148  1
  Co  Co17  1  0.750000  0.383946  0.801148  1
  Co  Co18  1  0.250000  0.465047  0.932991  1
  Co  Co19  1  0.250000  0.034953  0.432991  1
  Co  Co20  1  0.750000  0.533083  0.069201  1
  Co  Co21  1  0.750000  0.966917  0.569201  1
  P  P22  1  0.250000  0.416116  0.112827  1
  P  P23  1  0.250000  0.083884  0.612827  1
  P  P24  1  0.750000  0.578564  0.886815  1
  P  P25  1  0.750000  0.921436  0.386815  1
  P  P26  1  0.250000  0.270296  0.869322  1
  P  P27  1  0.250000  0.229704  0.369322  1
  P  P28  1  0.750000  0.728972  0.132371  1
  P  P29  1  0.750000  0.771028  0.632371  1
  P  P30  1  0.250000  0.593106  0.389975  1
  P  P31  1  0.250000  0.906894  0.889975  1
  P  P32  1  0.750000  0.397063  0.608553  1
  P  P33  1  0.750000  0.102937  0.108553  1
  Os  Os34  1  0.250000  0.715600  0.991677  1
  Os  Os35  1  0.250000  0.784400  0.491677  1
