# generated using pymatgen
data_K12Li4Si15Pb
_symmetry_space_group_name_H-M   'P 1'
_cell_length_a   7.69944899
_cell_length_b   9.82924000
_cell_length_c   12.43909979
_cell_angle_alpha   90.00000000
_cell_angle_beta   89.77514984
_cell_angle_gamma   90.00000000
_symmetry_Int_Tables_number   1
_chemical_formula_structural   K12Li4Si15Pb
_chemical_formula_sum   'K12 Li4 Si15 Pb1'
_cell_volume   941.38048946
_cell_formula_units_Z   1
loop_
 _symmetry_equiv_pos_site_id
 _symmetry_equiv_pos_as_xyz
  1  'x, y, z'
loop_
 _atom_site_type_symbol
 _atom_site_label
 _atom_site_symmetry_multiplicity
 _atom_site_fract_x
 _atom_site_fract_y
 _atom_site_fract_z
 _atom_site_occupancy
  K  K0  1  0.656115  0.250000  0.401084  1
  K  K1  1  0.155238  0.250000  0.099934  1
  K  K2  1  0.342768  0.750000  0.589602  1
  K  K3  1  0.853181  0.750000  0.901750  1
  K  K4  1  0.654365  0.446398  0.694194  1
  K  K5  1  0.150833  0.062289  0.805373  1
  K  K6  1  0.344296  0.947317  0.308904  1
  K  K7  1  0.842348  0.553820  0.194445  1
  K  K8  1  0.344296  0.552683  0.308904  1
  K  K9  1  0.842348  0.946180  0.194445  1
  K  K10  1  0.654365  0.053602  0.694194  1
  K  K11  1  0.150833  0.437711  0.805373  1
  Li  Li12  1  0.500428  0.496740  0.003693  1
  Li  Li13  1  0.999656  0.999912  0.500128  1
  Li  Li14  1  0.500428  0.003260  0.003693  1
  Li  Li15  1  0.999656  0.500088  0.500128  1
  Si  Si16  1  0.861605  0.750000  0.598320  1
  Si  Si17  1  0.637769  0.250000  0.098894  1
  Si  Si18  1  0.138319  0.250000  0.401138  1
  Si  Si19  1  0.716375  0.628647  0.451551  1
  Si  Si20  1  0.215256  0.871239  0.055798  1
  Si  Si21  1  0.283534  0.128735  0.547934  1
  Si  Si22  1  0.784505  0.371436  0.952379  1
  Si  Si23  1  0.011117  0.250000  0.582255  1
  Si  Si24  1  0.513463  0.250000  0.916846  1
  Si  Si25  1  0.987801  0.750000  0.416213  1
  Si  Si26  1  0.486531  0.750000  0.089911  1
  Si  Si27  1  0.215256  0.628761  0.055798  1
  Si  Si28  1  0.716375  0.871353  0.451551  1
  Si  Si29  1  0.784505  0.128564  0.952379  1
  Si  Si30  1  0.283534  0.371265  0.547934  1
  Pb  Pb31  1  0.372902  0.750000  0.875254  1
