# generated using pymatgen
data_Li2Nb7Ru9
_symmetry_space_group_name_H-M   'P 1'
_cell_length_a   7.67011911
_cell_length_b   7.66811364
_cell_length_c   5.46905308
_cell_angle_alpha   90.01857120
_cell_angle_beta   89.99071500
_cell_angle_gamma   119.99135199
_symmetry_Int_Tables_number   1
_chemical_formula_structural   Li2Nb7Ru9
_chemical_formula_sum   'Li2 Nb7 Ru9'
_cell_volume   278.59366388
_cell_formula_units_Z   1
loop_
 _symmetry_equiv_pos_site_id
 _symmetry_equiv_pos_as_xyz
  1  'x, y, z'
loop_
 _atom_site_type_symbol
 _atom_site_label
 _atom_site_symmetry_multiplicity
 _atom_site_fract_x
 _atom_site_fract_y
 _atom_site_fract_z
 _atom_site_occupancy
  Li  Li0  1  0.665051  0.999898  0.224985  1
  Li  Li1  1  0.334949  0.334846  0.224985  1
  Nb  Nb2  1  0.000000  0.666594  0.225832  1
  Nb  Nb3  1  0.660004  0.326206  0.547451  1
  Nb  Nb4  1  0.339996  0.666202  0.547451  1
  Nb  Nb5  1  0.000000  0.006828  0.547792  1
  Nb  Nb6  1  0.339991  0.006943  0.903536  1
  Nb  Nb7  1  0.000000  0.326304  0.903072  1
  Nb  Nb8  1  0.660010  0.666952  0.903536  1
  Ru  Ru9  1  0.668829  0.335403  0.057900  1
  Ru  Ru10  1  0.331171  0.666574  0.057900  1
  Ru  Ru11  1  0.000000  0.998248  0.058420  1
  Ru  Ru12  1  0.331052  0.997860  0.393103  1
  Ru  Ru13  1  0.000000  0.334836  0.392375  1
  Ru  Ru14  1  0.668949  0.666809  0.393103  1
  Ru  Ru15  1  0.666210  0.999642  0.725270  1
  Ru  Ru16  1  0.333790  0.333432  0.725270  1
  Ru  Ru17  1  0.000000  0.666421  0.725864  1
