# generated using pymatgen
data_Er2TmMg3Sn2Ir
_symmetry_space_group_name_H-M   'P 1'
_cell_length_a   7.38621116
_cell_length_b   7.38621160
_cell_length_c   4.47108300
_cell_angle_alpha   90.00000000
_cell_angle_beta   90.00000000
_cell_angle_gamma   119.97627481
_symmetry_Int_Tables_number   1
_chemical_formula_structural   Er2TmMg3Sn2Ir
_chemical_formula_sum   'Er2 Tm1 Mg3 Sn2 Ir1'
_cell_volume   211.29567410
_cell_formula_units_Z   1
loop_
 _symmetry_equiv_pos_site_id
 _symmetry_equiv_pos_as_xyz
  1  'x, y, z'
loop_
 _atom_site_type_symbol
 _atom_site_label
 _atom_site_symmetry_multiplicity
 _atom_site_fract_x
 _atom_site_fract_y
 _atom_site_fract_z
 _atom_site_occupancy
  Er  Er0  1  0.606958  0.999997  0.000000  1
  Er  Er1  1  0.999997  0.606958  0.000000  1
  Tm  Tm2  1  0.392790  0.392790  0.000000  1
  Mg  Mg3  1  0.229316  0.000069  0.500000  1
  Mg  Mg4  1  0.000069  0.229316  0.500000  1
  Mg  Mg5  1  0.770674  0.770674  0.500000  1
  Sn  Sn6  1  0.333365  0.666482  0.500000  1
  Sn  Sn7  1  0.666482  0.333365  0.500000  1
  Ir  Ir8  1  0.000349  0.000349  0.000000  1
