# generated using pymatgen
data_TbDyY2(Co5As3)4
_symmetry_space_group_name_H-M   'P 1'
_cell_length_a   3.78910800
_cell_length_b   12.18555471
_cell_length_c   10.67713000
_cell_angle_alpha   89.97985561
_cell_angle_beta   90.00000000
_cell_angle_gamma   90.00000000
_symmetry_Int_Tables_number   1
_chemical_formula_structural   TbDyY2(Co5As3)4
_chemical_formula_sum   'Tb1 Dy1 Y2 Co20 As12'
_cell_volume   492.98850363
_cell_formula_units_Z   1
loop_
 _symmetry_equiv_pos_site_id
 _symmetry_equiv_pos_as_xyz
  1  'x, y, z'
loop_
 _atom_site_type_symbol
 _atom_site_label
 _atom_site_symmetry_multiplicity
 _atom_site_fract_x
 _atom_site_fract_y
 _atom_site_fract_z
 _atom_site_occupancy
  Tb  Tb0  1  0.750000  0.201889  0.418394  1
  Dy  Dy1  1  0.750000  0.701821  0.081451  1
  Y  Y2  1  0.250000  0.298102  0.918361  1
  Y  Y3  1  0.250000  0.798085  0.581627  1
  Co  Co4  1  0.750000  0.696875  0.383439  1
  Co  Co5  1  0.250000  0.303141  0.616446  1
  Co  Co6  1  0.250000  0.803006  0.883754  1
  Co  Co7  1  0.750000  0.196833  0.116463  1
  Co  Co8  1  0.750000  0.991063  0.211770  1
  Co  Co9  1  0.250000  0.008865  0.788178  1
  Co  Co10  1  0.250000  0.508904  0.711893  1
  Co  Co11  1  0.750000  0.491168  0.288152  1
  Co  Co12  1  0.750000  0.677340  0.783689  1
  Co  Co13  1  0.250000  0.322697  0.216336  1
  Co  Co14  1  0.250000  0.822669  0.283537  1
  Co  Co15  1  0.750000  0.177362  0.716390  1
  Co  Co16  1  0.750000  0.932082  0.969268  1
  Co  Co17  1  0.250000  0.067675  0.030885  1
  Co  Co18  1  0.250000  0.567782  0.469087  1
  Co  Co19  1  0.750000  0.432199  0.530857  1
  Co  Co20  1  0.750000  0.988195  0.592938  1
  Co  Co21  1  0.250000  0.011811  0.407016  1
  Co  Co22  1  0.250000  0.512137  0.092931  1
  Co  Co23  1  0.750000  0.488261  0.907116  1
  As  As24  1  0.750000  0.613862  0.584279  1
  As  As25  1  0.250000  0.386165  0.415771  1
  As  As26  1  0.250000  0.885903  0.084250  1
  As  As27  1  0.750000  0.113815  0.915755  1
  As  As28  1  0.750000  0.890740  0.398990  1
  As  As29  1  0.250000  0.109282  0.601006  1
  As  As30  1  0.250000  0.609383  0.899161  1
  As  As31  1  0.750000  0.390747  0.100960  1
  As  As32  1  0.750000  0.870120  0.769139  1
  As  As33  1  0.250000  0.129858  0.230844  1
  As  As34  1  0.250000  0.630021  0.268974  1
  As  As35  1  0.750000  0.370143  0.730892  1
