# generated using pymatgen
data_V2TcMoBr18
_symmetry_space_group_name_H-M   'P 1'
_cell_length_a   8.02320292
_cell_length_b   10.00598606
_cell_length_c   10.54864400
_cell_angle_alpha   101.72784292
_cell_angle_beta   96.95557027
_cell_angle_gamma   96.10556466
_symmetry_Int_Tables_number   1
_chemical_formula_structural   V2TcMoBr18
_chemical_formula_sum   'V2 Tc1 Mo1 Br18'
_cell_volume   815.55695717
_cell_formula_units_Z   1
loop_
 _symmetry_equiv_pos_site_id
 _symmetry_equiv_pos_as_xyz
  1  'x, y, z'
loop_
 _atom_site_type_symbol
 _atom_site_label
 _atom_site_symmetry_multiplicity
 _atom_site_fract_x
 _atom_site_fract_y
 _atom_site_fract_z
 _atom_site_occupancy
  V  V0  1  0.546698  0.189546  0.779757  1
  V  V1  1  0.452735  0.810548  0.220483  1
  Tc  Tc2  1  0.891588  0.372354  0.332816  1
  Mo  Mo3  1  0.109400  0.627416  0.666445  1
  Br  Br4  1  0.661245  0.899655  0.121861  1
  Br  Br5  1  0.337224  0.101511  0.878785  1
  Br  Br6  1  0.200395  0.482389  0.453084  1
  Br  Br7  1  0.800475  0.517748  0.547197  1
  Br  Br8  1  0.079263  0.814092  0.548941  1
  Br  Br9  1  0.919635  0.181392  0.450059  1
  Br  Br10  1  0.993266  0.753961  0.855260  1
  Br  Br11  1  0.006896  0.246892  0.145761  1
  Br  Br12  1  0.111644  0.421352  0.759374  1
  Br  Br13  1  0.886561  0.579784  0.236380  1
  Br  Br14  1  0.410391  0.708938  0.750122  1
  Br  Br15  1  0.592411  0.292495  0.249947  1
  Br  Br16  1  0.440173  0.197269  0.573029  1
  Br  Br17  1  0.559464  0.803391  0.427674  1
  Br  Br18  1  0.754516  0.051326  0.773955  1
  Br  Br19  1  0.245366  0.948955  0.226728  1
  Br  Br20  1  0.659511  0.404015  0.892237  1
  Br  Br21  1  0.341147  0.594974  0.110107  1
