# generated using pymatgen
data_Cs3GdV2O8
_symmetry_space_group_name_H-M   'P 1'
_cell_length_a   6.21529600
_cell_length_b   6.21529444
_cell_length_c   8.41796300
_cell_angle_alpha   90.00000000
_cell_angle_beta   90.00000000
_cell_angle_gamma   119.99999768
_symmetry_Int_Tables_number   1
_chemical_formula_structural   Cs3GdV2O8
_chemical_formula_sum   'Cs3 Gd1 V2 O8'
_cell_volume   281.61849818
_cell_formula_units_Z   1
loop_
 _symmetry_equiv_pos_site_id
 _symmetry_equiv_pos_as_xyz
  1  'x, y, z'
loop_
 _atom_site_type_symbol
 _atom_site_label
 _atom_site_symmetry_multiplicity
 _atom_site_fract_x
 _atom_site_fract_y
 _atom_site_fract_z
 _atom_site_occupancy
  Cs  Cs0  1  0.333333  0.666667  0.724502  1
  Cs  Cs1  1  0.666667  0.333333  0.275498  1
  Cs  Cs2  1  0.000000  0.000000  0.000000  1
  Gd  Gd3  1  0.000000  0.000000  0.500000  1
  V  V4  1  0.333333  0.666667  0.274582  1
  V  V5  1  0.666667  0.333333  0.725418  1
  O  O6  1  0.333333  0.666667  0.073709  1
  O  O7  1  0.666667  0.333333  0.926291  1
  O  O8  1  0.177540  0.822460  0.342125  1
  O  O9  1  0.822460  0.177540  0.657875  1
  O  O10  1  0.177540  0.355080  0.342125  1
  O  O11  1  0.822460  0.644920  0.657875  1
  O  O12  1  0.644920  0.822460  0.342125  1
  O  O13  1  0.355080  0.177540  0.657875  1
