# generated using pymatgen
data_Er20Co4Bi7Sb
_symmetry_space_group_name_H-M   'P 1'
_cell_length_a   7.89947436
_cell_length_b   8.82685193
_cell_length_c   12.29130763
_cell_angle_alpha   90.01038478
_cell_angle_beta   90.06429528
_cell_angle_gamma   90.04580076
_symmetry_Int_Tables_number   1
_chemical_formula_structural   Er20Co4Bi7Sb
_chemical_formula_sum   'Er20 Co4 Bi7 Sb1'
_cell_volume   857.04120780
_cell_formula_units_Z   1
loop_
 _symmetry_equiv_pos_site_id
 _symmetry_equiv_pos_as_xyz
  1  'x, y, z'
loop_
 _atom_site_type_symbol
 _atom_site_label
 _atom_site_symmetry_multiplicity
 _atom_site_fract_x
 _atom_site_fract_y
 _atom_site_fract_z
 _atom_site_occupancy
  Er  Er0  1  0.655094  0.753416  0.700262  1
  Er  Er1  1  0.348026  0.249401  0.302247  1
  Er  Er2  1  0.151004  0.247129  0.798115  1
  Er  Er3  1  0.847580  0.748941  0.199393  1
  Er  Er4  1  0.113899  0.753027  0.810659  1
  Er  Er5  1  0.883647  0.250313  0.187045  1
  Er  Er6  1  0.622123  0.247003  0.688506  1
  Er  Er7  1  0.383671  0.750422  0.312794  1
  Er  Er8  1  0.552974  0.749286  0.997273  1
  Er  Er9  1  0.445600  0.250776  0.002261  1
  Er  Er10  1  0.049267  0.247376  0.504129  1
  Er  Er11  1  0.948498  0.752547  0.498847  1
  Er  Er12  1  0.824787  0.462641  0.935626  1
  Er  Er13  1  0.174470  0.537727  0.062980  1
  Er  Er14  1  0.325746  0.535972  0.564123  1
  Er  Er15  1  0.173946  0.963446  0.063400  1
  Er  Er16  1  0.675728  0.464423  0.437092  1
  Er  Er17  1  0.825542  0.036829  0.932986  1
  Er  Er18  1  0.675129  0.036184  0.438290  1
  Er  Er19  1  0.323280  0.963819  0.564633  1
  Co  Co20  1  0.934033  0.750494  0.991567  1
  Co  Co21  1  0.064700  0.250163  0.006339  1
  Co  Co22  1  0.438117  0.249348  0.509022  1
  Co  Co23  1  0.563488  0.750578  0.493525  1
  Bi  Bi24  1  0.070071  0.991508  0.326385  1
  Bi  Bi25  1  0.428719  0.991445  0.827225  1
  Bi  Bi26  1  0.070952  0.508135  0.328144  1
  Bi  Bi27  1  0.571162  0.008740  0.173124  1
  Bi  Bi28  1  0.929646  0.492161  0.672931  1
  Bi  Bi29  1  0.569911  0.491103  0.173823  1
  Bi  Bi30  1  0.429147  0.508066  0.825439  1
  Sb  Sb31  1  0.930044  0.007583  0.671811  1
