# generated using pymatgen
data_Ta3Nb3Ga4(RhC)2
_symmetry_space_group_name_H-M   'P 1'
_cell_length_a   8.32970008
_cell_length_b   8.32976418
_cell_length_c   8.32970001
_cell_angle_alpha   59.99975726
_cell_angle_beta   59.98898371
_cell_angle_gamma   59.99974929
_symmetry_Int_Tables_number   1
_chemical_formula_structural   Ta3Nb3Ga4(RhC)2
_chemical_formula_sum   'Ta6 Nb6 Ga8 Rh4 C4'
_cell_volume   408.63789991
_cell_formula_units_Z   2
loop_
 _symmetry_equiv_pos_site_id
 _symmetry_equiv_pos_as_xyz
  1  'x, y, z'
loop_
 _atom_site_type_symbol
 _atom_site_label
 _atom_site_symmetry_multiplicity
 _atom_site_fract_x
 _atom_site_fract_y
 _atom_site_fract_z
 _atom_site_occupancy
  Ta  Ta0  1  0.687191  0.312809  0.687191  1
  Ta  Ta1  1  0.937150  0.563556  0.563180  1
  Ta  Ta2  1  0.563180  0.936114  0.937150  1
  Ta  Ta3  1  0.935783  0.564217  0.935783  1
  Ta  Ta4  1  0.563180  0.563556  0.937150  1
  Ta  Ta5  1  0.937150  0.936114  0.563180  1
  Nb  Nb6  1  0.686105  0.686211  0.314204  1
  Nb  Nb7  1  0.314204  0.686211  0.686105  1
  Nb  Nb8  1  0.686105  0.313480  0.314204  1
  Nb  Nb9  1  0.314204  0.313480  0.686105  1
  Nb  Nb10  1  0.564522  0.935478  0.564522  1
  Nb  Nb11  1  0.313174  0.686826  0.313174  1
  Ga  Ga12  1  0.336134  0.333421  0.336134  1
  Ga  Ga13  1  0.255583  0.915693  0.913030  1
  Ga  Ga14  1  0.915526  0.256324  0.915526  1
  Ga  Ga15  1  0.913030  0.915693  0.255583  1
  Ga  Ga16  1  0.336134  0.994311  0.336134  1
  Ga  Ga17  1  0.333628  0.336380  0.993611  1
  Ga  Ga18  1  0.993611  0.336380  0.333628  1
  Ga  Ga19  1  0.915526  0.912623  0.915526  1
  Rh  Rh20  1  0.125542  0.124261  0.125542  1
  Rh  Rh21  1  0.625600  0.128033  0.118334  1
  Rh  Rh22  1  0.125542  0.624653  0.125542  1
  Rh  Rh23  1  0.118334  0.128033  0.625600  1
  C  C24  1  0.627564  0.621679  0.627564  1
  C  C25  1  0.122280  0.625633  0.626453  1
  C  C26  1  0.627564  0.123193  0.627564  1
  C  C27  1  0.626453  0.625633  0.122280  1
