# generated using pymatgen
data_Eu4YZr3(As3Pd4)4
_symmetry_space_group_name_H-M   'P 1'
_cell_length_a   13.66024146
_cell_length_b   13.64339021
_cell_length_c   4.17364700
_cell_angle_alpha   90.00000000
_cell_angle_beta   90.00000000
_cell_angle_gamma   119.95921012
_symmetry_Int_Tables_number   1
_chemical_formula_structural   Eu4YZr3(As3Pd4)4
_chemical_formula_sum   'Eu4 Y1 Zr3 As12 Pd16'
_cell_volume   673.91540223
_cell_formula_units_Z   1
loop_
 _symmetry_equiv_pos_site_id
 _symmetry_equiv_pos_as_xyz
  1  'x, y, z'
loop_
 _atom_site_type_symbol
 _atom_site_label
 _atom_site_symmetry_multiplicity
 _atom_site_fract_x
 _atom_site_fract_y
 _atom_site_fract_z
 _atom_site_occupancy
  Eu  Eu0  1  0.186241  0.186193  0.500000  1
  Eu  Eu1  1  0.813759  0.999952  0.500000  1
  Eu  Eu2  1  0.333147  0.666660  0.000000  1
  Eu  Eu3  1  0.666853  0.333512  0.000000  1
  Y  Y4  1  0.000000  0.811574  0.500000  1
  Zr  Zr5  1  0.557116  0.555924  0.000000  1
  Zr  Zr6  1  0.442884  0.998808  0.000000  1
  Zr  Zr7  1  0.000000  0.444580  0.000000  1
  As  As8  1  0.824557  0.823221  0.000000  1
  As  As9  1  0.175443  0.998664  0.000000  1
  As  As10  1  0.000000  0.175046  0.000000  1
  As  As11  1  0.164894  0.480690  0.500000  1
  As  As12  1  0.520802  0.685318  0.500000  1
  As  As13  1  0.315602  0.834811  0.500000  1
  As  As14  1  0.684398  0.519209  0.500000  1
  As  As15  1  0.835106  0.315796  0.500000  1
  As  As16  1  0.479198  0.164517  0.500000  1
  As  As17  1  0.358564  0.358756  0.000000  1
  As  As18  1  0.641436  0.000192  0.000000  1
  As  As19  1  0.000000  0.642837  0.000000  1
  Pd  Pd20  1  0.723457  0.721420  0.500000  1
  Pd  Pd21  1  0.276543  0.997962  0.500000  1
  Pd  Pd22  1  0.000000  0.278794  0.500000  1
  Pd  Pd23  1  0.183276  0.377891  0.000000  1
  Pd  Pd24  1  0.621342  0.804956  0.000000  1
  Pd  Pd25  1  0.189610  0.817271  0.000000  1
  Pd  Pd26  1  0.810390  0.627661  0.000000  1
  Pd  Pd27  1  0.816724  0.194615  0.000000  1
  Pd  Pd28  1  0.378658  0.183613  0.000000  1
  Pd  Pd29  1  0.359187  0.484449  0.500000  1
  Pd  Pd30  1  0.516541  0.874851  0.500000  1
  Pd  Pd31  1  0.125346  0.642376  0.500000  1
  Pd  Pd32  1  0.874654  0.517030  0.500000  1
  Pd  Pd33  1  0.640813  0.125262  0.500000  1
  Pd  Pd34  1  0.483459  0.358310  0.500000  1
  Pd  Pd35  1  0.000000  0.997279  0.000000  1
