# generated using pymatgen
data_Nd3GeTe2
_symmetry_space_group_name_H-M   'P 1'
_cell_length_a   7.72856561
_cell_length_b   7.72856561
_cell_length_c   7.72856600
_cell_angle_alpha   147.15628527
_cell_angle_beta   132.73074949
_cell_angle_gamma   58.75443853
_symmetry_Int_Tables_number   1
_chemical_formula_structural   Nd3GeTe2
_chemical_formula_sum   'Nd3 Ge1 Te2'
_cell_volume   182.37063467
_cell_formula_units_Z   1
loop_
 _symmetry_equiv_pos_site_id
 _symmetry_equiv_pos_as_xyz
  1  'x, y, z'
loop_
 _atom_site_type_symbol
 _atom_site_label
 _atom_site_symmetry_multiplicity
 _atom_site_fract_x
 _atom_site_fract_y
 _atom_site_fract_z
 _atom_site_occupancy
  Nd  Nd0  1  0.851128  0.351128  0.500000  1
  Nd  Nd1  1  0.500000  0.000000  0.500000  1
  Nd  Nd2  1  0.148872  0.648872  0.500000  1
  Ge  Ge3  1  0.000000  0.000000  0.000000  1
  Te  Te4  1  0.672487  0.672487  0.000000  1
  Te  Te5  1  0.327513  0.327513  0.000000  1
