# generated using pymatgen
data_Tm3Ga2B4Ir9
_symmetry_space_group_name_H-M   'P 1'
_cell_length_a   5.52204900
_cell_length_b   5.52204950
_cell_length_c   10.09315200
_cell_angle_alpha   90.00000000
_cell_angle_beta   90.00000000
_cell_angle_gamma   120.00000301
_symmetry_Int_Tables_number   1
_chemical_formula_structural   Tm3Ga2B4Ir9
_chemical_formula_sum   'Tm3 Ga2 B4 Ir9'
_cell_volume   266.53729342
_cell_formula_units_Z   1
loop_
 _symmetry_equiv_pos_site_id
 _symmetry_equiv_pos_as_xyz
  1  'x, y, z'
loop_
 _atom_site_type_symbol
 _atom_site_label
 _atom_site_symmetry_multiplicity
 _atom_site_fract_x
 _atom_site_fract_y
 _atom_site_fract_z
 _atom_site_occupancy
  Tm  Tm0  1  0.000000  0.000000  0.000000  1
  Tm  Tm1  1  0.000000  0.000000  0.660486  1
  Tm  Tm2  1  0.000000  0.000000  0.339514  1
  Ga  Ga3  1  0.666667  0.333333  0.000000  1
  Ga  Ga4  1  0.333333  0.666667  0.000000  1
  B  B5  1  0.666667  0.333333  0.652953  1
  B  B6  1  0.333333  0.666667  0.652953  1
  B  B7  1  0.333333  0.666667  0.347047  1
  B  B8  1  0.666667  0.333333  0.347047  1
  Ir  Ir9  1  0.500000  0.500000  0.500000  1
  Ir  Ir10  1  0.500000  0.000000  0.500000  1
  Ir  Ir11  1  0.000000  0.500000  0.500000  1
  Ir  Ir12  1  0.500000  0.500000  0.794987  1
  Ir  Ir13  1  0.500000  0.000000  0.794987  1
  Ir  Ir14  1  0.000000  0.500000  0.794987  1
  Ir  Ir15  1  0.500000  0.500000  0.205013  1
  Ir  Ir16  1  0.500000  0.000000  0.205013  1
  Ir  Ir17  1  0.000000  0.500000  0.205013  1
