# generated using pymatgen
data_Nb4Si4IrRu3
_symmetry_space_group_name_H-M   'P 1'
_cell_length_a   3.85446800
_cell_length_b   6.40629197
_cell_length_c   7.31079164
_cell_angle_alpha   90.14252856
_cell_angle_beta   90.00000000
_cell_angle_gamma   90.00000000
_symmetry_Int_Tables_number   1
_chemical_formula_structural   Nb4Si4IrRu3
_chemical_formula_sum   'Nb4 Si4 Ir1 Ru3'
_cell_volume   180.52370372
_cell_formula_units_Z   1
loop_
 _symmetry_equiv_pos_site_id
 _symmetry_equiv_pos_as_xyz
  1  'x, y, z'
loop_
 _atom_site_type_symbol
 _atom_site_label
 _atom_site_symmetry_multiplicity
 _atom_site_fract_x
 _atom_site_fract_y
 _atom_site_fract_z
 _atom_site_occupancy
  Nb  Nb0  1  0.750000  0.522610  0.820315  1
  Nb  Nb1  1  0.250000  0.975551  0.322129  1
  Nb  Nb2  1  0.750000  0.020053  0.678355  1
  Nb  Nb3  1  0.250000  0.480044  0.179599  1
  Si  Si4  1  0.250000  0.227586  0.874941  1
  Si  Si5  1  0.250000  0.724761  0.624013  1
  Si  Si6  1  0.750000  0.772495  0.121874  1
  Si  Si7  1  0.750000  0.273464  0.378811  1
  Ir  Ir8  1  0.750000  0.150783  0.062678  1
  Ru  Ru9  1  0.250000  0.852609  0.938487  1
  Ru  Ru10  1  0.250000  0.349724  0.561527  1
  Ru  Ru11  1  0.750000  0.650322  0.437272  1
