# generated using pymatgen
data_Yb3LuCoO6
_symmetry_space_group_name_H-M   'P 1'
_cell_length_a   6.34989853
_cell_length_b   6.34989869
_cell_length_c   6.34989751
_cell_angle_alpha   91.37213102
_cell_angle_beta   91.37213023
_cell_angle_gamma   91.37213107
_symmetry_Int_Tables_number   1
_chemical_formula_structural   Yb3LuCoO6
_chemical_formula_sum   'Yb6 Lu2 Co2 O12'
_cell_volume   255.81173393
_cell_formula_units_Z   2
loop_
 _symmetry_equiv_pos_site_id
 _symmetry_equiv_pos_as_xyz
  1  'x, y, z'
loop_
 _atom_site_type_symbol
 _atom_site_label
 _atom_site_symmetry_multiplicity
 _atom_site_fract_x
 _atom_site_fract_y
 _atom_site_fract_z
 _atom_site_occupancy
  Yb  Yb0  1  0.379203  0.750000  0.120797  1
  Yb  Yb1  1  0.750000  0.120797  0.379203  1
  Yb  Yb2  1  0.120797  0.379203  0.750000  1
  Yb  Yb3  1  0.879203  0.620797  0.250000  1
  Yb  Yb4  1  0.250000  0.879203  0.620797  1
  Yb  Yb5  1  0.620797  0.250000  0.879203  1
  Lu  Lu6  1  0.250000  0.250000  0.250000  1
  Lu  Lu7  1  0.750000  0.750000  0.750000  1
  Co  Co8  1  0.500000  0.500000  0.500000  1
  Co  Co9  1  0.000000  0.000000  0.000000  1
  O  O10  1  0.083416  0.948946  0.292973  1
  O  O11  1  0.916584  0.051054  0.707027  1
  O  O12  1  0.707027  0.916584  0.051054  1
  O  O13  1  0.948946  0.292973  0.083416  1
  O  O14  1  0.207027  0.551054  0.416584  1
  O  O15  1  0.051054  0.707027  0.916584  1
  O  O16  1  0.448946  0.583416  0.792973  1
  O  O17  1  0.416584  0.207027  0.551054  1
  O  O18  1  0.551054  0.416584  0.207027  1
  O  O19  1  0.792973  0.448946  0.583416  1
  O  O20  1  0.292973  0.083416  0.948946  1
  O  O21  1  0.583416  0.792973  0.448946  1
