# generated using pymatgen
data_Ce12Mn4Al6OsRu
_symmetry_space_group_name_H-M   'P 1'
_cell_length_a   7.79862461
_cell_length_b   7.83975518
_cell_length_c   9.55714680
_cell_angle_alpha   89.27838977
_cell_angle_beta   90.12319334
_cell_angle_gamma   119.83149901
_symmetry_Int_Tables_number   1
_chemical_formula_structural   Ce12Mn4Al6OsRu
_chemical_formula_sum   'Ce12 Mn4 Al6 Os1 Ru1'
_cell_volume   506.84477449
_cell_formula_units_Z   1
loop_
 _symmetry_equiv_pos_site_id
 _symmetry_equiv_pos_as_xyz
  1  'x, y, z'
loop_
 _atom_site_type_symbol
 _atom_site_label
 _atom_site_symmetry_multiplicity
 _atom_site_fract_x
 _atom_site_fract_y
 _atom_site_fract_z
 _atom_site_occupancy
  Ce  Ce0  1  0.999944  0.595081  0.505050  1
  Ce  Ce1  1  0.555915  0.995834  0.496497  1
  Ce  Ce2  1  0.444539  0.441427  0.498031  1
  Ce  Ce3  1  0.996783  0.442047  0.999043  1
  Ce  Ce4  1  0.439225  0.994406  0.993364  1
  Ce  Ce5  1  0.588915  0.587768  0.001966  1
  Ce  Ce6  1  0.000988  0.744848  0.181731  1
  Ce  Ce7  1  0.731970  0.987220  0.179443  1
  Ce  Ce8  1  0.273965  0.261288  0.175377  1
  Ce  Ce9  1  0.991156  0.262752  0.672826  1
  Ce  Ce10  1  0.254121  0.991350  0.679018  1
  Ce  Ce11  1  0.744508  0.745763  0.679867  1
  Mn  Mn12  1  0.352638  0.997144  0.342086  1
  Mn  Mn13  1  0.647606  0.643795  0.345289  1
  Mn  Mn14  1  0.997178  0.645288  0.846036  1
  Mn  Mn15  1  0.645068  0.998320  0.840709  1
  Al  Al16  1  0.674086  0.333079  0.270200  1
  Al  Al17  1  0.328542  0.660177  0.270098  1
  Al  Al18  1  0.331591  0.663909  0.767150  1
  Al  Al19  1  0.662946  0.334204  0.767651  1
  Al  Al20  1  0.003093  0.002968  0.424047  1
  Al  Al21  1  0.997314  0.000917  0.924006  1
  Os  Os22  1  0.001325  0.332185  0.334292  1
  Ru  Ru23  1  0.336587  0.338230  0.835468  1
