# generated using pymatgen
data_Y4Zn2Os5W
_symmetry_space_group_name_H-M   'P 1'
_cell_length_a   5.32030798
_cell_length_b   5.31526178
_cell_length_c   8.91681400
_cell_angle_alpha   90.00000000
_cell_angle_beta   90.00000000
_cell_angle_gamma   117.87773234
_symmetry_Int_Tables_number   1
_chemical_formula_structural   Y4Zn2Os5W
_chemical_formula_sum   'Y4 Zn2 Os5 W1'
_cell_volume   222.89358714
_cell_formula_units_Z   1
loop_
 _symmetry_equiv_pos_site_id
 _symmetry_equiv_pos_as_xyz
  1  'x, y, z'
loop_
 _atom_site_type_symbol
 _atom_site_label
 _atom_site_symmetry_multiplicity
 _atom_site_fract_x
 _atom_site_fract_y
 _atom_site_fract_z
 _atom_site_occupancy
  Y  Y0  1  0.323097  0.667007  0.435814  1
  Y  Y1  1  0.655504  0.328082  0.558663  1
  Y  Y2  1  0.655504  0.328082  0.941337  1
  Y  Y3  1  0.323097  0.667007  0.064186  1
  Zn  Zn4  1  0.197498  0.841389  0.750000  1
  Zn  Zn5  1  0.188731  0.349940  0.750000  1
  Os  Os6  1  0.974189  0.994882  0.504695  1
  Os  Os7  1  0.974189  0.994882  0.995305  1
  Os  Os8  1  0.826301  0.652550  0.250000  1
  Os  Os9  1  0.349523  0.172104  0.250000  1
  Os  Os10  1  0.695344  0.843420  0.750000  1
  W  W11  1  0.837023  0.160654  0.250000  1
