# generated using pymatgen
data_PrBiRh2O7
_symmetry_space_group_name_H-M   'P 1'
_cell_length_a   7.38377954
_cell_length_b   7.38378019
_cell_length_c   7.35312300
_cell_angle_alpha   60.13724662
_cell_angle_beta   60.13724371
_cell_angle_gamma   60.34620378
_symmetry_Int_Tables_number   1
_chemical_formula_structural   PrBiRh2O7
_chemical_formula_sum   'Pr2 Bi2 Rh4 O14'
_cell_volume   284.80019799
_cell_formula_units_Z   2
loop_
 _symmetry_equiv_pos_site_id
 _symmetry_equiv_pos_as_xyz
  1  'x, y, z'
loop_
 _atom_site_type_symbol
 _atom_site_label
 _atom_site_symmetry_multiplicity
 _atom_site_fract_x
 _atom_site_fract_y
 _atom_site_fract_z
 _atom_site_occupancy
  Pr  Pr0  1  0.125000  0.125000  0.125000  1
  Pr  Pr1  1  0.125000  0.125000  0.625000  1
  Bi  Bi2  1  0.125000  0.625000  0.125000  1
  Bi  Bi3  1  0.625000  0.125000  0.125000  1
  Rh  Rh4  1  0.625000  0.625000  0.625000  1
  Rh  Rh5  1  0.625000  0.625000  0.125000  1
  Rh  Rh6  1  0.125000  0.625000  0.625000  1
  Rh  Rh7  1  0.625000  0.125000  0.625000  1
  O  O8  1  0.255387  0.255387  0.244613  1
  O  O9  1  0.293417  0.706617  0.292147  1
  O  O10  1  0.957786  0.957786  0.542214  1
  O  O11  1  0.543383  0.956583  0.542181  1
  O  O12  1  0.704403  0.704403  0.295597  1
  O  O13  1  0.956583  0.543383  0.542181  1
  O  O14  1  0.706617  0.293417  0.707819  1
  O  O15  1  0.292214  0.292214  0.707786  1
  O  O16  1  0.706617  0.293417  0.292147  1
  O  O17  1  0.293417  0.706617  0.707819  1
  O  O18  1  0.956583  0.543383  0.957853  1
  O  O19  1  0.545597  0.545597  0.954403  1
  O  O20  1  0.994613  0.994613  0.005387  1
  O  O21  1  0.543383  0.956583  0.957853  1
