# generated using pymatgen
data_Tb5Bi2PbCl
_symmetry_space_group_name_H-M   'P 1'
_cell_length_a   9.26856720
_cell_length_b   9.26856911
_cell_length_c   6.56022400
_cell_angle_alpha   90.00000000
_cell_angle_beta   90.00000000
_cell_angle_gamma   119.49725761
_symmetry_Int_Tables_number   1
_chemical_formula_structural   Tb5Bi2PbCl
_chemical_formula_sum   'Tb10 Bi4 Pb2 Cl2'
_cell_volume   490.51523453
_cell_formula_units_Z   2
loop_
 _symmetry_equiv_pos_site_id
 _symmetry_equiv_pos_as_xyz
  1  'x, y, z'
loop_
 _atom_site_type_symbol
 _atom_site_label
 _atom_site_symmetry_multiplicity
 _atom_site_fract_x
 _atom_site_fract_y
 _atom_site_fract_z
 _atom_site_occupancy
  Tb  Tb0  1  0.264464  0.002347  0.250000  1
  Tb  Tb1  1  0.735536  0.997653  0.750000  1
  Tb  Tb2  1  0.002347  0.264464  0.250000  1
  Tb  Tb3  1  0.997653  0.735536  0.750000  1
  Tb  Tb4  1  0.735025  0.735025  0.250000  1
  Tb  Tb5  1  0.264975  0.264975  0.750000  1
  Tb  Tb6  1  0.334491  0.665509  0.000000  1
  Tb  Tb7  1  0.665509  0.334491  0.000000  1
  Tb  Tb8  1  0.665509  0.334491  0.500000  1
  Tb  Tb9  1  0.334491  0.665509  0.500000  1
  Bi  Bi10  1  0.612080  0.000393  0.250000  1
  Bi  Bi11  1  0.387920  0.999607  0.750000  1
  Bi  Bi12  1  0.000393  0.612080  0.250000  1
  Bi  Bi13  1  0.999607  0.387920  0.750000  1
  Pb  Pb14  1  0.389271  0.389271  0.250000  1
  Pb  Pb15  1  0.610729  0.610729  0.750000  1
  Cl  Cl16  1  0.000000  0.000000  0.000000  1
  Cl  Cl17  1  0.000000  0.000000  0.500000  1
