# generated using pymatgen
data_Tb2HoTh(CdCu2)2
_symmetry_space_group_name_H-M   'P 1'
_cell_length_a   7.66253112
_cell_length_b   7.66252966
_cell_length_c   3.70238300
_cell_angle_alpha   90.00000000
_cell_angle_beta   90.00000000
_cell_angle_gamma   91.19186262
_symmetry_Int_Tables_number   1
_chemical_formula_structural   Tb2HoTh(CdCu2)2
_chemical_formula_sum   'Tb2 Ho1 Th1 Cd2 Cu4'
_cell_volume   217.33606139
_cell_formula_units_Z   1
loop_
 _symmetry_equiv_pos_site_id
 _symmetry_equiv_pos_as_xyz
  1  'x, y, z'
loop_
 _atom_site_type_symbol
 _atom_site_label
 _atom_site_symmetry_multiplicity
 _atom_site_fract_x
 _atom_site_fract_y
 _atom_site_fract_z
 _atom_site_occupancy
  Tb  Tb0  1  0.176230  0.328631  0.500000  1
  Tb  Tb1  1  0.828631  0.676230  0.500000  1
  Ho  Ho2  1  0.323857  0.823857  0.500000  1
  Th  Th3  1  0.672777  0.172777  0.500000  1
  Cd  Cd4  1  0.006135  0.997198  0.000000  1
  Cd  Cd5  1  0.497198  0.506135  0.000000  1
  Cu  Cu6  1  0.119812  0.619812  0.000000  1
  Cu  Cu7  1  0.882021  0.382021  0.000000  1
  Cu  Cu8  1  0.617123  0.876216  0.000000  1
  Cu  Cu9  1  0.376216  0.117123  0.000000  1
