# generated using pymatgen
data_Cr2Co4W6C
_symmetry_space_group_name_H-M   'P 1'
_cell_length_a   7.76430803
_cell_length_b   7.76430815
_cell_length_c   7.76430800
_cell_angle_alpha   60.00000065
_cell_angle_beta   60.00000011
_cell_angle_gamma   59.99999815
_symmetry_Int_Tables_number   1
_chemical_formula_structural   Cr2Co4W6C
_chemical_formula_sum   'Cr4 Co8 W12 C2'
_cell_volume   330.97353869
_cell_formula_units_Z   2
loop_
 _symmetry_equiv_pos_site_id
 _symmetry_equiv_pos_as_xyz
  1  'x, y, z'
loop_
 _atom_site_type_symbol
 _atom_site_label
 _atom_site_symmetry_multiplicity
 _atom_site_fract_x
 _atom_site_fract_y
 _atom_site_fract_z
 _atom_site_occupancy
  Cr  Cr0  1  0.625000  0.625000  0.125000  1
  Cr  Cr1  1  0.625000  0.125000  0.625000  1
  Cr  Cr2  1  0.125000  0.625000  0.625000  1
  Cr  Cr3  1  0.625000  0.625000  0.625000  1
  Co  Co4  1  0.420663  0.420663  0.738013  1
  Co  Co5  1  0.420663  0.738013  0.420663  1
  Co  Co6  1  0.738013  0.420663  0.420663  1
  Co  Co7  1  0.420663  0.420663  0.420663  1
  Co  Co8  1  0.829337  0.829337  0.511987  1
  Co  Co9  1  0.829337  0.511987  0.829337  1
  Co  Co10  1  0.511987  0.829337  0.829337  1
  Co  Co11  1  0.829337  0.829337  0.829337  1
  W  W12  1  0.054654  0.054654  0.445346  1
  W  W13  1  0.445346  0.054654  0.445346  1
  W  W14  1  0.054654  0.445346  0.445346  1
  W  W15  1  0.445346  0.445346  0.054654  1
  W  W16  1  0.054654  0.445346  0.054654  1
  W  W17  1  0.445346  0.054654  0.054654  1
  W  W18  1  0.195346  0.195346  0.804654  1
  W  W19  1  0.804654  0.195346  0.804654  1
  W  W20  1  0.195346  0.804654  0.804654  1
  W  W21  1  0.804654  0.804654  0.195346  1
  W  W22  1  0.195346  0.804654  0.195346  1
  W  W23  1  0.804654  0.195346  0.195346  1
  C  C24  1  0.250000  0.250000  0.250000  1
  C  C25  1  0.000000  0.000000  0.000000  1
