# generated using pymatgen
data_TmLuZnB2Ir5
_symmetry_space_group_name_H-M   'P 1'
_cell_length_a   9.57125991
_cell_length_b   9.57125991
_cell_length_c   3.11589200
_cell_angle_alpha   90.00000000
_cell_angle_beta   90.00000000
_cell_angle_gamma   89.78456737
_symmetry_Int_Tables_number   1
_chemical_formula_structural   TmLuZnB2Ir5
_chemical_formula_sum   'Tm2 Lu2 Zn2 B4 Ir10'
_cell_volume   285.44178342
_cell_formula_units_Z   2
loop_
 _symmetry_equiv_pos_site_id
 _symmetry_equiv_pos_as_xyz
  1  'x, y, z'
loop_
 _atom_site_type_symbol
 _atom_site_label
 _atom_site_symmetry_multiplicity
 _atom_site_fract_x
 _atom_site_fract_y
 _atom_site_fract_z
 _atom_site_occupancy
  Tm  Tm0  1  0.677573  0.177573  0.000000  1
  Tm  Tm1  1  0.322427  0.822427  0.000000  1
  Lu  Lu2  1  0.177221  0.322779  0.000000  1
  Lu  Lu3  1  0.822779  0.677221  0.000000  1
  Zn  Zn4  1  0.000000  0.000000  0.000000  1
  Zn  Zn5  1  0.500000  0.500000  0.000000  1
  B  B6  1  0.124852  0.624852  0.000000  1
  B  B7  1  0.875148  0.375148  0.000000  1
  B  B8  1  0.625371  0.874629  0.000000  1
  B  B9  1  0.374629  0.125371  0.000000  1
  Ir  Ir10  1  0.219074  0.068967  0.500000  1
  Ir  Ir11  1  0.780926  0.931033  0.500000  1
  Ir  Ir12  1  0.067015  0.780149  0.500000  1
  Ir  Ir13  1  0.719851  0.432985  0.500000  1
  Ir  Ir14  1  0.932985  0.219851  0.500000  1
  Ir  Ir15  1  0.280149  0.567015  0.500000  1
  Ir  Ir16  1  0.568967  0.719074  0.500000  1
  Ir  Ir17  1  0.431033  0.280926  0.500000  1
  Ir  Ir18  1  0.500000  0.000000  0.500000  1
  Ir  Ir19  1  0.000000  0.500000  0.500000  1
