# generated using pymatgen
data_Tb16Ho4(IrPt3)3
_symmetry_space_group_name_H-M   'P 1'
_cell_length_a   11.05879200
_cell_length_b   11.05879200
_cell_length_c   6.41244900
_cell_angle_alpha   90.00000000
_cell_angle_beta   90.00000000
_cell_angle_gamma   90.00000000
_symmetry_Int_Tables_number   1
_chemical_formula_structural   Tb16Ho4(IrPt3)3
_chemical_formula_sum   'Tb16 Ho4 Ir3 Pt9'
_cell_volume   784.22250906
_cell_formula_units_Z   1
loop_
 _symmetry_equiv_pos_site_id
 _symmetry_equiv_pos_as_xyz
  1  'x, y, z'
loop_
 _atom_site_type_symbol
 _atom_site_label
 _atom_site_symmetry_multiplicity
 _atom_site_fract_x
 _atom_site_fract_y
 _atom_site_fract_z
 _atom_site_occupancy
  Tb  Tb0  1  0.293436  0.087372  0.379105  1
  Tb  Tb1  1  0.293158  0.912535  0.873351  1
  Tb  Tb2  1  0.706842  0.087465  0.873351  1
  Tb  Tb3  1  0.706564  0.912628  0.379105  1
  Tb  Tb4  1  0.587465  0.793158  0.873351  1
  Tb  Tb5  1  0.587372  0.206564  0.379105  1
  Tb  Tb6  1  0.412628  0.793436  0.379105  1
  Tb  Tb7  1  0.412535  0.206842  0.873351  1
  Tb  Tb8  1  0.205751  0.412880  0.623684  1
  Tb  Tb9  1  0.205865  0.587359  0.124037  1
  Tb  Tb10  1  0.794135  0.412641  0.124037  1
  Tb  Tb11  1  0.794249  0.587120  0.623684  1
  Tb  Tb12  1  0.912641  0.705865  0.124037  1
  Tb  Tb13  1  0.912880  0.294249  0.623684  1
  Tb  Tb14  1  0.087120  0.705751  0.623684  1
  Tb  Tb15  1  0.087359  0.294135  0.124037  1
  Ho  Ho16  1  0.000000  0.000000  0.500320  1
  Ho  Ho17  1  0.000000  0.000000  0.000464  1
  Ho  Ho18  1  0.500000  0.500000  0.000464  1
  Ho  Ho19  1  0.500000  0.500000  0.500320  1
  Ir  Ir20  1  0.500000  0.000000  0.619595  1
  Ir  Ir21  1  0.000000  0.500000  0.879084  1
  Ir  Ir22  1  0.000000  0.500000  0.379106  1
  Pt  Pt23  1  0.847351  0.151786  0.249761  1
  Pt  Pt24  1  0.847558  0.848084  0.750228  1
  Pt  Pt25  1  0.152442  0.151916  0.750228  1
  Pt  Pt26  1  0.152649  0.848214  0.249761  1
  Pt  Pt27  1  0.651916  0.347558  0.750228  1
  Pt  Pt28  1  0.651786  0.652649  0.249761  1
  Pt  Pt29  1  0.348214  0.347351  0.249761  1
  Pt  Pt30  1  0.348084  0.652442  0.750228  1
  Pt  Pt31  1  0.500000  0.000000  0.119982  1
