# generated using pymatgen
data_Dy2(TmAu2)5
_symmetry_space_group_name_H-M   'P 1'
_cell_length_a   8.65730963
_cell_length_b   8.65731036
_cell_length_c   10.31813600
_cell_angle_alpha   90.00000000
_cell_angle_beta   90.00000000
_cell_angle_gamma   107.17905950
_symmetry_Int_Tables_number   1
_chemical_formula_structural   Dy2(TmAu2)5
_chemical_formula_sum   'Dy4 Tm10 Au20'
_cell_volume   738.83290353
_cell_formula_units_Z   2
loop_
 _symmetry_equiv_pos_site_id
 _symmetry_equiv_pos_as_xyz
  1  'x, y, z'
loop_
 _atom_site_type_symbol
 _atom_site_label
 _atom_site_symmetry_multiplicity
 _atom_site_fract_x
 _atom_site_fract_y
 _atom_site_fract_z
 _atom_site_occupancy
  Dy  Dy0  1  0.311421  0.311421  0.188845  1
  Dy  Dy1  1  0.688579  0.688579  0.811155  1
  Dy  Dy2  1  0.188579  0.188579  0.688845  1
  Dy  Dy3  1  0.811421  0.811421  0.311155  1
  Tm  Tm4  1  0.694392  0.305608  0.000000  1
  Tm  Tm5  1  0.305608  0.694392  0.000000  1
  Tm  Tm6  1  0.805608  0.194392  0.500000  1
  Tm  Tm7  1  0.194392  0.805608  0.500000  1
  Tm  Tm8  1  0.000000  0.000000  0.000000  1
  Tm  Tm9  1  0.500000  0.500000  0.500000  1
  Tm  Tm10  1  0.002935  0.502935  0.250000  1
  Tm  Tm11  1  0.997065  0.497065  0.750000  1
  Tm  Tm12  1  0.497065  0.997065  0.750000  1
  Tm  Tm13  1  0.502935  0.002935  0.250000  1
  Au  Au14  1  0.860329  0.150045  0.209176  1
  Au  Au15  1  0.139671  0.849955  0.790824  1
  Au  Au16  1  0.639671  0.349955  0.709176  1
  Au  Au17  1  0.650045  0.360329  0.290824  1
  Au  Au18  1  0.360329  0.650045  0.290824  1
  Au  Au19  1  0.349955  0.639671  0.709176  1
  Au  Au20  1  0.849955  0.139671  0.790824  1
  Au  Au21  1  0.150045  0.860329  0.209176  1
  Au  Au22  1  0.938292  0.644942  0.002828  1
  Au  Au23  1  0.061708  0.355058  0.997172  1
  Au  Au24  1  0.561708  0.855058  0.502828  1
  Au  Au25  1  0.144942  0.438292  0.497172  1
  Au  Au26  1  0.438292  0.144942  0.497172  1
  Au  Au27  1  0.855058  0.561708  0.502828  1
  Au  Au28  1  0.355058  0.061708  0.997172  1
  Au  Au29  1  0.644942  0.938292  0.002828  1
  Au  Au30  1  0.105022  0.105022  0.397948  1
  Au  Au31  1  0.894978  0.894978  0.602052  1
  Au  Au32  1  0.394978  0.394978  0.897948  1
  Au  Au33  1  0.605022  0.605022  0.102052  1
