# generated using pymatgen
data_Pr4CuSi8Pt7
_symmetry_space_group_name_H-M   'P 1'
_cell_length_a   4.26292683
_cell_length_b   8.60688003
_cell_length_c   9.86714570
_cell_angle_alpha   89.97505066
_cell_angle_beta   89.98334889
_cell_angle_gamma   90.04911594
_symmetry_Int_Tables_number   1
_chemical_formula_structural   Pr4CuSi8Pt7
_chemical_formula_sum   'Pr4 Cu1 Si8 Pt7'
_cell_volume   362.03032509
_cell_formula_units_Z   1
loop_
 _symmetry_equiv_pos_site_id
 _symmetry_equiv_pos_as_xyz
  1  'x, y, z'
loop_
 _atom_site_type_symbol
 _atom_site_label
 _atom_site_symmetry_multiplicity
 _atom_site_fract_x
 _atom_site_fract_y
 _atom_site_fract_z
 _atom_site_occupancy
  Pr  Pr0  1  0.751222  0.625118  0.754666  1
  Pr  Pr1  1  0.749363  0.125105  0.750935  1
  Pr  Pr2  1  0.252387  0.878290  0.247855  1
  Pr  Pr3  1  0.247391  0.371363  0.247459  1
  Cu  Cu4  1  0.243770  0.127169  0.500859  1
  Si  Si5  1  0.745729  0.374268  0.002003  1
  Si  Si6  1  0.746344  0.124230  0.371297  1
  Si  Si7  1  0.257863  0.879014  0.629887  1
  Si  Si8  1  0.252128  0.625591  0.998358  1
  Si  Si9  1  0.753911  0.875145  0.001719  1
  Si  Si10  1  0.244133  0.372542  0.630923  1
  Si  Si11  1  0.248323  0.125192  0.996957  1
  Si  Si12  1  0.752096  0.624142  0.366987  1
  Pt  Pt13  1  0.246545  0.375690  0.879770  1
  Pt  Pt14  1  0.751729  0.624777  0.120888  1
  Pt  Pt15  1  0.760418  0.870620  0.499772  1
  Pt  Pt16  1  0.742088  0.377281  0.499831  1
  Pt  Pt17  1  0.748642  0.124513  0.120601  1
  Pt  Pt18  1  0.252638  0.624777  0.500046  1
  Pt  Pt19  1  0.253280  0.875173  0.879189  1
