# generated using pymatgen
data_TlCu(S2O7)2
_symmetry_space_group_name_H-M   'P 1'
_cell_length_a   6.05018148
_cell_length_b   7.16849391
_cell_length_c   9.33160300
_cell_angle_alpha   107.19030840
_cell_angle_beta   95.40900466
_cell_angle_gamma   100.47187093
_symmetry_Int_Tables_number   1
_chemical_formula_structural   TlCu(S2O7)2
_chemical_formula_sum   'Tl1 Cu1 S4 O14'
_cell_volume   375.45212785
_cell_formula_units_Z   1
loop_
 _symmetry_equiv_pos_site_id
 _symmetry_equiv_pos_as_xyz
  1  'x, y, z'
loop_
 _atom_site_type_symbol
 _atom_site_label
 _atom_site_symmetry_multiplicity
 _atom_site_fract_x
 _atom_site_fract_y
 _atom_site_fract_z
 _atom_site_occupancy
  Tl  Tl0  1  0.500000  0.000000  0.000000  1
  Cu  Cu1  1  0.500000  0.500000  0.500000  1
  S  S2  1  0.923959  0.707854  0.726118  1
  S  S3  1  0.076041  0.292146  0.273882  1
  S  S4  1  0.666526  0.332197  0.735498  1
  S  S5  1  0.333474  0.667803  0.264502  1
  O  O6  1  0.810362  0.625953  0.560552  1
  O  O7  1  0.189638  0.374047  0.439448  1
  O  O8  1  0.489846  0.432266  0.678870  1
  O  O9  1  0.510154  0.567734  0.321130  1
  O  O10  1  0.164180  0.776111  0.730250  1
  O  O11  1  0.835820  0.223889  0.269750  1
  O  O12  1  0.806430  0.839777  0.822176  1
  O  O13  1  0.193570  0.160223  0.177824  1
  O  O14  1  0.615357  0.314426  0.879165  1
  O  O15  1  0.384643  0.685574  0.120835  1
  O  O16  1  0.908349  0.509526  0.781311  1
  O  O17  1  0.091651  0.490474  0.218689  1
  O  O18  1  0.710928  0.166100  0.621857  1
  O  O19  1  0.289072  0.833900  0.378143  1
