# generated using pymatgen
data_Eu4TaV3O12
_symmetry_space_group_name_H-M   'P 1'
_cell_length_a   5.58128375
_cell_length_b   5.65743923
_cell_length_c   7.92298778
_cell_angle_alpha   90.48258177
_cell_angle_beta   90.01217701
_cell_angle_gamma   90.25618634
_symmetry_Int_Tables_number   1
_chemical_formula_structural   Eu4TaV3O12
_chemical_formula_sum   'Eu4 Ta1 V3 O12'
_cell_volume   250.16308625
_cell_formula_units_Z   1
loop_
 _symmetry_equiv_pos_site_id
 _symmetry_equiv_pos_as_xyz
  1  'x, y, z'
loop_
 _atom_site_type_symbol
 _atom_site_label
 _atom_site_symmetry_multiplicity
 _atom_site_fract_x
 _atom_site_fract_y
 _atom_site_fract_z
 _atom_site_occupancy
  Eu  Eu0  1  0.990825  0.045450  0.262629  1
  Eu  Eu1  1  0.493852  0.461832  0.738595  1
  Eu  Eu2  1  0.506148  0.538168  0.261405  1
  Eu  Eu3  1  0.009175  0.954550  0.737371  1
  Ta  Ta4  1  0.500000  0.000000  0.000000  1
  V  V5  1  0.500000  0.000000  0.500000  1
  V  V6  1  0.000000  0.500000  0.000000  1
  V  V7  1  0.000000  0.500000  0.500000  1
  O  O8  1  0.580738  0.020538  0.755951  1
  O  O9  1  0.214974  0.205964  0.539764  1
  O  O10  1  0.212939  0.203161  0.957035  1
  O  O11  1  0.703061  0.287787  0.045508  1
  O  O12  1  0.708428  0.289961  0.462096  1
  O  O13  1  0.077228  0.478159  0.248271  1
  O  O14  1  0.922772  0.521841  0.751729  1
  O  O15  1  0.296939  0.712213  0.954492  1
  O  O16  1  0.291572  0.710039  0.537904  1
  O  O17  1  0.787061  0.796839  0.042965  1
  O  O18  1  0.785026  0.794036  0.460236  1
  O  O19  1  0.419262  0.979462  0.244049  1
