# generated using pymatgen
data_La8Dy2IrRu3
_symmetry_space_group_name_H-M   'P 1'
_cell_length_a   9.06650055
_cell_length_b   9.12618752
_cell_length_c   7.27289943
_cell_angle_alpha   85.10368408
_cell_angle_beta   85.24797079
_cell_angle_gamma   42.97890890
_symmetry_Int_Tables_number   1
_chemical_formula_structural   La8Dy2IrRu3
_chemical_formula_sum   'La8 Dy2 Ir1 Ru3'
_cell_volume   408.56844648
_cell_formula_units_Z   1
loop_
 _symmetry_equiv_pos_site_id
 _symmetry_equiv_pos_as_xyz
  1  'x, y, z'
loop_
 _atom_site_type_symbol
 _atom_site_label
 _atom_site_symmetry_multiplicity
 _atom_site_fract_x
 _atom_site_fract_y
 _atom_site_fract_z
 _atom_site_occupancy
  La  La0  1  0.202380  0.979736  0.593143  1
  La  La1  1  0.016979  0.802948  0.914524  1
  La  La2  1  0.209950  0.360709  0.312961  1
  La  La3  1  0.636818  0.788598  0.185287  1
  La  La4  1  0.787258  0.636483  0.684520  1
  La  La5  1  0.364949  0.209154  0.816401  1
  La  La6  1  0.979199  0.202690  0.092728  1
  La  La7  1  0.795479  0.023794  0.407483  1
  Dy  Dy8  1  0.567558  0.431863  0.750024  1
  Dy  Dy9  1  0.431153  0.569572  0.250163  1
  Ir  Ir10  1  0.187784  0.596419  0.573823  1
  Ru  Ru11  1  0.395909  0.821924  0.919247  1
  Ru  Ru12  1  0.821935  0.397245  0.421091  1
  Ru  Ru13  1  0.602647  0.178866  0.078605  1
