# generated using pymatgen
data_SrNd7(Sn4Pt3)4
_symmetry_space_group_name_H-M   'P 1'
_cell_length_a   14.75849009
_cell_length_b   14.74195602
_cell_length_c   4.47899100
_cell_angle_alpha   90.00000000
_cell_angle_beta   90.00000000
_cell_angle_gamma   119.96293962
_symmetry_Int_Tables_number   1
_chemical_formula_structural   SrNd7(Sn4Pt3)4
_chemical_formula_sum   'Sr1 Nd7 Sn16 Pt12'
_cell_volume   844.24777481
_cell_formula_units_Z   1
loop_
 _symmetry_equiv_pos_site_id
 _symmetry_equiv_pos_as_xyz
  1  'x, y, z'
loop_
 _atom_site_type_symbol
 _atom_site_label
 _atom_site_symmetry_multiplicity
 _atom_site_fract_x
 _atom_site_fract_y
 _atom_site_fract_z
 _atom_site_occupancy
  Sr  Sr0  1  0.000000  0.181362  0.500000  1
  Nd  Nd1  1  0.177592  0.998100  0.500000  1
  Nd  Nd2  1  0.822408  0.820508  0.500000  1
  Nd  Nd3  1  0.667405  0.334817  0.000000  1
  Nd  Nd4  1  0.332595  0.667413  0.000000  1
  Nd  Nd5  1  0.563443  0.999688  0.000000  1
  Nd  Nd6  1  0.436557  0.436245  0.000000  1
  Nd  Nd7  1  0.000000  0.566005  0.000000  1
  Sn  Sn8  1  0.495787  0.126011  0.500000  1
  Sn  Sn9  1  0.873518  0.370075  0.500000  1
  Sn  Sn10  1  0.630939  0.505723  0.500000  1
  Sn  Sn11  1  0.504213  0.630225  0.500000  1
  Sn  Sn12  1  0.369061  0.874783  0.500000  1
  Sn  Sn13  1  0.126482  0.496557  0.500000  1
  Sn  Sn14  1  0.375053  0.186101  0.000000  1
  Sn  Sn15  1  0.814907  0.187894  0.000000  1
  Sn  Sn16  1  0.811957  0.625741  0.000000  1
  Sn  Sn17  1  0.624947  0.811047  0.000000  1
  Sn  Sn18  1  0.000000  0.998263  0.000000  1
  Sn  Sn19  1  0.188043  0.813783  0.000000  1
  Sn  Sn20  1  0.723481  0.999241  0.500000  1
  Sn  Sn21  1  0.276519  0.275759  0.500000  1
  Sn  Sn22  1  0.000000  0.725411  0.500000  1
  Sn  Sn23  1  0.185093  0.372986  0.000000  1
  Pt  Pt24  1  0.000000  0.367603  0.000000  1
  Pt  Pt25  1  0.362470  0.999562  0.000000  1
  Pt  Pt26  1  0.479096  0.301142  0.500000  1
  Pt  Pt27  1  0.699838  0.177994  0.500000  1
  Pt  Pt28  1  0.821684  0.521990  0.500000  1
  Pt  Pt29  1  0.520904  0.822046  0.500000  1
  Pt  Pt30  1  0.178316  0.700306  0.500000  1
  Pt  Pt31  1  0.300162  0.478156  0.500000  1
  Pt  Pt32  1  0.000000  0.820146  0.000000  1
  Pt  Pt33  1  0.181895  0.176061  0.000000  1
  Pt  Pt34  1  0.818105  0.994166  0.000000  1
  Pt  Pt35  1  0.637530  0.637092  0.000000  1
