# generated using pymatgen
data_Y10In8Pd3Ru
_symmetry_space_group_name_H-M   'P 1'
_cell_length_a   18.37665190
_cell_length_b   8.17723638
_cell_length_c   3.61293300
_cell_angle_alpha   90.00000000
_cell_angle_beta   90.00000000
_cell_angle_gamma   89.96452043
_symmetry_Int_Tables_number   1
_chemical_formula_structural   Y10In8Pd3Ru
_chemical_formula_sum   'Y10 In8 Pd3 Ru1'
_cell_volume   542.91615623
_cell_formula_units_Z   1
loop_
 _symmetry_equiv_pos_site_id
 _symmetry_equiv_pos_as_xyz
  1  'x, y, z'
loop_
 _atom_site_type_symbol
 _atom_site_label
 _atom_site_symmetry_multiplicity
 _atom_site_fract_x
 _atom_site_fract_y
 _atom_site_fract_z
 _atom_site_occupancy
  Y  Y0  1  0.000472  0.999771  0.000000  1
  Y  Y1  1  0.413802  0.114430  0.000000  1
  Y  Y2  1  0.221756  0.227128  0.000000  1
  Y  Y3  1  0.719545  0.263301  0.000000  1
  Y  Y4  1  0.917233  0.383986  0.000000  1
  Y  Y5  1  0.499202  0.500626  0.000000  1
  Y  Y6  1  0.084211  0.617543  0.000000  1
  Y  Y7  1  0.280189  0.747698  0.000000  1
  Y  Y8  1  0.780720  0.763194  0.000000  1
  Y  Y9  1  0.583093  0.883310  0.000000  1
  In  In10  1  0.849388  0.082590  0.500000  1
  In  In11  1  0.568383  0.209900  0.500000  1
  In  In12  1  0.067997  0.290801  0.500000  1
  In  In13  1  0.349335  0.417465  0.500000  1
  In  In14  1  0.650578  0.582239  0.500000  1
  In  In15  1  0.931857  0.709322  0.500000  1
  In  In16  1  0.430339  0.792402  0.500000  1
  In  In17  1  0.151068  0.922380  0.500000  1
  Pd  Pd18  1  0.804049  0.479319  0.500000  1
  Pd  Pd19  1  0.196316  0.517426  0.500000  1
  Pd  Pd20  1  0.696065  0.979561  0.500000  1
  Ru  Ru21  1  0.304402  0.015610  0.500000  1
