# generated using pymatgen
data_DyTl11F20
_symmetry_space_group_name_H-M   'P 1'
_cell_length_a   6.93341652
_cell_length_b   7.41038700
_cell_length_c   11.49758600
_cell_angle_alpha   90.00000000
_cell_angle_beta   90.17277802
_cell_angle_gamma   90.00000000
_symmetry_Int_Tables_number   1
_chemical_formula_structural   DyTl11F20
_chemical_formula_sum   'Dy1 Tl11 F20'
_cell_volume   590.73523074
_cell_formula_units_Z   1
loop_
 _symmetry_equiv_pos_site_id
 _symmetry_equiv_pos_as_xyz
  1  'x, y, z'
loop_
 _atom_site_type_symbol
 _atom_site_label
 _atom_site_symmetry_multiplicity
 _atom_site_fract_x
 _atom_site_fract_y
 _atom_site_fract_z
 _atom_site_occupancy
  Dy  Dy0  1  0.559306  0.250000  0.501836  1
  Tl  Tl1  1  0.532747  0.998157  0.830027  1
  Tl  Tl2  1  0.467304  0.497236  0.170168  1
  Tl  Tl3  1  0.968215  0.997758  0.328077  1
  Tl  Tl4  1  0.035778  0.496943  0.671716  1
  Tl  Tl5  1  0.532747  0.501843  0.830027  1
  Tl  Tl6  1  0.467304  0.002764  0.170168  1
  Tl  Tl7  1  0.968215  0.502242  0.328077  1
  Tl  Tl8  1  0.035778  0.003057  0.671716  1
  Tl  Tl9  1  0.440038  0.750000  0.498156  1
  Tl  Tl10  1  0.941077  0.250000  0.001494  1
  Tl  Tl11  1  0.058341  0.750000  0.998391  1
  F  F12  1  0.883053  0.750000  0.840589  1
  F  F13  1  0.116886  0.250000  0.159742  1
  F  F14  1  0.616725  0.750000  0.341690  1
  F  F15  1  0.382320  0.250000  0.661495  1
  F  F16  1  0.848425  0.250000  0.816520  1
  F  F17  1  0.150495  0.750000  0.183210  1
  F  F18  1  0.649095  0.250000  0.316358  1
  F  F19  1  0.351285  0.750000  0.682756  1
  F  F20  1  0.645513  0.967333  0.569722  1
  F  F21  1  0.353439  0.459206  0.428213  1
  F  F22  1  0.850412  0.962209  0.072399  1
  F  F23  1  0.149181  0.461599  0.927963  1
  F  F24  1  0.379937  0.750000  0.983892  1
  F  F25  1  0.619089  0.250000  0.015688  1
  F  F26  1  0.119721  0.750000  0.483650  1
  F  F27  1  0.879025  0.250000  0.517958  1
  F  F28  1  0.149181  0.038401  0.927963  1
  F  F29  1  0.850412  0.537791  0.072399  1
  F  F30  1  0.353439  0.040794  0.428213  1
  F  F31  1  0.645513  0.532667  0.569722  1
