# generated using pymatgen
data_Tm4LuGaNiBi
_symmetry_space_group_name_H-M   'P 1'
_cell_length_a   8.46493204
_cell_length_b   8.46493262
_cell_length_c   8.64447688
_cell_angle_alpha   125.12630023
_cell_angle_beta   125.12629851
_cell_angle_gamma   79.91148009
_symmetry_Int_Tables_number   1
_chemical_formula_structural   Tm4LuGaNiBi
_chemical_formula_sum   'Tm8 Lu2 Ga2 Ni2 Bi2'
_cell_volume   402.94442847
_cell_formula_units_Z   2
loop_
 _symmetry_equiv_pos_site_id
 _symmetry_equiv_pos_as_xyz
  1  'x, y, z'
loop_
 _atom_site_type_symbol
 _atom_site_label
 _atom_site_symmetry_multiplicity
 _atom_site_fract_x
 _atom_site_fract_y
 _atom_site_fract_z
 _atom_site_occupancy
  Tm  Tm0  1  0.779251  0.279251  0.789170  1
  Tm  Tm1  1  0.220749  0.720749  0.210830  1
  Tm  Tm2  1  0.490082  0.990082  0.210830  1
  Tm  Tm3  1  0.304152  0.461236  0.500000  1
  Tm  Tm4  1  0.038764  0.195848  0.500000  1
  Tm  Tm5  1  0.509918  0.009918  0.789170  1
  Tm  Tm6  1  0.695848  0.538764  0.500000  1
  Tm  Tm7  1  0.961236  0.804152  0.500000  1
  Lu  Lu8  1  0.000000  0.000000  0.000000  1
  Lu  Lu9  1  0.500000  0.500000  0.000000  1
  Ga  Ga10  1  0.141045  0.641045  0.782088  1
  Ga  Ga11  1  0.858955  0.358955  0.217912  1
  Ni  Ni12  1  0.629754  0.870246  0.500000  1
  Ni  Ni13  1  0.370246  0.129754  0.500000  1
  Bi  Bi14  1  0.250000  0.250000  0.000000  1
  Bi  Bi15  1  0.750000  0.750000  0.000000  1
