# generated using pymatgen
data_SmTh3(Zn5Sn)2
_symmetry_space_group_name_H-M   'P 1'
_cell_length_a   8.54163704
_cell_length_b   8.54163907
_cell_length_c   9.03889200
_cell_angle_alpha   89.28496444
_cell_angle_beta   90.71503672
_cell_angle_gamma   149.53632715
_symmetry_Int_Tables_number   1
_chemical_formula_structural   SmTh3(Zn5Sn)2
_chemical_formula_sum   'Sm1 Th3 Zn10 Sn2'
_cell_volume   334.31993524
_cell_formula_units_Z   1
loop_
 _symmetry_equiv_pos_site_id
 _symmetry_equiv_pos_as_xyz
  1  'x, y, z'
loop_
 _atom_site_type_symbol
 _atom_site_label
 _atom_site_symmetry_multiplicity
 _atom_site_fract_x
 _atom_site_fract_y
 _atom_site_fract_z
 _atom_site_occupancy
  Sm  Sm0  1  0.000000  0.000000  0.000000  1
  Th  Th1  1  0.204315  0.795685  0.250049  1
  Th  Th2  1  0.795685  0.204315  0.749951  1
  Th  Th3  1  0.000000  0.000000  0.500000  1
  Zn  Zn4  1  0.815205  0.184795  0.393248  1
  Zn  Zn5  1  0.184795  0.815205  0.606752  1
  Zn  Zn6  1  0.816290  0.183710  0.108180  1
  Zn  Zn7  1  0.183710  0.816290  0.891820  1
  Zn  Zn8  1  0.656775  0.343225  0.482358  1
  Zn  Zn9  1  0.343225  0.656775  0.517642  1
  Zn  Zn10  1  0.657212  0.342788  0.016585  1
  Zn  Zn11  1  0.342788  0.657212  0.983415  1
  Zn  Zn12  1  0.394554  0.605446  0.251886  1
  Zn  Zn13  1  0.605446  0.394554  0.748114  1
  Sn  Sn14  1  0.554182  0.445818  0.246844  1
  Sn  Sn15  1  0.445818  0.554182  0.753156  1
