# generated using pymatgen
data_Tb8Lu2(IrRh)3
_symmetry_space_group_name_H-M   'P 1'
_cell_length_a   10.89779201
_cell_length_b   10.89899200
_cell_length_c   6.37827400
_cell_angle_alpha   90.00135186
_cell_angle_beta   89.99575072
_cell_angle_gamma   89.99907475
_symmetry_Int_Tables_number   1
_chemical_formula_structural   Tb8Lu2(IrRh)3
_chemical_formula_sum   'Tb16 Lu4 Ir6 Rh6'
_cell_volume   757.57916037
_cell_formula_units_Z   2
loop_
 _symmetry_equiv_pos_site_id
 _symmetry_equiv_pos_as_xyz
  1  'x, y, z'
loop_
 _atom_site_type_symbol
 _atom_site_label
 _atom_site_symmetry_multiplicity
 _atom_site_fract_x
 _atom_site_fract_y
 _atom_site_fract_z
 _atom_site_occupancy
  Tb  Tb0  1  0.288790  0.088057  0.379099  1
  Tb  Tb1  1  0.288777  0.911973  0.879115  1
  Tb  Tb2  1  0.709962  0.088955  0.878861  1
  Tb  Tb3  1  0.709959  0.911045  0.378866  1
  Tb  Tb4  1  0.586852  0.788682  0.879555  1
  Tb  Tb5  1  0.586866  0.211314  0.379576  1
  Tb  Tb6  1  0.411796  0.788923  0.379304  1
  Tb  Tb7  1  0.411778  0.211078  0.879340  1
  Tb  Tb8  1  0.211099  0.411849  0.620515  1
  Tb  Tb9  1  0.211104  0.588179  0.120499  1
  Tb  Tb10  1  0.788708  0.413138  0.120573  1
  Tb  Tb11  1  0.788691  0.586864  0.620598  1
  Tb  Tb12  1  0.912265  0.710576  0.121364  1
  Tb  Tb13  1  0.912251  0.289424  0.621313  1
  Tb  Tb14  1  0.089269  0.710621  0.620713  1
  Tb  Tb15  1  0.089270  0.289385  0.120725  1
  Lu  Lu16  1  0.000686  0.999952  0.500046  1
  Lu  Lu17  1  0.000661  0.999968  0.000061  1
  Lu  Lu18  1  0.500088  0.499877  0.000001  1
  Lu  Lu19  1  0.500080  0.500125  0.499927  1
  Ir  Ir20  1  0.150358  0.151071  0.750030  1
  Ir  Ir21  1  0.150376  0.848925  0.250027  1
  Ir  Ir22  1  0.651828  0.348321  0.749931  1
  Ir  Ir23  1  0.651825  0.651692  0.249944  1
  Ir  Ir24  1  0.348900  0.348774  0.250094  1
  Ir  Ir25  1  0.348896  0.651239  0.750090  1
  Rh  Rh26  1  0.848916  0.150418  0.249940  1
  Rh  Rh27  1  0.848905  0.849602  0.749938  1
  Rh  Rh28  1  0.500985  0.000031  0.122877  1
  Rh  Rh29  1  0.500982  0.999940  0.622878  1
  Rh  Rh30  1  0.999529  0.500182  0.877081  1
  Rh  Rh31  1  0.999551  0.499821  0.377121  1
