# generated using pymatgen
data_Zr6Sc8Al8Ir4Pt3
_symmetry_space_group_name_H-M   'P 1'
_cell_length_a   9.13438212
_cell_length_b   9.09285121
_cell_length_c   9.09285028
_cell_angle_alpha   60.30241004
_cell_angle_beta   59.84879520
_cell_angle_gamma   59.84879435
_symmetry_Int_Tables_number   1
_chemical_formula_structural   Zr6Sc8Al8Ir4Pt3
_chemical_formula_sum   'Zr6 Sc8 Al8 Ir4 Pt3'
_cell_volume   534.00595176
_cell_formula_units_Z   1
loop_
 _symmetry_equiv_pos_site_id
 _symmetry_equiv_pos_as_xyz
  1  'x, y, z'
loop_
 _atom_site_type_symbol
 _atom_site_label
 _atom_site_symmetry_multiplicity
 _atom_site_fract_x
 _atom_site_fract_y
 _atom_site_fract_z
 _atom_site_occupancy
  Zr  Zr0  1  0.684995  0.684995  0.315005  1
  Zr  Zr1  1  0.315005  0.684995  0.315005  1
  Zr  Zr2  1  0.672088  0.327912  0.327912  1
  Zr  Zr3  1  0.315005  0.315005  0.684995  1
  Zr  Zr4  1  0.684995  0.315005  0.684995  1
  Zr  Zr5  1  0.327912  0.672088  0.672088  1
  Sc  Sc6  1  0.875206  0.882194  0.367395  1
  Sc  Sc7  1  0.875206  0.367395  0.882194  1
  Sc  Sc8  1  0.367395  0.875206  0.875206  1
  Sc  Sc9  1  0.882194  0.875206  0.875206  1
  Sc  Sc10  1  0.124794  0.117806  0.632605  1
  Sc  Sc11  1  0.124794  0.632605  0.117806  1
  Sc  Sc12  1  0.632605  0.124794  0.124794  1
  Sc  Sc13  1  0.117806  0.124794  0.124794  1
  Al  Al14  1  0.659925  0.662708  0.017442  1
  Al  Al15  1  0.659925  0.017442  0.662708  1
  Al  Al16  1  0.017442  0.659925  0.659925  1
  Al  Al17  1  0.662708  0.659925  0.659925  1
  Al  Al18  1  0.340075  0.337292  0.982558  1
  Al  Al19  1  0.340075  0.982558  0.337292  1
  Al  Al20  1  0.982558  0.340075  0.340075  1
  Al  Al21  1  0.337292  0.340075  0.340075  1
  Ir  Ir22  1  0.000000  0.000000  0.500000  1
  Ir  Ir23  1  0.500000  0.000000  0.500000  1
  Ir  Ir24  1  0.500000  0.500000  0.000000  1
  Ir  Ir25  1  0.000000  0.500000  0.000000  1
  Pt  Pt26  1  0.000000  0.000000  0.000000  1
  Pt  Pt27  1  0.000000  0.500000  0.500000  1
  Pt  Pt28  1  0.500000  0.000000  0.000000  1
