# generated using pymatgen
data_Th5NiSnSb2
_symmetry_space_group_name_H-M   'P 1'
_cell_length_a   9.44130508
_cell_length_b   9.50644536
_cell_length_c   6.49829000
_cell_angle_alpha   90.00000000
_cell_angle_beta   90.00000000
_cell_angle_gamma   120.22849885
_symmetry_Int_Tables_number   1
_chemical_formula_structural   Th5NiSnSb2
_chemical_formula_sum   'Th10 Ni2 Sn2 Sb4'
_cell_volume   503.93593761
_cell_formula_units_Z   2
loop_
 _symmetry_equiv_pos_site_id
 _symmetry_equiv_pos_as_xyz
  1  'x, y, z'
loop_
 _atom_site_type_symbol
 _atom_site_label
 _atom_site_symmetry_multiplicity
 _atom_site_fract_x
 _atom_site_fract_y
 _atom_site_fract_z
 _atom_site_occupancy
  Th  Th0  1  0.749972  0.749103  0.750000  1
  Th  Th1  1  0.250028  0.999131  0.750000  1
  Th  Th2  1  0.000000  0.258510  0.750000  1
  Th  Th3  1  0.247539  0.247787  0.250000  1
  Th  Th4  1  0.752461  0.000248  0.250000  1
  Th  Th5  1  0.000000  0.745425  0.250000  1
  Th  Th6  1  0.665895  0.332562  0.998894  1
  Th  Th7  1  0.334105  0.666668  0.998894  1
  Th  Th8  1  0.334105  0.666668  0.501106  1
  Th  Th9  1  0.665895  0.332562  0.501106  1
  Ni  Ni10  1  0.000000  0.000774  0.994318  1
  Ni  Ni11  1  0.000000  0.000774  0.505682  1
  Sn  Sn12  1  0.388767  0.388956  0.750000  1
  Sn  Sn13  1  0.611233  0.000189  0.750000  1
  Sb  Sb14  1  0.000000  0.612346  0.750000  1
  Sb  Sb15  1  0.610468  0.610223  0.250000  1
  Sb  Sb16  1  0.389532  0.999755  0.250000  1
  Sb  Sb17  1  0.000000  0.388319  0.250000  1
