# generated using pymatgen
data_Y2UAl2GaIr3
_symmetry_space_group_name_H-M   'P 1'
_cell_length_a   7.11981726
_cell_length_b   7.25202932
_cell_length_c   3.90498000
_cell_angle_alpha   90.00000000
_cell_angle_beta   90.00000000
_cell_angle_gamma   120.49334106
_symmetry_Int_Tables_number   1
_chemical_formula_structural   Y2UAl2GaIr3
_chemical_formula_sum   'Y2 U1 Al2 Ga1 Ir3'
_cell_volume   173.73900421
_cell_formula_units_Z   1
loop_
 _symmetry_equiv_pos_site_id
 _symmetry_equiv_pos_as_xyz
  1  'x, y, z'
loop_
 _atom_site_type_symbol
 _atom_site_label
 _atom_site_symmetry_multiplicity
 _atom_site_fract_x
 _atom_site_fract_y
 _atom_site_fract_z
 _atom_site_occupancy
  Y  Y0  1  0.413858  0.417982  0.500000  1
  Y  Y1  1  0.590036  0.000770  0.500000  1
  U  U2  1  0.996454  0.580507  0.500000  1
  Al  Al3  1  0.250935  0.007922  0.000000  1
  Al  Al4  1  0.002859  0.229756  0.000000  1
  Ga  Ga5  1  0.743258  0.752235  0.000000  1
  Ir  Ir6  1  0.702080  0.357847  0.000000  1
  Ir  Ir7  1  0.292510  0.661916  0.000000  1
  Ir  Ir8  1  0.008012  0.991064  0.500000  1
