# generated using pymatgen
data_Tb7DyHo8(Ga3Co)2
_symmetry_space_group_name_H-M   'P 1'
_cell_length_a   9.99351100
_cell_length_b   9.99351077
_cell_length_c   6.98863500
_cell_angle_alpha   90.00000000
_cell_angle_beta   90.00000000
_cell_angle_gamma   119.99999083
_symmetry_Int_Tables_number   1
_chemical_formula_structural   Tb7DyHo8(Ga3Co)2
_chemical_formula_sum   'Tb7 Dy1 Ho8 Ga6 Co2'
_cell_volume   604.44836950
_cell_formula_units_Z   1
loop_
 _symmetry_equiv_pos_site_id
 _symmetry_equiv_pos_as_xyz
  1  'x, y, z'
loop_
 _atom_site_type_symbol
 _atom_site_label
 _atom_site_symmetry_multiplicity
 _atom_site_fract_x
 _atom_site_fract_y
 _atom_site_fract_z
 _atom_site_occupancy
  Tb  Tb0  1  0.463132  0.536868  0.208530  1
  Tb  Tb1  1  0.073734  0.536868  0.208530  1
  Tb  Tb2  1  0.463132  0.926266  0.208530  1
  Tb  Tb3  1  0.536858  0.463142  0.708453  1
  Tb  Tb4  1  0.926285  0.463142  0.708453  1
  Tb  Tb5  1  0.536858  0.073715  0.708453  1
  Tb  Tb6  1  0.000000  0.000000  0.231456  1
  Dy  Dy7  1  0.000000  0.000000  0.731923  1
  Ho  Ho8  1  0.172754  0.827246  0.512664  1
  Ho  Ho9  1  0.654493  0.827246  0.512664  1
  Ho  Ho10  1  0.172754  0.345507  0.512664  1
  Ho  Ho11  1  0.827288  0.172712  0.012237  1
  Ho  Ho12  1  0.345425  0.172712  0.012237  1
  Ho  Ho13  1  0.827288  0.654575  0.012237  1
  Ho  Ho14  1  0.333333  0.666667  0.825957  1
  Ho  Ho15  1  0.666667  0.333333  0.326386  1
  Ga  Ga16  1  0.163540  0.836460  0.956094  1
  Ga  Ga17  1  0.672921  0.836460  0.956094  1
  Ga  Ga18  1  0.163540  0.327079  0.956094  1
  Ga  Ga19  1  0.836392  0.163608  0.456740  1
  Ga  Ga20  1  0.327216  0.163608  0.456740  1
  Ga  Ga21  1  0.836392  0.672784  0.456740  1
  Co  Co22  1  0.333333  0.666667  0.447318  1
  Co  Co23  1  0.666667  0.333333  0.947641  1
