# generated using pymatgen
data_CsNb(AgS2)2
_symmetry_space_group_name_H-M   'P 1'
_cell_length_a   10.26804803
_cell_length_b   10.26804866
_cell_length_c   8.27884400
_cell_angle_alpha   90.00000000
_cell_angle_beta   90.00000000
_cell_angle_gamma   145.84508136
_symmetry_Int_Tables_number   1
_chemical_formula_structural   CsNb(AgS2)2
_chemical_formula_sum   'Cs2 Nb2 Ag4 S8'
_cell_volume   490.05295607
_cell_formula_units_Z   2
loop_
 _symmetry_equiv_pos_site_id
 _symmetry_equiv_pos_as_xyz
  1  'x, y, z'
loop_
 _atom_site_type_symbol
 _atom_site_label
 _atom_site_symmetry_multiplicity
 _atom_site_fract_x
 _atom_site_fract_y
 _atom_site_fract_z
 _atom_site_occupancy
  Cs  Cs0  1  0.458329  0.822085  0.750000  1
  Cs  Cs1  1  0.822085  0.458329  0.250000  1
  Nb  Nb2  1  0.522990  0.296672  0.750000  1
  Nb  Nb3  1  0.296672  0.522990  0.250000  1
  Ag  Ag4  1  0.373809  0.373809  0.000000  1
  Ag  Ag5  1  0.373809  0.373809  0.500000  1
  Ag  Ag6  1  0.024249  0.795605  0.750000  1
  Ag  Ag7  1  0.795605  0.024249  0.250000  1
  S  S8  1  0.643757  0.616015  0.750000  1
  S  S9  1  0.616015  0.643757  0.250000  1
  S  S10  1  0.308319  0.073948  0.982130  1
  S  S11  1  0.073948  0.308319  0.482130  1
  S  S12  1  0.416314  0.835251  0.250000  1
  S  S13  1  0.073948  0.308319  0.017870  1
  S  S14  1  0.308319  0.073948  0.517870  1
  S  S15  1  0.835251  0.416314  0.750000  1
