# generated using pymatgen
data_Nd5(In2Rh)2
_symmetry_space_group_name_H-M   'P 1'
_cell_length_a   3.79282600
_cell_length_b   8.24934900
_cell_length_c   18.65737400
_cell_angle_alpha   90.00000000
_cell_angle_beta   90.00000000
_cell_angle_gamma   90.00000000
_symmetry_Int_Tables_number   1
_chemical_formula_structural   Nd5(In2Rh)2
_chemical_formula_sum   'Nd10 In8 Rh4'
_cell_volume   583.75836141
_cell_formula_units_Z   2
loop_
 _symmetry_equiv_pos_site_id
 _symmetry_equiv_pos_as_xyz
  1  'x, y, z'
loop_
 _atom_site_type_symbol
 _atom_site_label
 _atom_site_symmetry_multiplicity
 _atom_site_fract_x
 _atom_site_fract_y
 _atom_site_fract_z
 _atom_site_occupancy
  Nd  Nd0  1  0.000000  0.115948  0.412062  1
  Nd  Nd1  1  0.000000  0.884052  0.587938  1
  Nd  Nd2  1  0.000000  0.384052  0.912062  1
  Nd  Nd3  1  0.000000  0.615948  0.087938  1
  Nd  Nd4  1  0.000000  0.245535  0.221304  1
  Nd  Nd5  1  0.000000  0.754465  0.778696  1
  Nd  Nd6  1  0.000000  0.254465  0.721304  1
  Nd  Nd7  1  0.000000  0.745535  0.278696  1
  Nd  Nd8  1  0.000000  0.000000  0.000000  1
  Nd  Nd9  1  0.000000  0.500000  0.500000  1
  In  In10  1  0.500000  0.433543  0.349009  1
  In  In11  1  0.500000  0.566457  0.650991  1
  In  In12  1  0.500000  0.066457  0.849009  1
  In  In13  1  0.500000  0.933543  0.150991  1
  In  In14  1  0.500000  0.290733  0.070016  1
  In  In15  1  0.500000  0.709267  0.929984  1
  In  In16  1  0.500000  0.209267  0.570016  1
  In  In17  1  0.500000  0.790733  0.429984  1
  Rh  Rh18  1  0.500000  0.015939  0.305281  1
  Rh  Rh19  1  0.500000  0.984061  0.694719  1
  Rh  Rh20  1  0.500000  0.484061  0.805281  1
  Rh  Rh21  1  0.500000  0.515939  0.194719  1
