# generated using pymatgen
data_Dy9Lu3AlCo4Sn
_symmetry_space_group_name_H-M   'P 1'
_cell_length_a   8.28158954
_cell_length_b   8.27248348
_cell_length_c   8.28158940
_cell_angle_alpha   111.99312496
_cell_angle_beta   109.38636792
_cell_angle_gamma   107.11576846
_symmetry_Int_Tables_number   1
_chemical_formula_structural   Dy9Lu3AlCo4Sn
_chemical_formula_sum   'Dy9 Lu3 Al1 Co4 Sn1'
_cell_volume   435.72372732
_cell_formula_units_Z   1
loop_
 _symmetry_equiv_pos_site_id
 _symmetry_equiv_pos_as_xyz
  1  'x, y, z'
loop_
 _atom_site_type_symbol
 _atom_site_label
 _atom_site_symmetry_multiplicity
 _atom_site_fract_x
 _atom_site_fract_y
 _atom_site_fract_z
 _atom_site_occupancy
  Dy  Dy0  1  0.438027  0.232730  0.203509  1
  Dy  Dy1  1  0.563452  0.767002  0.798065  1
  Dy  Dy2  1  0.029220  0.232730  0.794704  1
  Dy  Dy3  1  0.968938  0.767002  0.203548  1
  Dy  Dy4  1  0.181788  0.280619  0.464217  1
  Dy  Dy5  1  0.819439  0.718553  0.536918  1
  Dy  Dy6  1  0.181633  0.718553  0.899114  1
  Dy  Dy7  1  0.816403  0.280619  0.098831  1
  Dy  Dy8  1  0.324396  0.636810  0.312414  1
  Lu  Lu9  1  0.674912  0.359859  0.684948  1
  Lu  Lu10  1  0.324770  0.011074  0.686304  1
  Lu  Lu11  1  0.675656  0.990226  0.314571  1
  Al  Al12  1  0.000469  0.000484  0.000015  1
  Co  Co13  1  0.342213  0.001720  0.342690  1
  Co  Co14  1  0.659031  0.001720  0.659508  1
  Co  Co15  1  0.114056  0.614355  0.500300  1
  Co  Co16  1  0.884543  0.383863  0.499320  1
  Sn  Sn17  1  0.501057  0.502082  0.001025  1
