# generated using pymatgen
data_Er4Fe2MoRu5
_symmetry_space_group_name_H-M   'P 1'
_cell_length_a   5.41320158
_cell_length_b   5.18980036
_cell_length_c   8.88008200
_cell_angle_alpha   90.00000000
_cell_angle_beta   90.00000000
_cell_angle_gamma   122.44971793
_symmetry_Int_Tables_number   1
_chemical_formula_structural   Er4Fe2MoRu5
_chemical_formula_sum   'Er4 Fe2 Mo1 Ru5'
_cell_volume   210.52011214
_cell_formula_units_Z   1
loop_
 _symmetry_equiv_pos_site_id
 _symmetry_equiv_pos_as_xyz
  1  'x, y, z'
loop_
 _atom_site_type_symbol
 _atom_site_label
 _atom_site_symmetry_multiplicity
 _atom_site_fract_x
 _atom_site_fract_y
 _atom_site_fract_z
 _atom_site_occupancy
  Er  Er0  1  0.333625  0.665297  0.431085  1
  Er  Er1  1  0.671114  0.344815  0.561606  1
  Er  Er2  1  0.671114  0.344815  0.938394  1
  Er  Er3  1  0.333625  0.665297  0.068915  1
  Fe  Fe4  1  0.339626  0.169159  0.250000  1
  Fe  Fe5  1  0.831171  0.661750  0.250000  1
  Mo  Mo6  1  0.158123  0.315437  0.750000  1
  Ru  Ru7  1  0.172463  0.820600  0.750000  1
  Ru  Ru8  1  0.651038  0.821425  0.750000  1
  Ru  Ru9  1  0.007114  0.008145  0.008088  1
  Ru  Ru10  1  0.823872  0.175114  0.250000  1
  Ru  Ru11  1  0.007114  0.008145  0.491912  1
