# generated using pymatgen
data_La6AlCo2
_symmetry_space_group_name_H-M   'P 1'
_cell_length_a   8.75154345
_cell_length_b   8.75154385
_cell_length_c   8.75154364
_cell_angle_alpha   114.85006148
_cell_angle_beta   108.18813857
_cell_angle_gamma   105.52249296
_symmetry_Int_Tables_number   1
_chemical_formula_structural   La6AlCo2
_chemical_formula_sum   'La12 Al2 Co4'
_cell_volume   512.28426761
_cell_formula_units_Z   2
loop_
 _symmetry_equiv_pos_site_id
 _symmetry_equiv_pos_as_xyz
  1  'x, y, z'
loop_
 _atom_site_type_symbol
 _atom_site_label
 _atom_site_symmetry_multiplicity
 _atom_site_fract_x
 _atom_site_fract_y
 _atom_site_fract_z
 _atom_site_occupancy
  La  La0  1  0.573789  0.270184  0.303604  1
  La  La1  1  0.171923  0.205613  0.377536  1
  La  La2  1  0.171923  0.794387  0.966311  1
  La  La3  1  0.668673  0.482048  0.813375  1
  La  La4  1  0.668673  0.855298  0.186625  1
  La  La5  1  0.966580  0.270184  0.696396  1
  La  La6  1  0.033420  0.729816  0.303604  1
  La  La7  1  0.331327  0.517952  0.186625  1
  La  La8  1  0.331327  0.144702  0.813375  1
  La  La9  1  0.828077  0.205613  0.033689  1
  La  La10  1  0.828077  0.794387  0.622464  1
  La  La11  1  0.426211  0.729816  0.696396  1
  Al  Al12  1  0.000000  0.500000  0.500000  1
  Al  Al13  1  0.500000  0.000000  0.500000  1
  Co  Co14  1  0.854907  0.854907  0.000000  1
  Co  Co15  1  0.263781  0.500000  0.763781  1
  Co  Co16  1  0.736219  0.500000  0.236219  1
  Co  Co17  1  0.145093  0.145093  0.000000  1
