# generated using pymatgen
data_Y20Cd3Ag3Ir2
_symmetry_space_group_name_H-M   'P 1'
_cell_length_a   9.66486800
_cell_length_b   9.66486782
_cell_length_c   9.72319500
_cell_angle_alpha   90.00000000
_cell_angle_beta   90.00000000
_cell_angle_gamma   120.00000063
_symmetry_Int_Tables_number   1
_chemical_formula_structural   Y20Cd3Ag3Ir2
_chemical_formula_sum   'Y20 Cd3 Ag3 Ir2'
_cell_volume   786.55929975
_cell_formula_units_Z   1
loop_
 _symmetry_equiv_pos_site_id
 _symmetry_equiv_pos_as_xyz
  1  'x, y, z'
loop_
 _atom_site_type_symbol
 _atom_site_label
 _atom_site_symmetry_multiplicity
 _atom_site_fract_x
 _atom_site_fract_y
 _atom_site_fract_z
 _atom_site_occupancy
  Y  Y0  1  0.000000  0.000000  0.475049  1
  Y  Y1  1  0.000000  0.000000  0.024951  1
  Y  Y2  1  0.209430  0.790570  0.442359  1
  Y  Y3  1  0.209430  0.418861  0.442359  1
  Y  Y4  1  0.581139  0.790570  0.442359  1
  Y  Y5  1  0.791678  0.208322  0.558175  1
  Y  Y6  1  0.791678  0.583355  0.558175  1
  Y  Y7  1  0.416645  0.208322  0.558175  1
  Y  Y8  1  0.791678  0.208322  0.941825  1
  Y  Y9  1  0.791678  0.583355  0.941825  1
  Y  Y10  1  0.416645  0.208322  0.941825  1
  Y  Y11  1  0.209430  0.790570  0.057641  1
  Y  Y12  1  0.209430  0.418861  0.057641  1
  Y  Y13  1  0.581139  0.790570  0.057641  1
  Y  Y14  1  0.541206  0.458794  0.250000  1
  Y  Y15  1  0.541206  0.082411  0.250000  1
  Y  Y16  1  0.917589  0.458794  0.250000  1
  Y  Y17  1  0.458032  0.541968  0.750000  1
  Y  Y18  1  0.458032  0.916062  0.750000  1
  Y  Y19  1  0.083938  0.541968  0.750000  1
  Cd  Cd20  1  0.111457  0.888543  0.750000  1
  Cd  Cd21  1  0.111457  0.222913  0.750000  1
  Cd  Cd22  1  0.777087  0.888543  0.750000  1
  Ag  Ag23  1  0.876814  0.123186  0.250000  1
  Ag  Ag24  1  0.876814  0.753629  0.250000  1
  Ag  Ag25  1  0.246371  0.123186  0.250000  1
  Ir  Ir26  1  0.333333  0.666667  0.250000  1
  Ir  Ir27  1  0.666667  0.333333  0.750000  1
