# generated using pymatgen
data_VPt7Rh
_symmetry_space_group_name_H-M   'P 1'
_cell_length_a   6.26289988
_cell_length_b   6.26289914
_cell_length_c   6.21751375
_cell_angle_alpha   95.60141324
_cell_angle_beta   95.60140531
_cell_angle_gamma   143.72628410
_symmetry_Int_Tables_number   1
_chemical_formula_structural   VPt7Rh
_chemical_formula_sum   'V1 Pt7 Rh1'
_cell_volume   137.01052497
_cell_formula_units_Z   1
loop_
 _symmetry_equiv_pos_site_id
 _symmetry_equiv_pos_as_xyz
  1  'x, y, z'
loop_
 _atom_site_type_symbol
 _atom_site_label
 _atom_site_symmetry_multiplicity
 _atom_site_fract_x
 _atom_site_fract_y
 _atom_site_fract_z
 _atom_site_occupancy
  V  V0  1  0.994499  0.994499  0.988998  1
  Pt  Pt1  1  0.662238  0.662238  0.324476  1
  Pt  Pt2  1  0.659553  0.339541  0.999094  1
  Pt  Pt3  1  0.339541  0.659553  0.999094  1
  Pt  Pt4  1  0.001691  0.328057  0.329748  1
  Pt  Pt5  1  0.998273  0.673992  0.672265  1
  Pt  Pt6  1  0.673992  0.998273  0.672265  1
  Pt  Pt7  1  0.328057  0.001691  0.329748  1
  Rh  Rh8  1  0.342155  0.342155  0.684311  1
