# generated using pymatgen
data_YbPr3MnOs7
_symmetry_space_group_name_H-M   'P 1'
_cell_length_a   5.39244320
_cell_length_b   5.39244156
_cell_length_c   8.94899902
_cell_angle_alpha   90.01141525
_cell_angle_beta   89.98859551
_cell_angle_gamma   119.96422991
_symmetry_Int_Tables_number   1
_chemical_formula_structural   YbPr3MnOs7
_chemical_formula_sum   'Yb1 Pr3 Mn1 Os7'
_cell_volume   225.44080834
_cell_formula_units_Z   1
loop_
 _symmetry_equiv_pos_site_id
 _symmetry_equiv_pos_as_xyz
  1  'x, y, z'
loop_
 _atom_site_type_symbol
 _atom_site_label
 _atom_site_symmetry_multiplicity
 _atom_site_fract_x
 _atom_site_fract_y
 _atom_site_fract_z
 _atom_site_occupancy
  Yb  Yb0  1  0.666619  0.333381  0.563874  1
  Pr  Pr1  1  0.333333  0.666667  0.440211  1
  Pr  Pr2  1  0.333375  0.666625  0.070398  1
  Pr  Pr3  1  0.666656  0.333344  0.923880  1
  Mn  Mn4  1  0.000095  0.999905  0.003903  1
  Os  Os5  1  0.999939  0.000061  0.499768  1
  Os  Os6  1  0.169279  0.338646  0.748402  1
  Os  Os7  1  0.169585  0.830415  0.748416  1
  Os  Os8  1  0.661354  0.830721  0.748402  1
  Os  Os9  1  0.829387  0.658753  0.250917  1
  Os  Os10  1  0.829132  0.170868  0.250912  1
  Os  Os11  1  0.341247  0.170613  0.250917  1
