# generated using pymatgen
data_Ba2Cu3Sb4Pt
_symmetry_space_group_name_H-M   'P 1'
_cell_length_a   4.75080900
_cell_length_b   4.75080900
_cell_length_c   10.79858600
_cell_angle_alpha   90.00000000
_cell_angle_beta   90.00000000
_cell_angle_gamma   90.00000000
_symmetry_Int_Tables_number   1
_chemical_formula_structural   Ba2Cu3Sb4Pt
_chemical_formula_sum   'Ba2 Cu3 Sb4 Pt1'
_cell_volume   243.72609623
_cell_formula_units_Z   1
loop_
 _symmetry_equiv_pos_site_id
 _symmetry_equiv_pos_as_xyz
  1  'x, y, z'
loop_
 _atom_site_type_symbol
 _atom_site_label
 _atom_site_symmetry_multiplicity
 _atom_site_fract_x
 _atom_site_fract_y
 _atom_site_fract_z
 _atom_site_occupancy
  Ba  Ba0  1  0.000000  0.500000  0.757641  1
  Ba  Ba1  1  0.500000  0.000000  0.236991  1
  Cu  Cu2  1  0.000000  0.000000  0.998763  1
  Cu  Cu3  1  0.500000  0.500000  0.998763  1
  Cu  Cu4  1  0.500000  0.000000  0.628775  1
  Sb  Sb5  1  0.000000  0.000000  0.501046  1
  Sb  Sb6  1  0.500000  0.500000  0.501046  1
  Sb  Sb7  1  0.000000  0.500000  0.124415  1
  Sb  Sb8  1  0.500000  0.000000  0.874094  1
  Pt  Pt9  1  0.000000  0.500000  0.378464  1
