# generated using pymatgen
data_Lu2Fe2Si2C
_symmetry_space_group_name_H-M   'P 1'
_cell_length_a   5.55615738
_cell_length_b   5.55615757
_cell_length_c   6.59757252
_cell_angle_alpha   53.61066411
_cell_angle_beta   53.61066100
_cell_angle_gamma   40.79611072
_symmetry_Int_Tables_number   1
_chemical_formula_structural   Lu2Fe2Si2C
_chemical_formula_sum   'Lu2 Fe2 Si2 C1'
_cell_volume   103.02357244
_cell_formula_units_Z   1
loop_
 _symmetry_equiv_pos_site_id
 _symmetry_equiv_pos_as_xyz
  1  'x, y, z'
loop_
 _atom_site_type_symbol
 _atom_site_label
 _atom_site_symmetry_multiplicity
 _atom_site_fract_x
 _atom_site_fract_y
 _atom_site_fract_z
 _atom_site_occupancy
  Lu  Lu0  1  0.440103  0.440103  0.292742  1
  Lu  Lu1  1  0.559897  0.559897  0.707258  1
  Fe  Fe2  1  0.796970  0.796970  0.098761  1
  Fe  Fe3  1  0.203030  0.203030  0.901239  1
  Si  Si4  1  0.842986  0.842986  0.707575  1
  Si  Si5  1  0.157014  0.157014  0.292425  1
  C  C6  1  0.000000  0.000000  0.000000  1
