# generated using pymatgen
data_PrNd2Ho2Pb3
_symmetry_space_group_name_H-M   'P 1'
_cell_length_a   9.27421048
_cell_length_b   9.27940398
_cell_length_c   6.78167200
_cell_angle_alpha   90.00000000
_cell_angle_beta   90.00000000
_cell_angle_gamma   120.01853491
_symmetry_Int_Tables_number   1
_chemical_formula_structural   PrNd2Ho2Pb3
_chemical_formula_sum   'Pr2 Nd4 Ho4 Pb6'
_cell_volume   505.33956231
_cell_formula_units_Z   2
loop_
 _symmetry_equiv_pos_site_id
 _symmetry_equiv_pos_as_xyz
  1  'x, y, z'
loop_
 _atom_site_type_symbol
 _atom_site_label
 _atom_site_symmetry_multiplicity
 _atom_site_fract_x
 _atom_site_fract_y
 _atom_site_fract_z
 _atom_site_occupancy
  Pr  Pr0  1  0.760471  0.760397  0.250000  1
  Pr  Pr1  1  0.760471  0.000074  0.750000  1
  Nd  Nd2  1  0.239718  0.000046  0.250000  1
  Nd  Nd3  1  0.239718  0.239673  0.750000  1
  Nd  Nd4  1  0.000121  0.760246  0.750000  1
  Nd  Nd5  1  0.000121  0.239876  0.250000  1
  Ho  Ho6  1  0.333187  0.666594  0.000000  1
  Ho  Ho7  1  0.666629  0.333314  0.500000  1
  Ho  Ho8  1  0.666629  0.333314  0.000000  1
  Ho  Ho9  1  0.333187  0.666594  0.500000  1
  Pb  Pb10  1  0.600963  0.000282  0.250000  1
  Pb  Pb11  1  0.600963  0.600681  0.750000  1
  Pb  Pb12  1  0.000304  0.399333  0.750000  1
  Pb  Pb13  1  0.000304  0.600971  0.250000  1
  Pb  Pb14  1  0.398607  0.398583  0.250000  1
  Pb  Pb15  1  0.398607  0.000023  0.750000  1
