# generated using pymatgen
data_TbCeNd6AlPd24
_symmetry_space_group_name_H-M   'P 1'
_cell_length_a   8.46194337
_cell_length_b   8.46607786
_cell_length_c   8.46607799
_cell_angle_alpha   89.79408772
_cell_angle_beta   90.10451928
_cell_angle_gamma   90.10452115
_symmetry_Int_Tables_number   1
_chemical_formula_structural   TbCeNd6AlPd24
_chemical_formula_sum   'Tb1 Ce1 Nd6 Al1 Pd24'
_cell_volume   606.49942412
_cell_formula_units_Z   1
loop_
 _symmetry_equiv_pos_site_id
 _symmetry_equiv_pos_as_xyz
  1  'x, y, z'
loop_
 _atom_site_type_symbol
 _atom_site_label
 _atom_site_symmetry_multiplicity
 _atom_site_fract_x
 _atom_site_fract_y
 _atom_site_fract_z
 _atom_site_occupancy
  Tb  Tb0  1  0.250737  0.252254  0.252254  1
  Ce  Ce1  1  0.745807  0.254272  0.254272  1
  Nd  Nd2  1  0.748410  0.748118  0.748118  1
  Nd  Nd3  1  0.747949  0.749514  0.252056  1
  Nd  Nd4  1  0.747949  0.252056  0.749514  1
  Nd  Nd5  1  0.251964  0.251691  0.748035  1
  Nd  Nd6  1  0.251964  0.748035  0.251691  1
  Nd  Nd7  1  0.252520  0.747457  0.747457  1
  Al  Al8  1  0.001652  0.998408  0.998408  1
  Pd  Pd9  1  0.259993  0.497458  0.001979  1
  Pd  Pd10  1  0.740010  0.497109  0.004987  1
  Pd  Pd11  1  0.997144  0.260014  0.495924  1
  Pd  Pd12  1  0.500991  0.260042  0.006825  1
  Pd  Pd13  1  0.000253  0.739999  0.498909  1
  Pd  Pd14  1  0.500554  0.739988  0.999958  1
  Pd  Pd15  1  0.500991  0.006825  0.260042  1
  Pd  Pd16  1  0.259993  0.001979  0.497458  1
  Pd  Pd17  1  0.500554  0.999958  0.739988  1
  Pd  Pd18  1  0.740010  0.004987  0.497109  1
  Pd  Pd19  1  0.997144  0.495924  0.260014  1
  Pd  Pd20  1  0.000253  0.498909  0.739999  1
  Pd  Pd21  1  0.252868  0.497439  0.497439  1
  Pd  Pd22  1  0.746466  0.496870  0.496870  1
  Pd  Pd23  1  0.501038  0.253476  0.495172  1
  Pd  Pd24  1  0.500385  0.747108  0.499352  1
  Pd  Pd25  1  0.501038  0.495172  0.253476  1
  Pd  Pd26  1  0.500385  0.499352  0.747108  1
  Pd  Pd27  1  0.291132  0.001565  0.001565  1
  Pd  Pd28  1  0.710756  0.002851  0.002851  1
  Pd  Pd29  1  0.999164  0.288517  0.004564  1
  Pd  Pd30  1  0.000380  0.708210  0.999879  1
  Pd  Pd31  1  0.999164  0.004564  0.288517  1
  Pd  Pd32  1  0.000380  0.999879  0.708210  1
