# generated using pymatgen
data_Dy3Tm2Mn3(P3Ir4)4
_symmetry_space_group_name_H-M   'P 1'
_cell_length_a   12.67772300
_cell_length_b   12.67772259
_cell_length_c   3.95811300
_cell_angle_alpha   90.00000000
_cell_angle_beta   90.00000000
_cell_angle_gamma   119.99999845
_symmetry_Int_Tables_number   1
_chemical_formula_structural   Dy3Tm2Mn3(P3Ir4)4
_chemical_formula_sum   'Dy3 Tm2 Mn3 P12 Ir16'
_cell_volume   550.93622669
_cell_formula_units_Z   1
loop_
 _symmetry_equiv_pos_site_id
 _symmetry_equiv_pos_as_xyz
  1  'x, y, z'
loop_
 _atom_site_type_symbol
 _atom_site_label
 _atom_site_symmetry_multiplicity
 _atom_site_fract_x
 _atom_site_fract_y
 _atom_site_fract_z
 _atom_site_occupancy
  Dy  Dy0  1  0.000000  0.810145  0.000000  1
  Dy  Dy1  1  0.189855  0.189855  0.000000  1
  Dy  Dy2  1  0.810145  0.000000  0.000000  1
  Tm  Tm3  1  0.333333  0.666667  0.500000  1
  Tm  Tm4  1  0.666667  0.333333  0.500000  1
  Mn  Mn5  1  0.000000  0.457797  0.500000  1
  Mn  Mn6  1  0.542203  0.542203  0.500000  1
  Mn  Mn7  1  0.457797  0.000000  0.500000  1
  P  P8  1  0.000000  0.635326  0.500000  1
  P  P9  1  0.364674  0.364674  0.500000  1
  P  P10  1  0.635326  0.000000  0.500000  1
  P  P11  1  0.516566  0.685928  0.000000  1
  P  P12  1  0.314072  0.830638  0.000000  1
  P  P13  1  0.169362  0.483434  0.000000  1
  P  P14  1  0.483434  0.169362  0.000000  1
  P  P15  1  0.685928  0.516566  0.000000  1
  P  P16  1  0.830638  0.314072  0.000000  1
  P  P17  1  0.000000  0.178561  0.500000  1
  P  P18  1  0.821439  0.821439  0.500000  1
  P  P19  1  0.178561  0.000000  0.500000  1
  Ir  Ir20  1  0.507395  0.867246  0.000000  1
  Ir  Ir21  1  0.132754  0.640150  0.000000  1
  Ir  Ir22  1  0.359850  0.492605  0.000000  1
  Ir  Ir23  1  0.492605  0.359850  0.000000  1
  Ir  Ir24  1  0.867246  0.507395  0.000000  1
  Ir  Ir25  1  0.640150  0.132754  0.000000  1
  Ir  Ir26  1  0.000000  0.282549  0.000000  1
  Ir  Ir27  1  0.717451  0.717451  0.000000  1
  Ir  Ir28  1  0.282549  0.000000  0.000000  1
  Ir  Ir29  1  0.623490  0.802614  0.500000  1
  Ir  Ir30  1  0.197386  0.820877  0.500000  1
  Ir  Ir31  1  0.179123  0.376510  0.500000  1
  Ir  Ir32  1  0.376510  0.179123  0.500000  1
  Ir  Ir33  1  0.802614  0.623490  0.500000  1
  Ir  Ir34  1  0.820877  0.197386  0.500000  1
  Ir  Ir35  1  0.000000  0.000000  0.500000  1
