# generated using pymatgen
data_KPuCr2O10
_symmetry_space_group_name_H-M   'P 1'
_cell_length_a   6.34265129
_cell_length_b   6.34827101
_cell_length_c   8.61525489
_cell_angle_alpha   69.08754134
_cell_angle_beta   69.02701993
_cell_angle_gamma   54.78551558
_symmetry_Int_Tables_number   1
_chemical_formula_structural   KPuCr2O10
_chemical_formula_sum   'K1 Pu1 Cr2 O10'
_cell_volume   259.43035008
_cell_formula_units_Z   1
loop_
 _symmetry_equiv_pos_site_id
 _symmetry_equiv_pos_as_xyz
  1  'x, y, z'
loop_
 _atom_site_type_symbol
 _atom_site_label
 _atom_site_symmetry_multiplicity
 _atom_site_fract_x
 _atom_site_fract_y
 _atom_site_fract_z
 _atom_site_occupancy
  K  K0  1  0.000000  0.000000  0.500000  1
  Pu  Pu1  1  0.000000  0.000000  0.000000  1
  Cr  Cr2  1  0.386921  0.387937  0.288808  1
  Cr  Cr3  1  0.613079  0.612063  0.711192  1
  O  O4  1  0.231610  0.717921  0.194935  1
  O  O5  1  0.717402  0.232384  0.194837  1
  O  O6  1  0.768390  0.282079  0.805065  1
  O  O7  1  0.282598  0.767616  0.805163  1
  O  O8  1  0.249991  0.251259  0.270235  1
  O  O9  1  0.750009  0.748741  0.729765  1
  O  O10  1  0.361728  0.363429  0.486847  1
  O  O11  1  0.638272  0.636571  0.513153  1
  O  O12  1  0.169706  0.168562  0.941964  1
  O  O13  1  0.830294  0.831438  0.058036  1
