# generated using pymatgen
data_Ho8Ta2Ti9Si16Au
_symmetry_space_group_name_H-M   'P 1'
_cell_length_a   7.05396137
_cell_length_b   7.05396163
_cell_length_c   12.88077558
_cell_angle_alpha   90.19190390
_cell_angle_beta   89.80809429
_cell_angle_gamma   89.52606054
_symmetry_Int_Tables_number   1
_chemical_formula_structural   Ho8Ta2Ti9Si16Au
_chemical_formula_sum   'Ho8 Ta2 Ti9 Si16 Au1'
_cell_volume   640.89725788
_cell_formula_units_Z   1
loop_
 _symmetry_equiv_pos_site_id
 _symmetry_equiv_pos_as_xyz
  1  'x, y, z'
loop_
 _atom_site_type_symbol
 _atom_site_label
 _atom_site_symmetry_multiplicity
 _atom_site_fract_x
 _atom_site_fract_y
 _atom_site_fract_z
 _atom_site_occupancy
  Ho  Ho0  1  0.341195  0.001903  0.466786  1
  Ho  Ho1  1  0.497494  0.841530  0.717294  1
  Ho  Ho2  1  0.501720  0.156959  0.214831  1
  Ho  Ho3  1  0.841530  0.497494  0.282706  1
  Ho  Ho4  1  0.156959  0.501720  0.785169  1
  Ho  Ho5  1  0.656518  0.001425  0.968518  1
  Ho  Ho6  1  0.001903  0.341195  0.533214  1
  Ho  Ho7  1  0.001425  0.656518  0.031482  1
  Ta  Ta8  1  0.174024  0.825974  0.249446  1
  Ta  Ta9  1  0.825974  0.174024  0.750554  1
  Ti  Ti10  1  0.672532  0.672532  0.500000  1
  Ti  Ti11  1  0.147267  0.007556  0.876556  1
  Ti  Ti12  1  0.494784  0.652016  0.123536  1
  Ti  Ti13  1  0.507122  0.350067  0.625918  1
  Ti  Ti14  1  0.652016  0.494784  0.876464  1
  Ti  Ti15  1  0.350067  0.507122  0.374082  1
  Ti  Ti16  1  0.849984  0.991262  0.373424  1
  Ti  Ti17  1  0.007556  0.147267  0.123444  1
  Ti  Ti18  1  0.991262  0.849984  0.626576  1
  Si  Si19  1  0.202048  0.132460  0.684158  1
  Si  Si20  1  0.373616  0.719784  0.928400  1
  Si  Si21  1  0.631284  0.294169  0.432505  1
  Si  Si22  1  0.719784  0.373616  0.071600  1
  Si  Si23  1  0.294169  0.631284  0.567495  1
  Si  Si24  1  0.798432  0.866623  0.182851  1
  Si  Si25  1  0.132460  0.202048  0.315842  1
  Si  Si26  1  0.866623  0.798432  0.817149  1
  Si  Si27  1  0.287198  0.938748  0.064500  1
  Si  Si28  1  0.547463  0.791092  0.314585  1
  Si  Si29  1  0.453305  0.208041  0.809903  1
  Si  Si30  1  0.791092  0.547463  0.685415  1
  Si  Si31  1  0.208041  0.453305  0.190097  1
  Si  Si32  1  0.708153  0.047332  0.563654  1
  Si  Si33  1  0.938748  0.287198  0.935500  1
  Si  Si34  1  0.047332  0.708153  0.436346  1
  Au  Au35  1  0.328918  0.328918  0.000000  1
