# generated using pymatgen
data_Y4VRe2B16W
_symmetry_space_group_name_H-M   'P 1'
_cell_length_a   3.57668100
_cell_length_b   6.00806660
_cell_length_c   11.60881505
_cell_angle_alpha   89.87910424
_cell_angle_beta   90.00000000
_cell_angle_gamma   90.00000000
_symmetry_Int_Tables_number   1
_chemical_formula_structural   Y4VRe2B16W
_chemical_formula_sum   'Y4 V1 Re2 B16 W1'
_cell_volume   249.46054774
_cell_formula_units_Z   1
loop_
 _symmetry_equiv_pos_site_id
 _symmetry_equiv_pos_as_xyz
  1  'x, y, z'
loop_
 _atom_site_type_symbol
 _atom_site_label
 _atom_site_symmetry_multiplicity
 _atom_site_fract_x
 _atom_site_fract_y
 _atom_site_fract_z
 _atom_site_occupancy
  Y  Y0  1  0.000000  0.625586  0.352749  1
  Y  Y1  1  0.000000  0.375659  0.648495  1
  Y  Y2  1  0.000000  0.126949  0.152259  1
  Y  Y3  1  0.000000  0.873211  0.846233  1
  V  V4  1  0.000000  0.872101  0.582729  1
  Re  Re5  1  0.000000  0.369453  0.915409  1
  Re  Re6  1  0.000000  0.126473  0.417362  1
  B  B7  1  0.500000  0.788580  0.188052  1
  B  B8  1  0.500000  0.214686  0.813618  1
  B  B9  1  0.500000  0.284666  0.316206  1
  B  B10  1  0.500000  0.714507  0.684572  1
  B  B11  1  0.500000  0.867419  0.031006  1
  B  B12  1  0.500000  0.135149  0.966844  1
  B  B13  1  0.500000  0.363865  0.467979  1
  B  B14  1  0.500000  0.635749  0.532642  1
  B  B15  1  0.500000  0.886093  0.453674  1
  B  B16  1  0.500000  0.113409  0.547119  1
  B  B17  1  0.500000  0.383256  0.046315  1
  B  B18  1  0.500000  0.613366  0.950750  1
  B  B19  1  0.500000  0.977352  0.308714  1
  B  B20  1  0.500000  0.023773  0.691954  1
  B  B21  1  0.500000  0.473687  0.194293  1
  B  B22  1  0.500000  0.523686  0.806085  1
  W  W23  1  0.000000  0.631329  0.084940  1
