# generated using pymatgen
data_TbTmTcC2
_symmetry_space_group_name_H-M   'P 1'
_cell_length_a   5.06901200
_cell_length_b   6.58006600
_cell_length_c   9.80472100
_cell_angle_alpha   90.00000000
_cell_angle_beta   90.00000000
_cell_angle_gamma   90.00000000
_symmetry_Int_Tables_number   1
_chemical_formula_structural   TbTmTcC2
_chemical_formula_sum   'Tb4 Tm4 Tc4 C8'
_cell_volume   327.03091473
_cell_formula_units_Z   4
loop_
 _symmetry_equiv_pos_site_id
 _symmetry_equiv_pos_as_xyz
  1  'x, y, z'
loop_
 _atom_site_type_symbol
 _atom_site_label
 _atom_site_symmetry_multiplicity
 _atom_site_fract_x
 _atom_site_fract_y
 _atom_site_fract_z
 _atom_site_occupancy
  Tb  Tb0  1  0.750000  0.467576  0.785684  1
  Tb  Tb1  1  0.250000  0.032424  0.285684  1
  Tb  Tb2  1  0.750000  0.967576  0.714316  1
  Tb  Tb3  1  0.250000  0.532424  0.214316  1
  Tm  Tm4  1  0.750000  0.825981  0.057966  1
  Tm  Tm5  1  0.250000  0.674019  0.557966  1
  Tm  Tm6  1  0.750000  0.325981  0.442034  1
  Tm  Tm7  1  0.250000  0.174019  0.942034  1
  Tc  Tc8  1  0.750000  0.278974  0.133840  1
  Tc  Tc9  1  0.250000  0.221026  0.633840  1
  Tc  Tc10  1  0.750000  0.778974  0.366160  1
  Tc  Tc11  1  0.250000  0.721026  0.866160  1
  C  C12  1  0.750000  0.173108  0.950766  1
  C  C13  1  0.250000  0.826892  0.049234  1
  C  C14  1  0.750000  0.673108  0.549234  1
  C  C15  1  0.250000  0.326892  0.450766  1
  C  C16  1  0.750000  0.047542  0.259999  1
  C  C17  1  0.250000  0.452458  0.759999  1
  C  C18  1  0.750000  0.547542  0.240001  1
  C  C19  1  0.250000  0.952458  0.740001  1
