# generated using pymatgen
data_YbHo3PdPt3O14
_symmetry_space_group_name_H-M   'P 1'
_cell_length_a   7.23976789
_cell_length_b   7.23976920
_cell_length_c   7.25632426
_cell_angle_alpha   60.07545631
_cell_angle_beta   60.07544779
_cell_angle_gamma   60.00000419
_symmetry_Int_Tables_number   1
_chemical_formula_structural   YbHo3PdPt3O14
_chemical_formula_sum   'Yb1 Ho3 Pd1 Pt3 O14'
_cell_volume   269.24361647
_cell_formula_units_Z   1
loop_
 _symmetry_equiv_pos_site_id
 _symmetry_equiv_pos_as_xyz
  1  'x, y, z'
loop_
 _atom_site_type_symbol
 _atom_site_label
 _atom_site_symmetry_multiplicity
 _atom_site_fract_x
 _atom_site_fract_y
 _atom_site_fract_z
 _atom_site_occupancy
  Yb  Yb0  1  0.625000  0.625000  0.125000  1
  Ho  Ho1  1  0.625000  0.625000  0.625000  1
  Ho  Ho2  1  0.625000  0.125000  0.625000  1
  Ho  Ho3  1  0.125000  0.625000  0.625000  1
  Pd  Pd4  1  0.125000  0.125000  0.625000  1
  Pt  Pt5  1  0.125000  0.125000  0.125000  1
  Pt  Pt6  1  0.625000  0.125000  0.125000  1
  Pt  Pt7  1  0.125000  0.625000  0.125000  1
  O  O8  1  0.034874  0.465587  0.464664  1
  O  O9  1  0.787906  0.787906  0.216713  1
  O  O10  1  0.787906  0.207474  0.216713  1
  O  O11  1  0.465587  0.034874  0.464664  1
  O  O12  1  0.752365  0.752365  0.742905  1
  O  O13  1  0.034874  0.034874  0.464664  1
  O  O14  1  0.042526  0.462094  0.033287  1
  O  O15  1  0.784413  0.215126  0.785336  1
  O  O16  1  0.207474  0.787906  0.216713  1
  O  O17  1  0.215126  0.215126  0.785336  1
  O  O18  1  0.497635  0.497635  0.507095  1
  O  O19  1  0.462094  0.042526  0.033287  1
  O  O20  1  0.462094  0.462094  0.033287  1
  O  O21  1  0.215126  0.784413  0.785336  1
