# generated using pymatgen
data_HoEr3PdPt3O14
_symmetry_space_group_name_H-M   'P 1'
_cell_length_a   7.23982260
_cell_length_b   7.23804545
_cell_length_c   7.24706688
_cell_angle_alpha   60.04117657
_cell_angle_beta   60.05034668
_cell_angle_gamma   60.00813697
_symmetry_Int_Tables_number   1
_chemical_formula_structural   HoEr3PdPt3O14
_chemical_formula_sum   'Ho1 Er3 Pd1 Pt3 O14'
_cell_volume   268.73441217
_cell_formula_units_Z   1
loop_
 _symmetry_equiv_pos_site_id
 _symmetry_equiv_pos_as_xyz
  1  'x, y, z'
loop_
 _atom_site_type_symbol
 _atom_site_label
 _atom_site_symmetry_multiplicity
 _atom_site_fract_x
 _atom_site_fract_y
 _atom_site_fract_z
 _atom_site_occupancy
  Ho  Ho0  1  0.125000  0.625000  0.625000  1
  Er  Er1  1  0.625000  0.625000  0.125000  1
  Er  Er2  1  0.625000  0.625000  0.625000  1
  Er  Er3  1  0.625000  0.125000  0.625000  1
  Pd  Pd4  1  0.125000  0.125000  0.625000  1
  Pt  Pt5  1  0.625000  0.125000  0.125000  1
  Pt  Pt6  1  0.125000  0.125000  0.125000  1
  Pt  Pt7  1  0.125000  0.625000  0.125000  1
  O  O8  1  0.032575  0.468152  0.465957  1
  O  O9  1  0.782269  0.782260  0.217516  1
  O  O10  1  0.782269  0.217954  0.217516  1
  O  O11  1  0.748786  0.750346  0.750522  1
  O  O12  1  0.031830  0.467569  0.033032  1
  O  O13  1  0.468316  0.032785  0.466115  1
  O  O14  1  0.032575  0.033318  0.465957  1
  O  O15  1  0.501214  0.499654  0.499478  1
  O  O16  1  0.217425  0.216682  0.784043  1
  O  O17  1  0.218170  0.782431  0.216968  1
  O  O18  1  0.781684  0.217215  0.783885  1
  O  O19  1  0.467731  0.032046  0.032484  1
  O  O20  1  0.467731  0.467740  0.032484  1
  O  O21  1  0.217425  0.781848  0.784043  1
