# generated using pymatgen
data_Pr8Lu12Si13Au3
_symmetry_space_group_name_H-M   'P 1'
_cell_length_a   7.38143548
_cell_length_b   7.75417385
_cell_length_c   14.60468100
_cell_angle_alpha   89.85193856
_cell_angle_beta   89.64650963
_cell_angle_gamma   90.46004699
_symmetry_Int_Tables_number   1
_chemical_formula_structural   Pr8Lu12Si13Au3
_chemical_formula_sum   'Pr8 Lu12 Si13 Au3'
_cell_volume   835.88140831
_cell_formula_units_Z   1
loop_
 _symmetry_equiv_pos_site_id
 _symmetry_equiv_pos_as_xyz
  1  'x, y, z'
loop_
 _atom_site_type_symbol
 _atom_site_label
 _atom_site_symmetry_multiplicity
 _atom_site_fract_x
 _atom_site_fract_y
 _atom_site_fract_z
 _atom_site_occupancy
  Pr  Pr0  1  0.016048  0.183003  0.093006  1
  Pr  Pr1  1  0.984947  0.821643  0.908063  1
  Pr  Pr2  1  0.483302  0.679906  0.906053  1
  Pr  Pr3  1  0.984457  0.820320  0.592928  1
  Pr  Pr4  1  0.517754  0.320805  0.094983  1
  Pr  Pr5  1  0.014467  0.180159  0.406464  1
  Pr  Pr6  1  0.516339  0.318609  0.401124  1
  Pr  Pr7  1  0.487253  0.679050  0.596851  1
  Lu  Lu8  1  0.156217  0.510639  0.750987  1
  Lu  Lu9  1  0.846045  0.489670  0.250994  1
  Lu  Lu10  1  0.337978  0.006321  0.249075  1
  Lu  Lu11  1  0.661268  0.991906  0.750054  1
  Lu  Lu12  1  0.331662  0.174948  0.623394  1
  Lu  Lu13  1  0.673212  0.824603  0.375664  1
  Lu  Lu14  1  0.177929  0.666992  0.378005  1
  Lu  Lu15  1  0.677999  0.826576  0.122850  1
  Lu  Lu16  1  0.817390  0.330976  0.622920  1
  Lu  Lu17  1  0.322515  0.174320  0.877676  1
  Lu  Lu18  1  0.820743  0.326149  0.877928  1
  Lu  Lu19  1  0.179735  0.673805  0.122235  1
  Si  Si20  1  0.471833  0.609915  0.248039  1
  Si  Si21  1  0.529624  0.390847  0.752762  1
  Si  Si22  1  0.283232  0.874383  0.751280  1
  Si  Si23  1  0.717448  0.126029  0.248129  1
  Si  Si24  1  0.225205  0.376646  0.247865  1
  Si  Si25  1  0.775870  0.623868  0.753146  1
  Si  Si26  1  0.835262  0.533793  0.457749  1
  Si  Si27  1  0.347829  0.963980  0.459371  1
  Si  Si28  1  0.849984  0.532520  0.039531  1
  Si  Si29  1  0.652666  0.033614  0.538862  1
  Si  Si30  1  0.148926  0.470076  0.959874  1
  Si  Si31  1  0.650946  0.033750  0.959935  1
  Si  Si32  1  0.348412  0.967169  0.040186  1
  Au  Au33  1  0.030338  0.120810  0.748023  1
  Au  Au34  1  0.970763  0.879757  0.250230  1
  Au  Au35  1  0.154398  0.462446  0.543768  1
