# generated using pymatgen
data_Th2Co17Si8Tc
_symmetry_space_group_name_H-M   'P 1'
_cell_length_a   7.96866063
_cell_length_b   8.00205535
_cell_length_c   7.97515695
_cell_angle_alpha   121.79625433
_cell_angle_beta   121.66233359
_cell_angle_gamma   87.10711778
_symmetry_Int_Tables_number   1
_chemical_formula_structural   Th2Co17Si8Tc
_chemical_formula_sum   'Th2 Co17 Si8 Tc1'
_cell_volume   349.45815762
_cell_formula_units_Z   1
loop_
 _symmetry_equiv_pos_site_id
 _symmetry_equiv_pos_as_xyz
  1  'x, y, z'
loop_
 _atom_site_type_symbol
 _atom_site_label
 _atom_site_symmetry_multiplicity
 _atom_site_fract_x
 _atom_site_fract_y
 _atom_site_fract_z
 _atom_site_occupancy
  Th  Th0  1  0.749654  0.749600  0.999473  1
  Th  Th1  1  0.250180  0.250127  0.000527  1
  Co  Co2  1  0.446753  0.949880  0.760026  1
  Co  Co3  1  0.186727  0.689854  0.239974  1
  Co  Co4  1  0.546624  0.042513  0.233245  1
  Co  Co5  1  0.946692  0.189986  0.500000  1
  Co  Co6  1  0.197854  0.927732  0.127791  1
  Co  Co7  1  0.799104  0.068017  0.868905  1
  Co  Co8  1  0.430198  0.699112  0.131095  1
  Co  Co9  1  0.570063  0.299941  0.872209  1
  Co  Co10  1  0.701188  0.573272  0.264499  1
  Co  Co11  1  0.299593  0.429976  0.731833  1
  Co  Co12  1  0.936689  0.808773  0.735501  1
  Co  Co13  1  0.315327  0.549222  0.500000  1
  Co  Co14  1  0.813379  0.309268  0.766755  1
  Co  Co15  1  0.003399  0.503173  0.500000  1
  Co  Co16  1  0.499358  0.001523  0.500000  1
  Co  Co17  1  0.067761  0.198144  0.268167  1
  Co  Co18  1  0.050035  0.815225  0.500000  1
  Si  Si19  1  0.289626  0.786761  0.833807  1
  Si  Si20  1  0.056212  0.546838  0.843060  1
  Si  Si21  1  0.541670  0.718853  0.500000  1
  Si  Si22  1  0.788140  0.953617  0.500000  1
  Si  Si23  1  0.442605  0.283883  0.500000  1
  Si  Si24  1  0.955819  0.452956  0.166193  1
  Si  Si25  1  0.713153  0.203779  0.156940  1
  Si  Si26  1  0.210670  0.049157  0.500000  1
  Tc  Tc27  1  0.691529  0.448820  0.500000  1
