# generated using pymatgen
data_DyY3HoSi3
_symmetry_space_group_name_H-M   'P 1'
_cell_length_a   8.45632100
_cell_length_b   8.45632092
_cell_length_c   6.36005700
_cell_angle_alpha   90.00000000
_cell_angle_beta   90.00000000
_cell_angle_gamma   119.99999642
_symmetry_Int_Tables_number   1
_chemical_formula_structural   DyY3HoSi3
_chemical_formula_sum   'Dy2 Y6 Ho2 Si6'
_cell_volume   393.87151325
_cell_formula_units_Z   2
loop_
 _symmetry_equiv_pos_site_id
 _symmetry_equiv_pos_as_xyz
  1  'x, y, z'
loop_
 _atom_site_type_symbol
 _atom_site_label
 _atom_site_symmetry_multiplicity
 _atom_site_fract_x
 _atom_site_fract_y
 _atom_site_fract_z
 _atom_site_occupancy
  Dy  Dy0  1  0.333333  0.666667  0.500000  1
  Dy  Dy1  1  0.666667  0.333333  0.000000  1
  Y  Y2  1  0.000000  0.757011  0.750000  1
  Y  Y3  1  0.000000  0.242989  0.250000  1
  Y  Y4  1  0.757011  0.757011  0.250000  1
  Y  Y5  1  0.757011  0.000000  0.750000  1
  Y  Y6  1  0.242989  0.242989  0.750000  1
  Y  Y7  1  0.242989  0.000000  0.250000  1
  Ho  Ho8  1  0.666667  0.333333  0.500000  1
  Ho  Ho9  1  0.333333  0.666667  0.000000  1
  Si  Si10  1  0.394720  0.000000  0.750000  1
  Si  Si11  1  0.394720  0.394720  0.250000  1
  Si  Si12  1  0.000000  0.605280  0.250000  1
  Si  Si13  1  0.000000  0.394720  0.750000  1
  Si  Si14  1  0.605280  0.605280  0.750000  1
  Si  Si15  1  0.605280  0.000000  0.250000  1
