# generated using pymatgen
data_Y2HfZr(Al3Ir)6
_symmetry_space_group_name_H-M   'P 1'
_cell_length_a   7.52870401
_cell_length_b   7.51111982
_cell_length_c   9.36013900
_cell_angle_alpha   90.00000000
_cell_angle_beta   90.00000000
_cell_angle_gamma   119.72336844
_symmetry_Int_Tables_number   1
_chemical_formula_structural   Y2HfZr(Al3Ir)6
_chemical_formula_sum   'Y2 Hf1 Zr1 Al18 Ir6'
_cell_volume   459.66529201
_cell_formula_units_Z   1
loop_
 _symmetry_equiv_pos_site_id
 _symmetry_equiv_pos_as_xyz
  1  'x, y, z'
loop_
 _atom_site_type_symbol
 _atom_site_label
 _atom_site_symmetry_multiplicity
 _atom_site_fract_x
 _atom_site_fract_y
 _atom_site_fract_z
 _atom_site_occupancy
  Y  Y0  1  0.670948  0.994228  0.250000  1
  Y  Y1  1  0.328992  0.005781  0.750000  1
  Hf  Hf2  1  0.004799  0.328446  0.750000  1
  Zr  Zr3  1  0.995074  0.671250  0.250000  1
  Al  Al4  1  0.126773  0.124542  0.250000  1
  Al  Al5  1  0.873151  0.875507  0.750000  1
  Al  Al6  1  0.000116  0.337288  0.075232  1
  Al  Al7  1  0.999922  0.662624  0.924707  1
  Al  Al8  1  0.999922  0.662624  0.575293  1
  Al  Al9  1  0.332187  0.998258  0.421799  1
  Al  Al10  1  0.000116  0.337288  0.424768  1
  Al  Al11  1  0.667931  0.001849  0.578292  1
  Al  Al12  1  0.667931  0.001849  0.921708  1
  Al  Al13  1  0.332187  0.998258  0.078201  1
  Al  Al14  1  0.331156  0.333664  0.556114  1
  Al  Al15  1  0.668737  0.666338  0.444014  1
  Al  Al16  1  0.668737  0.666338  0.055986  1
  Al  Al17  1  0.331156  0.333664  0.943886  1
  Al  Al18  1  0.334473  0.547886  0.250000  1
  Al  Al19  1  0.665580  0.452161  0.750000  1
  Al  Al20  1  0.554179  0.344380  0.250000  1
  Al  Al21  1  0.445698  0.655466  0.750000  1
  Ir  Ir22  1  0.672734  0.327927  0.999359  1
  Ir  Ir23  1  0.327329  0.671859  0.000180  1
  Ir  Ir24  1  0.327329  0.671859  0.499820  1
  Ir  Ir25  1  0.672734  0.327927  0.500641  1
  Ir  Ir26  1  0.000055  0.000370  0.999707  1
  Ir  Ir27  1  0.000055  0.000370  0.500293  1
