# generated using pymatgen
data_Tb13Eu(Ho3Pb8)2
_symmetry_space_group_name_H-M   'P 1'
_cell_length_a   8.21119046
_cell_length_b   8.31678623
_cell_length_c   15.68100600
_cell_angle_alpha   90.03454920
_cell_angle_beta   89.84392808
_cell_angle_gamma   89.86616896
_symmetry_Int_Tables_number   1
_chemical_formula_structural   Tb13Eu(Ho3Pb8)2
_chemical_formula_sum   'Tb13 Eu1 Ho6 Pb16'
_cell_volume   1070.86003112
_cell_formula_units_Z   1
loop_
 _symmetry_equiv_pos_site_id
 _symmetry_equiv_pos_as_xyz
  1  'x, y, z'
loop_
 _atom_site_type_symbol
 _atom_site_label
 _atom_site_symmetry_multiplicity
 _atom_site_fract_x
 _atom_site_fract_y
 _atom_site_fract_z
 _atom_site_occupancy
  Tb  Tb0  1  0.373300  0.842508  0.120711  1
  Tb  Tb1  1  0.870782  0.657375  0.379362  1
  Tb  Tb2  1  0.372535  0.841097  0.377582  1
  Tb  Tb3  1  0.873908  0.658535  0.120927  1
  Tb  Tb4  1  0.625118  0.157799  0.879676  1
  Tb  Tb5  1  0.126333  0.342959  0.620876  1
  Tb  Tb6  1  0.468756  0.675761  0.598714  1
  Tb  Tb7  1  0.968379  0.822884  0.901220  1
  Tb  Tb8  1  0.532469  0.323584  0.099521  1
  Tb  Tb9  1  0.031403  0.178768  0.400837  1
  Tb  Tb10  1  0.530033  0.321596  0.401054  1
  Tb  Tb11  1  0.031121  0.177745  0.098862  1
  Tb  Tb12  1  0.469216  0.676334  0.902104  1
  Eu  Eu13  1  0.970906  0.820758  0.596580  1
  Ho  Ho14  1  0.628602  0.156197  0.622401  1
  Ho  Ho15  1  0.127589  0.343239  0.879883  1
  Ho  Ho16  1  0.794347  0.495389  0.750534  1
  Ho  Ho17  1  0.293545  0.004287  0.750113  1
  Ho  Ho18  1  0.205467  0.503630  0.250001  1
  Ho  Ho19  1  0.705202  0.996267  0.249592  1
  Pb  Pb20  1  0.709820  0.969211  0.454303  1
  Pb  Pb21  1  0.216290  0.534553  0.043069  1
  Pb  Pb22  1  0.282262  0.035823  0.956900  1
  Pb  Pb23  1  0.781383  0.458590  0.542559  1
  Pb  Pb24  1  0.292232  0.040791  0.541780  1
  Pb  Pb25  1  0.785728  0.464312  0.957119  1
  Pb  Pb26  1  0.716104  0.965835  0.043490  1
  Pb  Pb27  1  0.216358  0.533870  0.455454  1
  Pb  Pb28  1  0.431861  0.374635  0.750456  1
  Pb  Pb29  1  0.932316  0.127474  0.752504  1
  Pb  Pb30  1  0.568134  0.625012  0.248551  1
  Pb  Pb31  1  0.067344  0.874605  0.250296  1
  Pb  Pb32  1  0.654434  0.846039  0.750934  1
  Pb  Pb33  1  0.161652  0.651916  0.752553  1
  Pb  Pb34  1  0.342377  0.154343  0.249452  1
  Pb  Pb35  1  0.842696  0.346281  0.250029  1
