# generated using pymatgen
data_Lu4Cd(NiHg2)2
_symmetry_space_group_name_H-M   'P 1'
_cell_length_a   7.50381127
_cell_length_b   3.51569200
_cell_length_c   9.19420677
_cell_angle_alpha   90.00000000
_cell_angle_beta   92.37680294
_cell_angle_gamma   90.00000000
_symmetry_Int_Tables_number   1
_chemical_formula_structural   Lu4Cd(NiHg2)2
_chemical_formula_sum   'Lu4 Cd1 Ni2 Hg4'
_cell_volume   242.34452162
_cell_formula_units_Z   1
loop_
 _symmetry_equiv_pos_site_id
 _symmetry_equiv_pos_as_xyz
  1  'x, y, z'
loop_
 _atom_site_type_symbol
 _atom_site_label
 _atom_site_symmetry_multiplicity
 _atom_site_fract_x
 _atom_site_fract_y
 _atom_site_fract_z
 _atom_site_occupancy
  Lu  Lu0  1  0.279630  0.500001  0.064421  1
  Lu  Lu1  1  0.669514  0.500001  0.336942  1
  Lu  Lu2  1  0.330485  0.500001  0.663058  1
  Lu  Lu3  1  0.720370  0.500001  0.935579  1
  Cd  Cd4  1  0.000000  0.000000  0.500000  1
  Ni  Ni5  1  0.562934  0.000000  0.126776  1
  Ni  Ni6  1  0.437066  0.000000  0.873223  1
  Hg  Hg7  1  0.943041  0.000000  0.168385  1
  Hg  Hg8  1  0.333153  0.000000  0.360857  1
  Hg  Hg9  1  0.666848  0.000000  0.639142  1
  Hg  Hg10  1  0.056959  0.000000  0.831615  1
