# generated using pymatgen
data_Tb3Tm(Mn5P3)4
_symmetry_space_group_name_H-M   'P 1'
_cell_length_a   3.60514900
_cell_length_b   10.71030600
_cell_length_c   12.21136514
_cell_angle_alpha   89.95056740
_cell_angle_beta   90.00000000
_cell_angle_gamma   90.00000000
_symmetry_Int_Tables_number   1
_chemical_formula_structural   Tb3Tm(Mn5P3)4
_chemical_formula_sum   'Tb3 Tm1 Mn20 P12'
_cell_volume   471.50809521
_cell_formula_units_Z   1
loop_
 _symmetry_equiv_pos_site_id
 _symmetry_equiv_pos_as_xyz
  1  'x, y, z'
loop_
 _atom_site_type_symbol
 _atom_site_label
 _atom_site_symmetry_multiplicity
 _atom_site_fract_x
 _atom_site_fract_y
 _atom_site_fract_z
 _atom_site_occupancy
  Tb  Tb0  1  0.750000  0.412541  0.294230  1
  Tb  Tb1  1  0.750000  0.087538  0.794267  1
  Tb  Tb2  1  0.250000  0.912514  0.205777  1
  Tm  Tm3  1  0.250000  0.587198  0.705685  1
  Mn  Mn4  1  0.250000  0.409958  0.494166  1
  Mn  Mn5  1  0.750000  0.711330  0.319412  1
  Mn  Mn6  1  0.750000  0.788015  0.818946  1
  Mn  Mn7  1  0.250000  0.289197  0.680653  1
  Mn  Mn8  1  0.250000  0.616903  0.192112  1
  Mn  Mn9  1  0.750000  0.383750  0.807408  1
  Mn  Mn10  1  0.750000  0.117130  0.307913  1
  Mn  Mn11  1  0.250000  0.882476  0.692047  1
  Mn  Mn12  1  0.250000  0.033019  0.434813  1
  Mn  Mn13  1  0.750000  0.966413  0.565591  1
  Mn  Mn14  1  0.750000  0.533149  0.064636  1
  Mn  Mn15  1  0.250000  0.467365  0.934073  1
  Mn  Mn16  1  0.750000  0.909813  0.006117  1
  Mn  Mn17  1  0.250000  0.090242  0.993877  1
  Mn  Mn18  1  0.250000  0.717699  0.982273  1
  Mn  Mn19  1  0.750000  0.282041  0.017850  1
  Mn  Mn20  1  0.750000  0.218213  0.518140  1
  Mn  Mn21  1  0.250000  0.782065  0.482474  1
  Mn  Mn22  1  0.250000  0.211407  0.180375  1
  Mn  Mn23  1  0.750000  0.590302  0.507330  1
  P  P24  1  0.250000  0.591327  0.383498  1
  P  P25  1  0.750000  0.410451  0.617614  1
  P  P26  1  0.750000  0.091295  0.116780  1
  P  P27  1  0.250000  0.908557  0.883194  1
  P  P28  1  0.750000  0.763823  0.624880  1
  P  P29  1  0.250000  0.234303  0.375883  1
  P  P30  1  0.250000  0.410192  0.114659  1
  P  P31  1  0.750000  0.589828  0.883349  1
  P  P32  1  0.750000  0.910080  0.385077  1
  P  P33  1  0.250000  0.089823  0.614999  1
  P  P34  1  0.250000  0.265822  0.875847  1
  P  P35  1  0.750000  0.734221  0.124055  1
