# generated using pymatgen
data_Rb6Sc(RhBr6)3
_symmetry_space_group_name_H-M   'P 1'
_cell_length_a   7.59787400
_cell_length_b   7.59786379
_cell_length_c   19.26051000
_cell_angle_alpha   89.99999910
_cell_angle_beta   90.00006289
_cell_angle_gamma   119.99996319
_symmetry_Int_Tables_number   1
_chemical_formula_structural   Rb6Sc(RhBr6)3
_chemical_formula_sum   'Rb6 Sc1 Rh3 Br18'
_cell_volume   962.90217179
_cell_formula_units_Z   1
loop_
 _symmetry_equiv_pos_site_id
 _symmetry_equiv_pos_as_xyz
  1  'x, y, z'
loop_
 _atom_site_type_symbol
 _atom_site_label
 _atom_site_symmetry_multiplicity
 _atom_site_fract_x
 _atom_site_fract_y
 _atom_site_fract_z
 _atom_site_occupancy
  Rb  Rb0  1  0.333334  0.666668  0.067021  1
  Rb  Rb1  1  0.666667  0.333333  0.937466  1
  Rb  Rb2  1  0.666666  0.333332  0.566919  1
  Rb  Rb3  1  0.333334  0.666668  0.436394  1
  Rb  Rb4  1  0.999999  0.000001  0.250754  1
  Rb  Rb5  1  0.000000  0.000002  0.745237  1
  Sc  Sc6  1  0.333333  0.666668  0.840028  1
  Rh  Rh7  1  0.333333  0.666666  0.665855  1
  Rh  Rh8  1  0.666667  0.333333  0.334637  1
  Rh  Rh9  1  0.666667  0.333333  0.165509  1
  Br  Br10  1  0.178194  0.356389  0.591915  1
  Br  Br11  1  0.822311  0.644621  0.407542  1
  Br  Br12  1  0.643610  0.821806  0.591915  1
  Br  Br13  1  0.822219  0.644436  0.092408  1
  Br  Br14  1  0.355379  0.177689  0.407542  1
  Br  Br15  1  0.167806  0.335613  0.910569  1
  Br  Br16  1  0.178195  0.821805  0.591915  1
  Br  Br17  1  0.355564  0.177781  0.092408  1
  Br  Br18  1  0.822312  0.177688  0.407542  1
  Br  Br19  1  0.664387  0.832194  0.910569  1
  Br  Br20  1  0.822219  0.177781  0.092408  1
  Br  Br21  1  0.167805  0.832195  0.910569  1
  Br  Br22  1  0.516517  0.033034  0.249953  1
  Br  Br23  1  0.490429  0.980855  0.744340  1
  Br  Br24  1  0.966966  0.483482  0.249953  1
  Br  Br25  1  0.019145  0.509571  0.744340  1
  Br  Br26  1  0.516517  0.483484  0.249953  1
  Br  Br27  1  0.490428  0.509573  0.744340  1
