# generated using pymatgen
data_NbFe5(SiMo)3
_symmetry_space_group_name_H-M   'P 1'
_cell_length_a   4.74388815
_cell_length_b   4.76621370
_cell_length_c   7.79931909
_cell_angle_alpha   90.05298856
_cell_angle_beta   89.99958447
_cell_angle_gamma   119.82941642
_symmetry_Int_Tables_number   1
_chemical_formula_structural   NbFe5(SiMo)3
_chemical_formula_sum   'Nb1 Fe5 Si3 Mo3'
_cell_volume   152.98152222
_cell_formula_units_Z   1
loop_
 _symmetry_equiv_pos_site_id
 _symmetry_equiv_pos_as_xyz
  1  'x, y, z'
loop_
 _atom_site_type_symbol
 _atom_site_label
 _atom_site_symmetry_multiplicity
 _atom_site_fract_x
 _atom_site_fract_y
 _atom_site_fract_z
 _atom_site_occupancy
  Nb  Nb0  1  0.669082  0.338099  0.067684  1
  Fe  Fe1  1  0.826283  0.154368  0.748614  1
  Fe  Fe2  1  0.327852  0.154228  0.748631  1
  Fe  Fe3  1  0.173968  0.347931  0.250891  1
  Fe  Fe4  1  0.172879  0.832827  0.251601  1
  Fe  Fe5  1  0.660074  0.832858  0.251593  1
  Si  Si6  1  0.819566  0.639061  0.747978  1
  Si  Si7  1  0.007480  0.014963  0.497559  1
  Si  Si8  1  0.006129  0.012364  0.001429  1
  Mo  Mo9  1  0.333939  0.667833  0.931614  1
  Mo  Mo10  1  0.333228  0.666436  0.562776  1
  Mo  Mo11  1  0.669520  0.339031  0.439631  1
