# generated using pymatgen
data_Li2SmDySi4
_symmetry_space_group_name_H-M   'P 1'
_cell_length_a   3.81861800
_cell_length_b   7.62431178
_cell_length_c   10.24912104
_cell_angle_alpha   89.78519651
_cell_angle_beta   90.00000000
_cell_angle_gamma   90.00000000
_symmetry_Int_Tables_number   1
_chemical_formula_structural   Li2SmDySi4
_chemical_formula_sum   'Li4 Sm2 Dy2 Si8'
_cell_volume   298.39423839
_cell_formula_units_Z   2
loop_
 _symmetry_equiv_pos_site_id
 _symmetry_equiv_pos_as_xyz
  1  'x, y, z'
loop_
 _atom_site_type_symbol
 _atom_site_label
 _atom_site_symmetry_multiplicity
 _atom_site_fract_x
 _atom_site_fract_y
 _atom_site_fract_z
 _atom_site_occupancy
  Li  Li0  1  0.250000  0.993895  0.389940  1
  Li  Li1  1  0.750000  0.006105  0.610060  1
  Li  Li2  1  0.250000  0.490418  0.107831  1
  Li  Li3  1  0.750000  0.509582  0.892169  1
  Sm  Sm4  1  0.250000  0.639038  0.636297  1
  Sm  Sm5  1  0.750000  0.360962  0.363703  1
  Dy  Dy6  1  0.250000  0.135696  0.864267  1
  Dy  Dy7  1  0.750000  0.864304  0.135733  1
  Si  Si8  1  0.750000  0.266938  0.065532  1
  Si  Si9  1  0.250000  0.733062  0.934468  1
  Si  Si10  1  0.750000  0.773872  0.428113  1
  Si  Si11  1  0.250000  0.226128  0.571887  1
  Si  Si12  1  0.750000  0.842371  0.823573  1
  Si  Si13  1  0.250000  0.157629  0.176427  1
  Si  Si14  1  0.750000  0.336852  0.681852  1
  Si  Si15  1  0.250000  0.663148  0.318148  1
