# generated using pymatgen
data_PrZr8Zn(In7Co3)2
_symmetry_space_group_name_H-M   'P 1'
_cell_length_a   9.53028126
_cell_length_b   9.53027293
_cell_length_c   9.53028600
_cell_angle_alpha   59.99984005
_cell_angle_beta   59.99993174
_cell_angle_gamma   59.99994574
_symmetry_Int_Tables_number   1
_chemical_formula_structural   PrZr8Zn(In7Co3)2
_chemical_formula_sum   'Pr1 Zr8 Zn1 In14 Co6'
_cell_volume   612.06995953
_cell_formula_units_Z   1
loop_
 _symmetry_equiv_pos_site_id
 _symmetry_equiv_pos_as_xyz
  1  'x, y, z'
loop_
 _atom_site_type_symbol
 _atom_site_label
 _atom_site_symmetry_multiplicity
 _atom_site_fract_x
 _atom_site_fract_y
 _atom_site_fract_z
 _atom_site_occupancy
  Pr  Pr0  1  0.500000  0.500000  0.500000  1
  Zr  Zr1  1  0.121814  0.634555  0.121834  1
  Zr  Zr2  1  0.365445  0.878186  0.878203  1
  Zr  Zr3  1  0.878167  0.878203  0.878186  1
  Zr  Zr4  1  0.634555  0.121814  0.121797  1
  Zr  Zr5  1  0.878203  0.878166  0.365445  1
  Zr  Zr6  1  0.121833  0.121797  0.121814  1
  Zr  Zr7  1  0.878186  0.365445  0.878166  1
  Zr  Zr8  1  0.121797  0.121834  0.634555  1
  Zn  Zn9  1  0.000000  0.000000  0.000000  1
  In  In10  1  0.499991  0.846454  0.153546  1
  In  In11  1  0.499993  0.846455  0.500007  1
  In  In12  1  0.500007  0.153545  0.499993  1
  In  In13  1  0.500002  0.499998  0.846452  1
  In  In14  1  0.153546  0.500009  0.499991  1
  In  In15  1  0.846452  0.153548  0.500002  1
  In  In16  1  0.153548  0.846452  0.499998  1
  In  In17  1  0.500009  0.153546  0.846454  1
  In  In18  1  0.153545  0.500007  0.846455  1
  In  In19  1  0.499998  0.500002  0.153548  1
  In  In20  1  0.846454  0.499991  0.500009  1
  In  In21  1  0.846455  0.499993  0.153545  1
  In  In22  1  0.250000  0.250000  0.250000  1
  In  In23  1  0.750000  0.750000  0.750000  1
  Co  Co24  1  0.781517  0.781517  0.218483  1
  Co  Co25  1  0.218521  0.781479  0.218521  1
  Co  Co26  1  0.218483  0.781517  0.781517  1
  Co  Co27  1  0.218483  0.218483  0.781517  1
  Co  Co28  1  0.781479  0.218521  0.781479  1
  Co  Co29  1  0.781517  0.218483  0.218483  1
