# generated using pymatgen
data_Sr3YbCoO6
_symmetry_space_group_name_H-M   'P 1'
_cell_length_a   6.71389847
_cell_length_b   6.75172441
_cell_length_c   6.74386499
_cell_angle_alpha   91.86267448
_cell_angle_beta   91.84198061
_cell_angle_gamma   91.81998348
_symmetry_Int_Tables_number   1
_chemical_formula_structural   Sr3YbCoO6
_chemical_formula_sum   'Sr6 Yb2 Co2 O12'
_cell_volume   305.21793195
_cell_formula_units_Z   2
loop_
 _symmetry_equiv_pos_site_id
 _symmetry_equiv_pos_as_xyz
  1  'x, y, z'
loop_
 _atom_site_type_symbol
 _atom_site_label
 _atom_site_symmetry_multiplicity
 _atom_site_fract_x
 _atom_site_fract_y
 _atom_site_fract_z
 _atom_site_occupancy
  Sr  Sr0  1  0.884245  0.249901  0.615957  1
  Sr  Sr1  1  0.249538  0.616210  0.883658  1
  Sr  Sr2  1  0.615900  0.883556  0.249951  1
  Sr  Sr3  1  0.750289  0.384135  0.115811  1
  Sr  Sr4  1  0.383881  0.116265  0.749662  1
  Sr  Sr5  1  0.116262  0.750252  0.383550  1
  Yb  Yb6  1  0.749554  0.748385  0.752183  1
  Yb  Yb7  1  0.250815  0.252451  0.247056  1
  Co  Co8  1  0.999723  0.000420  0.000359  1
  Co  Co9  1  0.500334  0.499546  0.500206  1
  O  O10  1  0.226402  0.420056  0.547638  1
  O  O11  1  0.418844  0.550851  0.223413  1
  O  O12  1  0.549038  0.224456  0.418625  1
  O  O13  1  0.917840  0.723759  0.050983  1
  O  O14  1  0.724858  0.047806  0.921673  1
  O  O15  1  0.048014  0.919134  0.725462  1
  O  O16  1  0.774649  0.578735  0.452598  1
  O  O17  1  0.581983  0.449128  0.776281  1
  O  O18  1  0.450768  0.774195  0.582139  1
  O  O19  1  0.081157  0.277064  0.949039  1
  O  O20  1  0.273956  0.952270  0.079170  1
  O  O21  1  0.951949  0.081426  0.274587  1
