# generated using pymatgen
data_Ta7Nb2(NiP2)2
_symmetry_space_group_name_H-M   'P 1'
_cell_length_a   11.49799100
_cell_length_b   11.49833800
_cell_length_c   3.46345200
_cell_angle_alpha   90.00000000
_cell_angle_beta   90.00000000
_cell_angle_gamma   90.00000000
_symmetry_Int_Tables_number   1
_chemical_formula_structural   Ta7Nb2(NiP2)2
_chemical_formula_sum   'Ta14 Nb4 Ni4 P8'
_cell_volume   457.89532374
_cell_formula_units_Z   2
loop_
 _symmetry_equiv_pos_site_id
 _symmetry_equiv_pos_as_xyz
  1  'x, y, z'
loop_
 _atom_site_type_symbol
 _atom_site_label
 _atom_site_symmetry_multiplicity
 _atom_site_fract_x
 _atom_site_fract_y
 _atom_site_fract_z
 _atom_site_occupancy
  Ta  Ta0  1  0.103562  0.183999  0.500000  1
  Ta  Ta1  1  0.183786  0.896344  0.500000  1
  Ta  Ta2  1  0.816057  0.103418  0.500000  1
  Ta  Ta3  1  0.896488  0.816280  0.500000  1
  Ta  Ta4  1  0.396438  0.683999  0.500000  1
  Ta  Ta5  1  0.603512  0.316280  0.500000  1
  Ta  Ta6  1  0.683943  0.603418  0.500000  1
  Ta  Ta7  1  0.316214  0.396344  0.500000  1
  Ta  Ta8  1  0.101661  0.397956  0.000000  1
  Ta  Ta9  1  0.398339  0.897956  0.000000  1
  Ta  Ta10  1  0.602123  0.101730  0.000000  1
  Ta  Ta11  1  0.897877  0.601730  0.000000  1
  Ta  Ta12  1  0.893681  0.393665  0.500000  1
  Ta  Ta13  1  0.606319  0.893665  0.500000  1
  Nb  Nb14  1  0.999893  0.000033  0.000000  1
  Nb  Nb15  1  0.500107  0.500033  0.000000  1
  Nb  Nb16  1  0.393975  0.106010  0.500000  1
  Nb  Nb17  1  0.106025  0.606010  0.500000  1
  Ni  Ni18  1  0.264206  0.235726  0.000000  1
  Ni  Ni19  1  0.235794  0.735726  0.000000  1
  Ni  Ni20  1  0.764784  0.264721  0.000000  1
  Ni  Ni21  1  0.735216  0.764721  0.000000  1
  P  P22  1  0.226099  0.052125  0.000000  1
  P  P23  1  0.052146  0.773886  0.000000  1
  P  P24  1  0.947765  0.226366  0.000000  1
  P  P25  1  0.773626  0.947740  0.000000  1
  P  P26  1  0.273901  0.552125  0.000000  1
  P  P27  1  0.726374  0.447740  0.000000  1
  P  P28  1  0.552235  0.726366  0.000000  1
  P  P29  1  0.447854  0.273886  0.000000  1
