# generated using pymatgen
data_LaTh2Mg2InAu3
_symmetry_space_group_name_H-M   'P 1'
_cell_length_a   7.71327512
_cell_length_b   7.59308748
_cell_length_c   4.46427700
_cell_angle_alpha   90.00000000
_cell_angle_beta   90.00000000
_cell_angle_gamma   121.36587567
_symmetry_Int_Tables_number   1
_chemical_formula_structural   LaTh2Mg2InAu3
_chemical_formula_sum   'La1 Th2 Mg2 In1 Au3'
_cell_volume   223.25207874
_cell_formula_units_Z   1
loop_
 _symmetry_equiv_pos_site_id
 _symmetry_equiv_pos_as_xyz
  1  'x, y, z'
loop_
 _atom_site_type_symbol
 _atom_site_label
 _atom_site_symmetry_multiplicity
 _atom_site_fract_x
 _atom_site_fract_y
 _atom_site_fract_z
 _atom_site_occupancy
  La  La0  1  0.415565  0.415226  0.000000  1
  Th  Th1  1  0.579573  0.002907  0.000000  1
  Th  Th2  1  0.001624  0.585485  0.000000  1
  Mg  Mg3  1  0.002487  0.239614  0.500000  1
  Mg  Mg4  1  0.759454  0.757855  0.500000  1
  In  In5  1  0.243544  0.001935  0.500000  1
  Au  Au6  1  0.338469  0.668203  0.500000  1
  Au  Au7  1  0.686095  0.337123  0.500000  1
  Au  Au8  1  0.973188  0.991652  0.000000  1
