# generated using pymatgen
data_BaSr(Ga3Pt)2
_symmetry_space_group_name_H-M   'P 1'
_cell_length_a   6.26012200
_cell_length_b   6.26012222
_cell_length_c   6.18067100
_cell_angle_alpha   90.00000000
_cell_angle_beta   90.00000000
_cell_angle_gamma   117.80859461
_symmetry_Int_Tables_number   1
_chemical_formula_structural   BaSr(Ga3Pt)2
_chemical_formula_sum   'Ba1 Sr1 Ga6 Pt2'
_cell_volume   214.24193236
_cell_formula_units_Z   1
loop_
 _symmetry_equiv_pos_site_id
 _symmetry_equiv_pos_as_xyz
  1  'x, y, z'
loop_
 _atom_site_type_symbol
 _atom_site_label
 _atom_site_symmetry_multiplicity
 _atom_site_fract_x
 _atom_site_fract_y
 _atom_site_fract_z
 _atom_site_occupancy
  Ba  Ba0  1  0.761881  0.238119  0.250000  1
  Sr  Sr1  1  0.235855  0.764145  0.750000  1
  Ga  Ga2  1  0.656438  0.343562  0.750000  1
  Ga  Ga3  1  0.343235  0.656765  0.250000  1
  Ga  Ga4  1  0.730142  0.728938  0.997810  1
  Ga  Ga5  1  0.730142  0.728938  0.502190  1
  Ga  Ga6  1  0.271062  0.269858  0.997810  1
  Ga  Ga7  1  0.271062  0.269858  0.502190  1
  Pt  Pt8  1  0.894075  0.105925  0.750000  1
  Pt  Pt9  1  0.106106  0.893894  0.250000  1
