# generated using pymatgen
data_NaHo4Se5
_symmetry_space_group_name_H-M   'P 1'
_cell_length_a   17.18791530
_cell_length_b   17.18791541
_cell_length_c   17.18791576
_cell_angle_alpha   13.61030048
_cell_angle_beta   13.61029898
_cell_angle_gamma   13.61030053
_symmetry_Int_Tables_number   1
_chemical_formula_structural   NaHo4Se5
_chemical_formula_sum   'Na1 Ho4 Se5'
_cell_volume   244.64905275
_cell_formula_units_Z   1
loop_
 _symmetry_equiv_pos_site_id
 _symmetry_equiv_pos_as_xyz
  1  'x, y, z'
loop_
 _atom_site_type_symbol
 _atom_site_label
 _atom_site_symmetry_multiplicity
 _atom_site_fract_x
 _atom_site_fract_y
 _atom_site_fract_z
 _atom_site_occupancy
  Na  Na0  1  0.000000  0.000000  0.000000  1
  Ho  Ho1  1  0.598136  0.598136  0.598136  1
  Ho  Ho2  1  0.200581  0.200581  0.200581  1
  Ho  Ho3  1  0.799419  0.799419  0.799419  1
  Ho  Ho4  1  0.401864  0.401864  0.401864  1
  Se  Se5  1  0.703864  0.703864  0.703864  1
  Se  Se6  1  0.101162  0.101162  0.101162  1
  Se  Se7  1  0.500000  0.500000  0.500000  1
  Se  Se8  1  0.296136  0.296136  0.296136  1
  Se  Se9  1  0.898838  0.898838  0.898838  1
