# generated using pymatgen
data_MoIrRh5W
_symmetry_space_group_name_H-M   'P 1'
_cell_length_a   5.52033300
_cell_length_b   5.52728699
_cell_length_c   4.39449100
_cell_angle_alpha   90.00000000
_cell_angle_beta   90.00000000
_cell_angle_gamma   119.95838445
_symmetry_Int_Tables_number   1
_chemical_formula_structural   MoIrRh5W
_chemical_formula_sum   'Mo1 Ir1 Rh5 W1'
_cell_volume   116.17119833
_cell_formula_units_Z   1
loop_
 _symmetry_equiv_pos_site_id
 _symmetry_equiv_pos_as_xyz
  1  'x, y, z'
loop_
 _atom_site_type_symbol
 _atom_site_label
 _atom_site_symmetry_multiplicity
 _atom_site_fract_x
 _atom_site_fract_y
 _atom_site_fract_z
 _atom_site_occupancy
  Mo  Mo0  1  0.666905  0.333808  0.750000  1
  Ir  Ir1  1  0.833344  0.666688  0.250000  1
  Rh  Rh2  1  0.166682  0.834700  0.750000  1
  Rh  Rh3  1  0.668018  0.834700  0.750000  1
  Rh  Rh4  1  0.333347  0.165629  0.250000  1
  Rh  Rh5  1  0.832281  0.165629  0.250000  1
  Rh  Rh6  1  0.166976  0.333953  0.750000  1
  W  W7  1  0.332447  0.664895  0.250000  1
