# generated using pymatgen
data_Er3PaN4
_symmetry_space_group_name_H-M   'P 1'
_cell_length_a   5.98069738
_cell_length_b   5.98097106
_cell_length_c   4.88444100
_cell_angle_alpha   65.89639686
_cell_angle_beta   65.90227649
_cell_angle_gamma   48.20131414
_symmetry_Int_Tables_number   1
_chemical_formula_structural   Er3PaN4
_chemical_formula_sum   'Er3 Pa1 N4'
_cell_volume   116.49206933
_cell_formula_units_Z   1
loop_
 _symmetry_equiv_pos_site_id
 _symmetry_equiv_pos_as_xyz
  1  'x, y, z'
loop_
 _atom_site_type_symbol
 _atom_site_label
 _atom_site_symmetry_multiplicity
 _atom_site_fract_x
 _atom_site_fract_y
 _atom_site_fract_z
 _atom_site_occupancy
  Er  Er0  1  0.747026  0.752974  0.752974  1
  Er  Er1  1  0.247026  0.252974  0.252974  1
  Er  Er2  1  0.496937  0.503063  0.503063  1
  Pa  Pa3  1  0.997276  0.002724  0.002724  1
  N  N4  1  0.997295  0.002705  0.503937  1
  N  N5  1  0.235570  0.241259  0.764430  1
  N  N6  1  0.496063  0.503937  0.002705  1
  N  N7  1  0.758741  0.764430  0.241259  1
