# generated using pymatgen
data_Tb3Er5In2IrRh
_symmetry_space_group_name_H-M   'P 1'
_cell_length_a   9.63377489
_cell_length_b   9.65474716
_cell_length_c   9.63550050
_cell_angle_alpha   59.85348849
_cell_angle_beta   59.85427157
_cell_angle_gamma   59.95823966
_symmetry_Int_Tables_number   1
_chemical_formula_structural   Tb3Er5In2IrRh
_chemical_formula_sum   'Tb6 Er10 In4 Ir2 Rh2'
_cell_volume   632.11677047
_cell_formula_units_Z   2
loop_
 _symmetry_equiv_pos_site_id
 _symmetry_equiv_pos_as_xyz
  1  'x, y, z'
loop_
 _atom_site_type_symbol
 _atom_site_label
 _atom_site_symmetry_multiplicity
 _atom_site_fract_x
 _atom_site_fract_y
 _atom_site_fract_z
 _atom_site_occupancy
  Tb  Tb0  1  0.439423  0.061233  0.061019  1
  Tb  Tb1  1  0.436813  0.061937  0.437015  1
  Tb  Tb2  1  0.060923  0.437620  0.060581  1
  Tb  Tb3  1  0.650277  0.649976  0.048448  1
  Tb  Tb4  1  0.189358  0.811675  0.189561  1
  Tb  Tb5  1  0.061957  0.434851  0.439267  1
  Er  Er6  1  0.811082  0.810888  0.189781  1
  Er  Er7  1  0.810460  0.190734  0.810104  1
  Er  Er8  1  0.189319  0.190923  0.811018  1
  Er  Er9  1  0.648182  0.049366  0.649918  1
  Er  Er10  1  0.056989  0.057184  0.443685  1
  Er  Er11  1  0.442659  0.437671  0.058569  1
  Er  Er12  1  0.653470  0.652000  0.651307  1
  Er  Er13  1  0.811008  0.190857  0.189683  1
  Er  Er14  1  0.191095  0.809619  0.809324  1
  Er  Er15  1  0.047524  0.648215  0.651010  1
  In  In16  1  0.416721  0.416544  0.417065  1
  In  In17  1  0.418185  0.417572  0.748475  1
  In  In18  1  0.417231  0.747411  0.419259  1
  In  In19  1  0.747649  0.416728  0.419116  1
  Ir  Ir20  1  0.858150  0.424275  0.858581  1
  Ir  Ir21  1  0.860360  0.860781  0.854946  1
  Rh  Rh22  1  0.857475  0.862013  0.426204  1
  Rh  Rh23  1  0.423687  0.859932  0.856061  1
