# generated using pymatgen
data_Yb4Zr3SnO12
_symmetry_space_group_name_H-M   'P 1'
_cell_length_a   5.54931826
_cell_length_b   5.77687029
_cell_length_c   7.99803463
_cell_angle_alpha   89.70116069
_cell_angle_beta   90.12499616
_cell_angle_gamma   89.95995367
_symmetry_Int_Tables_number   1
_chemical_formula_structural   Yb4Zr3SnO12
_chemical_formula_sum   'Yb4 Zr3 Sn1 O12'
_cell_volume   256.39436652
_cell_formula_units_Z   1
loop_
 _symmetry_equiv_pos_site_id
 _symmetry_equiv_pos_as_xyz
  1  'x, y, z'
loop_
 _atom_site_type_symbol
 _atom_site_label
 _atom_site_symmetry_multiplicity
 _atom_site_fract_x
 _atom_site_fract_y
 _atom_site_fract_z
 _atom_site_occupancy
  Yb  Yb0  1  0.982848  0.056391  0.248377  1
  Yb  Yb1  1  0.485527  0.442156  0.752890  1
  Yb  Yb2  1  0.514473  0.557844  0.247110  1
  Yb  Yb3  1  0.017152  0.943609  0.751623  1
  Zr  Zr4  1  0.500000  0.000000  0.500000  1
  Zr  Zr5  1  0.000000  0.500000  0.000000  1
  Zr  Zr6  1  0.000000  0.500000  0.500000  1
  Sn  Sn7  1  0.500000  0.000000  0.000000  1
  O  O8  1  0.614394  0.045052  0.752263  1
  O  O9  1  0.191670  0.194330  0.560459  1
  O  O10  1  0.197705  0.197784  0.939449  1
  O  O11  1  0.693275  0.299790  0.058820  1
  O  O12  1  0.691582  0.304882  0.439484  1
  O  O13  1  0.113555  0.454344  0.249755  1
  O  O14  1  0.886445  0.545656  0.750245  1
  O  O15  1  0.308418  0.695118  0.560516  1
  O  O16  1  0.306725  0.700210  0.941180  1
  O  O17  1  0.802295  0.802216  0.060551  1
  O  O18  1  0.808330  0.805670  0.439541  1
  O  O19  1  0.385606  0.954948  0.247737  1
