# generated using pymatgen
data_Ac2La2H9
_symmetry_space_group_name_H-M   'P 1'
_cell_length_a   7.07311571
_cell_length_b   7.07311579
_cell_length_c   7.07311543
_cell_angle_alpha   132.12568935
_cell_angle_beta   132.12568615
_cell_angle_gamma   70.03058835
_symmetry_Int_Tables_number   1
_chemical_formula_structural   Ac2La2H9
_chemical_formula_sum   'Ac2 La2 H9'
_cell_volume   190.83552968
_cell_formula_units_Z   1
loop_
 _symmetry_equiv_pos_site_id
 _symmetry_equiv_pos_as_xyz
  1  'x, y, z'
loop_
 _atom_site_type_symbol
 _atom_site_label
 _atom_site_symmetry_multiplicity
 _atom_site_fract_x
 _atom_site_fract_y
 _atom_site_fract_z
 _atom_site_occupancy
  Ac  Ac0  1  0.500000  0.000000  0.500000  1
  Ac  Ac1  1  0.000000  0.500000  0.500000  1
  La  La2  1  0.752908  0.752908  0.000000  1
  La  La3  1  0.247092  0.247092  0.000000  1
  H  H4  1  0.125329  0.125329  0.515133  1
  H  H5  1  0.610197  0.610197  0.484867  1
  H  H6  1  0.125329  0.610197  0.000000  1
  H  H7  1  0.610197  0.125329  0.000000  1
  H  H8  1  0.874671  0.874671  0.484867  1
  H  H9  1  0.389803  0.389803  0.515133  1
  H  H10  1  0.874671  0.389803  0.000000  1
  H  H11  1  0.389803  0.874671  0.000000  1
  H  H12  1  0.000000  0.000000  0.000000  1
