# generated using pymatgen
data_Ba6CdIr4O15
_symmetry_space_group_name_H-M   'P 1'
_cell_length_a   7.51180974
_cell_length_b   7.51182588
_cell_length_c   7.51180400
_cell_angle_alpha   85.12115191
_cell_angle_beta   85.12127155
_cell_angle_gamma   85.12114579
_symmetry_Int_Tables_number   1
_chemical_formula_structural   Ba6CdIr4O15
_chemical_formula_sum   'Ba6 Cd1 Ir4 O15'
_cell_volume   419.51099973
_cell_formula_units_Z   1
loop_
 _symmetry_equiv_pos_site_id
 _symmetry_equiv_pos_as_xyz
  1  'x, y, z'
loop_
 _atom_site_type_symbol
 _atom_site_label
 _atom_site_symmetry_multiplicity
 _atom_site_fract_x
 _atom_site_fract_y
 _atom_site_fract_z
 _atom_site_occupancy
  Ba  Ba0  1  0.337450  0.662625  0.000096  1
  Ba  Ba1  1  0.000156  0.337433  0.662596  1
  Ba  Ba2  1  0.662587  0.000144  0.337428  1
  Ba  Ba3  1  0.149892  0.850107  0.499975  1
  Ba  Ba4  1  0.500067  0.149948  0.850118  1
  Ba  Ba5  1  0.850169  0.500089  0.149890  1
  Cd  Cd6  1  0.499965  0.499931  0.500137  1
  Ir  Ir7  1  0.284476  0.284519  0.284485  1
  Ir  Ir8  1  0.715377  0.715335  0.715346  1
  Ir  Ir9  1  0.092077  0.092010  0.091980  1
  Ir  Ir10  1  0.908069  0.908156  0.908066  1
  O  O11  1  0.157786  0.000024  0.842254  1
  O  O12  1  0.842334  0.157831  0.000055  1
  O  O13  1  0.000031  0.842309  0.157765  1
  O  O14  1  0.025846  0.191723  0.338335  1
  O  O15  1  0.338414  0.025498  0.191793  1
  O  O16  1  0.191452  0.338512  0.025649  1
  O  O17  1  0.808449  0.974459  0.661451  1
  O  O18  1  0.661628  0.808136  0.974336  1
  O  O19  1  0.974127  0.661585  0.808421  1
  O  O20  1  0.367382  0.219386  0.528646  1
  O  O21  1  0.528529  0.367300  0.219344  1
  O  O22  1  0.219370  0.528690  0.367427  1
  O  O23  1  0.780664  0.632485  0.471194  1
  O  O24  1  0.471277  0.780655  0.632564  1
  O  O25  1  0.632428  0.471107  0.780648  1
