# generated using pymatgen
data_LiTmCo(NiP)3
_symmetry_space_group_name_H-M   'P 1'
_cell_length_a   3.71637100
_cell_length_b   10.38150500
_cell_length_c   11.91790800
_cell_angle_alpha   90.00000000
_cell_angle_beta   90.00000000
_cell_angle_gamma   90.00000000
_symmetry_Int_Tables_number   1
_chemical_formula_structural   LiTmCo(NiP)3
_chemical_formula_sum   'Li4 Tm4 Co4 Ni12 P12'
_cell_volume   459.81105494
_cell_formula_units_Z   4
loop_
 _symmetry_equiv_pos_site_id
 _symmetry_equiv_pos_as_xyz
  1  'x, y, z'
loop_
 _atom_site_type_symbol
 _atom_site_label
 _atom_site_symmetry_multiplicity
 _atom_site_fract_x
 _atom_site_fract_y
 _atom_site_fract_z
 _atom_site_occupancy
  Li  Li0  1  0.250000  0.701874  0.992216  1
  Li  Li1  1  0.250000  0.798126  0.492216  1
  Li  Li2  1  0.750000  0.298126  0.007784  1
  Li  Li3  1  0.750000  0.201874  0.507784  1
  Tm  Tm4  1  0.250000  0.580037  0.704532  1
  Tm  Tm5  1  0.250000  0.919963  0.204532  1
  Tm  Tm6  1  0.750000  0.419963  0.295468  1
  Tm  Tm7  1  0.750000  0.080037  0.795468  1
  Co  Co8  1  0.250000  0.465678  0.930933  1
  Co  Co9  1  0.250000  0.034322  0.430933  1
  Co  Co10  1  0.750000  0.534322  0.069067  1
  Co  Co11  1  0.750000  0.965678  0.569067  1
  Ni  Ni12  1  0.250000  0.402492  0.488999  1
  Ni  Ni13  1  0.250000  0.097508  0.988999  1
  Ni  Ni14  1  0.750000  0.597508  0.511001  1
  Ni  Ni15  1  0.750000  0.902492  0.011001  1
  Ni  Ni16  1  0.250000  0.223125  0.174971  1
  Ni  Ni17  1  0.250000  0.276875  0.674971  1
  Ni  Ni18  1  0.750000  0.776875  0.825029  1
  Ni  Ni19  1  0.750000  0.723125  0.325029  1
  Ni  Ni20  1  0.250000  0.880154  0.700817  1
  Ni  Ni21  1  0.250000  0.619846  0.200817  1
  Ni  Ni22  1  0.750000  0.119846  0.299183  1
  Ni  Ni23  1  0.750000  0.380154  0.799183  1
  P  P24  1  0.250000  0.425019  0.112693  1
  P  P25  1  0.250000  0.074981  0.612693  1
  P  P26  1  0.750000  0.574981  0.887307  1
  P  P27  1  0.750000  0.925019  0.387307  1
  P  P28  1  0.250000  0.269129  0.863234  1
  P  P29  1  0.250000  0.230871  0.363234  1
  P  P30  1  0.750000  0.730871  0.136766  1
  P  P31  1  0.750000  0.769129  0.636766  1
  P  P32  1  0.250000  0.597392  0.393076  1
  P  P33  1  0.250000  0.902608  0.893076  1
  P  P34  1  0.750000  0.402608  0.606924  1
  P  P35  1  0.750000  0.097392  0.106924  1
