# generated using pymatgen
data_Cd3Pt13
_symmetry_space_group_name_H-M   'P 1'
_cell_length_a   8.57960672
_cell_length_b   8.57960585
_cell_length_c   5.70416600
_cell_angle_alpha   89.99995446
_cell_angle_beta   90.00004690
_cell_angle_gamma   38.45726088
_symmetry_Int_Tables_number   1
_chemical_formula_structural   Cd3Pt13
_chemical_formula_sum   'Cd3 Pt13'
_cell_volume   261.13726939
_cell_formula_units_Z   1
loop_
 _symmetry_equiv_pos_site_id
 _symmetry_equiv_pos_as_xyz
  1  'x, y, z'
loop_
 _atom_site_type_symbol
 _atom_site_label
 _atom_site_symmetry_multiplicity
 _atom_site_fract_x
 _atom_site_fract_y
 _atom_site_fract_z
 _atom_site_occupancy
  Cd  Cd0  1  0.626457  0.626457  0.000000  1
  Cd  Cd1  1  0.123421  0.123421  0.500001  1
  Cd  Cd2  1  0.875039  0.875039  0.500001  1
  Pt  Pt3  1  0.122464  0.122464  0.000000  1
  Pt  Pt4  1  0.876307  0.876307  0.000000  1
  Pt  Pt5  1  0.378062  0.378062  0.500001  1
  Pt  Pt6  1  0.626567  0.626567  0.500001  1
  Pt  Pt7  1  0.371988  0.371988  0.000000  1
  Pt  Pt8  1  0.745712  0.252121  0.246845  1
  Pt  Pt9  1  0.004406  0.497608  0.249078  1
  Pt  Pt10  1  0.497934  0.004090  0.249061  1
  Pt  Pt11  1  0.252192  0.745629  0.246873  1
  Pt  Pt12  1  0.745629  0.252192  0.753128  1
  Pt  Pt13  1  0.497608  0.004406  0.750921  1
  Pt  Pt14  1  0.004090  0.497934  0.750938  1
  Pt  Pt15  1  0.252121  0.745712  0.753154  1
