# generated using pymatgen
data_Pr3Tc4(P2O)2
_symmetry_space_group_name_H-M   'P 1'
_cell_length_a   4.16345298
_cell_length_b   4.16340614
_cell_length_c   13.49425265
_cell_angle_alpha   98.87710301
_cell_angle_beta   98.87705445
_cell_angle_gamma   89.96592013
_symmetry_Int_Tables_number   1
_chemical_formula_structural   Pr3Tc4(P2O)2
_chemical_formula_sum   'Pr3 Tc4 P4 O2'
_cell_volume   228.27657618
_cell_formula_units_Z   1
loop_
 _symmetry_equiv_pos_site_id
 _symmetry_equiv_pos_as_xyz
  1  'x, y, z'
loop_
 _atom_site_type_symbol
 _atom_site_label
 _atom_site_symmetry_multiplicity
 _atom_site_fract_x
 _atom_site_fract_y
 _atom_site_fract_z
 _atom_site_occupancy
  Pr  Pr0  1  0.999981  0.999988  0.999964  1
  Pr  Pr1  1  0.706370  0.706382  0.412305  1
  Pr  Pr2  1  0.293646  0.293650  0.587730  1
  Tc  Tc3  1  0.593101  0.092989  0.185934  1
  Tc  Tc4  1  0.092992  0.593099  0.185934  1
  Tc  Tc5  1  0.907010  0.406895  0.814056  1
  Tc  Tc6  1  0.406897  0.907000  0.814045  1
  P  P7  1  0.549919  0.549921  0.099840  1
  P  P8  1  0.134632  0.134630  0.268975  1
  P  P9  1  0.865386  0.865381  0.731061  1
  P  P10  1  0.450057  0.450054  0.900114  1
  O  O11  1  0.750132  0.249888  0.500022  1
  O  O12  1  0.249885  0.750131  0.500018  1
