# generated using pymatgen
data_Er3TmSc6(In2Rh)4
_symmetry_space_group_name_H-M   'P 1'
_cell_length_a   3.49128400
_cell_length_b   7.78314970
_cell_length_c   17.73954655
_cell_angle_alpha   89.95182456
_cell_angle_beta   90.00000000
_cell_angle_gamma   90.00000000
_symmetry_Int_Tables_number   1
_chemical_formula_structural   Er3TmSc6(In2Rh)4
_chemical_formula_sum   'Er3 Tm1 Sc6 In8 Rh4'
_cell_volume   482.03982760
_cell_formula_units_Z   1
loop_
 _symmetry_equiv_pos_site_id
 _symmetry_equiv_pos_as_xyz
  1  'x, y, z'
loop_
 _atom_site_type_symbol
 _atom_site_label
 _atom_site_symmetry_multiplicity
 _atom_site_fract_x
 _atom_site_fract_y
 _atom_site_fract_z
 _atom_site_occupancy
  Er  Er0  1  0.000000  0.749629  0.781313  1
  Er  Er1  1  0.000000  0.250357  0.218704  1
  Er  Er2  1  0.000000  0.249737  0.718235  1
  Tm  Tm3  1  0.000000  0.750410  0.281494  1
  Sc  Sc4  1  0.000000  0.000017  0.000142  1
  Sc  Sc5  1  0.000000  0.499948  0.499917  1
  Sc  Sc6  1  0.000000  0.879404  0.586855  1
  Sc  Sc7  1  0.000000  0.120352  0.412700  1
  Sc  Sc8  1  0.000000  0.378982  0.912790  1
  Sc  Sc9  1  0.000000  0.621150  0.087372  1
  In  In10  1  0.500000  0.799504  0.439187  1
  In  In11  1  0.500000  0.200511  0.560334  1
  In  In12  1  0.500000  0.300160  0.060645  1
  In  In13  1  0.500000  0.700138  0.939589  1
  In  In14  1  0.500000  0.925995  0.146600  1
  In  In15  1  0.500000  0.073773  0.853856  1
  In  In16  1  0.500000  0.426698  0.353868  1
  In  In17  1  0.500000  0.574170  0.646160  1
  Rh  Rh18  1  0.500000  0.964797  0.692452  1
  Rh  Rh19  1  0.500000  0.033230  0.307577  1
  Rh  Rh20  1  0.500000  0.464777  0.806994  1
  Rh  Rh21  1  0.500000  0.536263  0.193218  1
