# generated using pymatgen
data_CePm(CuSi)2
_symmetry_space_group_name_H-M   'P 1'
_cell_length_a   5.84377546
_cell_length_b   5.84377575
_cell_length_c   5.84377600
_cell_angle_alpha   138.81103096
_cell_angle_beta   104.88881660
_cell_angle_gamma   89.45648819
_symmetry_Int_Tables_number   1
_chemical_formula_structural   CePm(CuSi)2
_chemical_formula_sum   'Ce1 Pm1 Cu2 Si2'
_cell_volume   121.59269484
_cell_formula_units_Z   1
loop_
 _symmetry_equiv_pos_site_id
 _symmetry_equiv_pos_as_xyz
  1  'x, y, z'
loop_
 _atom_site_type_symbol
 _atom_site_label
 _atom_site_symmetry_multiplicity
 _atom_site_fract_x
 _atom_site_fract_y
 _atom_site_fract_z
 _atom_site_occupancy
  Ce  Ce0  1  0.499412  0.500000  0.999412  1
  Pm  Pm1  1  0.000785  0.000000  0.000785  1
  Cu  Cu2  1  0.582507  0.249468  0.333040  1
  Cu  Cu3  1  0.083573  0.750531  0.333040  1
  Si  Si4  1  0.914240  0.247379  0.666861  1
  Si  Si5  1  0.419482  0.752620  0.666860  1
