# generated using pymatgen
data_Nd11SmSi12PdAu11
_symmetry_space_group_name_H-M   'P 1'
_cell_length_a   4.35833600
_cell_length_b   7.53375194
_cell_length_c   24.46823494
_cell_angle_alpha   89.93760623
_cell_angle_beta   90.00000000
_cell_angle_gamma   90.00000000
_symmetry_Int_Tables_number   1
_chemical_formula_structural   Nd11SmSi12PdAu11
_chemical_formula_sum   'Nd11 Sm1 Si12 Pd1 Au11'
_cell_volume   803.40477634
_cell_formula_units_Z   1
loop_
 _symmetry_equiv_pos_site_id
 _symmetry_equiv_pos_as_xyz
  1  'x, y, z'
loop_
 _atom_site_type_symbol
 _atom_site_label
 _atom_site_symmetry_multiplicity
 _atom_site_fract_x
 _atom_site_fract_y
 _atom_site_fract_z
 _atom_site_occupancy
  Nd  Nd0  1  0.250000  0.750394  0.335224  1
  Nd  Nd1  1  0.750000  0.244531  0.663824  1
  Nd  Nd2  1  0.750000  0.250710  0.166503  1
  Nd  Nd3  1  0.250000  0.748457  0.832298  1
  Nd  Nd4  1  0.250000  0.749740  0.166732  1
  Nd  Nd5  1  0.750000  0.250606  0.832531  1
  Nd  Nd6  1  0.750000  0.250683  0.335331  1
  Nd  Nd7  1  0.250000  0.754841  0.664303  1
  Nd  Nd8  1  0.250000  0.750656  0.999349  1
  Nd  Nd9  1  0.750000  0.248916  0.999221  1
  Nd  Nd10  1  0.250000  0.754193  0.502283  1
  Sm  Sm11  1  0.750000  0.246711  0.502586  1
  Si  Si12  1  0.250000  0.082681  0.080110  1
  Si  Si13  1  0.750000  0.916605  0.918026  1
  Si  Si14  1  0.750000  0.582489  0.420407  1
  Si  Si15  1  0.250000  0.410956  0.581200  1
  Si  Si16  1  0.250000  0.083939  0.250478  1
  Si  Si17  1  0.750000  0.915802  0.748757  1
  Si  Si18  1  0.750000  0.583785  0.251536  1
  Si  Si19  1  0.250000  0.416697  0.748041  1
  Si  Si20  1  0.250000  0.084103  0.419133  1
  Si  Si21  1  0.750000  0.923432  0.581419  1
  Si  Si22  1  0.750000  0.582922  0.080005  1
  Si  Si23  1  0.250000  0.417073  0.918304  1
  Pd  Pd24  1  0.250000  0.082633  0.583014  1
  Au  Au25  1  0.250000  0.416940  0.250526  1
  Au  Au26  1  0.750000  0.582032  0.748120  1
  Au  Au27  1  0.750000  0.917239  0.250537  1
  Au  Au28  1  0.250000  0.083545  0.749518  1
  Au  Au29  1  0.250000  0.416733  0.420215  1
  Au  Au30  1  0.750000  0.583267  0.583569  1
  Au  Au31  1  0.750000  0.916249  0.085381  1
  Au  Au32  1  0.250000  0.083134  0.913808  1
  Au  Au33  1  0.250000  0.416535  0.084535  1
  Au  Au34  1  0.750000  0.583394  0.914142  1
  Au  Au35  1  0.750000  0.917378  0.419038  1
