# generated using pymatgen
data_Ho4Er4Re3B24Os
_symmetry_space_group_name_H-M   'P 1'
_cell_length_a   3.65613100
_cell_length_b   9.13015368
_cell_length_c   11.50935701
_cell_angle_alpha   90.07204400
_cell_angle_beta   90.00000000
_cell_angle_gamma   90.00000000
_symmetry_Int_Tables_number   1
_chemical_formula_structural   Ho4Er4Re3B24Os
_chemical_formula_sum   'Ho4 Er4 Re3 B24 Os1'
_cell_volume   384.19397906
_cell_formula_units_Z   1
loop_
 _symmetry_equiv_pos_site_id
 _symmetry_equiv_pos_as_xyz
  1  'x, y, z'
loop_
 _atom_site_type_symbol
 _atom_site_label
 _atom_site_symmetry_multiplicity
 _atom_site_fract_x
 _atom_site_fract_y
 _atom_site_fract_z
 _atom_site_occupancy
  Ho  Ho0  1  0.000000  0.321924  0.414157  1
  Ho  Ho1  1  0.000000  0.677478  0.587539  1
  Ho  Ho2  1  0.000000  0.824299  0.084546  1
  Ho  Ho3  1  0.000000  0.176682  0.913569  1
  Er  Er4  1  0.000000  0.942779  0.370114  1
  Er  Er5  1  0.000000  0.056384  0.629331  1
  Er  Er6  1  0.000000  0.442895  0.129700  1
  Er  Er7  1  0.000000  0.556790  0.870876  1
  Re  Re8  1  0.000000  0.361857  0.678249  1
  Re  Re9  1  0.000000  0.138713  0.179829  1
  Re  Re10  1  0.000000  0.861350  0.820692  1
  B  B11  1  0.500000  0.553869  0.432884  1
  B  B12  1  0.500000  0.446979  0.566690  1
  B  B13  1  0.500000  0.053163  0.066781  1
  B  B14  1  0.500000  0.946852  0.933112  1
  B  B15  1  0.500000  0.749079  0.418618  1
  B  B16  1  0.500000  0.250162  0.581017  1
  B  B17  1  0.500000  0.249666  0.081089  1
  B  B18  1  0.500000  0.750728  0.918994  1
  B  B19  1  0.500000  0.791380  0.265541  1
  B  B20  1  0.500000  0.207643  0.734359  1
  B  B21  1  0.500000  0.292256  0.234842  1
  B  B22  1  0.500000  0.707540  0.765753  1
  B  B23  1  0.500000  0.631288  0.185662  1
  B  B24  1  0.500000  0.369348  0.814314  1
  B  B25  1  0.500000  0.131109  0.315069  1
  B  B26  1  0.500000  0.868863  0.685387  1
  B  B27  1  0.500000  0.982198  0.212092  1
  B  B28  1  0.500000  0.017854  0.787657  1
  B  B29  1  0.500000  0.483156  0.287981  1
  B  B30  1  0.500000  0.518256  0.712128  1
  B  B31  1  0.500000  0.601335  0.028673  1
  B  B32  1  0.500000  0.398890  0.972047  1
  B  B33  1  0.500000  0.100489  0.471664  1
  B  B34  1  0.500000  0.898208  0.528040  1
  Os  Os35  1  0.000000  0.638541  0.321005  1
