# generated using pymatgen
data_Rb6AlBi3
_symmetry_space_group_name_H-M   'P 1'
_cell_length_a   11.06387448
_cell_length_b   6.46288500
_cell_length_c   12.82363249
_cell_angle_alpha   90.00000000
_cell_angle_beta   100.89041191
_cell_angle_gamma   90.00000000
_symmetry_Int_Tables_number   1
_chemical_formula_structural   Rb6AlBi3
_chemical_formula_sum   'Rb12 Al2 Bi6'
_cell_volume   900.43413020
_cell_formula_units_Z   2
loop_
 _symmetry_equiv_pos_site_id
 _symmetry_equiv_pos_as_xyz
  1  'x, y, z'
loop_
 _atom_site_type_symbol
 _atom_site_label
 _atom_site_symmetry_multiplicity
 _atom_site_fract_x
 _atom_site_fract_y
 _atom_site_fract_z
 _atom_site_occupancy
  Rb  Rb0  1  0.133720  0.250000  0.019832  1
  Rb  Rb1  1  0.541752  0.749999  0.078435  1
  Rb  Rb2  1  0.252031  0.749999  0.218819  1
  Rb  Rb3  1  0.878517  0.749999  0.325541  1
  Rb  Rb4  1  0.092480  0.250000  0.366935  1
  Rb  Rb5  1  0.555183  0.749999  0.452674  1
  Rb  Rb6  1  0.444818  0.250000  0.547326  1
  Rb  Rb7  1  0.907520  0.749999  0.633065  1
  Rb  Rb8  1  0.121483  0.250000  0.674459  1
  Rb  Rb9  1  0.747969  0.250000  0.781182  1
  Rb  Rb10  1  0.458248  0.250000  0.921565  1
  Rb  Rb11  1  0.866280  0.749999  0.980167  1
  Al  Al12  1  0.678217  0.250000  0.280164  1
  Al  Al13  1  0.321783  0.749999  0.719835  1
  Bi  Bi14  1  0.823193  0.250000  0.123023  1
  Bi  Bi15  1  0.427795  0.250000  0.227141  1
  Bi  Bi16  1  0.788059  0.250000  0.489965  1
  Bi  Bi17  1  0.211941  0.749999  0.510035  1
  Bi  Bi18  1  0.572205  0.749999  0.772859  1
  Bi  Bi19  1  0.176807  0.749999  0.876977  1
