# generated using pymatgen
data_Ho5Zn2Sb
_symmetry_space_group_name_H-M   'P 1'
_cell_length_a   8.51338590
_cell_length_b   8.51338573
_cell_length_c   8.51338596
_cell_angle_alpha   123.48893133
_cell_angle_beta   123.48893265
_cell_angle_gamma   84.05626370
_symmetry_Int_Tables_number   1
_chemical_formula_structural   Ho5Zn2Sb
_chemical_formula_sum   'Ho10 Zn4 Sb2'
_cell_volume   410.87860486
_cell_formula_units_Z   2
loop_
 _symmetry_equiv_pos_site_id
 _symmetry_equiv_pos_as_xyz
  1  'x, y, z'
loop_
 _atom_site_type_symbol
 _atom_site_label
 _atom_site_symmetry_multiplicity
 _atom_site_fract_x
 _atom_site_fract_y
 _atom_site_fract_z
 _atom_site_occupancy
  Ho  Ho0  1  0.500000  0.500000  0.000000  1
  Ho  Ho1  1  0.000000  0.000000  0.000000  1
  Ho  Ho2  1  0.510326  0.010326  0.809265  1
  Ho  Ho3  1  0.201062  0.701062  0.190735  1
  Ho  Ho4  1  0.010326  0.201062  0.500000  1
  Ho  Ho5  1  0.701062  0.510326  0.500000  1
  Ho  Ho6  1  0.489674  0.989674  0.190735  1
  Ho  Ho7  1  0.798938  0.298938  0.809265  1
  Ho  Ho8  1  0.989674  0.798938  0.500000  1
  Ho  Ho9  1  0.298938  0.489674  0.500000  1
  Zn  Zn10  1  0.136349  0.636349  0.772700  1
  Zn  Zn11  1  0.863651  0.363651  0.227300  1
  Zn  Zn12  1  0.636349  0.863651  0.500000  1
  Zn  Zn13  1  0.363651  0.136349  0.500000  1
  Sb  Sb14  1  0.250000  0.250000  0.000000  1
  Sb  Sb15  1  0.750000  0.750000  0.000000  1
