# generated using pymatgen
data_Nd2Si6SnRh12
_symmetry_space_group_name_H-M   'P 1'
_cell_length_a   9.97180400
_cell_length_b   9.97180486
_cell_length_c   3.87199600
_cell_angle_alpha   90.00000000
_cell_angle_beta   90.00000000
_cell_angle_gamma   120.00000379
_symmetry_Int_Tables_number   1
_chemical_formula_structural   Nd2Si6SnRh12
_chemical_formula_sum   'Nd2 Si6 Sn1 Rh12'
_cell_volume   333.43640883
_cell_formula_units_Z   1
loop_
 _symmetry_equiv_pos_site_id
 _symmetry_equiv_pos_as_xyz
  1  'x, y, z'
loop_
 _atom_site_type_symbol
 _atom_site_label
 _atom_site_symmetry_multiplicity
 _atom_site_fract_x
 _atom_site_fract_y
 _atom_site_fract_z
 _atom_site_occupancy
  Nd  Nd0  1  0.333333  0.666667  0.753140  1
  Nd  Nd1  1  0.000000  0.000000  0.249045  1
  Si  Si2  1  0.958139  0.226342  0.747766  1
  Si  Si3  1  0.773658  0.731797  0.747766  1
  Si  Si4  1  0.268203  0.041861  0.747766  1
  Si  Si5  1  0.373179  0.438665  0.252747  1
  Si  Si6  1  0.561335  0.934514  0.252747  1
  Si  Si7  1  0.065486  0.626821  0.252747  1
  Sn  Sn8  1  0.666667  0.333333  0.599102  1
  Rh  Rh9  1  0.733120  0.953831  0.750201  1
  Rh  Rh10  1  0.046169  0.779290  0.750201  1
  Rh  Rh11  1  0.220710  0.266880  0.750201  1
  Rh  Rh12  1  0.607409  0.719188  0.250216  1
  Rh  Rh13  1  0.280812  0.888222  0.250216  1
  Rh  Rh14  1  0.111778  0.392591  0.250216  1
  Rh  Rh15  1  0.953926  0.465299  0.753961  1
  Rh  Rh16  1  0.534701  0.488627  0.753961  1
  Rh  Rh17  1  0.511373  0.046074  0.753961  1
  Rh  Rh18  1  0.397086  0.209434  0.246074  1
  Rh  Rh19  1  0.790566  0.187652  0.246074  1
  Rh  Rh20  1  0.812348  0.602914  0.246074  1
