# generated using pymatgen
data_Ho3Sc5Tc2(B12Ir)2
_symmetry_space_group_name_H-M   'P 1'
_cell_length_a   3.55621700
_cell_length_b   8.94526234
_cell_length_c   11.32912608
_cell_angle_alpha   90.13480747
_cell_angle_beta   90.00000000
_cell_angle_gamma   90.00000000
_symmetry_Int_Tables_number   1
_chemical_formula_structural   Ho3Sc5Tc2(B12Ir)2
_chemical_formula_sum   'Ho3 Sc5 Tc2 B24 Ir2'
_cell_volume   360.39316289
_cell_formula_units_Z   1
loop_
 _symmetry_equiv_pos_site_id
 _symmetry_equiv_pos_as_xyz
  1  'x, y, z'
loop_
 _atom_site_type_symbol
 _atom_site_label
 _atom_site_symmetry_multiplicity
 _atom_site_fract_x
 _atom_site_fract_y
 _atom_site_fract_z
 _atom_site_occupancy
  Ho  Ho0  1  0.500000  0.316037  0.410731  1
  Ho  Ho1  1  0.500000  0.684093  0.588697  1
  Ho  Ho2  1  0.500000  0.176452  0.917245  1
  Sc  Sc3  1  0.500000  0.824348  0.080286  1
  Sc  Sc4  1  0.500000  0.442294  0.124677  1
  Sc  Sc5  1  0.500000  0.559303  0.876443  1
  Sc  Sc6  1  0.500000  0.051624  0.627172  1
  Sc  Sc7  1  0.500000  0.947423  0.372195  1
  Tc  Tc8  1  0.500000  0.138034  0.181460  1
  Tc  Tc9  1  0.500000  0.859612  0.819738  1
  B  B10  1  0.000000  0.099714  0.473092  1
  B  B11  1  0.000000  0.899966  0.526747  1
  B  B12  1  0.000000  0.400277  0.972618  1
  B  B13  1  0.000000  0.602645  0.028375  1
  B  B14  1  0.000000  0.128033  0.316465  1
  B  B15  1  0.000000  0.871083  0.683585  1
  B  B16  1  0.000000  0.371629  0.818596  1
  B  B17  1  0.000000  0.630618  0.180592  1
  B  B18  1  0.000000  0.051900  0.067072  1
  B  B19  1  0.000000  0.945271  0.934824  1
  B  B20  1  0.000000  0.445033  0.566068  1
  B  B21  1  0.000000  0.555129  0.433497  1
  B  B22  1  0.000000  0.481274  0.285308  1
  B  B23  1  0.000000  0.519465  0.714622  1
  B  B24  1  0.000000  0.018975  0.786241  1
  B  B25  1  0.000000  0.978727  0.213102  1
  B  B26  1  0.000000  0.251662  0.080798  1
  B  B27  1  0.000000  0.748674  0.921784  1
  B  B28  1  0.000000  0.245952  0.579544  1
  B  B29  1  0.000000  0.753960  0.419904  1
  B  B30  1  0.000000  0.293874  0.234336  1
  B  B31  1  0.000000  0.705891  0.766274  1
  B  B32  1  0.000000  0.206729  0.735153  1
  B  B33  1  0.000000  0.793619  0.263437  1
  Ir  Ir34  1  0.500000  0.360869  0.680391  1
  Ir  Ir35  1  0.500000  0.639811  0.318927  1
