# generated using pymatgen
data_K2PrNd(SbAu)4
_symmetry_space_group_name_H-M   'P 1'
_cell_length_a   4.69819200
_cell_length_b   4.69819096
_cell_length_c   18.88926100
_cell_angle_alpha   90.00000000
_cell_angle_beta   90.00000000
_cell_angle_gamma   119.99999324
_symmetry_Int_Tables_number   1
_chemical_formula_structural   K2PrNd(SbAu)4
_chemical_formula_sum   'K2 Pr1 Nd1 Sb4 Au4'
_cell_volume   361.08301043
_cell_formula_units_Z   1
loop_
 _symmetry_equiv_pos_site_id
 _symmetry_equiv_pos_as_xyz
  1  'x, y, z'
loop_
 _atom_site_type_symbol
 _atom_site_label
 _atom_site_symmetry_multiplicity
 _atom_site_fract_x
 _atom_site_fract_y
 _atom_site_fract_z
 _atom_site_occupancy
  K  K0  1  0.000000  0.000000  0.249867  1
  K  K1  1  0.000000  0.000000  0.750133  1
  Pr  Pr2  1  0.000000  0.000000  0.500000  1
  Nd  Nd3  1  0.000000  0.000000  0.000000  1
  Sb  Sb4  1  0.333333  0.666667  0.387463  1
  Sb  Sb5  1  0.666667  0.333333  0.612537  1
  Sb  Sb6  1  0.666667  0.333333  0.887893  1
  Sb  Sb7  1  0.333333  0.666667  0.112107  1
  Au  Au8  1  0.666667  0.333333  0.400553  1
  Au  Au9  1  0.333333  0.666667  0.599447  1
  Au  Au10  1  0.333333  0.666667  0.904614  1
  Au  Au11  1  0.666667  0.333333  0.095386  1
