# generated using pymatgen
data_PrNdCo17Si8Os
_symmetry_space_group_name_H-M   'P 1'
_cell_length_a   7.97084275
_cell_length_b   8.02084876
_cell_length_c   7.99197519
_cell_angle_alpha   121.88575367
_cell_angle_beta   121.68965891
_cell_angle_gamma   86.96804230
_symmetry_Int_Tables_number   1
_chemical_formula_structural   PrNdCo17Si8Os
_chemical_formula_sum   'Pr1 Nd1 Co17 Si8 Os1'
_cell_volume   350.87577698
_cell_formula_units_Z   1
loop_
 _symmetry_equiv_pos_site_id
 _symmetry_equiv_pos_as_xyz
  1  'x, y, z'
loop_
 _atom_site_type_symbol
 _atom_site_label
 _atom_site_symmetry_multiplicity
 _atom_site_fract_x
 _atom_site_fract_y
 _atom_site_fract_z
 _atom_site_occupancy
  Pr  Pr0  1  0.749887  0.750739  0.000927  1
  Nd  Nd1  1  0.249008  0.249829  0.999131  1
  Co  Co2  1  0.447856  0.949896  0.758594  1
  Co  Co3  1  0.189403  0.691186  0.241402  1
  Co  Co4  1  0.547466  0.043484  0.236101  1
  Co  Co5  1  0.947931  0.191290  0.500117  1
  Co  Co6  1  0.198258  0.928662  0.128785  1
  Co  Co7  1  0.800521  0.069532  0.870311  1
  Co  Co8  1  0.430105  0.699185  0.129702  1
  Co  Co9  1  0.569378  0.299804  0.871209  1
  Co  Co10  1  0.700857  0.572973  0.264201  1
  Co  Co11  1  0.300200  0.430105  0.732151  1
  Co  Co12  1  0.936752  0.808838  0.735794  1
  Co  Co13  1  0.311953  0.549132  0.499864  1
  Co  Co14  1  0.811502  0.307269  0.763896  1
  Co  Co15  1  0.002800  0.502588  0.500019  1
  Co  Co16  1  0.499993  0.000635  0.499955  1
  Co  Co17  1  0.068138  0.198036  0.267875  1
  Co  Co18  1  0.051480  0.811597  0.500143  1
  Si  Si19  1  0.290649  0.789292  0.834558  1
  Si  Si20  1  0.053109  0.545748  0.842166  1
  Si  Si21  1  0.540963  0.716597  0.499877  1
  Si  Si22  1  0.790664  0.954162  0.500085  1
  Si  Si23  1  0.444993  0.284479  0.499896  1
  Si  Si24  1  0.956258  0.454656  0.165497  1
  Si  Si25  1  0.710832  0.203698  0.157894  1
  Si  Si26  1  0.209568  0.046782  0.500119  1
  Os  Os27  1  0.689477  0.449808  0.499731  1
