# generated using pymatgen
data_Tb2Lu2AlCo4
_symmetry_space_group_name_H-M   'P 1'
_cell_length_a   5.45042681
_cell_length_b   5.45042716
_cell_length_c   8.83241802
_cell_angle_alpha   71.33110583
_cell_angle_beta   71.33110448
_cell_angle_gamma   42.92866800
_symmetry_Int_Tables_number   1
_chemical_formula_structural   Tb2Lu2AlCo4
_chemical_formula_sum   'Tb2 Lu2 Al1 Co4'
_cell_volume   167.80422981
_cell_formula_units_Z   1
loop_
 _symmetry_equiv_pos_site_id
 _symmetry_equiv_pos_as_xyz
  1  'x, y, z'
loop_
 _atom_site_type_symbol
 _atom_site_label
 _atom_site_symmetry_multiplicity
 _atom_site_fract_x
 _atom_site_fract_y
 _atom_site_fract_z
 _atom_site_occupancy
  Tb  Tb0  1  0.745447  0.745447  0.665756  1
  Tb  Tb1  1  0.254553  0.254553  0.334244  1
  Lu  Lu2  1  0.391549  0.391549  0.888643  1
  Lu  Lu3  1  0.608451  0.608451  0.111357  1
  Al  Al4  1  0.500000  0.500000  0.500000  1
  Co  Co5  1  0.036496  0.036496  0.647100  1
  Co  Co6  1  0.963504  0.963504  0.352900  1
  Co  Co7  1  0.094145  0.094145  0.883824  1
  Co  Co8  1  0.905855  0.905855  0.116176  1
