# generated using pymatgen
data_Zr4Mn3CrB16
_symmetry_space_group_name_H-M   'P 1'
_cell_length_a   5.79872963
_cell_length_b   11.21464122
_cell_length_c   3.30316600
_cell_angle_alpha   90.00000000
_cell_angle_beta   90.00000000
_cell_angle_gamma   90.05351775
_symmetry_Int_Tables_number   1
_chemical_formula_structural   Zr4Mn3CrB16
_chemical_formula_sum   'Zr4 Mn3 Cr1 B16'
_cell_volume   214.80701225
_cell_formula_units_Z   1
loop_
 _symmetry_equiv_pos_site_id
 _symmetry_equiv_pos_as_xyz
  1  'x, y, z'
loop_
 _atom_site_type_symbol
 _atom_site_label
 _atom_site_symmetry_multiplicity
 _atom_site_fract_x
 _atom_site_fract_y
 _atom_site_fract_z
 _atom_site_occupancy
  Zr  Zr0  1  0.627441  0.151404  0.000000  1
  Zr  Zr1  1  0.128120  0.351623  0.000000  1
  Zr  Zr2  1  0.872240  0.648803  0.000000  1
  Zr  Zr3  1  0.373255  0.849049  0.000000  1
  Mn  Mn4  1  0.631489  0.412064  0.000000  1
  Mn  Mn5  1  0.368305  0.588653  0.000000  1
  Mn  Mn6  1  0.869958  0.912214  0.000000  1
  Cr  Cr7  1  0.129000  0.086339  0.000000  1
  B  B8  1  0.366953  0.031474  0.500000  1
  B  B9  1  0.884080  0.046343  0.500000  1
  B  B10  1  0.288901  0.187278  0.500000  1
  B  B11  1  0.974356  0.194055  0.500000  1
  B  B12  1  0.476102  0.307863  0.500000  1
  B  B13  1  0.786816  0.314822  0.500000  1
  B  B14  1  0.386208  0.453487  0.500000  1
  B  B15  1  0.864937  0.468209  0.500000  1
  B  B16  1  0.134956  0.532306  0.500000  1
  B  B17  1  0.614208  0.547114  0.500000  1
  B  B18  1  0.212895  0.685651  0.500000  1
  B  B19  1  0.524951  0.692927  0.500000  1
  B  B20  1  0.023785  0.806104  0.500000  1
  B  B21  1  0.713258  0.813690  0.500000  1
  B  B22  1  0.113213  0.951633  0.500000  1
  B  B23  1  0.634565  0.966891  0.500000  1
