# generated using pymatgen
data_Ho3TmCo18(TcP6)2
_symmetry_space_group_name_H-M   'P 1'
_cell_length_a   3.67429500
_cell_length_b   10.30229311
_cell_length_c   11.75454913
_cell_angle_alpha   89.98299154
_cell_angle_beta   90.00000000
_cell_angle_gamma   90.00000000
_symmetry_Int_Tables_number   1
_chemical_formula_structural   Ho3TmCo18(TcP6)2
_chemical_formula_sum   'Ho3 Tm1 Co18 Tc2 P12'
_cell_volume   444.95273450
_cell_formula_units_Z   1
loop_
 _symmetry_equiv_pos_site_id
 _symmetry_equiv_pos_as_xyz
  1  'x, y, z'
loop_
 _atom_site_type_symbol
 _atom_site_label
 _atom_site_symmetry_multiplicity
 _atom_site_fract_x
 _atom_site_fract_y
 _atom_site_fract_z
 _atom_site_occupancy
  Ho  Ho0  1  0.250000  0.582356  0.702916  1
  Ho  Ho1  1  0.250000  0.917424  0.202904  1
  Ho  Ho2  1  0.750000  0.084820  0.795460  1
  Tm  Tm3  1  0.750000  0.415484  0.295635  1
  Co  Co4  1  0.750000  0.284617  0.009506  1
  Co  Co5  1  0.750000  0.215629  0.509412  1
  Co  Co6  1  0.250000  0.405872  0.487247  1
  Co  Co7  1  0.250000  0.094028  0.988102  1
  Co  Co8  1  0.750000  0.591544  0.510786  1
  Co  Co9  1  0.750000  0.908178  0.010971  1
  Co  Co10  1  0.250000  0.221321  0.176936  1
  Co  Co11  1  0.250000  0.279342  0.676643  1
  Co  Co12  1  0.750000  0.778434  0.822715  1
  Co  Co13  1  0.750000  0.721268  0.322627  1
  Co  Co14  1  0.250000  0.886159  0.701591  1
  Co  Co15  1  0.250000  0.613124  0.202102  1
  Co  Co16  1  0.750000  0.116960  0.300684  1
  Co  Co17  1  0.750000  0.383515  0.800921  1
  Co  Co18  1  0.250000  0.464057  0.932889  1
  Co  Co19  1  0.250000  0.036213  0.432379  1
  Co  Co20  1  0.750000  0.532228  0.069185  1
  Co  Co21  1  0.750000  0.967523  0.568491  1
  Tc  Tc22  1  0.250000  0.710365  0.989612  1
  Tc  Tc23  1  0.250000  0.789336  0.489159  1
  P  P24  1  0.250000  0.417410  0.113476  1
  P  P25  1  0.250000  0.082743  0.612505  1
  P  P26  1  0.750000  0.578405  0.886677  1
  P  P27  1  0.750000  0.921574  0.386373  1
  P  P28  1  0.250000  0.269315  0.868507  1
  P  P29  1  0.250000  0.231575  0.368147  1
  P  P30  1  0.750000  0.729568  0.133354  1
  P  P31  1  0.750000  0.770313  0.633262  1
  P  P32  1  0.250000  0.594824  0.390749  1
  P  P33  1  0.250000  0.904500  0.891005  1
  P  P34  1  0.750000  0.397681  0.608530  1
  P  P35  1  0.750000  0.102293  0.108545  1
