# generated using pymatgen
data_YEr7GePd24
_symmetry_space_group_name_H-M   'P 1'
_cell_length_a   8.31719868
_cell_length_b   8.31719836
_cell_length_c   8.31719900
_cell_angle_alpha   90.05388445
_cell_angle_beta   89.94611555
_cell_angle_gamma   89.94611114
_symmetry_Int_Tables_number   1
_chemical_formula_structural   YEr7GePd24
_chemical_formula_sum   'Y1 Er7 Ge1 Pd24'
_cell_volume   575.34805787
_cell_formula_units_Z   1
loop_
 _symmetry_equiv_pos_site_id
 _symmetry_equiv_pos_as_xyz
  1  'x, y, z'
loop_
 _atom_site_type_symbol
 _atom_site_label
 _atom_site_symmetry_multiplicity
 _atom_site_fract_x
 _atom_site_fract_y
 _atom_site_fract_z
 _atom_site_occupancy
  Y  Y0  1  0.746522  0.253478  0.253478  1
  Er  Er1  1  0.253880  0.253215  0.253215  1
  Er  Er2  1  0.746453  0.746757  0.746757  1
  Er  Er3  1  0.746785  0.746120  0.253215  1
  Er  Er4  1  0.746785  0.253215  0.746120  1
  Er  Er5  1  0.253243  0.253547  0.746757  1
  Er  Er6  1  0.253243  0.746757  0.253547  1
  Er  Er7  1  0.253480  0.746520  0.746520  1
  Ge  Ge8  1  0.999634  0.000366  0.000366  1
  Pd  Pd9  1  0.259663  0.500320  0.000078  1
  Pd  Pd10  1  0.740447  0.500629  0.998578  1
  Pd  Pd11  1  0.001422  0.259553  0.500629  1
  Pd  Pd12  1  0.499371  0.259553  0.998578  1
  Pd  Pd13  1  0.999922  0.740337  0.500320  1
  Pd  Pd14  1  0.499680  0.740337  0.000078  1
  Pd  Pd15  1  0.499371  0.998578  0.259553  1
  Pd  Pd16  1  0.259663  0.000078  0.500320  1
  Pd  Pd17  1  0.499680  0.000078  0.740337  1
  Pd  Pd18  1  0.740447  0.998578  0.500629  1
  Pd  Pd19  1  0.001422  0.500629  0.259553  1
  Pd  Pd20  1  0.999922  0.500320  0.740337  1
  Pd  Pd21  1  0.252820  0.500226  0.500226  1
  Pd  Pd22  1  0.747243  0.501252  0.501252  1
  Pd  Pd23  1  0.498748  0.252757  0.501252  1
  Pd  Pd24  1  0.499774  0.747180  0.500226  1
  Pd  Pd25  1  0.498748  0.501252  0.252757  1
  Pd  Pd26  1  0.499774  0.500226  0.747180  1
  Pd  Pd27  1  0.288379  0.999828  0.999828  1
  Pd  Pd28  1  0.710920  0.998894  0.998894  1
  Pd  Pd29  1  0.001106  0.289080  0.998894  1
  Pd  Pd30  1  0.000172  0.711621  0.999828  1
  Pd  Pd31  1  0.001106  0.998894  0.289080  1
  Pd  Pd32  1  0.000172  0.999828  0.711621  1
