# generated using pymatgen
data_Cs3K9(VSe4)4
_symmetry_space_group_name_H-M   'P 1'
_cell_length_a   9.96165688
_cell_length_b   10.05126594
_cell_length_c   10.94010400
_cell_angle_alpha   90.00000000
_cell_angle_beta   90.00000000
_cell_angle_gamma   89.25228506
_symmetry_Int_Tables_number   1
_chemical_formula_structural   Cs3K9(VSe4)4
_chemical_formula_sum   'Cs3 K9 V4 Se16'
_cell_volume   1095.30938999
_cell_formula_units_Z   1
loop_
 _symmetry_equiv_pos_site_id
 _symmetry_equiv_pos_as_xyz
  1  'x, y, z'
loop_
 _atom_site_type_symbol
 _atom_site_label
 _atom_site_symmetry_multiplicity
 _atom_site_fract_x
 _atom_site_fract_y
 _atom_site_fract_z
 _atom_site_occupancy
  Cs  Cs0  1  0.643712  0.404375  0.750000  1
  Cs  Cs1  1  0.143617  0.091657  0.750000  1
  Cs  Cs2  1  0.348176  0.594324  0.250000  1
  K  K3  1  0.880978  0.931894  0.250000  1
  K  K4  1  0.556854  0.201181  0.051581  1
  K  K5  1  0.054704  0.299449  0.452406  1
  K  K6  1  0.447040  0.795176  0.549025  1
  K  K7  1  0.941898  0.704455  0.953153  1
  K  K8  1  0.447040  0.795176  0.950975  1
  K  K9  1  0.941898  0.704455  0.546847  1
  K  K10  1  0.556854  0.201181  0.448419  1
  K  K11  1  0.054704  0.299449  0.047594  1
  V  V12  1  0.716789  0.977432  0.750000  1
  V  V13  1  0.214506  0.518711  0.750000  1
  V  V14  1  0.287209  0.017354  0.250000  1
  V  V15  1  0.779803  0.481737  0.250000  1
  Se  Se16  1  0.828367  0.041607  0.576727  1
  Se  Se17  1  0.326473  0.451600  0.922318  1
  Se  Se18  1  0.173344  0.950937  0.078689  1
  Se  Se19  1  0.664719  0.540970  0.422471  1
  Se  Se20  1  0.173344  0.950937  0.421311  1
  Se  Se21  1  0.664719  0.540970  0.077529  1
  Se  Se22  1  0.828367  0.041607  0.923273  1
  Se  Se23  1  0.326473  0.451600  0.577682  1
  Se  Se24  1  0.697866  0.750589  0.750000  1
  Se  Se25  1  0.196015  0.746222  0.750000  1
  Se  Se26  1  0.300931  0.245726  0.250000  1
  Se  Se27  1  0.810751  0.253541  0.250000  1
  Se  Se28  1  0.503049  0.068406  0.750000  1
  Se  Se29  1  0.001451  0.432028  0.750000  1
  Se  Se30  1  0.502750  0.929829  0.250000  1
  Se  Se31  1  0.985601  0.585423  0.250000  1
