# generated using pymatgen
data_Er3Tm2In4HgOs
_symmetry_space_group_name_H-M   'P 1'
_cell_length_a   3.56155200
_cell_length_b   8.30487235
_cell_length_c   18.40460576
_cell_angle_alpha   89.63347550
_cell_angle_beta   90.00000000
_cell_angle_gamma   90.00000000
_symmetry_Int_Tables_number   1
_chemical_formula_structural   Er3Tm2In4HgOs
_chemical_formula_sum   'Er6 Tm4 In8 Hg2 Os2'
_cell_volume   544.36461069
_cell_formula_units_Z   2
loop_
 _symmetry_equiv_pos_site_id
 _symmetry_equiv_pos_as_xyz
  1  'x, y, z'
loop_
 _atom_site_type_symbol
 _atom_site_label
 _atom_site_symmetry_multiplicity
 _atom_site_fract_x
 _atom_site_fract_y
 _atom_site_fract_z
 _atom_site_occupancy
  Er  Er0  1  0.000000  0.261654  0.215692  1
  Er  Er1  1  0.000000  0.738346  0.784308  1
  Er  Er2  1  0.000000  0.293733  0.724671  1
  Er  Er3  1  0.000000  0.706267  0.275329  1
  Er  Er4  1  0.000000  0.000000  0.000000  1
  Er  Er5  1  0.000000  0.500000  0.500000  1
  Tm  Tm6  1  0.000000  0.123333  0.423094  1
  Tm  Tm7  1  0.000000  0.876667  0.576906  1
  Tm  Tm8  1  0.000000  0.384675  0.916086  1
  Tm  Tm9  1  0.000000  0.615325  0.083914  1
  In  In10  1  0.500000  0.419907  0.351235  1
  In  In11  1  0.500000  0.580093  0.648765  1
  In  In12  1  0.500000  0.086996  0.853757  1
  In  In13  1  0.500000  0.913004  0.146243  1
  In  In14  1  0.500000  0.293474  0.066663  1
  In  In15  1  0.500000  0.706526  0.933337  1
  In  In16  1  0.500000  0.212280  0.568031  1
  In  In17  1  0.500000  0.787720  0.431969  1
  Hg  Hg18  1  0.500000  0.016893  0.300972  1
  Hg  Hg19  1  0.500000  0.983107  0.699028  1
  Os  Os20  1  0.500000  0.483757  0.807694  1
  Os  Os21  1  0.500000  0.516243  0.192306  1
