# generated using pymatgen
data_Ge(O2F3)2
_symmetry_space_group_name_H-M   'P 1'
_cell_length_a   5.30087036
_cell_length_b   6.98165408
_cell_length_c   5.65586349
_cell_angle_alpha   114.97535306
_cell_angle_beta   93.92219503
_cell_angle_gamma   114.02683268
_symmetry_Int_Tables_number   1
_chemical_formula_structural   Ge(O2F3)2
_chemical_formula_sum   'Ge1 O4 F6'
_cell_volume   165.84229184
_cell_formula_units_Z   1
loop_
 _symmetry_equiv_pos_site_id
 _symmetry_equiv_pos_as_xyz
  1  'x, y, z'
loop_
 _atom_site_type_symbol
 _atom_site_label
 _atom_site_symmetry_multiplicity
 _atom_site_fract_x
 _atom_site_fract_y
 _atom_site_fract_z
 _atom_site_occupancy
  Ge  Ge0  1  0.703330  0.266413  0.499199  1
  O  O1  1  0.143131  0.021902  0.880165  1
  O  O2  1  0.332748  0.993837  0.803098  1
  O  O3  1  0.342640  0.589680  0.109740  1
  O  O4  1  0.531521  0.666289  0.021954  1
  F  F5  1  0.696763  0.433977  0.860014  1
  F  F6  1  0.674932  0.057449  0.142999  1
  F  F7  1  0.025780  0.512837  0.539837  1
  F  F8  1  0.347985  0.995746  0.445626  1
  F  F9  1  0.890282  0.150396  0.629081  1
  F  F10  1  0.476100  0.354660  0.372446  1
