# generated using pymatgen
data_Ho3ThAl4Ru3Rh
_symmetry_space_group_name_H-M   'P 1'
_cell_length_a   4.04750300
_cell_length_b   7.02922472
_cell_length_c   8.17567055
_cell_angle_alpha   90.14530105
_cell_angle_beta   90.00000000
_cell_angle_gamma   90.00000000
_symmetry_Int_Tables_number   1
_chemical_formula_structural   Ho3ThAl4Ru3Rh
_chemical_formula_sum   'Ho3 Th1 Al4 Ru3 Rh1'
_cell_volume   232.60368626
_cell_formula_units_Z   1
loop_
 _symmetry_equiv_pos_site_id
 _symmetry_equiv_pos_as_xyz
  1  'x, y, z'
loop_
 _atom_site_type_symbol
 _atom_site_label
 _atom_site_symmetry_multiplicity
 _atom_site_fract_x
 _atom_site_fract_y
 _atom_site_fract_z
 _atom_site_occupancy
  Ho  Ho0  1  0.750000  0.462595  0.815999  1
  Ho  Ho1  1  0.750000  0.958884  0.680535  1
  Ho  Ho2  1  0.250000  0.036231  0.320067  1
  Th  Th3  1  0.250000  0.535555  0.179993  1
  Al  Al4  1  0.250000  0.636860  0.563340  1
  Al  Al5  1  0.750000  0.358410  0.445587  1
  Al  Al6  1  0.750000  0.875081  0.056670  1
  Al  Al7  1  0.250000  0.133726  0.938176  1
  Ru  Ru8  1  0.250000  0.764033  0.879824  1
  Ru  Ru9  1  0.750000  0.243479  0.123341  1
  Ru  Ru10  1  0.750000  0.730420  0.374639  1
  Rh  Rh11  1  0.250000  0.264727  0.621827  1
