# generated using pymatgen
data_Li2Th3SnBi2C
_symmetry_space_group_name_H-M   'P 1'
_cell_length_a   9.16648088
_cell_length_b   9.17999841
_cell_length_c   6.30120500
_cell_angle_alpha   90.00000000
_cell_angle_beta   90.00000000
_cell_angle_gamma   120.04878915
_symmetry_Int_Tables_number   1
_chemical_formula_structural   Li2Th3SnBi2C
_chemical_formula_sum   'Li4 Th6 Sn2 Bi4 C2'
_cell_volume   458.97154406
_cell_formula_units_Z   2
loop_
 _symmetry_equiv_pos_site_id
 _symmetry_equiv_pos_as_xyz
  1  'x, y, z'
loop_
 _atom_site_type_symbol
 _atom_site_label
 _atom_site_symmetry_multiplicity
 _atom_site_fract_x
 _atom_site_fract_y
 _atom_site_fract_z
 _atom_site_occupancy
  Li  Li0  1  0.661871  0.329839  0.991694  1
  Li  Li1  1  0.338129  0.667968  0.991694  1
  Li  Li2  1  0.338129  0.667968  0.508306  1
  Li  Li3  1  0.661871  0.329839  0.508306  1
  Th  Th4  1  0.768502  0.773721  0.750000  1
  Th  Th5  1  0.231498  0.005218  0.750000  1
  Th  Th6  1  0.000000  0.227467  0.750000  1
  Th  Th7  1  0.228494  0.228466  0.250000  1
  Th  Th8  1  0.771506  0.999972  0.250000  1
  Th  Th9  1  0.000000  0.775188  0.250000  1
  Sn  Sn10  1  0.406459  0.406878  0.750000  1
  Sn  Sn11  1  0.593541  0.000419  0.750000  1
  Bi  Bi12  1  0.000000  0.593240  0.750000  1
  Bi  Bi13  1  0.589392  0.588839  0.250000  1
  Bi  Bi14  1  0.410608  0.999447  0.250000  1
  Bi  Bi15  1  0.000000  0.409243  0.250000  1
  C  C16  1  0.000000  0.998146  0.002657  1
  C  C17  1  0.000000  0.998146  0.497343  1
