# generated using pymatgen
data_Te12PIrBr6
_symmetry_space_group_name_H-M   'P 1'
_cell_length_a   9.52746276
_cell_length_b   9.52746262
_cell_length_c   9.52746243
_cell_angle_alpha   108.82959558
_cell_angle_beta   108.82959209
_cell_angle_gamma   108.82957697
_symmetry_Int_Tables_number   1
_chemical_formula_structural   Te12PIrBr6
_chemical_formula_sum   'Te12 P1 Ir1 Br6'
_cell_volume   681.10426691
_cell_formula_units_Z   1
loop_
 _symmetry_equiv_pos_site_id
 _symmetry_equiv_pos_as_xyz
  1  'x, y, z'
loop_
 _atom_site_type_symbol
 _atom_site_label
 _atom_site_symmetry_multiplicity
 _atom_site_fract_x
 _atom_site_fract_y
 _atom_site_fract_z
 _atom_site_occupancy
  Te  Te0  1  0.914437  0.168366  0.190905  1
  Te  Te1  1  0.190905  0.914437  0.168366  1
  Te  Te2  1  0.168366  0.190905  0.914437  1
  Te  Te3  1  0.678993  0.667139  0.427369  1
  Te  Te4  1  0.427369  0.678993  0.667139  1
  Te  Te5  1  0.667139  0.427369  0.678993  1
  Te  Te6  1  0.072631  0.832861  0.821007  1
  Te  Te7  1  0.821007  0.072631  0.832861  1
  Te  Te8  1  0.832861  0.821007  0.072631  1
  Te  Te9  1  0.309095  0.331634  0.585563  1
  Te  Te10  1  0.585563  0.309095  0.331634  1
  Te  Te11  1  0.331634  0.585563  0.309095  1
  P  P12  1  0.250000  0.250000  0.250000  1
  Ir  Ir13  1  0.750000  0.750000  0.750000  1
  Br  Br14  1  0.984655  0.515345  0.250000  1
  Br  Br15  1  0.250000  0.984655  0.515345  1
  Br  Br16  1  0.515345  0.250000  0.984655  1
  Br  Br17  1  0.750000  0.013888  0.486112  1
  Br  Br18  1  0.486112  0.750000  0.013888  1
  Br  Br19  1  0.013888  0.486112  0.750000  1
