# generated using pymatgen
data_Th2Al8CoNi
_symmetry_space_group_name_H-M   'P 1'
_cell_length_a   8.07472880
_cell_length_b   8.07472907
_cell_length_c   6.69523200
_cell_angle_alpha   90.00000000
_cell_angle_beta   90.00000000
_cell_angle_gamma   150.10458004
_symmetry_Int_Tables_number   1
_chemical_formula_structural   Th2Al8CoNi
_chemical_formula_sum   'Th2 Al8 Co1 Ni1'
_cell_volume   217.57832949
_cell_formula_units_Z   1
loop_
 _symmetry_equiv_pos_site_id
 _symmetry_equiv_pos_as_xyz
  1  'x, y, z'
loop_
 _atom_site_type_symbol
 _atom_site_label
 _atom_site_symmetry_multiplicity
 _atom_site_fract_x
 _atom_site_fract_y
 _atom_site_fract_z
 _atom_site_occupancy
  Th  Th0  1  0.885290  0.114710  0.250000  1
  Th  Th1  1  0.114844  0.885156  0.750000  1
  Al  Al2  1  0.499344  0.500656  0.998471  1
  Al  Al3  1  0.499344  0.500656  0.501529  1
  Al  Al4  1  0.920354  0.079646  0.750000  1
  Al  Al5  1  0.080341  0.919659  0.250000  1
  Al  Al6  1  0.309404  0.690596  0.946133  1
  Al  Al7  1  0.691032  0.308968  0.058138  1
  Al  Al8  1  0.691032  0.308968  0.441862  1
  Al  Al9  1  0.309404  0.690596  0.553867  1
  Co  Co10  1  0.228363  0.771637  0.250000  1
  Ni  Ni11  1  0.771249  0.228751  0.750000  1
