# generated using pymatgen
data_Pr14IrPd5
_symmetry_space_group_name_H-M   'P 1'
_cell_length_a   10.27640700
_cell_length_b   10.27856854
_cell_length_c   6.52391405
_cell_angle_alpha   89.98727270
_cell_angle_beta   90.00000000
_cell_angle_gamma   119.99304694
_symmetry_Int_Tables_number   1
_chemical_formula_structural   Pr14IrPd5
_chemical_formula_sum   'Pr14 Ir1 Pd5'
_cell_volume   596.81977520
_cell_formula_units_Z   1
loop_
 _symmetry_equiv_pos_site_id
 _symmetry_equiv_pos_as_xyz
  1  'x, y, z'
loop_
 _atom_site_type_symbol
 _atom_site_label
 _atom_site_symmetry_multiplicity
 _atom_site_fract_x
 _atom_site_fract_y
 _atom_site_fract_z
 _atom_site_occupancy
  Pr  Pr0  1  0.331346  0.662694  0.461850  1
  Pr  Pr1  1  0.666547  0.333094  0.951729  1
  Pr  Pr2  1  0.126100  0.872908  0.242660  1
  Pr  Pr3  1  0.746809  0.872908  0.242660  1
  Pr  Pr4  1  0.127948  0.255895  0.251615  1
  Pr  Pr5  1  0.880791  0.131405  0.740430  1
  Pr  Pr6  1  0.250613  0.131405  0.740430  1
  Pr  Pr7  1  0.872474  0.744948  0.739085  1
  Pr  Pr8  1  0.536270  0.459884  0.445076  1
  Pr  Pr9  1  0.923614  0.459884  0.445076  1
  Pr  Pr10  1  0.537703  0.075406  0.448498  1
  Pr  Pr11  1  0.456074  0.535669  0.943175  1
  Pr  Pr12  1  0.079595  0.535669  0.943175  1
  Pr  Pr13  1  0.462427  0.924854  0.948971  1
  Ir  Ir14  1  0.189250  0.378499  0.689859  1
  Pd  Pd15  1  0.810152  0.187826  0.193080  1
  Pd  Pd16  1  0.377674  0.187826  0.193080  1
  Pd  Pd17  1  0.811247  0.622495  0.193269  1
  Pd  Pd18  1  0.189023  0.813366  0.694186  1
  Pd  Pd19  1  0.624343  0.813366  0.694186  1
