# generated using pymatgen
data_NpIBr2
_symmetry_space_group_name_H-M   'P 1'
_cell_length_a   7.61008577
_cell_length_b   7.61008555
_cell_length_c   9.56721446
_cell_angle_alpha   88.95201859
_cell_angle_beta   91.04798121
_cell_angle_gamma   148.12398304
_symmetry_Int_Tables_number   1
_chemical_formula_structural   NpIBr2
_chemical_formula_sum   'Np2 I2 Br4'
_cell_volume   292.54194676
_cell_formula_units_Z   2
loop_
 _symmetry_equiv_pos_site_id
 _symmetry_equiv_pos_as_xyz
  1  'x, y, z'
loop_
 _atom_site_type_symbol
 _atom_site_label
 _atom_site_symmetry_multiplicity
 _atom_site_fract_x
 _atom_site_fract_y
 _atom_site_fract_z
 _atom_site_occupancy
  Np  Np0  1  0.737896  0.262104  0.758333  1
  Np  Np1  1  0.262104  0.737896  0.241667  1
  I  I2  1  0.352682  0.647318  0.568696  1
  I  I3  1  0.647318  0.352682  0.431304  1
  Br  Br4  1  0.099404  0.900596  0.756599  1
  Br  Br5  1  0.900596  0.099404  0.243401  1
  Br  Br6  1  0.660437  0.339563  0.066115  1
  Br  Br7  1  0.339563  0.660437  0.933885  1
