# generated using pymatgen
data_PrNd(Lu4Pb3)2
_symmetry_space_group_name_H-M   'P 1'
_cell_length_a   9.01557772
_cell_length_b   8.92607189
_cell_length_c   6.57521900
_cell_angle_alpha   90.00000000
_cell_angle_beta   90.00000000
_cell_angle_gamma   119.67212098
_symmetry_Int_Tables_number   1
_chemical_formula_structural   PrNd(Lu4Pb3)2
_chemical_formula_sum   'Pr1 Nd1 Lu8 Pb6'
_cell_volume   459.74838487
_cell_formula_units_Z   1
loop_
 _symmetry_equiv_pos_site_id
 _symmetry_equiv_pos_as_xyz
  1  'x, y, z'
loop_
 _atom_site_type_symbol
 _atom_site_label
 _atom_site_symmetry_multiplicity
 _atom_site_fract_x
 _atom_site_fract_y
 _atom_site_fract_z
 _atom_site_occupancy
  Pr  Pr0  1  0.000000  0.769826  0.250000  1
  Nd  Nd1  1  0.000000  0.230305  0.750000  1
  Lu  Lu2  1  0.670487  0.335332  0.000010  1
  Lu  Lu3  1  0.329513  0.664845  0.000010  1
  Lu  Lu4  1  0.329513  0.664845  0.499990  1
  Lu  Lu5  1  0.670487  0.335332  0.499990  1
  Lu  Lu6  1  0.760222  0.763163  0.750000  1
  Lu  Lu7  1  0.239778  0.002941  0.750000  1
  Lu  Lu8  1  0.239309  0.236612  0.250000  1
  Lu  Lu9  1  0.760691  0.997303  0.250000  1
  Pb  Pb10  1  0.403259  0.399006  0.750000  1
  Pb  Pb11  1  0.596741  0.995746  0.750000  1
  Pb  Pb12  1  0.000000  0.609122  0.750000  1
  Pb  Pb13  1  0.594845  0.599915  0.250000  1
  Pb  Pb14  1  0.405155  0.005069  0.250000  1
  Pb  Pb15  1  0.000000  0.390641  0.250000  1
