# generated using pymatgen
data_Ba5Y8Ni4O21
_symmetry_space_group_name_H-M   'P 1'
_cell_length_a   10.21360800
_cell_length_b   10.21360761
_cell_length_c   10.21360762
_cell_angle_alpha   94.53674954
_cell_angle_beta   94.53675166
_cell_angle_gamma   147.33100212
_symmetry_Int_Tables_number   1
_chemical_formula_structural   Ba5Y8Ni4O21
_chemical_formula_sum   'Ba5 Y8 Ni4 O21'
_cell_volume   551.90565723
_cell_formula_units_Z   1
loop_
 _symmetry_equiv_pos_site_id
 _symmetry_equiv_pos_as_xyz
  1  'x, y, z'
loop_
 _atom_site_type_symbol
 _atom_site_label
 _atom_site_symmetry_multiplicity
 _atom_site_fract_x
 _atom_site_fract_y
 _atom_site_fract_z
 _atom_site_occupancy
  Ba  Ba0  1  0.000000  0.000000  0.000000  1
  Ba  Ba1  1  0.138271  0.534769  0.673039  1
  Ba  Ba2  1  0.861729  0.465231  0.326961  1
  Ba  Ba3  1  0.465231  0.138271  0.603502  1
  Ba  Ba4  1  0.534769  0.861729  0.396498  1
  Y  Y5  1  0.166846  0.249846  0.416692  1
  Y  Y6  1  0.833154  0.750154  0.583308  1
  Y  Y7  1  0.750154  0.166846  0.917000  1
  Y  Y8  1  0.249846  0.833154  0.083000  1
  Y  Y9  1  0.357642  0.410583  0.768225  1
  Y  Y10  1  0.642358  0.589417  0.231775  1
  Y  Y11  1  0.589417  0.357642  0.947059  1
  Y  Y12  1  0.410583  0.642358  0.052941  1
  Ni  Ni13  1  0.246487  0.040934  0.287422  1
  Ni  Ni14  1  0.753513  0.959066  0.712578  1
  Ni  Ni15  1  0.959066  0.246487  0.205553  1
  Ni  Ni16  1  0.040934  0.753513  0.794447  1
  O  O17  1  0.500000  0.500000  0.000000  1
  O  O18  1  0.963001  0.630080  0.593081  1
  O  O19  1  0.036999  0.369920  0.406919  1
  O  O20  1  0.369920  0.963001  0.332923  1
  O  O21  1  0.630080  0.036999  0.667077  1
  O  O22  1  0.295351  0.427567  0.225784  1
  O  O23  1  0.201783  0.069566  0.774216  1
  O  O24  1  0.069566  0.295351  0.867784  1
  O  O25  1  0.427567  0.201783  0.132216  1
  O  O26  1  0.704649  0.572433  0.774216  1
  O  O27  1  0.798217  0.930434  0.225784  1
  O  O28  1  0.930434  0.704649  0.132216  1
  O  O29  1  0.572433  0.798217  0.867784  1
  O  O30  1  0.496636  0.607503  0.595093  1
  O  O31  1  0.012411  0.901544  0.404907  1
  O  O32  1  0.901544  0.496636  0.889133  1
  O  O33  1  0.607503  0.012411  0.110867  1
  O  O34  1  0.503364  0.392497  0.404907  1
  O  O35  1  0.987589  0.098456  0.595093  1
  O  O36  1  0.098456  0.503364  0.110867  1
  O  O37  1  0.392497  0.987589  0.889133  1
