# generated using pymatgen
data_Rb4Ga2O5
_symmetry_space_group_name_H-M   'P 1'
_cell_length_a   9.57502155
_cell_length_b   9.57502105
_cell_length_c   7.40941885
_cell_angle_alpha   84.77823181
_cell_angle_beta   84.77823025
_cell_angle_gamma   135.86240646
_symmetry_Int_Tables_number   1
_chemical_formula_structural   Rb4Ga2O5
_chemical_formula_sum   'Rb8 Ga4 O10'
_cell_volume   458.96748351
_cell_formula_units_Z   2
loop_
 _symmetry_equiv_pos_site_id
 _symmetry_equiv_pos_as_xyz
  1  'x, y, z'
loop_
 _atom_site_type_symbol
 _atom_site_label
 _atom_site_symmetry_multiplicity
 _atom_site_fract_x
 _atom_site_fract_y
 _atom_site_fract_z
 _atom_site_occupancy
  Rb  Rb0  1  0.467659  0.532341  0.250000  1
  Rb  Rb1  1  0.532341  0.467659  0.750000  1
  Rb  Rb2  1  0.017650  0.982350  0.250000  1
  Rb  Rb3  1  0.982350  0.017650  0.750000  1
  Rb  Rb4  1  0.829217  0.471654  0.384172  1
  Rb  Rb5  1  0.528346  0.170783  0.115828  1
  Rb  Rb6  1  0.170783  0.528346  0.615828  1
  Rb  Rb7  1  0.471654  0.829217  0.884172  1
  Ga  Ga8  1  0.994803  0.307347  0.096464  1
  Ga  Ga9  1  0.692653  0.005197  0.403536  1
  Ga  Ga10  1  0.005197  0.692653  0.903536  1
  Ga  Ga11  1  0.307347  0.994803  0.596464  1
  O  O12  1  0.971642  0.278667  0.362495  1
  O  O13  1  0.721333  0.028358  0.137505  1
  O  O14  1  0.028358  0.721333  0.637505  1
  O  O15  1  0.278667  0.971642  0.862495  1
  O  O16  1  0.000000  0.500000  0.000000  1
  O  O17  1  0.500000  0.000000  0.500000  1
  O  O18  1  0.798069  0.641438  0.037627  1
  O  O19  1  0.358562  0.201931  0.462373  1
  O  O20  1  0.201931  0.358562  0.962373  1
  O  O21  1  0.641438  0.798069  0.537627  1
