# generated using pymatgen
data_TaCdCu(Ni10B3)2
_symmetry_space_group_name_H-M   'P 1'
_cell_length_a   7.46594851
_cell_length_b   7.46702703
_cell_length_c   7.46480200
_cell_angle_alpha   60.00985665
_cell_angle_beta   60.00507976
_cell_angle_gamma   59.99347432
_symmetry_Int_Tables_number   1
_chemical_formula_structural   TaCdCu(Ni10B3)2
_chemical_formula_sum   'Ta1 Cd1 Cu1 Ni20 B6'
_cell_volume   294.28192913
_cell_formula_units_Z   1
loop_
 _symmetry_equiv_pos_site_id
 _symmetry_equiv_pos_as_xyz
  1  'x, y, z'
loop_
 _atom_site_type_symbol
 _atom_site_label
 _atom_site_symmetry_multiplicity
 _atom_site_fract_x
 _atom_site_fract_y
 _atom_site_fract_z
 _atom_site_occupancy
  Ta  Ta0  1  0.249924  0.250039  0.250018  1
  Cd  Cd1  1  0.750138  0.749893  0.749985  1
  Cu  Cu2  1  0.999957  0.000077  0.999984  1
  Ni  Ni3  1  0.611471  0.611614  0.165224  1
  Ni  Ni4  1  0.611622  0.165345  0.611516  1
  Ni  Ni5  1  0.165025  0.611742  0.611617  1
  Ni  Ni6  1  0.611471  0.611614  0.611690  1
  Ni  Ni7  1  0.382961  0.382918  0.851263  1
  Ni  Ni8  1  0.382851  0.851207  0.382971  1
  Ni  Ni9  1  0.851450  0.382767  0.382891  1
  Ni  Ni10  1  0.382961  0.382918  0.382858  1
  Ni  Ni11  1  0.002646  0.002581  0.336555  1
  Ni  Ni12  1  0.658129  0.002652  0.336580  1
  Ni  Ni13  1  0.002657  0.658171  0.336497  1
  Ni  Ni14  1  0.658371  0.336626  0.002501  1
  Ni  Ni15  1  0.002691  0.336555  0.002604  1
  Ni  Ni16  1  0.002691  0.336555  0.658150  1
  Ni  Ni17  1  0.336490  0.658121  0.002695  1
  Ni  Ni18  1  0.336516  0.002660  0.658094  1
  Ni  Ni19  1  0.336516  0.002660  0.002730  1
  Ni  Ni20  1  0.002646  0.002581  0.658218  1
  Ni  Ni21  1  0.002657  0.658171  0.002674  1
  Ni  Ni22  1  0.658129  0.002652  0.002640  1
  B  B23  1  0.729364  0.729370  0.270632  1
  B  B24  1  0.270514  0.729414  0.270563  1
  B  B25  1  0.729512  0.270535  0.270491  1
  B  B26  1  0.270618  0.270611  0.729386  1
  B  B27  1  0.729512  0.270535  0.729462  1
  B  B28  1  0.270514  0.729414  0.729509  1
