# generated using pymatgen
data_Dy4Co16Mo3P12W
_symmetry_space_group_name_H-M   'P 1'
_cell_length_a   3.71086500
_cell_length_b   10.43426430
_cell_length_c   11.88211634
_cell_angle_alpha   90.02747671
_cell_angle_beta   90.00000000
_cell_angle_gamma   90.00000000
_symmetry_Int_Tables_number   1
_chemical_formula_structural   Dy4Co16Mo3P12W
_chemical_formula_sum   'Dy4 Co16 Mo3 P12 W1'
_cell_volume   460.07722891
_cell_formula_units_Z   1
loop_
 _symmetry_equiv_pos_site_id
 _symmetry_equiv_pos_as_xyz
  1  'x, y, z'
loop_
 _atom_site_type_symbol
 _atom_site_label
 _atom_site_symmetry_multiplicity
 _atom_site_fract_x
 _atom_site_fract_y
 _atom_site_fract_z
 _atom_site_occupancy
  Dy  Dy0  1  0.250000  0.582914  0.704101  1
  Dy  Dy1  1  0.250000  0.917137  0.204343  1
  Dy  Dy2  1  0.750000  0.417144  0.295726  1
  Dy  Dy3  1  0.750000  0.083002  0.795750  1
  Co  Co4  1  0.250000  0.406062  0.489299  1
  Co  Co5  1  0.250000  0.093962  0.989281  1
  Co  Co6  1  0.750000  0.593941  0.510763  1
  Co  Co7  1  0.750000  0.905480  0.010987  1
  Co  Co8  1  0.250000  0.221630  0.177779  1
  Co  Co9  1  0.250000  0.278255  0.677735  1
  Co  Co10  1  0.750000  0.777660  0.822595  1
  Co  Co11  1  0.750000  0.721839  0.322147  1
  Co  Co12  1  0.250000  0.887117  0.700365  1
  Co  Co13  1  0.250000  0.612871  0.200337  1
  Co  Co14  1  0.750000  0.112924  0.299451  1
  Co  Co15  1  0.750000  0.387151  0.799511  1
  Co  Co16  1  0.250000  0.465920  0.933124  1
  Co  Co17  1  0.250000  0.034299  0.432907  1
  Co  Co18  1  0.750000  0.534528  0.066976  1
  Co  Co19  1  0.750000  0.965685  0.567018  1
  Mo  Mo20  1  0.250000  0.791463  0.487639  1
  Mo  Mo21  1  0.750000  0.291531  0.012361  1
  Mo  Mo22  1  0.750000  0.208569  0.512405  1
  P  P23  1  0.250000  0.419989  0.115433  1
  P  P24  1  0.250000  0.079579  0.615187  1
  P  P25  1  0.750000  0.579518  0.884515  1
  P  P26  1  0.750000  0.920443  0.384799  1
  P  P27  1  0.250000  0.269052  0.864809  1
  P  P28  1  0.250000  0.230790  0.364836  1
  P  P29  1  0.750000  0.731047  0.135240  1
  P  P30  1  0.750000  0.769288  0.635166  1
  P  P31  1  0.250000  0.595533  0.391329  1
  P  P32  1  0.250000  0.904969  0.890954  1
  P  P33  1  0.750000  0.404339  0.608747  1
  P  P34  1  0.750000  0.095714  0.108744  1
  W  W35  1  0.250000  0.708655  0.987641  1
