# generated using pymatgen
data_DyY2Cd3Ga2Au
_symmetry_space_group_name_H-M   'P 1'
_cell_length_a   7.38722500
_cell_length_b   7.38745551
_cell_length_c   4.34681200
_cell_angle_alpha   90.00000000
_cell_angle_beta   90.00000000
_cell_angle_gamma   120.00103375
_symmetry_Int_Tables_number   1
_chemical_formula_structural   DyY2Cd3Ga2Au
_chemical_formula_sum   'Dy1 Y2 Cd3 Ga2 Au1'
_cell_volume   205.43440117
_cell_formula_units_Z   1
loop_
 _symmetry_equiv_pos_site_id
 _symmetry_equiv_pos_as_xyz
  1  'x, y, z'
loop_
 _atom_site_type_symbol
 _atom_site_label
 _atom_site_symmetry_multiplicity
 _atom_site_fract_x
 _atom_site_fract_y
 _atom_site_fract_z
 _atom_site_occupancy
  Dy  Dy0  1  0.000000  0.586657  0.500000  1
  Y  Y1  1  0.413415  0.413418  0.500000  1
  Y  Y2  1  0.586585  0.000003  0.500000  1
  Cd  Cd3  1  0.745222  0.745195  0.000000  1
  Cd  Cd4  1  0.254778  0.999974  0.000000  1
  Cd  Cd5  1  0.000000  0.254847  0.000000  1
  Ga  Ga6  1  0.666781  0.333433  0.000000  1
  Ga  Ga7  1  0.333219  0.666653  0.000000  1
  Au  Au8  1  0.000000  0.999820  0.500000  1
