# generated using pymatgen
data_ErTa5TiSn6
_symmetry_space_group_name_H-M   'P 1'
_cell_length_a   5.76407696
_cell_length_b   5.76407830
_cell_length_c   9.60951600
_cell_angle_alpha   90.00000000
_cell_angle_beta   90.00000000
_cell_angle_gamma   120.09440243
_symmetry_Int_Tables_number   1
_chemical_formula_structural   ErTa5TiSn6
_chemical_formula_sum   'Er1 Ta5 Ti1 Sn6'
_cell_volume   276.23447170
_cell_formula_units_Z   1
loop_
 _symmetry_equiv_pos_site_id
 _symmetry_equiv_pos_as_xyz
  1  'x, y, z'
loop_
 _atom_site_type_symbol
 _atom_site_label
 _atom_site_symmetry_multiplicity
 _atom_site_fract_x
 _atom_site_fract_y
 _atom_site_fract_z
 _atom_site_occupancy
  Er  Er0  1  0.000000  0.000000  0.001696  1
  Ta  Ta1  1  0.500000  0.000000  0.750646  1
  Ta  Ta2  1  0.000000  0.500000  0.750646  1
  Ta  Ta3  1  0.500000  0.500000  0.250412  1
  Ta  Ta4  1  0.500000  0.000000  0.247468  1
  Ta  Ta5  1  0.000000  0.500000  0.247468  1
  Ti  Ti6  1  0.500000  0.500000  0.751109  1
  Sn  Sn7  1  0.665409  0.334591  0.998476  1
  Sn  Sn8  1  0.334591  0.665409  0.998476  1
  Sn  Sn9  1  0.665590  0.334410  0.500589  1
  Sn  Sn10  1  0.334410  0.665590  0.500589  1
  Sn  Sn11  1  0.000000  0.000000  0.672084  1
  Sn  Sn12  1  0.000000  0.000000  0.330340  1
