# generated using pymatgen
data_Y3PaAl18PtRh5
_symmetry_space_group_name_H-M   'P 1'
_cell_length_a   7.59382804
_cell_length_b   7.58655724
_cell_length_c   9.43663518
_cell_angle_alpha   90.02022975
_cell_angle_beta   89.99848824
_cell_angle_gamma   119.53365239
_symmetry_Int_Tables_number   1
_chemical_formula_structural   Y3PaAl18PtRh5
_chemical_formula_sum   'Y3 Pa1 Al18 Pt1 Rh5'
_cell_volume   473.01508269
_cell_formula_units_Z   1
loop_
 _symmetry_equiv_pos_site_id
 _symmetry_equiv_pos_as_xyz
  1  'x, y, z'
loop_
 _atom_site_type_symbol
 _atom_site_label
 _atom_site_symmetry_multiplicity
 _atom_site_fract_x
 _atom_site_fract_y
 _atom_site_fract_z
 _atom_site_occupancy
  Y  Y0  1  0.005007  0.328390  0.750018  1
  Y  Y1  1  0.672392  0.994588  0.249941  1
  Y  Y2  1  0.329760  0.005715  0.749842  1
  Pa  Pa3  1  0.995769  0.672151  0.250989  1
  Al  Al4  1  0.132438  0.130085  0.250257  1
  Al  Al5  1  0.873417  0.874038  0.749473  1
  Al  Al6  1  0.003539  0.333452  0.076023  1
  Al  Al7  1  0.002608  0.667793  0.921472  1
  Al  Al8  1  0.999853  0.664147  0.578095  1
  Al  Al9  1  0.338980  0.002734  0.425347  1
  Al  Al10  1  0.000410  0.332878  0.425276  1
  Al  Al11  1  0.664947  0.000107  0.575967  1
  Al  Al12  1  0.664835  0.996464  0.922930  1
  Al  Al13  1  0.334976  0.999841  0.075747  1
  Al  Al14  1  0.331614  0.331789  0.553117  1
  Al  Al15  1  0.664137  0.666402  0.451139  1
  Al  Al16  1  0.663673  0.668431  0.051105  1
  Al  Al17  1  0.329562  0.332648  0.945117  1
  Al  Al18  1  0.339423  0.548742  0.250255  1
  Al  Al19  1  0.658580  0.450541  0.746696  1
  Al  Al20  1  0.547371  0.343956  0.252837  1
  Al  Al21  1  0.448810  0.659635  0.749427  1
  Pt  Pt22  1  0.673377  0.328443  0.001275  1
  Rh  Rh23  1  0.326371  0.671906  0.001708  1
  Rh  Rh24  1  0.326370  0.671744  0.497991  1
  Rh  Rh25  1  0.673438  0.329340  0.498195  1
  Rh  Rh26  1  0.999117  0.997208  0.002718  1
  Rh  Rh27  1  0.999228  0.996833  0.497043  1
