# generated using pymatgen
data_Sc4Bi3Te
_symmetry_space_group_name_H-M   'P 1'
_cell_length_a   4.27060100
_cell_length_b   4.27060079
_cell_length_c   13.74335800
_cell_angle_alpha   90.00000000
_cell_angle_beta   90.00000000
_cell_angle_gamma   119.99999389
_symmetry_Int_Tables_number   1
_chemical_formula_structural   Sc4Bi3Te
_chemical_formula_sum   'Sc4 Bi3 Te1'
_cell_volume   217.07084224
_cell_formula_units_Z   1
loop_
 _symmetry_equiv_pos_site_id
 _symmetry_equiv_pos_as_xyz
  1  'x, y, z'
loop_
 _atom_site_type_symbol
 _atom_site_label
 _atom_site_symmetry_multiplicity
 _atom_site_fract_x
 _atom_site_fract_y
 _atom_site_fract_z
 _atom_site_occupancy
  Sc  Sc0  1  0.333333  0.666667  0.876169  1
  Sc  Sc1  1  0.666667  0.333333  0.121898  1
  Sc  Sc2  1  0.666667  0.333333  0.378102  1
  Sc  Sc3  1  0.333333  0.666667  0.623831  1
  Bi  Bi4  1  0.333333  0.666667  0.250000  1
  Bi  Bi5  1  0.000000  0.000000  0.501027  1
  Bi  Bi6  1  0.000000  0.000000  0.998973  1
  Te  Te7  1  0.666667  0.333333  0.750000  1
