# generated using pymatgen
data_Pr2GaCu2Ni2Sn3
_symmetry_space_group_name_H-M   'P 1'
_cell_length_a   4.42195700
_cell_length_b   4.42195700
_cell_length_c   10.33676900
_cell_angle_alpha   90.00000000
_cell_angle_beta   90.00000000
_cell_angle_gamma   90.00000000
_symmetry_Int_Tables_number   1
_chemical_formula_structural   Pr2GaCu2Ni2Sn3
_chemical_formula_sum   'Pr2 Ga1 Cu2 Ni2 Sn3'
_cell_volume   202.12211834
_cell_formula_units_Z   1
loop_
 _symmetry_equiv_pos_site_id
 _symmetry_equiv_pos_as_xyz
  1  'x, y, z'
loop_
 _atom_site_type_symbol
 _atom_site_label
 _atom_site_symmetry_multiplicity
 _atom_site_fract_x
 _atom_site_fract_y
 _atom_site_fract_z
 _atom_site_occupancy
  Pr  Pr0  1  0.500000  0.000000  0.749818  1
  Pr  Pr1  1  0.000000  0.500000  0.250182  1
  Ga  Ga2  1  0.500000  0.500000  0.500000  1
  Cu  Cu3  1  0.000000  0.000000  0.000000  1
  Cu  Cu4  1  0.500000  0.500000  0.000000  1
  Ni  Ni5  1  0.000000  0.500000  0.616141  1
  Ni  Ni6  1  0.500000  0.000000  0.383859  1
  Sn  Sn7  1  0.000000  0.500000  0.859238  1
  Sn  Sn8  1  0.500000  0.000000  0.140762  1
  Sn  Sn9  1  0.000000  0.000000  0.500000  1
