# generated using pymatgen
data_Ho5Tm3(OsI4)2
_symmetry_space_group_name_H-M   'P 1'
_cell_length_a   11.31074287
_cell_length_b   11.31493193
_cell_length_c   6.14817377
_cell_angle_alpha   89.27310927
_cell_angle_beta   89.27042192
_cell_angle_gamma   88.65406319
_symmetry_Int_Tables_number   1
_chemical_formula_structural   Ho5Tm3(OsI4)2
_chemical_formula_sum   'Ho5 Tm3 Os2 I8'
_cell_volume   786.50377937
_cell_formula_units_Z   1
loop_
 _symmetry_equiv_pos_site_id
 _symmetry_equiv_pos_as_xyz
  1  'x, y, z'
loop_
 _atom_site_type_symbol
 _atom_site_label
 _atom_site_symmetry_multiplicity
 _atom_site_fract_x
 _atom_site_fract_y
 _atom_site_fract_z
 _atom_site_occupancy
  Ho  Ho0  1  0.198545  0.916887  0.995892  1
  Ho  Ho1  1  0.802192  0.083585  0.004073  1
  Ho  Ho2  1  0.083526  0.801792  0.504053  1
  Ho  Ho3  1  0.917036  0.198454  0.495864  1
  Ho  Ho4  1  0.803782  0.920940  0.506582  1
  Tm  Tm5  1  0.192847  0.077792  0.493452  1
  Tm  Tm6  1  0.077989  0.192701  0.993415  1
  Tm  Tm7  1  0.922894  0.807459  0.006512  1
  Os  Os8  1  0.000217  0.999862  0.250179  1
  Os  Os9  1  0.999873  0.000178  0.749824  1
  I  I10  1  0.356660  0.849679  0.511192  1
  I  I11  1  0.643238  0.151598  0.488699  1
  I  I12  1  0.150306  0.643533  0.988826  1
  I  I13  1  0.849795  0.356481  0.011174  1
  I  I14  1  0.351345  0.145626  0.996057  1
  I  I15  1  0.648935  0.854458  0.004242  1
  I  I16  1  0.855139  0.647618  0.503928  1
  I  I17  1  0.145683  0.351356  0.496036  1
