# generated using pymatgen
data_Lu3ZnIn2Au3
_symmetry_space_group_name_H-M   'P 1'
_cell_length_a   7.77643700
_cell_length_b   7.81834733
_cell_length_c   3.66881500
_cell_angle_alpha   90.00000000
_cell_angle_beta   90.00000000
_cell_angle_gamma   119.82282939
_symmetry_Int_Tables_number   1
_chemical_formula_structural   Lu3ZnIn2Au3
_chemical_formula_sum   'Lu3 Zn1 In2 Au3'
_cell_volume   193.51945777
_cell_formula_units_Z   1
loop_
 _symmetry_equiv_pos_site_id
 _symmetry_equiv_pos_as_xyz
  1  'x, y, z'
loop_
 _atom_site_type_symbol
 _atom_site_label
 _atom_site_symmetry_multiplicity
 _atom_site_fract_x
 _atom_site_fract_y
 _atom_site_fract_z
 _atom_site_occupancy
  Lu  Lu0  1  0.416874  0.000000  0.500000  1
  Lu  Lu1  1  0.991226  0.388087  0.500000  1
  Lu  Lu2  1  0.603139  0.611913  0.500000  1
  Zn  Zn3  1  0.727289  0.000000  0.000000  1
  In  In4  1  0.003082  0.735109  0.000000  1
  In  In5  1  0.267973  0.264891  0.000000  1
  Au  Au6  1  0.340031  0.670069  0.000000  1
  Au  Au7  1  0.669963  0.329931  0.000000  1
  Au  Au8  1  0.980423  0.000000  0.500000  1
