# generated using pymatgen
data_Yb4Mn(Si2Pt)5
_symmetry_space_group_name_H-M   'P 1'
_cell_length_a   8.20448394
_cell_length_b   8.20448440
_cell_length_c   5.80117155
_cell_angle_alpha   69.35534475
_cell_angle_beta   69.35535205
_cell_angle_gamma   90.52872977
_symmetry_Int_Tables_number   1
_chemical_formula_structural   Yb4Mn(Si2Pt)5
_chemical_formula_sum   'Yb4 Mn1 Si10 Pt5'
_cell_volume   337.95704128
_cell_formula_units_Z   1
loop_
 _symmetry_equiv_pos_site_id
 _symmetry_equiv_pos_as_xyz
  1  'x, y, z'
loop_
 _atom_site_type_symbol
 _atom_site_label
 _atom_site_symmetry_multiplicity
 _atom_site_fract_x
 _atom_site_fract_y
 _atom_site_fract_z
 _atom_site_occupancy
  Yb  Yb0  1  0.862382  0.599530  0.764620  1
  Yb  Yb1  1  0.400470  0.137618  0.735380  1
  Yb  Yb2  1  0.137564  0.400097  0.227253  1
  Yb  Yb3  1  0.599903  0.862436  0.272747  1
  Mn  Mn4  1  0.000112  0.999888  0.750000  1
  Si  Si5  1  0.778874  0.221126  0.750000  1
  Si  Si6  1  0.222432  0.777568  0.250000  1
  Si  Si7  1  0.500402  0.499598  0.750000  1
  Si  Si8  1  0.500120  0.499880  0.250000  1
  Si  Si9  1  0.220893  0.779107  0.750000  1
  Si  Si10  1  0.777179  0.222821  0.250000  1
  Si  Si11  1  0.046494  0.253608  0.829437  1
  Si  Si12  1  0.253517  0.046286  0.370753  1
  Si  Si13  1  0.953714  0.746483  0.129247  1
  Si  Si14  1  0.746392  0.953506  0.670563  1
  Pt  Pt15  1  0.524875  0.245547  0.114757  1
  Pt  Pt16  1  0.999684  0.000316  0.250000  1
  Pt  Pt17  1  0.245837  0.525297  0.614688  1
  Pt  Pt18  1  0.474703  0.754163  0.885312  1
  Pt  Pt19  1  0.754453  0.475125  0.385243  1
