# generated using pymatgen
data_Be3(Co2B)2
_symmetry_space_group_name_H-M   'P 1'
_cell_length_a   7.59949000
_cell_length_b   7.59949000
_cell_length_c   2.60135600
_cell_angle_alpha   90.00000000
_cell_angle_beta   90.00000000
_cell_angle_gamma   90.00000000
_symmetry_Int_Tables_number   1
_chemical_formula_structural   Be3(Co2B)2
_chemical_formula_sum   'Be6 Co8 B4'
_cell_volume   150.23415752
_cell_formula_units_Z   2
loop_
 _symmetry_equiv_pos_site_id
 _symmetry_equiv_pos_as_xyz
  1  'x, y, z'
loop_
 _atom_site_type_symbol
 _atom_site_label
 _atom_site_symmetry_multiplicity
 _atom_site_fract_x
 _atom_site_fract_y
 _atom_site_fract_z
 _atom_site_occupancy
  Be  Be0  1  0.000000  0.000000  0.500000  1
  Be  Be1  1  0.500000  0.500000  0.500000  1
  Be  Be2  1  0.000000  0.348130  0.500000  1
  Be  Be3  1  0.348130  0.000000  0.500000  1
  Be  Be4  1  0.651870  0.000000  0.500000  1
  Be  Be5  1  0.000000  0.651870  0.500000  1
  Co  Co6  1  0.832648  0.832648  0.000000  1
  Co  Co7  1  0.832648  0.167352  0.000000  1
  Co  Co8  1  0.167352  0.832648  0.000000  1
  Co  Co9  1  0.167352  0.167352  0.000000  1
  Co  Co10  1  0.500000  0.773404  0.000000  1
  Co  Co11  1  0.773404  0.500000  0.000000  1
  Co  Co12  1  0.226596  0.500000  0.000000  1
  Co  Co13  1  0.500000  0.226596  0.000000  1
  B  B14  1  0.303879  0.303879  0.500000  1
  B  B15  1  0.303879  0.696121  0.500000  1
  B  B16  1  0.696121  0.303879  0.500000  1
  B  B17  1  0.696121  0.696121  0.500000  1
