# generated using pymatgen
data_Li2Y18Cd6FeRu
_symmetry_space_group_name_H-M   'P 1'
_cell_length_a   9.48617700
_cell_length_b   9.48617652
_cell_length_c   9.72356400
_cell_angle_alpha   90.00000000
_cell_angle_beta   90.00000000
_cell_angle_gamma   119.99999819
_symmetry_Int_Tables_number   1
_chemical_formula_structural   Li2Y18Cd6FeRu
_chemical_formula_sum   'Li2 Y18 Cd6 Fe1 Ru1'
_cell_volume   757.77197962
_cell_formula_units_Z   1
loop_
 _symmetry_equiv_pos_site_id
 _symmetry_equiv_pos_as_xyz
  1  'x, y, z'
loop_
 _atom_site_type_symbol
 _atom_site_label
 _atom_site_symmetry_multiplicity
 _atom_site_fract_x
 _atom_site_fract_y
 _atom_site_fract_z
 _atom_site_occupancy
  Li  Li0  1  0.000000  0.000000  0.499506  1
  Li  Li1  1  0.000000  0.000000  0.000494  1
  Y  Y2  1  0.210669  0.789331  0.437027  1
  Y  Y3  1  0.210669  0.421339  0.437027  1
  Y  Y4  1  0.578661  0.789331  0.437027  1
  Y  Y5  1  0.792642  0.207358  0.558003  1
  Y  Y6  1  0.792642  0.585283  0.558003  1
  Y  Y7  1  0.414717  0.207358  0.558003  1
  Y  Y8  1  0.792642  0.207358  0.941997  1
  Y  Y9  1  0.792642  0.585283  0.941997  1
  Y  Y10  1  0.414717  0.207358  0.941997  1
  Y  Y11  1  0.210669  0.789331  0.062973  1
  Y  Y12  1  0.210669  0.421339  0.062973  1
  Y  Y13  1  0.578661  0.789331  0.062973  1
  Y  Y14  1  0.541562  0.458438  0.250000  1
  Y  Y15  1  0.541562  0.083125  0.250000  1
  Y  Y16  1  0.916875  0.458438  0.250000  1
  Y  Y17  1  0.457368  0.542632  0.750000  1
  Y  Y18  1  0.457368  0.914735  0.750000  1
  Y  Y19  1  0.085265  0.542632  0.750000  1
  Cd  Cd20  1  0.891942  0.108058  0.250000  1
  Cd  Cd21  1  0.891942  0.783885  0.250000  1
  Cd  Cd22  1  0.216115  0.108058  0.250000  1
  Cd  Cd23  1  0.108287  0.891713  0.750000  1
  Cd  Cd24  1  0.108287  0.216573  0.750000  1
  Cd  Cd25  1  0.783427  0.891713  0.750000  1
  Fe  Fe26  1  0.333333  0.666667  0.250000  1
  Ru  Ru27  1  0.666667  0.333333  0.750000  1
