# generated using pymatgen
data_Zr3NiAsPOs3
_symmetry_space_group_name_H-M   'P 1'
_cell_length_a   6.52746300
_cell_length_b   6.52746207
_cell_length_c   3.90826200
_cell_angle_alpha   90.00000000
_cell_angle_beta   90.00000000
_cell_angle_gamma   119.99999962
_symmetry_Int_Tables_number   1
_chemical_formula_structural   Zr3NiAsPOs3
_chemical_formula_sum   'Zr3 Ni1 As1 P1 Os3'
_cell_volume   144.21255767
_cell_formula_units_Z   1
loop_
 _symmetry_equiv_pos_site_id
 _symmetry_equiv_pos_as_xyz
  1  'x, y, z'
loop_
 _atom_site_type_symbol
 _atom_site_label
 _atom_site_symmetry_multiplicity
 _atom_site_fract_x
 _atom_site_fract_y
 _atom_site_fract_z
 _atom_site_occupancy
  Zr  Zr0  1  0.394546  0.403214  0.500000  1
  Zr  Zr1  1  0.596786  0.991332  0.500000  1
  Zr  Zr2  1  0.008668  0.605454  0.500000  1
  Ni  Ni3  1  0.000000  0.000000  0.500000  1
  As  As4  1  0.666667  0.333333  0.000000  1
  P  P5  1  0.333333  0.666667  0.000000  1
  Os  Os6  1  0.756845  0.766233  0.000000  1
  Os  Os7  1  0.233767  0.990612  0.000000  1
  Os  Os8  1  0.009388  0.243155  0.000000  1
