# generated using pymatgen
data_Sr10MnCr4(MoO6)5
_symmetry_space_group_name_H-M   'P 1'
_cell_length_a   8.02244253
_cell_length_b   9.76261950
_cell_length_c   9.82870902
_cell_angle_alpha   80.86708910
_cell_angle_beta   114.06933314
_cell_angle_gamma   114.24236690
_symmetry_Int_Tables_number   1
_chemical_formula_structural   Sr10MnCr4(MoO6)5
_chemical_formula_sum   'Sr10 Mn1 Cr4 Mo5 O30'
_cell_volume   640.83898297
_cell_formula_units_Z   1
loop_
 _symmetry_equiv_pos_site_id
 _symmetry_equiv_pos_as_xyz
  1  'x, y, z'
loop_
 _atom_site_type_symbol
 _atom_site_label
 _atom_site_symmetry_multiplicity
 _atom_site_fract_x
 _atom_site_fract_y
 _atom_site_fract_z
 _atom_site_occupancy
  Sr  Sr0  1  0.047338  0.399016  0.192547  1
  Sr  Sr1  1  0.543742  0.399036  0.192934  1
  Sr  Sr2  1  0.246720  0.000073  0.999265  1
  Sr  Sr3  1  0.753280  0.999927  0.000735  1
  Sr  Sr4  1  0.456258  0.600964  0.807066  1
  Sr  Sr5  1  0.952662  0.600984  0.807453  1
  Sr  Sr6  1  0.644381  0.191938  0.599342  1
  Sr  Sr7  1  0.145129  0.191329  0.600567  1
  Sr  Sr8  1  0.854871  0.808671  0.399433  1
  Sr  Sr9  1  0.355619  0.808062  0.400658  1
  Mn  Mn10  1  0.500000  0.500000  0.500000  1
  Cr  Cr11  1  0.700255  0.101174  0.298570  1
  Cr  Cr12  1  0.900153  0.699592  0.101754  1
  Cr  Cr13  1  0.099847  0.300408  0.898246  1
  Cr  Cr14  1  0.299745  0.898826  0.701430  1
  Mo  Mo15  1  0.199142  0.100119  0.298353  1
  Mo  Mo16  1  0.400773  0.702314  0.099585  1
  Mo  Mo17  1  0.599227  0.297686  0.900415  1
  Mo  Mo18  1  0.800858  0.899881  0.701647  1
  Mo  Mo19  1  0.000000  0.500000  0.500000  1
  O  O20  1  0.923825  0.070237  0.281956  1
  O  O21  1  0.086397  0.902499  0.204079  1
  O  O22  1  0.505717  0.903854  0.197539  1
  O  O23  1  0.124779  0.667712  0.085069  1
  O  O24  1  0.446760  0.605185  0.288197  1
  O  O25  1  0.676654  0.735672  0.117800  1
  O  O26  1  0.290325  0.500270  0.995983  1
  O  O27  1  0.147291  0.198172  0.095954  1
  O  O28  1  0.709675  0.499730  0.004017  1
  O  O29  1  0.323346  0.264328  0.882200  1
  O  O30  1  0.651564  0.204150  0.097431  1
  O  O31  1  0.875221  0.332288  0.914931  1
  O  O32  1  0.494283  0.096146  0.802461  1
  O  O33  1  0.348436  0.795850  0.902569  1
  O  O34  1  0.913603  0.097501  0.795921  1
  O  O35  1  0.527399  0.868315  0.686820  1
  O  O36  1  0.852709  0.801828  0.904046  1
  O  O37  1  0.076175  0.929763  0.718044  1
  O  O38  1  0.699448  0.711470  0.605418  1
  O  O39  1  0.553240  0.394815  0.711803  1
  O  O40  1  0.105773  0.693413  0.600190  1
  O  O41  1  0.738048  0.465942  0.482969  1
  O  O42  1  0.046756  0.399705  0.693187  1
  O  O43  1  0.261952  0.534058  0.517031  1
  O  O44  1  0.894227  0.306587  0.399810  1
  O  O45  1  0.750973  0.003543  0.499587  1
  O  O46  1  0.300552  0.288530  0.394582  1
  O  O47  1  0.249027  0.996457  0.500413  1
  O  O48  1  0.472601  0.131685  0.313180  1
  O  O49  1  0.953244  0.600295  0.306813  1
