# generated using pymatgen
data_HfNb3(NiAs)4
_symmetry_space_group_name_H-M   'P 1'
_cell_length_a   3.75159100
_cell_length_b   6.37040443
_cell_length_c   7.35099450
_cell_angle_alpha   90.45232600
_cell_angle_beta   90.00000000
_cell_angle_gamma   90.00000000
_symmetry_Int_Tables_number   1
_chemical_formula_structural   HfNb3(NiAs)4
_chemical_formula_sum   'Hf1 Nb3 Ni4 As4'
_cell_volume   175.67705969
_cell_formula_units_Z   1
loop_
 _symmetry_equiv_pos_site_id
 _symmetry_equiv_pos_as_xyz
  1  'x, y, z'
loop_
 _atom_site_type_symbol
 _atom_site_label
 _atom_site_symmetry_multiplicity
 _atom_site_fract_x
 _atom_site_fract_y
 _atom_site_fract_z
 _atom_site_occupancy
  Hf  Hf0  1  0.250000  0.016923  0.827703  1
  Nb  Nb1  1  0.250000  0.519273  0.662888  1
  Nb  Nb2  1  0.750000  0.981412  0.168929  1
  Nb  Nb3  1  0.750000  0.482539  0.335152  1
  Ni  Ni4  1  0.250000  0.160556  0.427466  1
  Ni  Ni5  1  0.250000  0.656442  0.074257  1
  Ni  Ni6  1  0.750000  0.841996  0.572974  1
  Ni  Ni7  1  0.750000  0.339765  0.928605  1
  As  As8  1  0.250000  0.787244  0.380981  1
  As  As9  1  0.250000  0.284640  0.122031  1
  As  As10  1  0.750000  0.218106  0.617064  1
  As  As11  1  0.750000  0.711105  0.881949  1
