# generated using pymatgen
data_TbYbPa2Ge6Os7
_symmetry_space_group_name_H-M   'P 1'
_cell_length_a   7.26432213
_cell_length_b   7.22325198
_cell_length_c   7.25148234
_cell_angle_alpha   109.38476469
_cell_angle_beta   109.51778120
_cell_angle_gamma   109.36052268
_symmetry_Int_Tables_number   1
_chemical_formula_structural   TbYbPa2Ge6Os7
_chemical_formula_sum   'Tb1 Yb1 Pa2 Ge6 Os7'
_cell_volume   293.45166642
_cell_formula_units_Z   1
loop_
 _symmetry_equiv_pos_site_id
 _symmetry_equiv_pos_as_xyz
  1  'x, y, z'
loop_
 _atom_site_type_symbol
 _atom_site_label
 _atom_site_symmetry_multiplicity
 _atom_site_fract_x
 _atom_site_fract_y
 _atom_site_fract_z
 _atom_site_occupancy
  Tb  Tb0  1  0.000000  0.500000  0.000000  1
  Yb  Yb1  1  0.000000  0.000000  0.500000  1
  Pa  Pa2  1  0.500000  0.000000  0.000000  1
  Pa  Pa3  1  0.500000  0.500000  0.500000  1
  Ge  Ge4  1  0.696250  0.692045  0.009090  1
  Ge  Ge5  1  0.303750  0.995795  0.312840  1
  Ge  Ge6  1  0.000000  0.308923  0.313219  1
  Ge  Ge7  1  0.303750  0.307955  0.990910  1
  Ge  Ge8  1  0.696250  0.004205  0.687160  1
  Ge  Ge9  1  0.000000  0.691077  0.686781  1
  Os  Os10  1  0.741972  0.248391  0.492597  1
  Os  Os11  1  0.741972  0.493581  0.249375  1
  Os  Os12  1  0.499657  0.249828  0.749828  1
  Os  Os13  1  0.258028  0.506419  0.750625  1
  Os  Os14  1  0.258028  0.751609  0.507403  1
  Os  Os15  1  0.500343  0.750172  0.250172  1
  Os  Os16  1  0.000000  0.000000  0.000000  1
