# generated using pymatgen
data_Li2Hf6Ti2Al12Pd7
_symmetry_space_group_name_H-M   'P 1'
_cell_length_a   8.81735155
_cell_length_b   8.78428892
_cell_length_c   8.78429083
_cell_angle_alpha   60.20933720
_cell_angle_beta   59.87542157
_cell_angle_gamma   59.87541505
_symmetry_Int_Tables_number   1
_chemical_formula_structural   Li2Hf6Ti2Al12Pd7
_chemical_formula_sum   'Li2 Hf6 Ti2 Al12 Pd7'
_cell_volume   480.94550362
_cell_formula_units_Z   1
loop_
 _symmetry_equiv_pos_site_id
 _symmetry_equiv_pos_as_xyz
  1  'x, y, z'
loop_
 _atom_site_type_symbol
 _atom_site_label
 _atom_site_symmetry_multiplicity
 _atom_site_fract_x
 _atom_site_fract_y
 _atom_site_fract_z
 _atom_site_occupancy
  Li  Li0  1  0.881900  0.882890  0.353311  1
  Li  Li1  1  0.881900  0.353311  0.882890  1
  Hf  Hf2  1  0.680774  0.683261  0.317940  1
  Hf  Hf3  1  0.318025  0.683261  0.317940  1
  Hf  Hf4  1  0.681125  0.318875  0.318875  1
  Hf  Hf5  1  0.318025  0.317940  0.683261  1
  Hf  Hf6  1  0.680774  0.317940  0.683261  1
  Hf  Hf7  1  0.316426  0.683574  0.683574  1
  Ti  Ti8  1  0.360066  0.880835  0.880835  1
  Ti  Ti9  1  0.878265  0.880835  0.880835  1
  Al  Al10  1  0.115383  0.123955  0.645278  1
  Al  Al11  1  0.115383  0.645278  0.123955  1
  Al  Al12  1  0.645384  0.120167  0.120167  1
  Al  Al13  1  0.114282  0.120167  0.120167  1
  Al  Al14  1  0.669753  0.658016  0.002479  1
  Al  Al15  1  0.669753  0.002479  0.658016  1
  Al  Al16  1  0.998703  0.664391  0.664391  1
  Al  Al17  1  0.672517  0.664391  0.664391  1
  Al  Al18  1  0.335178  0.331714  0.997929  1
  Al  Al19  1  0.335178  0.997929  0.331714  1
  Al  Al20  1  0.994932  0.333559  0.333559  1
  Al  Al21  1  0.337950  0.333559  0.333559  1
  Pd  Pd22  1  0.003341  0.996659  0.996659  1
  Pd  Pd23  1  0.003237  0.998787  0.506844  1
  Pd  Pd24  1  0.491131  0.998787  0.506844  1
  Pd  Pd25  1  0.003110  0.496890  0.496890  1
  Pd  Pd26  1  0.491131  0.506844  0.998787  1
  Pd  Pd27  1  0.003237  0.506844  0.998787  1
  Pd  Pd28  1  0.503138  0.996862  0.996862  1
