# generated using pymatgen
data_Y2Sn2Pd3Pt
_symmetry_space_group_name_H-M   'P 1'
_cell_length_a   4.59002600
_cell_length_b   4.59002540
_cell_length_c   9.04110700
_cell_angle_alpha   90.00000000
_cell_angle_beta   90.00000000
_cell_angle_gamma   119.99998994
_symmetry_Int_Tables_number   1
_chemical_formula_structural   Y2Sn2Pd3Pt
_chemical_formula_sum   'Y2 Sn2 Pd3 Pt1'
_cell_volume   164.96147030
_cell_formula_units_Z   1
loop_
 _symmetry_equiv_pos_site_id
 _symmetry_equiv_pos_as_xyz
  1  'x, y, z'
loop_
 _atom_site_type_symbol
 _atom_site_label
 _atom_site_symmetry_multiplicity
 _atom_site_fract_x
 _atom_site_fract_y
 _atom_site_fract_z
 _atom_site_occupancy
  Y  Y0  1  0.333333  0.666667  0.250178  1
  Y  Y1  1  0.666667  0.333333  0.747527  1
  Sn  Sn2  1  0.000000  0.000000  0.502978  1
  Sn  Sn3  1  0.000000  0.000000  0.002051  1
  Pd  Pd4  1  0.333333  0.666667  0.914412  1
  Pd  Pd5  1  0.666667  0.333333  0.084840  1
  Pd  Pd6  1  0.666667  0.333333  0.410423  1
  Pt  Pt7  1  0.333333  0.666667  0.587592  1
