# generated using pymatgen
data_Ti3Ga2SbRu6
_symmetry_space_group_name_H-M   'P 1'
_cell_length_a   4.36226700
_cell_length_b   6.18021200
_cell_length_c   13.07479400
_cell_angle_alpha   90.00030171
_cell_angle_beta   90.00018396
_cell_angle_gamma   89.99795572
_symmetry_Int_Tables_number   1
_chemical_formula_structural   Ti3Ga2SbRu6
_chemical_formula_sum   'Ti6 Ga4 Sb2 Ru12'
_cell_volume   352.49297948
_cell_formula_units_Z   2
loop_
 _symmetry_equiv_pos_site_id
 _symmetry_equiv_pos_as_xyz
  1  'x, y, z'
loop_
 _atom_site_type_symbol
 _atom_site_label
 _atom_site_symmetry_multiplicity
 _atom_site_fract_x
 _atom_site_fract_y
 _atom_site_fract_z
 _atom_site_occupancy
  Ti  Ti0  1  0.000007  0.000019  0.991971  1
  Ti  Ti1  1  0.499842  0.499980  0.174670  1
  Ti  Ti2  1  0.999853  0.000054  0.343102  1
  Ti  Ti3  1  0.500008  0.499896  0.503586  1
  Ti  Ti4  1  0.000133  0.000100  0.663078  1
  Ti  Ti5  1  0.500150  0.499953  0.823527  1
  Ga  Ga6  1  0.999842  0.499958  0.336196  1
  Ga  Ga7  1  0.499999  0.000059  0.501666  1
  Ga  Ga8  1  0.000145  0.499956  0.664994  1
  Ga  Ga9  1  0.500155  0.000032  0.830432  1
  Sb  Sb10  1  0.000006  0.500006  0.997250  1
  Sb  Sb11  1  0.499823  0.999995  0.169388  1
  Ru  Ru12  1  0.500137  0.246667  0.998688  1
  Ru  Ru13  1  0.499884  0.753320  0.998691  1
  Ru  Ru14  1  0.999767  0.253290  0.167982  1
  Ru  Ru15  1  0.000015  0.746720  0.167978  1
  Ru  Ru16  1  0.499785  0.252858  0.336032  1
  Ru  Ru17  1  0.499916  0.747143  0.336047  1
  Ru  Ru18  1  0.000062  0.249994  0.500243  1
  Ru  Ru19  1  0.999934  0.750003  0.500232  1
  Ru  Ru20  1  0.500069  0.249994  0.666476  1
  Ru  Ru21  1  0.500139  0.750016  0.666474  1
  Ru  Ru22  1  0.000231  0.247204  0.830656  1
  Ru  Ru23  1  0.000090  0.752789  0.830639  1
