# generated using pymatgen
data_HoErSi2NiRu
_symmetry_space_group_name_H-M   'P 1'
_cell_length_a   4.21349700
_cell_length_b   6.86229644
_cell_length_c   7.16371659
_cell_angle_alpha   91.47894509
_cell_angle_beta   90.00000000
_cell_angle_gamma   90.00000000
_symmetry_Int_Tables_number   1
_chemical_formula_structural   HoErSi2NiRu
_chemical_formula_sum   'Ho2 Er2 Si4 Ni2 Ru2'
_cell_volume   207.06460218
_cell_formula_units_Z   2
loop_
 _symmetry_equiv_pos_site_id
 _symmetry_equiv_pos_as_xyz
  1  'x, y, z'
loop_
 _atom_site_type_symbol
 _atom_site_label
 _atom_site_symmetry_multiplicity
 _atom_site_fract_x
 _atom_site_fract_y
 _atom_site_fract_z
 _atom_site_occupancy
  Ho  Ho0  1  0.250000  0.991710  0.798789  1
  Ho  Ho1  1  0.750000  0.008290  0.201211  1
  Er  Er2  1  0.250000  0.490021  0.684590  1
  Er  Er3  1  0.750000  0.509979  0.315410  1
  Si  Si4  1  0.250000  0.299350  0.098824  1
  Si  Si5  1  0.750000  0.700650  0.901176  1
  Si  Si6  1  0.250000  0.802696  0.399759  1
  Si  Si7  1  0.750000  0.197304  0.600241  1
  Ni  Ni8  1  0.750000  0.832722  0.575532  1
  Ni  Ni9  1  0.250000  0.167278  0.424468  1
  Ru  Ru10  1  0.750000  0.343399  0.930197  1
  Ru  Ru11  1  0.250000  0.656601  0.069803  1
