# generated using pymatgen
data_Ca2TbDy(Ru2O7)2
_symmetry_space_group_name_H-M   'P 1'
_cell_length_a   7.27796575
_cell_length_b   7.29431939
_cell_length_c   7.27796588
_cell_angle_alpha   59.91372964
_cell_angle_beta   59.78164000
_cell_angle_gamma   59.91372916
_symmetry_Int_Tables_number   1
_chemical_formula_structural   Ca2TbDy(Ru2O7)2
_chemical_formula_sum   'Ca2 Tb1 Dy1 Ru4 O14'
_cell_volume   272.39698623
_cell_formula_units_Z   1
loop_
 _symmetry_equiv_pos_site_id
 _symmetry_equiv_pos_as_xyz
  1  'x, y, z'
loop_
 _atom_site_type_symbol
 _atom_site_label
 _atom_site_symmetry_multiplicity
 _atom_site_fract_x
 _atom_site_fract_y
 _atom_site_fract_z
 _atom_site_occupancy
  Ca  Ca0  1  0.125000  0.125000  0.625000  1
  Ca  Ca1  1  0.625000  0.125000  0.125000  1
  Tb  Tb2  1  0.125000  0.625000  0.125000  1
  Dy  Dy3  1  0.125000  0.125000  0.125000  1
  Ru  Ru4  1  0.625000  0.625000  0.125000  1
  Ru  Ru5  1  0.625000  0.125000  0.625000  1
  Ru  Ru6  1  0.125000  0.625000  0.625000  1
  Ru  Ru7  1  0.625000  0.625000  0.625000  1
  O  O8  1  0.244543  0.254130  0.244543  1
  O  O9  1  0.005457  0.995870  0.005457  1
  O  O10  1  0.292004  0.708500  0.292004  1
  O  O11  1  0.554413  0.945445  0.554413  1
  O  O12  1  0.297599  0.299838  0.705299  1
  O  O13  1  0.705299  0.299838  0.297599  1
  O  O14  1  0.297693  0.698035  0.704574  1
  O  O15  1  0.704574  0.698035  0.297693  1
  O  O16  1  0.695587  0.304555  0.695587  1
  O  O17  1  0.952307  0.551965  0.545426  1
  O  O18  1  0.544701  0.950162  0.952401  1
  O  O19  1  0.957996  0.541500  0.957996  1
  O  O20  1  0.545426  0.551965  0.952307  1
  O  O21  1  0.952401  0.950162  0.544701  1
