# generated using pymatgen
data_Lu2Al8SiIr2Os
_symmetry_space_group_name_H-M   'P 1'
_cell_length_a   7.49872756
_cell_length_b   7.49872689
_cell_length_c   9.31564300
_cell_angle_alpha   90.00000000
_cell_angle_beta   90.00000000
_cell_angle_gamma   119.13149181
_symmetry_Int_Tables_number   1
_chemical_formula_structural   Lu2Al8SiIr2Os
_chemical_formula_sum   'Lu4 Al16 Si2 Ir4 Os2'
_cell_volume   457.56546311
_cell_formula_units_Z   2
loop_
 _symmetry_equiv_pos_site_id
 _symmetry_equiv_pos_as_xyz
  1  'x, y, z'
loop_
 _atom_site_type_symbol
 _atom_site_label
 _atom_site_symmetry_multiplicity
 _atom_site_fract_x
 _atom_site_fract_y
 _atom_site_fract_z
 _atom_site_occupancy
  Lu  Lu0  1  0.993075  0.680828  0.250000  1
  Lu  Lu1  1  0.006925  0.319172  0.750000  1
  Lu  Lu2  1  0.680828  0.993075  0.250000  1
  Lu  Lu3  1  0.319172  0.006925  0.750000  1
  Al  Al4  1  0.001382  0.337327  0.076978  1
  Al  Al5  1  0.998618  0.662673  0.923022  1
  Al  Al6  1  0.998618  0.662673  0.576978  1
  Al  Al7  1  0.337327  0.001382  0.423022  1
  Al  Al8  1  0.001382  0.337327  0.423022  1
  Al  Al9  1  0.662673  0.998618  0.576978  1
  Al  Al10  1  0.662673  0.998618  0.923022  1
  Al  Al11  1  0.337327  0.001382  0.076978  1
  Al  Al12  1  0.333004  0.333004  0.552371  1
  Al  Al13  1  0.666996  0.666996  0.447629  1
  Al  Al14  1  0.666996  0.666996  0.052371  1
  Al  Al15  1  0.333004  0.333004  0.947629  1
  Al  Al16  1  0.337711  0.551032  0.250000  1
  Al  Al17  1  0.662289  0.448968  0.750000  1
  Al  Al18  1  0.551032  0.337711  0.250000  1
  Al  Al19  1  0.448968  0.662289  0.750000  1
  Si  Si20  1  0.129710  0.129710  0.250000  1
  Si  Si21  1  0.870290  0.870290  0.750000  1
  Ir  Ir22  1  0.672047  0.327953  0.000000  1
  Ir  Ir23  1  0.327953  0.672047  0.000000  1
  Ir  Ir24  1  0.327953  0.672047  0.500000  1
  Ir  Ir25  1  0.672047  0.327953  0.500000  1
  Os  Os26  1  0.000000  0.000000  0.000000  1
  Os  Os27  1  0.000000  0.000000  0.500000  1
