# generated using pymatgen
data_DyHo18InIr12
_symmetry_space_group_name_H-M   'P 1'
_cell_length_a   10.83718801
_cell_length_b   10.83639601
_cell_length_c   6.30432101
_cell_angle_alpha   89.99540591
_cell_angle_beta   90.00345038
_cell_angle_gamma   90.00224182
_symmetry_Int_Tables_number   1
_chemical_formula_structural   DyHo18InIr12
_chemical_formula_sum   'Dy1 Ho18 In1 Ir12'
_cell_volume   740.35462145
_cell_formula_units_Z   1
loop_
 _symmetry_equiv_pos_site_id
 _symmetry_equiv_pos_as_xyz
  1  'x, y, z'
loop_
 _atom_site_type_symbol
 _atom_site_label
 _atom_site_symmetry_multiplicity
 _atom_site_fract_x
 _atom_site_fract_y
 _atom_site_fract_z
 _atom_site_occupancy
  Dy  Dy0  1  0.284404  0.085125  0.379185  1
  Ho  Ho1  1  0.290912  0.911526  0.879711  1
  Ho  Ho2  1  0.709105  0.088407  0.879716  1
  Ho  Ho3  1  0.715417  0.914963  0.379378  1
  Ho  Ho4  1  0.588225  0.791747  0.880539  1
  Ho  Ho5  1  0.588172  0.208165  0.377219  1
  Ho  Ho6  1  0.411981  0.791776  0.377219  1
  Ho  Ho7  1  0.411838  0.208282  0.880510  1
  Ho  Ho8  1  0.208119  0.411969  0.622813  1
  Ho  Ho9  1  0.208237  0.588226  0.119467  1
  Ho  Ho10  1  0.791761  0.411777  0.119447  1
  Ho  Ho11  1  0.791873  0.588072  0.622779  1
  Ho  Ho12  1  0.911592  0.709083  0.120306  1
  Ho  Ho13  1  0.914930  0.284592  0.620640  1
  Ho  Ho14  1  0.085049  0.715396  0.620665  1
  Ho  Ho15  1  0.088333  0.290967  0.120223  1
  Ho  Ho16  1  0.999979  0.999992  0.999965  1
  Ho  Ho17  1  0.499997  0.500002  0.999995  1
  Ho  Ho18  1  0.500026  0.500010  0.500028  1
  In  In19  1  0.999850  0.999944  0.500043  1
  Ir  Ir20  1  0.845560  0.155836  0.245798  1
  Ir  Ir21  1  0.844163  0.845553  0.754226  1
  Ir  Ir22  1  0.155744  0.154496  0.754556  1
  Ir  Ir23  1  0.154386  0.844020  0.245678  1
  Ir  Ir24  1  0.654579  0.346456  0.747510  1
  Ir  Ir25  1  0.653546  0.654579  0.252482  1
  Ir  Ir26  1  0.346505  0.345600  0.252396  1
  Ir  Ir27  1  0.345427  0.653555  0.747506  1
  Ir  Ir28  1  0.500140  0.999934  0.124557  1
  Ir  Ir29  1  0.500160  0.999934  0.620777  1
  Ir  Ir30  1  0.999994  0.500003  0.875288  1
  Ir  Ir31  1  0.999996  0.500012  0.379378  1
