# generated using pymatgen
data_Eu2CuNi2Sb4Pd
_symmetry_space_group_name_H-M   'P 1'
_cell_length_a   4.56252000
_cell_length_b   4.56252000
_cell_length_c   10.36712900
_cell_angle_alpha   90.00000000
_cell_angle_beta   90.00000000
_cell_angle_gamma   90.00000000
_symmetry_Int_Tables_number   1
_chemical_formula_structural   Eu2CuNi2Sb4Pd
_chemical_formula_sum   'Eu2 Cu1 Ni2 Sb4 Pd1'
_cell_volume   215.80826092
_cell_formula_units_Z   1
loop_
 _symmetry_equiv_pos_site_id
 _symmetry_equiv_pos_as_xyz
  1  'x, y, z'
loop_
 _atom_site_type_symbol
 _atom_site_label
 _atom_site_symmetry_multiplicity
 _atom_site_fract_x
 _atom_site_fract_y
 _atom_site_fract_z
 _atom_site_occupancy
  Eu  Eu0  1  0.500000  0.000000  0.247738  1
  Eu  Eu1  1  0.000000  0.500000  0.752262  1
  Cu  Cu2  1  0.000000  0.000000  0.000000  1
  Ni  Ni3  1  0.500000  0.000000  0.617559  1
  Ni  Ni4  1  0.000000  0.500000  0.382441  1
  Sb  Sb5  1  0.000000  0.000000  0.500000  1
  Sb  Sb6  1  0.500000  0.500000  0.500000  1
  Sb  Sb7  1  0.500000  0.000000  0.859848  1
  Sb  Sb8  1  0.000000  0.500000  0.140152  1
  Pd  Pd9  1  0.500000  0.500000  0.000000  1
