# generated using pymatgen
data_ScPa7Ti9Nb3Ge16
_symmetry_space_group_name_H-M   'P 1'
_cell_length_a   7.03556169
_cell_length_b   7.10771273
_cell_length_c   13.53198881
_cell_angle_alpha   90.11913027
_cell_angle_beta   89.91987379
_cell_angle_gamma   89.90793146
_symmetry_Int_Tables_number   1
_chemical_formula_structural   ScPa7Ti9Nb3Ge16
_chemical_formula_sum   'Sc1 Pa7 Ti9 Nb3 Ge16'
_cell_volume   676.68779865
_cell_formula_units_Z   1
loop_
 _symmetry_equiv_pos_site_id
 _symmetry_equiv_pos_as_xyz
  1  'x, y, z'
loop_
 _atom_site_type_symbol
 _atom_site_label
 _atom_site_symmetry_multiplicity
 _atom_site_fract_x
 _atom_site_fract_y
 _atom_site_fract_z
 _atom_site_occupancy
  Sc  Sc0  1  0.991308  0.827454  0.596595  1
  Pa  Pa1  1  0.494038  0.668924  0.593384  1
  Pa  Pa2  1  0.994706  0.831217  0.905118  1
  Pa  Pa3  1  0.507383  0.330600  0.093938  1
  Pa  Pa4  1  0.006381  0.173949  0.406071  1
  Pa  Pa5  1  0.505534  0.329872  0.409432  1
  Pa  Pa6  1  0.007592  0.170478  0.094266  1
  Pa  Pa7  1  0.491374  0.673228  0.902394  1
  Ti  Ti8  1  0.652947  0.168810  0.623429  1
  Ti  Ti9  1  0.158710  0.333712  0.873790  1
  Ti  Ti10  1  0.342772  0.834559  0.124943  1
  Ti  Ti11  1  0.838767  0.665102  0.376036  1
  Ti  Ti12  1  0.344438  0.833688  0.376139  1
  Ti  Ti13  1  0.842092  0.665508  0.124805  1
  Ti  Ti14  1  0.661415  0.161513  0.874263  1
  Ti  Ti15  1  0.164833  0.330927  0.623879  1
  Ti  Ti16  1  0.825407  0.499512  0.751315  1
  Nb  Nb17  1  0.330732  0.996737  0.749728  1
  Nb  Nb18  1  0.171716  0.498783  0.250554  1
  Nb  Nb19  1  0.672784  0.001649  0.252067  1
  Ge  Ge20  1  0.680718  0.952920  0.459942  1
  Ge  Ge21  1  0.175923  0.548009  0.042219  1
  Ge  Ge22  1  0.325323  0.049652  0.956346  1
  Ge  Ge23  1  0.830857  0.458201  0.546426  1
  Ge  Ge24  1  0.312438  0.038233  0.544025  1
  Ge  Ge25  1  0.822995  0.453209  0.954614  1
  Ge  Ge26  1  0.675361  0.952064  0.043452  1
  Ge  Ge27  1  0.171619  0.550555  0.459166  1
  Ge  Ge28  1  0.460789  0.367354  0.750309  1
  Ge  Ge29  1  0.958643  0.134381  0.747357  1
  Ge  Ge30  1  0.541516  0.633294  0.250577  1
  Ge  Ge31  1  0.042381  0.866233  0.251295  1
  Ge  Ge32  1  0.699589  0.864640  0.745851  1
  Ge  Ge33  1  0.181180  0.634152  0.744388  1
  Ge  Ge34  1  0.308841  0.131886  0.250997  1
  Ge  Ge35  1  0.806900  0.368994  0.250891  1
