# generated using pymatgen
data_ScAs(SeO3)4
_symmetry_space_group_name_H-M   'P 1'
_cell_length_a   7.04117288
_cell_length_b   5.16486149
_cell_length_c   9.26601000
_cell_angle_alpha   56.62004613
_cell_angle_beta   86.55973376
_cell_angle_gamma   88.88268855
_symmetry_Int_Tables_number   1
_chemical_formula_structural   ScAs(SeO3)4
_chemical_formula_sum   'Sc1 As1 Se4 O12'
_cell_volume   280.84292799
_cell_formula_units_Z   1
loop_
 _symmetry_equiv_pos_site_id
 _symmetry_equiv_pos_as_xyz
  1  'x, y, z'
loop_
 _atom_site_type_symbol
 _atom_site_label
 _atom_site_symmetry_multiplicity
 _atom_site_fract_x
 _atom_site_fract_y
 _atom_site_fract_z
 _atom_site_occupancy
  Sc  Sc0  1  0.000000  0.000000  0.000000  1
  As  As1  1  0.500000  0.000000  0.500000  1
  Se  Se2  1  0.814672  0.320270  0.201043  1
  Se  Se3  1  0.668584  0.314732  0.689144  1
  Se  Se4  1  0.185328  0.679730  0.798957  1
  Se  Se5  1  0.331416  0.685268  0.310856  1
  O  O6  1  0.827594  0.306384  0.021194  1
  O  O7  1  0.662300  0.281883  0.503305  1
  O  O8  1  0.172406  0.693616  0.978806  1
  O  O9  1  0.337700  0.718117  0.496695  1
  O  O10  1  0.571113  0.172422  0.270624  1
  O  O11  1  0.893136  0.205979  0.744189  1
  O  O12  1  0.428887  0.827578  0.729376  1
  O  O13  1  0.106864  0.794021  0.255811  1
  O  O14  1  0.766334  0.699757  0.111373  1
  O  O15  1  0.709768  0.722879  0.565680  1
  O  O16  1  0.233666  0.300243  0.888627  1
  O  O17  1  0.290232  0.277121  0.434320  1
