# generated using pymatgen
data_Dy3Y3(Al3Co)8
_symmetry_space_group_name_H-M   'P 1'
_cell_length_a   8.65589301
_cell_length_b   8.65514133
_cell_length_c   9.30970900
_cell_angle_alpha   90.00000000
_cell_angle_beta   90.00000000
_cell_angle_gamma   120.00899915
_symmetry_Int_Tables_number   1
_chemical_formula_structural   Dy3Y3(Al3Co)8
_chemical_formula_sum   'Dy3 Y3 Al24 Co8'
_cell_volume   603.96725352
_cell_formula_units_Z   1
loop_
 _symmetry_equiv_pos_site_id
 _symmetry_equiv_pos_as_xyz
  1  'x, y, z'
loop_
 _atom_site_type_symbol
 _atom_site_label
 _atom_site_symmetry_multiplicity
 _atom_site_fract_x
 _atom_site_fract_y
 _atom_site_fract_z
 _atom_site_occupancy
  Dy  Dy0  1  0.193837  0.387624  0.250000  1
  Dy  Dy1  1  0.806212  0.612428  0.750000  1
  Dy  Dy2  1  0.612364  0.806151  0.250000  1
  Y  Y3  1  0.387666  0.193856  0.750000  1
  Y  Y4  1  0.193853  0.806137  0.250000  1
  Y  Y5  1  0.806181  0.193856  0.750000  1
  Al  Al6  1  0.333350  0.666649  0.020270  1
  Al  Al7  1  0.666685  0.333369  0.979751  1
  Al  Al8  1  0.666685  0.333369  0.520249  1
  Al  Al9  1  0.333350  0.666649  0.479730  1
  Al  Al10  1  0.163175  0.326354  0.574518  1
  Al  Al11  1  0.836802  0.673664  0.425453  1
  Al  Al12  1  0.673665  0.836804  0.574551  1
  Al  Al13  1  0.836802  0.673664  0.074547  1
  Al  Al14  1  0.326330  0.163194  0.425412  1
  Al  Al15  1  0.163175  0.326354  0.925482  1
  Al  Al16  1  0.163134  0.836805  0.574591  1
  Al  Al17  1  0.326330  0.163194  0.074588  1
  Al  Al18  1  0.836843  0.163155  0.425379  1
  Al  Al19  1  0.673665  0.836804  0.925449  1
  Al  Al20  1  0.836843  0.163155  0.074621  1
  Al  Al21  1  0.163134  0.836805  0.925409  1
  Al  Al22  1  0.559948  0.119848  0.250000  1
  Al  Al23  1  0.440065  0.880138  0.750000  1
  Al  Al24  1  0.880161  0.440052  0.250000  1
  Al  Al25  1  0.119835  0.559945  0.750000  1
  Al  Al26  1  0.559902  0.440090  0.250000  1
  Al  Al27  1  0.440111  0.559938  0.750000  1
  Al  Al28  1  0.999915  0.000076  0.250000  1
  Al  Al29  1  0.999914  0.999838  0.750000  1
  Co  Co30  1  0.500009  0.999978  0.000026  1
  Co  Co31  1  0.000005  0.500002  0.999997  1
  Co  Co32  1  0.500009  0.999978  0.499974  1
  Co  Co33  1  0.500009  0.500032  0.000027  1
  Co  Co34  1  0.000005  0.500002  0.500003  1
  Co  Co35  1  0.500009  0.500032  0.499973  1
  Co  Co36  1  0.000011  0.000006  0.999984  1
  Co  Co37  1  0.000011  0.000006  0.500016  1
