# generated using pymatgen
data_Tb8Ti9Si16Tc3
_symmetry_space_group_name_H-M   'P 1'
_cell_length_a   6.98419360
_cell_length_b   6.99245139
_cell_length_c   12.91655581
_cell_angle_alpha   89.84732723
_cell_angle_beta   90.09583880
_cell_angle_gamma   89.97864117
_symmetry_Int_Tables_number   1
_chemical_formula_structural   Tb8Ti9Si16Tc3
_chemical_formula_sum   'Tb8 Ti9 Si16 Tc3'
_cell_volume   630.79794495
_cell_formula_units_Z   1
loop_
 _symmetry_equiv_pos_site_id
 _symmetry_equiv_pos_as_xyz
  1  'x, y, z'
loop_
 _atom_site_type_symbol
 _atom_site_label
 _atom_site_symmetry_multiplicity
 _atom_site_fract_x
 _atom_site_fract_y
 _atom_site_fract_z
 _atom_site_occupancy
  Tb  Tb0  1  0.342344  0.000838  0.467887  1
  Tb  Tb1  1  0.497373  0.840966  0.719575  1
  Tb  Tb2  1  0.500925  0.158787  0.215653  1
  Tb  Tb3  1  0.837696  0.496883  0.282049  1
  Tb  Tb4  1  0.161408  0.501806  0.782047  1
  Tb  Tb5  1  0.659172  0.997838  0.967984  1
  Tb  Tb6  1  0.003325  0.338400  0.534609  1
  Tb  Tb7  1  0.997669  0.661112  0.030636  1
  Ti  Ti8  1  0.328043  0.329696  0.998722  1
  Ti  Ti9  1  0.172404  0.824518  0.247768  1
  Ti  Ti10  1  0.828857  0.173650  0.749134  1
  Ti  Ti11  1  0.669665  0.668151  0.500062  1
  Ti  Ti12  1  0.657450  0.493625  0.875360  1
  Ti  Ti13  1  0.342873  0.505757  0.375697  1
  Ti  Ti14  1  0.838445  0.993302  0.374725  1
  Ti  Ti15  1  0.005220  0.155730  0.126137  1
  Ti  Ti16  1  0.992127  0.842693  0.625740  1
  Si  Si17  1  0.203892  0.127691  0.685494  1
  Si  Si18  1  0.371633  0.704625  0.934157  1
  Si  Si19  1  0.629653  0.298756  0.437888  1
  Si  Si20  1  0.698625  0.376132  0.065022  1
  Si  Si21  1  0.304288  0.625502  0.566650  1
  Si  Si22  1  0.793303  0.869341  0.182702  1
  Si  Si23  1  0.129432  0.200427  0.315592  1
  Si  Si24  1  0.876768  0.804537  0.816026  1
  Si  Si25  1  0.288134  0.958093  0.062229  1
  Si  Si26  1  0.542338  0.789275  0.311597  1
  Si  Si27  1  0.457156  0.212506  0.813419  1
  Si  Si28  1  0.786377  0.544144  0.686293  1
  Si  Si29  1  0.210808  0.457002  0.186237  1
  Si  Si30  1  0.710937  0.044369  0.564019  1
  Si  Si31  1  0.956882  0.285788  0.936615  1
  Si  Si32  1  0.045579  0.708329  0.435956  1
  Tc  Tc33  1  0.167666  0.010975  0.875146  1
  Tc  Tc34  1  0.483787  0.661424  0.123155  1
  Tc  Tc35  1  0.507747  0.337331  0.628019  1
