# generated using pymatgen
data_DyPuReB6
_symmetry_space_group_name_H-M   'P 1'
_cell_length_a   3.68046100
_cell_length_b   9.20592600
_cell_length_c   11.52966900
_cell_angle_alpha   90.00000000
_cell_angle_beta   90.00000000
_cell_angle_gamma   90.00000000
_symmetry_Int_Tables_number   1
_chemical_formula_structural   DyPuReB6
_chemical_formula_sum   'Dy4 Pu4 Re4 B24'
_cell_volume   390.64884013
_cell_formula_units_Z   4
loop_
 _symmetry_equiv_pos_site_id
 _symmetry_equiv_pos_as_xyz
  1  'x, y, z'
loop_
 _atom_site_type_symbol
 _atom_site_label
 _atom_site_symmetry_multiplicity
 _atom_site_fract_x
 _atom_site_fract_y
 _atom_site_fract_z
 _atom_site_occupancy
  Dy  Dy0  1  0.000000  0.944563  0.374201  1
  Dy  Dy1  1  0.000000  0.055437  0.625799  1
  Dy  Dy2  1  0.000000  0.444563  0.125799  1
  Dy  Dy3  1  0.000000  0.555437  0.874201  1
  Pu  Pu4  1  0.000000  0.323857  0.413442  1
  Pu  Pu5  1  0.000000  0.676143  0.586558  1
  Pu  Pu6  1  0.000000  0.823857  0.086558  1
  Pu  Pu7  1  0.000000  0.176143  0.913442  1
  Re  Re8  1  0.000000  0.637678  0.322184  1
  Re  Re9  1  0.000000  0.362322  0.677816  1
  Re  Re10  1  0.000000  0.137678  0.177816  1
  Re  Re11  1  0.000000  0.862322  0.822184  1
  B  B12  1  0.500000  0.552288  0.433282  1
  B  B13  1  0.500000  0.447712  0.566718  1
  B  B14  1  0.500000  0.052288  0.066718  1
  B  B15  1  0.500000  0.947712  0.933282  1
  B  B16  1  0.500000  0.746625  0.420715  1
  B  B17  1  0.500000  0.253375  0.579285  1
  B  B18  1  0.500000  0.246625  0.079285  1
  B  B19  1  0.500000  0.753375  0.920715  1
  B  B20  1  0.500000  0.792897  0.266684  1
  B  B21  1  0.500000  0.207103  0.733316  1
  B  B22  1  0.500000  0.292897  0.233316  1
  B  B23  1  0.500000  0.707103  0.766684  1
  B  B24  1  0.500000  0.633704  0.186163  1
  B  B25  1  0.500000  0.366296  0.813837  1
  B  B26  1  0.500000  0.133704  0.313837  1
  B  B27  1  0.500000  0.866296  0.686163  1
  B  B28  1  0.500000  0.981983  0.212937  1
  B  B29  1  0.500000  0.018017  0.787063  1
  B  B30  1  0.500000  0.481983  0.287063  1
  B  B31  1  0.500000  0.518017  0.712937  1
  B  B32  1  0.500000  0.616522  0.032621  1
  B  B33  1  0.500000  0.383478  0.967379  1
  B  B34  1  0.500000  0.116522  0.467379  1
  B  B35  1  0.500000  0.883478  0.532621  1
