# generated using pymatgen
data_MnTl(PO3)4
_symmetry_space_group_name_H-M   'P 1'
_cell_length_a   10.57485168
_cell_length_b   10.57485181
_cell_length_c   5.37132300
_cell_angle_alpha   80.23838852
_cell_angle_beta   80.23838840
_cell_angle_gamma   73.34895253
_symmetry_Int_Tables_number   1
_chemical_formula_structural   MnTl(PO3)4
_chemical_formula_sum   'Mn2 Tl2 P8 O24'
_cell_volume   562.46886041
_cell_formula_units_Z   2
loop_
 _symmetry_equiv_pos_site_id
 _symmetry_equiv_pos_as_xyz
  1  'x, y, z'
loop_
 _atom_site_type_symbol
 _atom_site_label
 _atom_site_symmetry_multiplicity
 _atom_site_fract_x
 _atom_site_fract_y
 _atom_site_fract_z
 _atom_site_occupancy
  Mn  Mn0  1  0.500000  0.000000  0.000000  1
  Mn  Mn1  1  0.000000  0.500000  0.000000  1
  Tl  Tl2  1  0.400788  0.400788  0.740610  1
  Tl  Tl3  1  0.599212  0.599212  0.259390  1
  P  P4  1  0.804298  0.351118  0.831966  1
  P  P5  1  0.071151  0.307519  0.523887  1
  P  P6  1  0.307519  0.071151  0.523887  1
  P  P7  1  0.648882  0.195702  0.168034  1
  P  P8  1  0.351118  0.804298  0.831966  1
  P  P9  1  0.692481  0.928849  0.476113  1
  P  P10  1  0.928849  0.692481  0.476113  1
  P  P11  1  0.195702  0.648882  0.168034  1
  O  O12  1  0.421474  0.855696  0.004431  1
  O  O13  1  0.393983  0.107240  0.679805  1
  O  O14  1  0.426755  0.682860  0.715533  1
  O  O15  1  0.144304  0.578526  0.995569  1
  O  O16  1  0.578526  0.144304  0.995569  1
  O  O17  1  0.915538  0.656012  0.762494  1
  O  O18  1  0.213232  0.786768  0.000000  1
  O  O19  1  0.573245  0.317140  0.284467  1
  O  O20  1  0.606017  0.892760  0.320195  1
  O  O21  1  0.710543  0.075405  0.378450  1
  O  O22  1  0.317140  0.573245  0.284467  1
  O  O23  1  0.892760  0.606017  0.320195  1
  O  O24  1  0.855696  0.421474  0.004431  1
  O  O25  1  0.075405  0.710543  0.378450  1
  O  O26  1  0.154803  0.154803  0.580335  1
  O  O27  1  0.107240  0.393983  0.679805  1
  O  O28  1  0.682860  0.426755  0.715533  1
  O  O29  1  0.289457  0.924595  0.621550  1
  O  O30  1  0.786768  0.213232  0.000000  1
  O  O31  1  0.343988  0.084462  0.237506  1
  O  O32  1  0.656012  0.915538  0.762494  1
  O  O33  1  0.845197  0.845197  0.419665  1
  O  O34  1  0.924595  0.289457  0.621550  1
  O  O35  1  0.084462  0.343988  0.237506  1
