# generated using pymatgen
data_Nd4In2(TeO6)3
_symmetry_space_group_name_H-M   'P 1'
_cell_length_a   9.23289600
_cell_length_b   9.22422596
_cell_length_c   5.33140800
_cell_angle_alpha   90.83832042
_cell_angle_beta   90.00000000
_cell_angle_gamma   120.03111155
_symmetry_Int_Tables_number   1
_chemical_formula_structural   Nd4In2(TeO6)3
_chemical_formula_sum   'Nd4 In2 Te3 O18'
_cell_volume   393.04489970
_cell_formula_units_Z   1
loop_
 _symmetry_equiv_pos_site_id
 _symmetry_equiv_pos_as_xyz
  1  'x, y, z'
loop_
 _atom_site_type_symbol
 _atom_site_label
 _atom_site_symmetry_multiplicity
 _atom_site_fract_x
 _atom_site_fract_y
 _atom_site_fract_z
 _atom_site_occupancy
  Nd  Nd0  1  0.611156  0.000000  0.000000  1
  Nd  Nd1  1  0.997318  0.606746  0.002912  1
  Nd  Nd2  1  0.390571  0.393254  0.997088  1
  Nd  Nd3  1  0.259322  0.000000  0.500000  1
  In  In4  1  0.000842  0.287705  0.500613  1
  In  In5  1  0.713139  0.712295  0.499387  1
  Te  Te6  1  0.993496  0.000000  0.000000  1
  Te  Te7  1  0.334851  0.664282  0.492777  1
  Te  Te8  1  0.670571  0.335718  0.507223  1
  O  O9  1  0.073166  0.869447  0.822665  1
  O  O10  1  0.108714  0.179855  0.747416  1
  O  O11  1  0.787004  0.898971  0.803900  1
  O  O12  1  0.203718  0.130553  0.177335  1
  O  O13  1  0.928860  0.820145  0.252584  1
  O  O14  1  0.888032  0.101029  0.196100  1
  O  O15  1  0.464637  0.596641  0.697693  1
  O  O16  1  0.402861  0.861743  0.701279  1
  O  O17  1  0.140596  0.535874  0.709748  1
  O  O18  1  0.867995  0.403359  0.302307  1
  O  O19  1  0.541117  0.138257  0.298721  1
  O  O20  1  0.604721  0.464126  0.290252  1
  O  O21  1  0.232886  0.760022  0.279934  1
  O  O22  1  0.229614  0.458311  0.286741  1
  O  O23  1  0.536391  0.762138  0.279374  1
  O  O24  1  0.472864  0.239978  0.720066  1
  O  O25  1  0.771305  0.541689  0.713259  1
  O  O26  1  0.774253  0.237862  0.720626  1
