# generated using pymatgen
data_HoEr11ZnCo4Pb
_symmetry_space_group_name_H-M   'P 1'
_cell_length_a   8.25715605
_cell_length_b   8.25715618
_cell_length_c   8.25940588
_cell_angle_alpha   111.98825341
_cell_angle_beta   109.36575376
_cell_angle_gamma   107.08521885
_symmetry_Int_Tables_number   1
_chemical_formula_structural   HoEr11ZnCo4Pb
_chemical_formula_sum   'Ho1 Er11 Zn1 Co4 Pb1'
_cell_volume   432.76517696
_cell_formula_units_Z   1
loop_
 _symmetry_equiv_pos_site_id
 _symmetry_equiv_pos_as_xyz
  1  'x, y, z'
loop_
 _atom_site_type_symbol
 _atom_site_label
 _atom_site_symmetry_multiplicity
 _atom_site_fract_x
 _atom_site_fract_y
 _atom_site_fract_z
 _atom_site_occupancy
  Ho  Ho0  1  0.820595  0.218609  0.039204  1
  Er  Er1  1  0.969838  0.269013  0.699846  1
  Er  Er2  1  0.029224  0.729526  0.299802  1
  Er  Er3  1  0.675450  0.861132  0.185964  1
  Er  Er4  1  0.324833  0.510515  0.185964  1
  Er  Er5  1  0.324158  0.138089  0.813903  1
  Er  Er6  1  0.675814  0.489745  0.813903  1
  Er  Er7  1  0.570276  0.270578  0.299802  1
  Er  Er8  1  0.430833  0.730008  0.699846  1
  Er  Er9  1  0.179853  0.781357  0.961211  1
  Er  Er10  1  0.820811  0.781140  0.601952  1
  Er  Er11  1  0.179873  0.218458  0.398330  1
  Zn  Zn12  1  0.001527  0.500827  0.502354  1
  Co  Co13  1  0.115552  0.114589  0.000022  1
  Co  Co14  1  0.885434  0.884471  0.000022  1
  Co  Co15  1  0.658721  0.500314  0.159036  1
  Co  Co16  1  0.340599  0.500008  0.840607  1
  Pb  Pb17  1  0.496610  0.001621  0.498231  1
