# generated using pymatgen
data_AcLaNp2F14
_symmetry_space_group_name_H-M   'P 1'
_cell_length_a   6.20568624
_cell_length_b   6.60687626
_cell_length_c   8.93998556
_cell_angle_alpha   77.60107801
_cell_angle_beta   89.88597965
_cell_angle_gamma   89.95282051
_symmetry_Int_Tables_number   1
_chemical_formula_structural   AcLaNp2F14
_chemical_formula_sum   'Ac1 La1 Np2 F14'
_cell_volume   357.99137677
_cell_formula_units_Z   1
loop_
 _symmetry_equiv_pos_site_id
 _symmetry_equiv_pos_as_xyz
  1  'x, y, z'
loop_
 _atom_site_type_symbol
 _atom_site_label
 _atom_site_symmetry_multiplicity
 _atom_site_fract_x
 _atom_site_fract_y
 _atom_site_fract_z
 _atom_site_occupancy
  Ac  Ac0  1  0.200724  0.653405  0.316279  1
  La  La1  1  0.699606  0.342625  0.688314  1
  Np  Np2  1  0.208538  0.812076  0.774958  1
  Np  Np3  1  0.708494  0.189404  0.223922  1
  F  F4  1  0.402966  0.453640  0.529780  1
  F  F5  1  0.887586  0.535674  0.481945  1
  F  F6  1  0.922282  0.926507  0.231158  1
  F  F7  1  0.427908  0.072976  0.766778  1
  F  F8  1  0.445683  0.965125  0.239382  1
  F  F9  1  0.946289  0.041026  0.757888  1
  F  F10  1  0.495438  0.454493  0.211786  1
  F  F11  1  0.991440  0.548708  0.784277  1
  F  F12  1  0.200999  0.757707  0.022496  1
  F  F13  1  0.701243  0.244750  0.974756  1
  F  F14  1  0.208896  0.863181  0.526632  1
  F  F15  1  0.708859  0.142793  0.472383  1
  F  F16  1  0.998843  0.379174  0.215471  1
  F  F17  1  0.496930  0.616737  0.781797  1
