# generated using pymatgen
data_Ho5ErCo16(P6Ru)2
_symmetry_space_group_name_H-M   'P 1'
_cell_length_a   3.69769700
_cell_length_b   10.50535838
_cell_length_c   12.22768345
_cell_angle_alpha   90.03097885
_cell_angle_beta   90.00000000
_cell_angle_gamma   90.00000000
_symmetry_Int_Tables_number   1
_chemical_formula_structural   Ho5ErCo16(P6Ru)2
_chemical_formula_sum   'Ho5 Er1 Co16 P12 Ru2'
_cell_volume   474.99202416
_cell_formula_units_Z   1
loop_
 _symmetry_equiv_pos_site_id
 _symmetry_equiv_pos_as_xyz
  1  'x, y, z'
loop_
 _atom_site_type_symbol
 _atom_site_label
 _atom_site_symmetry_multiplicity
 _atom_site_fract_x
 _atom_site_fract_y
 _atom_site_fract_z
 _atom_site_occupancy
  Ho  Ho0  1  0.000000  0.500055  0.524638  1
  Ho  Ho1  1  0.500000  0.999871  0.475196  1
  Ho  Ho2  1  0.500000  0.182638  0.206959  1
  Ho  Ho3  1  0.000000  0.682810  0.792874  1
  Ho  Ho4  1  0.000000  0.317222  0.793173  1
  Er  Er5  1  0.500000  0.817435  0.207077  1
  Co  Co6  1  0.000000  0.500047  0.986522  1
  Co  Co7  1  0.500000  0.999948  0.013829  1
  Co  Co8  1  0.500000  0.297411  0.431271  1
  Co  Co9  1  0.500000  0.702589  0.430975  1
  Co  Co10  1  0.000000  0.202499  0.568757  1
  Co  Co11  1  0.000000  0.797408  0.568461  1
  Co  Co12  1  0.500000  0.878940  0.707440  1
  Co  Co13  1  0.500000  0.121080  0.707582  1
  Co  Co14  1  0.000000  0.621370  0.292165  1
  Co  Co15  1  0.000000  0.378988  0.292496  1
  Co  Co16  1  0.500000  0.332395  0.990739  1
  Co  Co17  1  0.500000  0.667700  0.990857  1
  Co  Co18  1  0.000000  0.167481  0.009452  1
  Co  Co19  1  0.000000  0.832461  0.009590  1
  Co  Co20  1  0.500000  0.500071  0.704212  1
  Co  Co21  1  0.000000  0.999691  0.295712  1
  P  P22  1  0.500000  0.311832  0.616285  1
  P  P23  1  0.500000  0.688209  0.616027  1
  P  P24  1  0.000000  0.188063  0.383736  1
  P  P25  1  0.000000  0.811844  0.383304  1
  P  P26  1  0.500000  0.500129  0.882013  1
  P  P27  1  0.000000  0.999680  0.118332  1
  P  P28  1  0.500000  0.846316  0.892979  1
  P  P29  1  0.500000  0.153541  0.893154  1
  P  P30  1  0.000000  0.654022  0.107231  1
  P  P31  1  0.000000  0.346356  0.107008  1
  P  P32  1  0.500000  0.499997  0.350755  1
  P  P33  1  0.000000  0.999933  0.649175  1
  Ru  Ru34  1  0.500000  0.499927  0.159677  1
  Ru  Ru35  1  0.000000  0.000041  0.840348  1
