# generated using pymatgen
data_Y3TmAl15(GaIr2)3
_symmetry_space_group_name_H-M   'P 1'
_cell_length_a   7.53186034
_cell_length_b   7.53423356
_cell_length_c   9.54294200
_cell_angle_alpha   90.00000000
_cell_angle_beta   90.00000000
_cell_angle_gamma   119.49602886
_symmetry_Int_Tables_number   1
_chemical_formula_structural   Y3TmAl15(GaIr2)3
_chemical_formula_sum   'Y3 Tm1 Al15 Ga3 Ir6'
_cell_volume   471.34339604
_cell_formula_units_Z   1
loop_
 _symmetry_equiv_pos_site_id
 _symmetry_equiv_pos_as_xyz
  1  'x, y, z'
loop_
 _atom_site_type_symbol
 _atom_site_label
 _atom_site_symmetry_multiplicity
 _atom_site_fract_x
 _atom_site_fract_y
 _atom_site_fract_z
 _atom_site_occupancy
  Y  Y0  1  0.997748  0.674770  0.250000  1
  Y  Y1  1  0.005897  0.326284  0.750000  1
  Y  Y2  1  0.670292  0.991461  0.250000  1
  Tm  Tm3  1  0.325032  0.003747  0.750000  1
  Al  Al4  1  0.001817  0.335352  0.072720  1
  Al  Al5  1  0.998778  0.664885  0.925798  1
  Al  Al6  1  0.998778  0.664885  0.574202  1
  Al  Al7  1  0.336052  0.003378  0.427871  1
  Al  Al8  1  0.001817  0.335352  0.427280  1
  Al  Al9  1  0.663574  0.998808  0.574024  1
  Al  Al10  1  0.663574  0.998808  0.925976  1
  Al  Al11  1  0.336052  0.003378  0.072129  1
  Al  Al12  1  0.334453  0.333722  0.557661  1
  Al  Al13  1  0.665863  0.665483  0.447748  1
  Al  Al14  1  0.665863  0.665483  0.052252  1
  Al  Al15  1  0.334453  0.333722  0.942339  1
  Al  Al16  1  0.661720  0.449768  0.750000  1
  Al  Al17  1  0.549799  0.339160  0.250000  1
  Al  Al18  1  0.451435  0.663520  0.750000  1
  Ga  Ga19  1  0.131424  0.131893  0.250000  1
  Ga  Ga20  1  0.865988  0.865303  0.750000  1
  Ga  Ga21  1  0.339401  0.546301  0.250000  1
  Ir  Ir22  1  0.671055  0.328999  0.999950  1
  Ir  Ir23  1  0.328472  0.672635  0.997569  1
  Ir  Ir24  1  0.328472  0.672635  0.502431  1
  Ir  Ir25  1  0.671055  0.328999  0.500050  1
  Ir  Ir26  1  0.000569  0.000635  0.999522  1
  Ir  Ir27  1  0.000569  0.000635  0.500478  1
