# generated using pymatgen
data_Pr5ErIn6O18
_symmetry_space_group_name_H-M   'P 1'
_cell_length_a   6.53902900
_cell_length_b   6.53902942
_cell_length_c   12.53961200
_cell_angle_alpha   90.00000000
_cell_angle_beta   90.00000000
_cell_angle_gamma   119.99999283
_symmetry_Int_Tables_number   1
_chemical_formula_structural   Pr5ErIn6O18
_chemical_formula_sum   'Pr5 Er1 In6 O18'
_cell_volume   464.34558045
_cell_formula_units_Z   1
loop_
 _symmetry_equiv_pos_site_id
 _symmetry_equiv_pos_as_xyz
  1  'x, y, z'
loop_
 _atom_site_type_symbol
 _atom_site_label
 _atom_site_symmetry_multiplicity
 _atom_site_fract_x
 _atom_site_fract_y
 _atom_site_fract_z
 _atom_site_occupancy
  Pr  Pr0  1  0.333333  0.666667  0.231879  1
  Pr  Pr1  1  0.000000  0.000000  0.266185  1
  Pr  Pr2  1  0.000000  0.000000  0.769484  1
  Pr  Pr3  1  0.333333  0.666667  0.729366  1
  Pr  Pr4  1  0.666667  0.333333  0.729868  1
  Er  Er5  1  0.666667  0.333333  0.230088  1
  In  In6  1  0.997480  0.663965  0.493943  1
  In  In7  1  0.997786  0.334221  0.998465  1
  In  In8  1  0.336035  0.333515  0.493943  1
  In  In9  1  0.665779  0.663565  0.998465  1
  In  In10  1  0.336435  0.002214  0.998465  1
  In  In11  1  0.666485  0.002520  0.493943  1
  O  O12  1  0.001467  0.694366  0.662716  1
  O  O13  1  0.984968  0.626517  0.326998  1
  O  O14  1  0.000139  0.359843  0.831015  1
  O  O15  1  0.985789  0.308660  0.166975  1
  O  O16  1  0.333333  0.666667  0.023940  1
  O  O17  1  0.000000  0.000000  0.466239  1
  O  O18  1  0.000000  0.000000  0.973317  1
  O  O19  1  0.333333  0.666667  0.515810  1
  O  O20  1  0.305634  0.307102  0.662716  1
  O  O21  1  0.373483  0.358450  0.326998  1
  O  O22  1  0.322871  0.014211  0.166975  1
  O  O23  1  0.640157  0.640296  0.831015  1
  O  O24  1  0.691340  0.677129  0.166975  1
  O  O25  1  0.359704  0.999861  0.831015  1
  O  O26  1  0.666667  0.333333  0.522795  1
  O  O27  1  0.666667  0.333333  0.023211  1
  O  O28  1  0.641550  0.015032  0.326998  1
  O  O29  1  0.692898  0.998533  0.662716  1
