# generated using pymatgen
data_Cs2Pt2OF10
_symmetry_space_group_name_H-M   'P 1'
_cell_length_a   11.23555900
_cell_length_b   5.76863943
_cell_length_c   9.61856779
_cell_angle_alpha   75.67541291
_cell_angle_beta   90.00000000
_cell_angle_gamma   90.00000000
_symmetry_Int_Tables_number   1
_chemical_formula_structural   Cs2Pt2OF10
_chemical_formula_sum   'Cs4 Pt4 O2 F20'
_cell_volume   604.03453528
_cell_formula_units_Z   2
loop_
 _symmetry_equiv_pos_site_id
 _symmetry_equiv_pos_as_xyz
  1  'x, y, z'
loop_
 _atom_site_type_symbol
 _atom_site_label
 _atom_site_symmetry_multiplicity
 _atom_site_fract_x
 _atom_site_fract_y
 _atom_site_fract_z
 _atom_site_occupancy
  Cs  Cs0  1  0.982791  0.832531  0.755177  1
  Cs  Cs1  1  0.017209  0.167469  0.244823  1
  Cs  Cs2  1  0.482791  0.167469  0.244823  1
  Cs  Cs3  1  0.517209  0.832531  0.755177  1
  Pt  Pt4  1  0.250000  0.496610  0.516691  1
  Pt  Pt5  1  0.250000  0.273550  0.892688  1
  Pt  Pt6  1  0.750000  0.726450  0.107312  1
  Pt  Pt7  1  0.750000  0.503390  0.483309  1
  O  O8  1  0.250000  0.505194  0.713684  1
  O  O9  1  0.750000  0.494806  0.286316  1
  F  F10  1  0.126375  0.253881  0.544792  1
  F  F11  1  0.924825  0.729822  0.102444  1
  F  F12  1  0.372369  0.743399  0.478824  1
  F  F13  1  0.075175  0.270178  0.897556  1
  F  F14  1  0.250000  0.004670  0.803836  1
  F  F15  1  0.750000  0.471027  0.008921  1
  F  F16  1  0.750000  0.995330  0.196164  1
  F  F17  1  0.872369  0.256601  0.521176  1
  F  F18  1  0.750000  0.953341  0.920962  1
  F  F19  1  0.250000  0.046659  0.079038  1
  F  F20  1  0.626375  0.746119  0.455208  1
  F  F21  1  0.250000  0.491294  0.316117  1
  F  F22  1  0.250000  0.528973  0.991079  1
  F  F23  1  0.127631  0.743399  0.478824  1
  F  F24  1  0.873625  0.746119  0.455208  1
  F  F25  1  0.424825  0.270178  0.897556  1
  F  F26  1  0.627631  0.256601  0.521176  1
  F  F27  1  0.373625  0.253881  0.544792  1
  F  F28  1  0.750000  0.508706  0.683883  1
  F  F29  1  0.575175  0.729822  0.102444  1
