# generated using pymatgen
data_Na20Ti(SiP4)3
_symmetry_space_group_name_H-M   'P 1'
_cell_length_a   7.34290193
_cell_length_b   7.99542653
_cell_length_c   15.32222708
_cell_angle_alpha   59.33525659
_cell_angle_beta   89.53631492
_cell_angle_gamma   89.89676542
_symmetry_Int_Tables_number   1
_chemical_formula_structural   Na20Ti(SiP4)3
_chemical_formula_sum   'Na20 Ti1 Si3 P12'
_cell_volume   773.74500301
_cell_formula_units_Z   1
loop_
 _symmetry_equiv_pos_site_id
 _symmetry_equiv_pos_as_xyz
  1  'x, y, z'
loop_
 _atom_site_type_symbol
 _atom_site_label
 _atom_site_symmetry_multiplicity
 _atom_site_fract_x
 _atom_site_fract_y
 _atom_site_fract_z
 _atom_site_occupancy
  Na  Na0  1  0.510822  0.556646  0.255960  1
  Na  Na1  1  0.007558  0.443069  0.243307  1
  Na  Na2  1  0.490943  0.443259  0.741835  1
  Na  Na3  1  0.990586  0.557011  0.756575  1
  Na  Na4  1  0.982293  0.913470  0.412997  1
  Na  Na5  1  0.482310  0.082627  0.088447  1
  Na  Na6  1  0.014283  0.085880  0.588035  1
  Na  Na7  1  0.518677  0.916162  0.912308  1
  Na  Na8  1  0.531377  0.255071  0.582249  1
  Na  Na9  1  0.026442  0.745713  0.918734  1
  Na  Na10  1  0.471199  0.743260  0.418319  1
  Na  Na11  1  0.973855  0.257047  0.081453  1
  Na  Na12  1  0.154774  0.836287  0.241562  1
  Na  Na13  1  0.654555  0.162356  0.259664  1
  Na  Na14  1  0.847006  0.163384  0.757484  1
  Na  Na15  1  0.344595  0.838186  0.740484  1
  Na  Na16  1  0.337265  0.159448  0.418244  1
  Na  Na17  1  0.838206  0.840289  0.082245  1
  Na  Na18  1  0.663259  0.842338  0.580861  1
  Na  Na19  1  0.162104  0.156584  0.918068  1
  Ti  Ti20  1  0.634563  0.510142  0.920246  1
  Si  Si21  1  0.138409  0.488537  0.582838  1
  Si  Si22  1  0.364894  0.489078  0.081048  1
  Si  Si23  1  0.861733  0.511578  0.416985  1
  P  P24  1  0.742584  0.243112  0.420436  1
  P  P25  1  0.244021  0.757695  0.078241  1
  P  P26  1  0.257606  0.758237  0.578770  1
  P  P27  1  0.760339  0.230674  0.921463  1
  P  P28  1  0.771341  0.797935  0.280237  1
  P  P29  1  0.272055  0.203154  0.218912  1
  P  P30  1  0.230634  0.203445  0.720004  1
  P  P31  1  0.730167  0.807178  0.774239  1
  P  P32  1  0.304958  0.480203  0.934611  1
  P  P33  1  0.820864  0.520783  0.565597  1
  P  P34  1  0.684254  0.519913  0.073033  1
  P  P35  1  0.179469  0.480250  0.434509  1
