# generated using pymatgen
data_LiErB6W
_symmetry_space_group_name_H-M   'P 1'
_cell_length_a   3.37558800
_cell_length_b   8.79517500
_cell_length_c   11.05349300
_cell_angle_alpha   90.00000000
_cell_angle_beta   90.00000000
_cell_angle_gamma   90.00000000
_symmetry_Int_Tables_number   1
_chemical_formula_structural   LiErB6W
_chemical_formula_sum   'Li4 Er4 B24 W4'
_cell_volume   328.16590671
_cell_formula_units_Z   4
loop_
 _symmetry_equiv_pos_site_id
 _symmetry_equiv_pos_as_xyz
  1  'x, y, z'
loop_
 _atom_site_type_symbol
 _atom_site_label
 _atom_site_symmetry_multiplicity
 _atom_site_fract_x
 _atom_site_fract_y
 _atom_site_fract_z
 _atom_site_occupancy
  Li  Li0  1  0.500000  0.142245  0.180855  1
  Li  Li1  1  0.500000  0.857755  0.819145  1
  Li  Li2  1  0.500000  0.357755  0.680855  1
  Li  Li3  1  0.500000  0.642245  0.319145  1
  Er  Er4  1  0.500000  0.319373  0.413817  1
  Er  Er5  1  0.500000  0.680627  0.586183  1
  Er  Er6  1  0.500000  0.180627  0.913817  1
  Er  Er7  1  0.500000  0.819373  0.086183  1
  B  B8  1  0.000000  0.098840  0.473483  1
  B  B9  1  0.000000  0.901160  0.526517  1
  B  B10  1  0.000000  0.401160  0.973483  1
  B  B11  1  0.000000  0.598840  0.026517  1
  B  B12  1  0.000000  0.128376  0.317731  1
  B  B13  1  0.000000  0.871624  0.682269  1
  B  B14  1  0.000000  0.371624  0.817731  1
  B  B15  1  0.000000  0.628376  0.182269  1
  B  B16  1  0.000000  0.052030  0.065081  1
  B  B17  1  0.000000  0.947970  0.934919  1
  B  B18  1  0.000000  0.447970  0.565081  1
  B  B19  1  0.000000  0.552030  0.434919  1
  B  B20  1  0.000000  0.480798  0.284710  1
  B  B21  1  0.000000  0.519202  0.715290  1
  B  B22  1  0.000000  0.019202  0.784710  1
  B  B23  1  0.000000  0.980798  0.215290  1
  B  B24  1  0.000000  0.254883  0.080982  1
  B  B25  1  0.000000  0.745117  0.919018  1
  B  B26  1  0.000000  0.245117  0.580982  1
  B  B27  1  0.000000  0.754883  0.419018  1
  B  B28  1  0.000000  0.298879  0.233568  1
  B  B29  1  0.000000  0.701121  0.766432  1
  B  B30  1  0.000000  0.201121  0.733568  1
  B  B31  1  0.000000  0.798879  0.266432  1
  W  W32  1  0.500000  0.445549  0.126664  1
  W  W33  1  0.500000  0.554451  0.873336  1
  W  W34  1  0.500000  0.054451  0.626664  1
  W  W35  1  0.500000  0.945549  0.373336  1
