# generated using pymatgen
data_Ce2ThAlPt3Au2
_symmetry_space_group_name_H-M   'P 1'
_cell_length_a   7.65429910
_cell_length_b   7.42747414
_cell_length_c   3.90083100
_cell_angle_alpha   90.00000000
_cell_angle_beta   90.00000000
_cell_angle_gamma   119.02448319
_symmetry_Int_Tables_number   1
_chemical_formula_structural   Ce2ThAlPt3Au2
_chemical_formula_sum   'Ce2 Th1 Al1 Pt3 Au2'
_cell_volume   193.91886055
_cell_formula_units_Z   1
loop_
 _symmetry_equiv_pos_site_id
 _symmetry_equiv_pos_as_xyz
  1  'x, y, z'
loop_
 _atom_site_type_symbol
 _atom_site_label
 _atom_site_symmetry_multiplicity
 _atom_site_fract_x
 _atom_site_fract_y
 _atom_site_fract_z
 _atom_site_occupancy
  Ce  Ce0  1  0.404059  0.394977  0.500000  1
  Ce  Ce1  1  0.595941  0.990919  0.500000  1
  Th  Th2  1  0.000000  0.614770  0.500000  1
  Al  Al3  1  0.000000  0.252155  0.000000  1
  Pt  Pt4  1  0.693885  0.327167  0.000000  1
  Pt  Pt5  1  0.306115  0.633283  0.000000  1
  Pt  Pt6  1  0.000000  0.044013  0.500000  1
  Au  Au7  1  0.732205  0.737460  0.000000  1
  Au  Au8  1  0.267795  0.005255  0.000000  1
