# generated using pymatgen
data_Sr3La3P17Pd6
_symmetry_space_group_name_H-M   'P 1'
_cell_length_a   9.10633437
_cell_length_b   9.10633376
_cell_length_c   9.14931078
_cell_angle_alpha   109.92406912
_cell_angle_beta   109.01161718
_cell_angle_gamma   109.28820148
_symmetry_Int_Tables_number   1
_chemical_formula_structural   Sr3La3P17Pd6
_chemical_formula_sum   'Sr3 La3 P17 Pd6'
_cell_volume   585.38942393
_cell_formula_units_Z   1
loop_
 _symmetry_equiv_pos_site_id
 _symmetry_equiv_pos_as_xyz
  1  'x, y, z'
loop_
 _atom_site_type_symbol
 _atom_site_label
 _atom_site_symmetry_multiplicity
 _atom_site_fract_x
 _atom_site_fract_y
 _atom_site_fract_z
 _atom_site_occupancy
  Sr  Sr0  1  0.282008  0.282008  0.000000  1
  Sr  Sr1  1  0.001054  0.712791  0.712401  1
  Sr  Sr2  1  0.000390  0.288652  0.287599  1
  La  La3  1  0.275855  0.000621  0.274707  1
  La  La4  1  0.725914  0.001147  0.725293  1
  La  La5  1  0.718593  0.718593  0.000000  1
  P  P6  1  0.638958  0.422863  0.640744  1
  P  P7  1  0.782119  0.998214  0.359256  1
  P  P8  1  0.363963  0.000219  0.782401  1
  P  P9  1  0.780244  0.358692  0.998304  1
  P  P10  1  0.217495  0.215350  0.574334  1
  P  P11  1  0.575857  0.217457  0.219358  1
  P  P12  1  0.998099  0.356499  0.780642  1
  P  P13  1  0.000075  0.782471  0.355249  1
  P  P14  1  0.360388  0.781940  0.001696  1
  P  P15  1  0.641016  0.643161  0.425666  1
  P  P16  1  0.427222  0.644826  0.644751  1
  P  P17  1  0.217819  0.581562  0.217599  1
  P  P18  1  0.438907  0.437823  0.439315  1
  P  P19  1  0.998508  0.999593  0.560685  1
  P  P20  1  0.562510  0.998562  0.999436  1
  P  P21  1  0.999126  0.563074  0.000564  1
  P  P22  1  0.992508  0.992508  0.000000  1
  Pd  Pd23  1  0.254388  0.754388  0.500000  1
  Pd  Pd24  1  0.499600  0.248653  0.748196  1
  Pd  Pd25  1  0.500456  0.751403  0.251804  1
  Pd  Pd26  1  0.251548  0.499293  0.750925  1
  Pd  Pd27  1  0.748368  0.500622  0.249075  1
  Pd  Pd28  1  0.747013  0.247013  0.500000  1
