# generated using pymatgen
data_Nd2Al9OsPd2
_symmetry_space_group_name_H-M   'P 1'
_cell_length_a   7.67489963
_cell_length_b   7.67489970
_cell_length_c   9.64712789
_cell_angle_alpha   89.91416040
_cell_angle_beta   89.91415996
_cell_angle_gamma   119.62392535
_symmetry_Int_Tables_number   1
_chemical_formula_structural   Nd2Al9OsPd2
_chemical_formula_sum   'Nd4 Al18 Os2 Pd4'
_cell_volume   493.97560647
_cell_formula_units_Z   2
loop_
 _symmetry_equiv_pos_site_id
 _symmetry_equiv_pos_as_xyz
  1  'x, y, z'
loop_
 _atom_site_type_symbol
 _atom_site_label
 _atom_site_symmetry_multiplicity
 _atom_site_fract_x
 _atom_site_fract_y
 _atom_site_fract_z
 _atom_site_occupancy
  Nd  Nd0  1  0.995522  0.669260  0.250688  1
  Nd  Nd1  1  0.004478  0.330740  0.749312  1
  Nd  Nd2  1  0.669260  0.995522  0.250688  1
  Nd  Nd3  1  0.330740  0.004478  0.749312  1
  Al  Al4  1  0.132295  0.132295  0.251502  1
  Al  Al5  1  0.867705  0.867705  0.748498  1
  Al  Al6  1  0.004413  0.334294  0.076366  1
  Al  Al7  1  0.995587  0.665706  0.923634  1
  Al  Al8  1  0.997953  0.659052  0.570865  1
  Al  Al9  1  0.340948  0.002047  0.429135  1
  Al  Al10  1  0.002047  0.340948  0.429135  1
  Al  Al11  1  0.659052  0.997953  0.570865  1
  Al  Al12  1  0.665706  0.995587  0.923634  1
  Al  Al13  1  0.334294  0.004413  0.076366  1
  Al  Al14  1  0.338869  0.338869  0.545799  1
  Al  Al15  1  0.661131  0.661131  0.454201  1
  Al  Al16  1  0.663035  0.663035  0.057643  1
  Al  Al17  1  0.336965  0.336965  0.942357  1
  Al  Al18  1  0.338573  0.545350  0.255078  1
  Al  Al19  1  0.661427  0.454650  0.744922  1
  Al  Al20  1  0.545350  0.338573  0.255078  1
  Al  Al21  1  0.454650  0.661427  0.744922  1
  Os  Os22  1  0.328652  0.671348  0.500000  1
  Os  Os23  1  0.671348  0.328652  0.500000  1
  Pd  Pd24  1  0.671647  0.328353  0.000000  1
  Pd  Pd25  1  0.328353  0.671647  0.000000  1
  Pd  Pd26  1  0.000000  0.000000  0.000000  1
  Pd  Pd27  1  0.000000  0.000000  0.500000  1
