# generated using pymatgen
data_Dy3Tm9Co4BiRu
_symmetry_space_group_name_H-M   'P 1'
_cell_length_a   8.24739959
_cell_length_b   8.24739890
_cell_length_c   8.23747567
_cell_angle_alpha   110.77343027
_cell_angle_beta   110.88553973
_cell_angle_gamma   106.83879613
_symmetry_Int_Tables_number   1
_chemical_formula_structural   Dy3Tm9Co4BiRu
_chemical_formula_sum   'Dy3 Tm9 Co4 Bi1 Ru1'
_cell_volume   430.36134178
_cell_formula_units_Z   1
loop_
 _symmetry_equiv_pos_site_id
 _symmetry_equiv_pos_as_xyz
  1  'x, y, z'
loop_
 _atom_site_type_symbol
 _atom_site_label
 _atom_site_symmetry_multiplicity
 _atom_site_fract_x
 _atom_site_fract_y
 _atom_site_fract_z
 _atom_site_occupancy
  Dy  Dy0  1  0.284368  0.183881  0.468250  1
  Dy  Dy1  1  0.715920  0.816966  0.532885  1
  Dy  Dy2  1  0.284120  0.815469  0.099588  1
  Tm  Tm3  1  0.716773  0.183300  0.900074  1
  Tm  Tm4  1  0.621499  0.311430  0.308911  1
  Tm  Tm5  1  0.379077  0.689124  0.690726  1
  Tm  Tm6  1  0.001602  0.311649  0.690726  1
  Tm  Tm7  1  0.997482  0.687412  0.308911  1
  Tm  Tm8  1  0.211016  0.407884  0.195416  1
  Tm  Tm9  1  0.787856  0.591207  0.804081  1
  Tm  Tm10  1  0.212875  0.016226  0.804081  1
  Tm  Tm11  1  0.787531  0.984399  0.195416  1
  Co  Co12  1  0.999767  0.375138  0.374905  1
  Co  Co13  1  0.999607  0.624539  0.624146  1
  Co  Co14  1  0.389235  0.889025  0.501336  1
  Co  Co15  1  0.612311  0.112102  0.501336  1
  Bi  Bi16  1  0.499994  0.499942  0.999936  1
  Ru  Ru17  1  0.998969  0.000305  0.999275  1
