# generated using pymatgen
data_Tb3Dy(LuPb)6
_symmetry_space_group_name_H-M   'P 1'
_cell_length_a   8.95916283
_cell_length_b   8.99257993
_cell_length_c   6.53035800
_cell_angle_alpha   90.00000000
_cell_angle_beta   90.00000000
_cell_angle_gamma   120.07069290
_symmetry_Int_Tables_number   1
_chemical_formula_structural   Tb3Dy(LuPb)6
_chemical_formula_sum   'Tb3 Dy1 Lu6 Pb6'
_cell_volume   455.31247409
_cell_formula_units_Z   1
loop_
 _symmetry_equiv_pos_site_id
 _symmetry_equiv_pos_as_xyz
  1  'x, y, z'
loop_
 _atom_site_type_symbol
 _atom_site_label
 _atom_site_symmetry_multiplicity
 _atom_site_fract_x
 _atom_site_fract_y
 _atom_site_fract_z
 _atom_site_occupancy
  Tb  Tb0  1  0.235248  0.236106  0.750000  1
  Tb  Tb1  1  0.234785  0.000016  0.250000  1
  Tb  Tb2  1  0.764042  0.763363  0.250000  1
  Dy  Dy3  1  0.764062  0.999931  0.750000  1
  Lu  Lu4  1  0.334062  0.667722  0.000030  1
  Lu  Lu5  1  0.666637  0.332205  0.000031  1
  Lu  Lu6  1  0.999216  0.762959  0.750000  1
  Lu  Lu7  1  0.000683  0.237534  0.250000  1
  Lu  Lu8  1  0.334062  0.667722  0.499970  1
  Lu  Lu9  1  0.666637  0.332205  0.499969  1
  Pb  Pb10  1  0.000162  0.398997  0.750000  1
  Pb  Pb11  1  0.394666  0.396369  0.250000  1
  Pb  Pb12  1  0.605584  0.001697  0.250000  1
  Pb  Pb13  1  0.605659  0.603892  0.750000  1
  Pb  Pb14  1  0.394418  0.998206  0.750000  1
  Pb  Pb15  1  0.000077  0.601075  0.250000  1
