# generated using pymatgen
data_Tm8Mn2B24IrRu
_symmetry_space_group_name_H-M   'P 1'
_cell_length_a   3.57010600
_cell_length_b   9.03879104
_cell_length_c   11.40547143
_cell_angle_alpha   89.95672853
_cell_angle_beta   90.00000000
_cell_angle_gamma   90.00000000
_symmetry_Int_Tables_number   1
_chemical_formula_structural   Tm8Mn2B24IrRu
_chemical_formula_sum   'Tm8 Mn2 B24 Ir1 Ru1'
_cell_volume   368.04809530
_cell_formula_units_Z   1
loop_
 _symmetry_equiv_pos_site_id
 _symmetry_equiv_pos_as_xyz
  1  'x, y, z'
loop_
 _atom_site_type_symbol
 _atom_site_label
 _atom_site_symmetry_multiplicity
 _atom_site_fract_x
 _atom_site_fract_y
 _atom_site_fract_z
 _atom_site_occupancy
  Tm  Tm0  1  0.000000  0.328323  0.419011  1
  Tm  Tm1  1  0.000000  0.673815  0.584553  1
  Tm  Tm2  1  0.000000  0.816300  0.086968  1
  Tm  Tm3  1  0.000000  0.181552  0.908793  1
  Tm  Tm4  1  0.000000  0.937965  0.373087  1
  Tm  Tm5  1  0.000000  0.059817  0.628006  1
  Tm  Tm6  1  0.000000  0.447704  0.130129  1
  Tm  Tm7  1  0.000000  0.554042  0.869719  1
  Mn  Mn8  1  0.000000  0.638245  0.319832  1
  Mn  Mn9  1  0.000000  0.361386  0.679591  1
  B  B10  1  0.500000  0.553503  0.432680  1
  B  B11  1  0.500000  0.446723  0.567711  1
  B  B12  1  0.500000  0.053281  0.065801  1
  B  B13  1  0.500000  0.946766  0.933519  1
  B  B14  1  0.500000  0.745654  0.418481  1
  B  B15  1  0.500000  0.254283  0.581572  1
  B  B16  1  0.500000  0.250354  0.078838  1
  B  B17  1  0.500000  0.750619  0.919803  1
  B  B18  1  0.500000  0.789523  0.266190  1
  B  B19  1  0.500000  0.210286  0.733291  1
  B  B20  1  0.500000  0.292637  0.235502  1
  B  B21  1  0.500000  0.708151  0.765072  1
  B  B22  1  0.500000  0.631107  0.186268  1
  B  B23  1  0.500000  0.368792  0.813172  1
  B  B24  1  0.500000  0.131241  0.316941  1
  B  B25  1  0.500000  0.869085  0.684683  1
  B  B26  1  0.500000  0.980498  0.213072  1
  B  B27  1  0.500000  0.018996  0.787224  1
  B  B28  1  0.500000  0.484508  0.288809  1
  B  B29  1  0.500000  0.515836  0.711447  1
  B  B30  1  0.500000  0.605780  0.029280  1
  B  B31  1  0.500000  0.393436  0.970788  1
  B  B32  1  0.500000  0.106493  0.470443  1
  B  B33  1  0.500000  0.893578  0.529403  1
  Ir  Ir34  1  0.000000  0.137244  0.178864  1
  Ru  Ru35  1  0.000000  0.862477  0.821459  1
