# generated using pymatgen
data_Tb12Pr8Sn5Bi11
_symmetry_space_group_name_H-M   'P 1'
_cell_length_a   8.33507900
_cell_length_b   8.31512203
_cell_length_c   15.59660700
_cell_angle_alpha   90.00000000
_cell_angle_beta   90.00000000
_cell_angle_gamma   90.51967877
_symmetry_Int_Tables_number   1
_chemical_formula_structural   Tb12Pr8Sn5Bi11
_chemical_formula_sum   'Tb12 Pr8 Sn5 Bi11'
_cell_volume   1080.91268176
_cell_formula_units_Z   1
loop_
 _symmetry_equiv_pos_site_id
 _symmetry_equiv_pos_as_xyz
  1  'x, y, z'
loop_
 _atom_site_type_symbol
 _atom_site_label
 _atom_site_symmetry_multiplicity
 _atom_site_fract_x
 _atom_site_fract_y
 _atom_site_fract_z
 _atom_site_occupancy
  Tb  Tb0  1  0.355022  0.850551  0.875775  1
  Tb  Tb1  1  0.859902  0.648721  0.624551  1
  Tb  Tb2  1  0.647948  0.150507  0.374818  1
  Tb  Tb3  1  0.134509  0.345046  0.126691  1
  Tb  Tb4  1  0.647948  0.150507  0.125182  1
  Tb  Tb5  1  0.134509  0.345046  0.373309  1
  Tb  Tb6  1  0.355022  0.850551  0.624225  1
  Tb  Tb7  1  0.859902  0.648721  0.875449  1
  Tb  Tb8  1  0.187932  0.492848  0.750000  1
  Tb  Tb9  1  0.687279  0.005739  0.750000  1
  Tb  Tb10  1  0.811441  0.504831  0.250000  1
  Tb  Tb11  1  0.308749  0.995181  0.250000  1
  Pr  Pr12  1  0.524393  0.317653  0.901794  1
  Pr  Pr13  1  0.023934  0.180395  0.597670  1
  Pr  Pr14  1  0.474979  0.682141  0.400033  1
  Pr  Pr15  1  0.977350  0.823591  0.098184  1
  Pr  Pr16  1  0.474979  0.682141  0.099967  1
  Pr  Pr17  1  0.977350  0.823591  0.401816  1
  Pr  Pr18  1  0.524393  0.317653  0.598206  1
  Pr  Pr19  1  0.023934  0.180395  0.902330  1
  Sn  Sn20  1  0.944436  0.123983  0.250000  1
  Sn  Sn21  1  0.336511  0.152532  0.750000  1
  Sn  Sn22  1  0.837114  0.346969  0.750000  1
  Sn  Sn23  1  0.670020  0.852094  0.250000  1
  Sn  Sn24  1  0.161749  0.652535  0.250000  1
  Bi  Bi25  1  0.296935  0.045118  0.045476  1
  Bi  Bi26  1  0.791186  0.459674  0.454712  1
  Bi  Bi27  1  0.706915  0.955657  0.546100  1
  Bi  Bi28  1  0.208184  0.541449  0.955709  1
  Bi  Bi29  1  0.706915  0.955657  0.953900  1
  Bi  Bi30  1  0.208184  0.541449  0.544291  1
  Bi  Bi31  1  0.296935  0.045118  0.454524  1
  Bi  Bi32  1  0.791186  0.459674  0.045288  1
  Bi  Bi33  1  0.553346  0.628860  0.750000  1
  Bi  Bi34  1  0.053291  0.872561  0.750000  1
  Bi  Bi35  1  0.445616  0.370864  0.250000  1
