# generated using pymatgen
data_Sc6Al3Ga(CuC)2
_symmetry_space_group_name_H-M   'P 1'
_cell_length_a   8.60954841
_cell_length_b   8.62060391
_cell_length_c   8.61998683
_cell_angle_alpha   60.07551325
_cell_angle_beta   60.04083873
_cell_angle_gamma   60.04335776
_symmetry_Int_Tables_number   1
_chemical_formula_structural   Sc6Al3Ga(CuC)2
_chemical_formula_sum   'Sc12 Al6 Ga2 Cu4 C4'
_cell_volume   452.93227974
_cell_formula_units_Z   2
loop_
 _symmetry_equiv_pos_site_id
 _symmetry_equiv_pos_as_xyz
  1  'x, y, z'
loop_
 _atom_site_type_symbol
 _atom_site_label
 _atom_site_symmetry_multiplicity
 _atom_site_fract_x
 _atom_site_fract_y
 _atom_site_fract_z
 _atom_site_occupancy
  Sc  Sc0  1  0.557800  0.942384  0.557397  1
  Sc  Sc1  1  0.307452  0.692823  0.692816  1
  Sc  Sc2  1  0.694347  0.307150  0.307165  1
  Sc  Sc3  1  0.307564  0.692605  0.307630  1
  Sc  Sc4  1  0.694527  0.691965  0.307055  1
  Sc  Sc5  1  0.307570  0.307618  0.692607  1
  Sc  Sc6  1  0.557805  0.557401  0.942372  1
  Sc  Sc7  1  0.943083  0.557183  0.557188  1
  Sc  Sc8  1  0.558638  0.942857  0.942840  1
  Sc  Sc9  1  0.943530  0.942960  0.558033  1
  Sc  Sc10  1  0.694531  0.307044  0.691967  1
  Sc  Sc11  1  0.943536  0.558038  0.942948  1
  Al  Al12  1  0.327649  0.013459  0.329083  1
  Al  Al13  1  0.327645  0.329087  0.013456  1
  Al  Al14  1  0.920194  0.236533  0.920919  1
  Al  Al15  1  0.920186  0.920919  0.236532  1
  Al  Al16  1  0.236105  0.920827  0.920838  1
  Al  Al17  1  0.327792  0.329170  0.329152  1
  Ga  Ga18  1  0.918330  0.918969  0.918971  1
  Ga  Ga19  1  0.006259  0.331041  0.331028  1
  Cu  Cu20  1  0.126479  0.123110  0.123129  1
  Cu  Cu21  1  0.622695  0.126885  0.126917  1
  Cu  Cu22  1  0.128394  0.624910  0.125043  1
  Cu  Cu23  1  0.128485  0.125047  0.624907  1
  C  C24  1  0.624831  0.624594  0.624600  1
  C  C25  1  0.124018  0.625412  0.625401  1
  C  C26  1  0.625278  0.125005  0.625000  1
  C  C27  1  0.625280  0.625003  0.125006  1
