# generated using pymatgen
data_Nb3V2Co6Rh
_symmetry_space_group_name_H-M   'P 1'
_cell_length_a   4.87217900
_cell_length_b   4.87218067
_cell_length_c   7.64703500
_cell_angle_alpha   90.00000000
_cell_angle_beta   90.00000000
_cell_angle_gamma   119.99998189
_symmetry_Int_Tables_number   1
_chemical_formula_structural   Nb3V2Co6Rh
_chemical_formula_sum   'Nb3 V2 Co6 Rh1'
_cell_volume   157.20646736
_cell_formula_units_Z   1
loop_
 _symmetry_equiv_pos_site_id
 _symmetry_equiv_pos_as_xyz
  1  'x, y, z'
loop_
 _atom_site_type_symbol
 _atom_site_label
 _atom_site_symmetry_multiplicity
 _atom_site_fract_x
 _atom_site_fract_y
 _atom_site_fract_z
 _atom_site_occupancy
  Nb  Nb0  1  0.333333  0.666667  0.429131  1
  Nb  Nb1  1  0.666667  0.333333  0.584048  1
  Nb  Nb2  1  0.333333  0.666667  0.056436  1
  V  V3  1  0.000000  0.000000  0.498187  1
  V  V4  1  0.000000  0.000000  0.000724  1
  Co  Co5  1  0.171756  0.828244  0.746546  1
  Co  Co6  1  0.656486  0.828244  0.746546  1
  Co  Co7  1  0.826628  0.173372  0.251690  1
  Co  Co8  1  0.171756  0.343514  0.746546  1
  Co  Co9  1  0.826628  0.653258  0.251690  1
  Co  Co10  1  0.346742  0.173372  0.251690  1
  Rh  Rh11  1  0.666667  0.333333  0.936766  1
