# generated using pymatgen
data_Bi4W2O11
_symmetry_space_group_name_H-M   'P 1'
_cell_length_a   6.61564903
_cell_length_b   7.78233287
_cell_length_c   10.03468874
_cell_angle_alpha   100.69349641
_cell_angle_beta   90.67573826
_cell_angle_gamma   89.99419519
_symmetry_Int_Tables_number   1
_chemical_formula_structural   Bi4W2O11
_chemical_formula_sum   'Bi8 W4 O22'
_cell_volume   507.62933225
_cell_formula_units_Z   2
loop_
 _symmetry_equiv_pos_site_id
 _symmetry_equiv_pos_as_xyz
  1  'x, y, z'
loop_
 _atom_site_type_symbol
 _atom_site_label
 _atom_site_symmetry_multiplicity
 _atom_site_fract_x
 _atom_site_fract_y
 _atom_site_fract_z
 _atom_site_occupancy
  Bi  Bi0  1  0.755989  0.374033  0.479668  1
  Bi  Bi1  1  0.244011  0.625967  0.520332  1
  Bi  Bi2  1  0.749397  0.874216  0.476977  1
  Bi  Bi3  1  0.250603  0.125784  0.523023  1
  Bi  Bi4  1  0.462915  0.937690  0.817435  1
  Bi  Bi5  1  0.537085  0.062310  0.182565  1
  Bi  Bi6  1  0.382482  0.457473  0.829343  1
  Bi  Bi7  1  0.617518  0.542527  0.170657  1
  W  W8  1  0.923791  0.701948  0.812554  1
  W  W9  1  0.076209  0.298052  0.187446  1
  W  W10  1  0.915964  0.200352  0.804182  1
  W  W11  1  0.084036  0.799648  0.195818  1
  O  O12  1  0.230586  0.717864  0.764517  1
  O  O13  1  0.769414  0.282136  0.235483  1
  O  O14  1  0.625596  0.668652  0.828324  1
  O  O15  1  0.374404  0.331348  0.171676  1
  O  O16  1  0.642466  0.254525  0.853299  1
  O  O17  1  0.357534  0.745475  0.146701  1
  O  O18  1  0.883380  0.167687  0.599706  1
  O  O19  1  0.116620  0.832313  0.400294  1
  O  O20  1  0.209222  0.145796  0.762367  1
  O  O21  1  0.790778  0.854204  0.237633  1
  O  O22  1  0.908718  0.637485  0.603436  1
  O  O23  1  0.091282  0.362515  0.396564  1
  O  O24  1  0.000706  0.548382  0.188752  1
  O  O25  1  0.999294  0.451618  0.811248  1
  O  O26  1  0.993142  0.777067  0.995465  1
  O  O27  1  0.006858  0.222933  0.004535  1
  O  O28  1  0.582509  0.611287  0.386142  1
  O  O29  1  0.417491  0.388713  0.613858  1
  O  O30  1  0.170772  0.056230  0.215583  1
  O  O31  1  0.829228  0.943770  0.784417  1
  O  O32  1  0.546004  0.095657  0.398652  1
  O  O33  1  0.453996  0.904343  0.601348  1
