# generated using pymatgen
data_EuAlSiPt
_symmetry_space_group_name_H-M   'P 1'
_cell_length_a   9.26034642
_cell_length_b   9.26034621
_cell_length_c   4.07612700
_cell_angle_alpha   90.00000000
_cell_angle_beta   90.00000000
_cell_angle_gamma   152.20834282
_symmetry_Int_Tables_number   1
_chemical_formula_structural   EuAlSiPt
_chemical_formula_sum   'Eu2 Al2 Si2 Pt2'
_cell_volume   162.97774465
_cell_formula_units_Z   2
loop_
 _symmetry_equiv_pos_site_id
 _symmetry_equiv_pos_as_xyz
  1  'x, y, z'
loop_
 _atom_site_type_symbol
 _atom_site_label
 _atom_site_symmetry_multiplicity
 _atom_site_fract_x
 _atom_site_fract_y
 _atom_site_fract_z
 _atom_site_occupancy
  Eu  Eu0  1  0.597286  0.402714  0.250000  1
  Eu  Eu1  1  0.402714  0.597286  0.750000  1
  Al  Al2  1  0.253830  0.746170  0.250000  1
  Al  Al3  1  0.746170  0.253830  0.750000  1
  Si  Si4  1  0.962811  0.037189  0.250000  1
  Si  Si5  1  0.037189  0.962811  0.750000  1
  Pt  Pt6  1  0.828444  0.171556  0.250000  1
  Pt  Pt7  1  0.171556  0.828444  0.750000  1
