# generated using pymatgen
data_Dy8In4Cu7Pt
_symmetry_space_group_name_H-M   'P 1'
_cell_length_a   7.65666219
_cell_length_b   7.65666279
_cell_length_c   7.29776600
_cell_angle_alpha   90.06671209
_cell_angle_beta   90.06670461
_cell_angle_gamma   90.32810392
_symmetry_Int_Tables_number   1
_chemical_formula_structural   Dy8In4Cu7Pt
_chemical_formula_sum   'Dy8 In4 Cu7 Pt1'
_cell_volume   427.82014237
_cell_formula_units_Z   1
loop_
 _symmetry_equiv_pos_site_id
 _symmetry_equiv_pos_as_xyz
  1  'x, y, z'
loop_
 _atom_site_type_symbol
 _atom_site_label
 _atom_site_symmetry_multiplicity
 _atom_site_fract_x
 _atom_site_fract_y
 _atom_site_fract_z
 _atom_site_occupancy
  Dy  Dy0  1  0.172129  0.172129  0.001157  1
  Dy  Dy1  1  0.832503  0.832503  0.998237  1
  Dy  Dy2  1  0.667463  0.327370  0.497880  1
  Dy  Dy3  1  0.327370  0.667463  0.497880  1
  Dy  Dy4  1  0.674237  0.320391  0.001565  1
  Dy  Dy5  1  0.320391  0.674237  0.001565  1
  Dy  Dy6  1  0.824256  0.824256  0.501625  1
  Dy  Dy7  1  0.178727  0.178727  0.499664  1
  In  In8  1  0.500897  0.994201  0.249875  1
  In  In9  1  0.499728  0.996522  0.749702  1
  In  In10  1  0.994201  0.500897  0.249875  1
  In  In11  1  0.996522  0.499728  0.749702  1
  Cu  Cu12  1  0.619422  0.619422  0.758674  1
  Cu  Cu13  1  0.627109  0.627109  0.240212  1
  Cu  Cu14  1  0.881218  0.121536  0.741543  1
  Cu  Cu15  1  0.881194  0.119979  0.258237  1
  Cu  Cu16  1  0.381021  0.381021  0.757942  1
  Cu  Cu17  1  0.119979  0.881194  0.258237  1
  Cu  Cu18  1  0.121536  0.881218  0.741543  1
  Pt  Pt19  1  0.380097  0.380097  0.244884  1
