# generated using pymatgen
data_Ce3In3RhAu2
_symmetry_space_group_name_H-M   'P 1'
_cell_length_a   7.70860300
_cell_length_b   7.70860340
_cell_length_c   4.15353600
_cell_angle_alpha   90.00000000
_cell_angle_beta   90.00000000
_cell_angle_gamma   120.00000550
_symmetry_Int_Tables_number   1
_chemical_formula_structural   Ce3In3RhAu2
_chemical_formula_sum   'Ce3 In3 Rh1 Au2'
_cell_volume   213.74697066
_cell_formula_units_Z   1
loop_
 _symmetry_equiv_pos_site_id
 _symmetry_equiv_pos_as_xyz
  1  'x, y, z'
loop_
 _atom_site_type_symbol
 _atom_site_label
 _atom_site_symmetry_multiplicity
 _atom_site_fract_x
 _atom_site_fract_y
 _atom_site_fract_z
 _atom_site_occupancy
  Ce  Ce0  1  0.984441  0.575759  0.000000  1
  Ce  Ce1  1  0.424241  0.408682  0.000000  1
  Ce  Ce2  1  0.591318  0.015559  0.000000  1
  In  In3  1  0.746882  0.741667  0.500000  1
  In  In4  1  0.994785  0.253118  0.500000  1
  In  In5  1  0.258333  0.005215  0.500000  1
  Rh  Rh6  1  0.666667  0.333333  0.500000  1
  Au  Au7  1  0.333333  0.666667  0.500000  1
  Au  Au8  1  0.000000  0.000000  0.000000  1
