# generated using pymatgen
data_TbEr3HgIr
_symmetry_space_group_name_H-M   'P 1'
_cell_length_a   9.55227538
_cell_length_b   9.54779927
_cell_length_c   9.54779903
_cell_angle_alpha   60.03101518
_cell_angle_beta   59.98448727
_cell_angle_gamma   59.98449314
_symmetry_Int_Tables_number   1
_chemical_formula_structural   TbEr3HgIr
_chemical_formula_sum   'Tb4 Er12 Hg4 Ir4'
_cell_volume   615.74115188
_cell_formula_units_Z   4
loop_
 _symmetry_equiv_pos_site_id
 _symmetry_equiv_pos_as_xyz
  1  'x, y, z'
loop_
 _atom_site_type_symbol
 _atom_site_label
 _atom_site_symmetry_multiplicity
 _atom_site_fract_x
 _atom_site_fract_y
 _atom_site_fract_z
 _atom_site_occupancy
  Tb  Tb0  1  0.811304  0.188696  0.811304  1
  Tb  Tb1  1  0.188696  0.811304  0.188696  1
  Tb  Tb2  1  0.811304  0.811304  0.188696  1
  Tb  Tb3  1  0.188696  0.188696  0.811304  1
  Er  Er4  1  0.600590  0.600120  0.600120  1
  Er  Er5  1  0.600120  0.600590  0.199170  1
  Er  Er6  1  0.600120  0.199170  0.600590  1
  Er  Er7  1  0.199170  0.600120  0.600120  1
  Er  Er8  1  0.060657  0.439343  0.439343  1
  Er  Er9  1  0.439343  0.060657  0.060657  1
  Er  Er10  1  0.439798  0.060202  0.439798  1
  Er  Er11  1  0.060202  0.439798  0.060202  1
  Er  Er12  1  0.439798  0.439798  0.060202  1
  Er  Er13  1  0.060202  0.060202  0.439798  1
  Er  Er14  1  0.190304  0.809696  0.809696  1
  Er  Er15  1  0.809696  0.190304  0.190304  1
  Hg  Hg16  1  0.835328  0.834161  0.834161  1
  Hg  Hg17  1  0.834161  0.835328  0.496351  1
  Hg  Hg18  1  0.834161  0.496351  0.835328  1
  Hg  Hg19  1  0.496351  0.834161  0.834161  1
  Ir  Ir20  1  0.392806  0.391272  0.391272  1
  Ir  Ir21  1  0.391272  0.392806  0.824650  1
  Ir  Ir22  1  0.391272  0.824650  0.392806  1
  Ir  Ir23  1  0.824650  0.391272  0.391272  1
