# generated using pymatgen
data_Tb2Dy2ZnCo
_symmetry_space_group_name_H-M   'P 1'
_cell_length_a   9.36841866
_cell_length_b   9.36841857
_cell_length_c   9.36847600
_cell_angle_alpha   59.99979722
_cell_angle_beta   59.99979753
_cell_angle_gamma   60.00041093
_symmetry_Int_Tables_number   1
_chemical_formula_structural   Tb2Dy2ZnCo
_chemical_formula_sum   'Tb8 Dy8 Zn4 Co4'
_cell_volume   581.41542053
_cell_formula_units_Z   4
loop_
 _symmetry_equiv_pos_site_id
 _symmetry_equiv_pos_as_xyz
  1  'x, y, z'
loop_
 _atom_site_type_symbol
 _atom_site_label
 _atom_site_symmetry_multiplicity
 _atom_site_fract_x
 _atom_site_fract_y
 _atom_site_fract_z
 _atom_site_occupancy
  Tb  Tb0  1  0.190546  0.190546  0.809454  1
  Tb  Tb1  1  0.809454  0.809454  0.190546  1
  Tb  Tb2  1  0.938025  0.561975  0.561975  1
  Tb  Tb3  1  0.561975  0.938025  0.938025  1
  Tb  Tb4  1  0.561975  0.938025  0.561975  1
  Tb  Tb5  1  0.938025  0.561975  0.938025  1
  Tb  Tb6  1  0.561872  0.561872  0.938128  1
  Tb  Tb7  1  0.938128  0.938128  0.561872  1
  Dy  Dy8  1  0.350021  0.350021  0.349669  1
  Dy  Dy9  1  0.350021  0.350021  0.950288  1
  Dy  Dy10  1  0.349669  0.950288  0.350021  1
  Dy  Dy11  1  0.950288  0.349669  0.350021  1
  Dy  Dy12  1  0.809319  0.190681  0.190681  1
  Dy  Dy13  1  0.190681  0.809319  0.809319  1
  Dy  Dy14  1  0.190681  0.809319  0.190681  1
  Dy  Dy15  1  0.809319  0.190681  0.809319  1
  Zn  Zn16  1  0.577564  0.577564  0.577633  1
  Zn  Zn17  1  0.577564  0.577564  0.267239  1
  Zn  Zn18  1  0.577633  0.267239  0.577564  1
  Zn  Zn19  1  0.267239  0.577633  0.577564  1
  Co  Co20  1  0.141625  0.141625  0.141717  1
  Co  Co21  1  0.141625  0.141625  0.575032  1
  Co  Co22  1  0.141717  0.575032  0.141625  1
  Co  Co23  1  0.575032  0.141717  0.141625  1
