# generated using pymatgen
data_Sc3Sn3(Ru2Rh)2
_symmetry_space_group_name_H-M   'P 1'
_cell_length_a   4.55416300
_cell_length_b   6.42695400
_cell_length_c   13.65812300
_cell_angle_alpha   90.00000000
_cell_angle_beta   90.00010486
_cell_angle_gamma   90.00000000
_symmetry_Int_Tables_number   1
_chemical_formula_structural   Sc3Sn3(Ru2Rh)2
_chemical_formula_sum   'Sc6 Sn6 Ru8 Rh4'
_cell_volume   399.76501220
_cell_formula_units_Z   2
loop_
 _symmetry_equiv_pos_site_id
 _symmetry_equiv_pos_as_xyz
  1  'x, y, z'
loop_
 _atom_site_type_symbol
 _atom_site_label
 _atom_site_symmetry_multiplicity
 _atom_site_fract_x
 _atom_site_fract_y
 _atom_site_fract_z
 _atom_site_occupancy
  Sc  Sc0  1  0.000004  0.500001  0.997335  1
  Sc  Sc1  1  0.499938  0.000000  0.169116  1
  Sc  Sc2  1  0.999939  0.500001  0.336702  1
  Sc  Sc3  1  0.499992  0.000000  0.501208  1
  Sc  Sc4  1  0.000025  0.500001  0.665695  1
  Sc  Sc5  1  0.500078  0.000000  0.829989  1
  Sn  Sn6  1  0.000000  0.000000  0.996902  1
  Sn  Sn7  1  0.499949  0.500001  0.169594  1
  Sn  Sn8  1  0.999955  0.000000  0.336962  1
  Sn  Sn9  1  0.499991  0.500001  0.500572  1
  Sn  Sn10  1  0.000050  0.000000  0.666291  1
  Sn  Sn11  1  0.500068  0.500001  0.829752  1
  Ru  Ru12  1  0.499939  0.249201  0.331248  1
  Ru  Ru13  1  0.499939  0.750799  0.331248  1
  Ru  Ru14  1  0.999992  0.251254  0.499663  1
  Ru  Ru15  1  0.999992  0.748747  0.499663  1
  Ru  Ru16  1  0.500047  0.248740  0.667236  1
  Ru  Ru17  1  0.500047  0.751260  0.667236  1
  Ru  Ru18  1  0.000081  0.250816  0.835447  1
  Ru  Ru19  1  0.000081  0.749183  0.835447  1
  Rh  Rh20  1  0.500005  0.252323  0.001289  1
  Rh  Rh21  1  0.500005  0.747678  0.001289  1
  Rh  Rh22  1  0.999943  0.247670  0.165060  1
  Rh  Rh23  1  0.999943  0.752329  0.165060  1
