# generated using pymatgen
data_Li6Ac(PaN3)2
_symmetry_space_group_name_H-M   'P 1'
_cell_length_a   6.38430400
_cell_length_b   6.38430498
_cell_length_c   5.46867000
_cell_angle_alpha   90.00000000
_cell_angle_beta   90.00000000
_cell_angle_gamma   120.00000530
_symmetry_Int_Tables_number   1
_chemical_formula_structural   Li6Ac(PaN3)2
_chemical_formula_sum   'Li6 Ac1 Pa2 N6'
_cell_volume   193.03653315
_cell_formula_units_Z   1
loop_
 _symmetry_equiv_pos_site_id
 _symmetry_equiv_pos_as_xyz
  1  'x, y, z'
loop_
 _atom_site_type_symbol
 _atom_site_label
 _atom_site_symmetry_multiplicity
 _atom_site_fract_x
 _atom_site_fract_y
 _atom_site_fract_z
 _atom_site_occupancy
  Li  Li0  1  0.907315  0.601281  0.581400  1
  Li  Li1  1  0.398719  0.306034  0.581400  1
  Li  Li2  1  0.693966  0.092685  0.581400  1
  Li  Li3  1  0.092685  0.398719  0.418600  1
  Li  Li4  1  0.601281  0.693966  0.418600  1
  Li  Li5  1  0.306034  0.907315  0.418600  1
  Ac  Ac6  1  0.000000  0.000000  0.000000  1
  Pa  Pa7  1  0.333333  0.666667  0.970518  1
  Pa  Pa8  1  0.666667  0.333333  0.029482  1
  N  N9  1  0.017392  0.634431  0.225081  1
  N  N10  1  0.365569  0.382961  0.225081  1
  N  N11  1  0.617039  0.982608  0.225081  1
  N  N12  1  0.982608  0.365569  0.774919  1
  N  N13  1  0.634431  0.617039  0.774919  1
  N  N14  1  0.382961  0.017392  0.774919  1
