# generated using pymatgen
data_DyErTm6(CdNi)2
_symmetry_space_group_name_H-M   'P 1'
_cell_length_a   9.46491939
_cell_length_b   9.46492041
_cell_length_c   9.46463400
_cell_angle_alpha   60.00100099
_cell_angle_beta   60.00099742
_cell_angle_gamma   60.00665155
_symmetry_Int_Tables_number   1
_chemical_formula_structural   DyErTm6(CdNi)2
_chemical_formula_sum   'Dy2 Er2 Tm12 Cd4 Ni4'
_cell_volume   599.58546848
_cell_formula_units_Z   2
loop_
 _symmetry_equiv_pos_site_id
 _symmetry_equiv_pos_as_xyz
  1  'x, y, z'
loop_
 _atom_site_type_symbol
 _atom_site_label
 _atom_site_symmetry_multiplicity
 _atom_site_fract_x
 _atom_site_fract_y
 _atom_site_fract_z
 _atom_site_occupancy
  Dy  Dy0  1  0.348913  0.348913  0.349209  1
  Dy  Dy1  1  0.348913  0.348913  0.952966  1
  Er  Er2  1  0.348837  0.953209  0.348977  1
  Er  Er3  1  0.953209  0.348837  0.348977  1
  Tm  Tm4  1  0.812239  0.187933  0.187810  1
  Tm  Tm5  1  0.187933  0.812239  0.812018  1
  Tm  Tm6  1  0.187933  0.812239  0.187810  1
  Tm  Tm7  1  0.812239  0.187933  0.812018  1
  Tm  Tm8  1  0.187711  0.187711  0.812289  1
  Tm  Tm9  1  0.812063  0.812063  0.187937  1
  Tm  Tm10  1  0.935704  0.564203  0.564290  1
  Tm  Tm11  1  0.564203  0.935704  0.935804  1
  Tm  Tm12  1  0.564203  0.935704  0.564290  1
  Tm  Tm13  1  0.935704  0.564203  0.935804  1
  Tm  Tm14  1  0.564310  0.564310  0.935690  1
  Tm  Tm15  1  0.935732  0.935732  0.564268  1
  Cd  Cd16  1  0.581833  0.581833  0.581393  1
  Cd  Cd17  1  0.581833  0.581833  0.254941  1
  Cd  Cd18  1  0.581970  0.254871  0.581579  1
  Cd  Cd19  1  0.254871  0.581970  0.581579  1
  Ni  Ni20  1  0.141987  0.141987  0.142428  1
  Ni  Ni21  1  0.141987  0.141987  0.573598  1
  Ni  Ni22  1  0.141697  0.573976  0.142164  1
  Ni  Ni23  1  0.573976  0.141697  0.142164  1
