# generated using pymatgen
data_Ho3Er(ScSb5)4
_symmetry_space_group_name_H-M   'P 1'
_cell_length_a   4.20158800
_cell_length_b   13.04597766
_cell_length_c   14.22377729
_cell_angle_alpha   78.83168251
_cell_angle_beta   90.00000000
_cell_angle_gamma   90.00000000
_symmetry_Int_Tables_number   1
_chemical_formula_structural   Ho3Er(ScSb5)4
_chemical_formula_sum   'Ho3 Er1 Sc4 Sb20'
_cell_volume   764.89473917
_cell_formula_units_Z   1
loop_
 _symmetry_equiv_pos_site_id
 _symmetry_equiv_pos_as_xyz
  1  'x, y, z'
loop_
 _atom_site_type_symbol
 _atom_site_label
 _atom_site_symmetry_multiplicity
 _atom_site_fract_x
 _atom_site_fract_y
 _atom_site_fract_z
 _atom_site_occupancy
  Ho  Ho0  1  0.750000  0.330821  0.423736  1
  Ho  Ho1  1  0.250000  0.953597  0.355142  1
  Ho  Ho2  1  0.750000  0.046372  0.644829  1
  Er  Er3  1  0.250000  0.669175  0.576380  1
  Sc  Sc4  1  0.250000  0.396710  0.772539  1
  Sc  Sc5  1  0.750000  0.603306  0.227503  1
  Sc  Sc6  1  0.250000  0.657470  0.858563  1
  Sc  Sc7  1  0.750000  0.342551  0.141362  1
  Sb  Sb8  1  0.250000  0.147519  0.779940  1
  Sb  Sb9  1  0.750000  0.852486  0.220030  1
  Sb  Sb10  1  0.250000  0.143242  0.483417  1
  Sb  Sb11  1  0.750000  0.856483  0.516646  1
  Sb  Sb12  1  0.250000  0.162650  0.161470  1
  Sb  Sb13  1  0.750000  0.837356  0.838525  1
  Sb  Sb14  1  0.250000  0.422070  0.974927  1
  Sb  Sb15  1  0.750000  0.577918  0.025069  1
  Sb  Sb16  1  0.750000  0.028377  0.913628  1
  Sb  Sb17  1  0.250000  0.971645  0.086385  1
  Sb  Sb18  1  0.750000  0.142565  0.316302  1
  Sb  Sb19  1  0.250000  0.857262  0.683605  1
  Sb  Sb20  1  0.750000  0.279844  0.936409  1
  Sb  Sb21  1  0.250000  0.720171  0.063604  1
  Sb  Sb22  1  0.750000  0.289146  0.658685  1
  Sb  Sb23  1  0.250000  0.710887  0.341382  1
  Sb  Sb24  1  0.750000  0.573529  0.740907  1
  Sb  Sb25  1  0.250000  0.426607  0.258862  1
  Sb  Sb26  1  0.750000  0.570315  0.444118  1
  Sb  Sb27  1  0.250000  0.429927  0.556036  1
