# generated using pymatgen
data_Nd8Sc12Si15Ge
_symmetry_space_group_name_H-M   'P 1'
_cell_length_a   7.23996083
_cell_length_b   7.51348977
_cell_length_c   14.23012740
_cell_angle_alpha   90.00548155
_cell_angle_beta   89.89698584
_cell_angle_gamma   90.02653258
_symmetry_Int_Tables_number   1
_chemical_formula_structural   Nd8Sc12Si15Ge
_chemical_formula_sum   'Nd8 Sc12 Si15 Ge1'
_cell_volume   774.08019123
_cell_formula_units_Z   1
loop_
 _symmetry_equiv_pos_site_id
 _symmetry_equiv_pos_as_xyz
  1  'x, y, z'
loop_
 _atom_site_type_symbol
 _atom_site_label
 _atom_site_symmetry_multiplicity
 _atom_site_fract_x
 _atom_site_fract_y
 _atom_site_fract_z
 _atom_site_occupancy
  Nd  Nd0  1  0.011668  0.171914  0.401626  1
  Nd  Nd1  1  0.512560  0.326689  0.401455  1
  Nd  Nd2  1  0.487806  0.672512  0.902138  1
  Nd  Nd3  1  0.489852  0.673713  0.598195  1
  Nd  Nd4  1  0.987040  0.828387  0.597959  1
  Nd  Nd5  1  0.987591  0.827624  0.902199  1
  Nd  Nd6  1  0.512399  0.327591  0.097902  1
  Nd  Nd7  1  0.012577  0.172559  0.097853  1
  Sc  Sc8  1  0.331706  0.173930  0.625904  1
  Sc  Sc9  1  0.669291  0.824405  0.374526  1
  Sc  Sc10  1  0.659979  0.000892  0.750100  1
  Sc  Sc11  1  0.169237  0.676621  0.374295  1
  Sc  Sc12  1  0.830044  0.324121  0.874770  1
  Sc  Sc13  1  0.828718  0.324062  0.625267  1
  Sc  Sc14  1  0.840111  0.500959  0.249984  1
  Sc  Sc15  1  0.340207  0.999027  0.249970  1
  Sc  Sc16  1  0.329998  0.175704  0.874770  1
  Sc  Sc17  1  0.169843  0.675954  0.125208  1
  Sc  Sc18  1  0.669918  0.823982  0.125156  1
  Sc  Sc19  1  0.160049  0.499237  0.751330  1
  Si  Si20  1  0.287271  0.881556  0.750191  1
  Si  Si21  1  0.465185  0.624564  0.249868  1
  Si  Si22  1  0.034572  0.124685  0.750034  1
  Si  Si23  1  0.534433  0.375745  0.750125  1
  Si  Si24  1  0.965371  0.875748  0.249698  1
  Si  Si25  1  0.712481  0.117909  0.249754  1
  Si  Si26  1  0.847440  0.536630  0.039725  1
  Si  Si27  1  0.347523  0.963205  0.039704  1
  Si  Si28  1  0.152558  0.463413  0.960448  1
  Si  Si29  1  0.652899  0.037233  0.539585  1
  Si  Si30  1  0.346948  0.962983  0.460242  1
  Si  Si31  1  0.842669  0.538119  0.459251  1
  Si  Si32  1  0.787999  0.617935  0.750024  1
  Si  Si33  1  0.212337  0.382006  0.249978  1
  Si  Si34  1  0.652410  0.036793  0.960429  1
  Ge  Ge35  1  0.157307  0.461592  0.540336  1
