# generated using pymatgen
data_Tm6Al24Fe4Ru3Au
_symmetry_space_group_name_H-M   'P 1'
_cell_length_a   8.71555544
_cell_length_b   8.71555508
_cell_length_c   9.41150691
_cell_angle_alpha   90.06593292
_cell_angle_beta   89.93406720
_cell_angle_gamma   119.93322649
_symmetry_Int_Tables_number   1
_chemical_formula_structural   Tm6Al24Fe4Ru3Au
_chemical_formula_sum   'Tm6 Al24 Fe4 Ru3 Au1'
_cell_volume   619.54286423
_cell_formula_units_Z   1
loop_
 _symmetry_equiv_pos_site_id
 _symmetry_equiv_pos_as_xyz
  1  'x, y, z'
loop_
 _atom_site_type_symbol
 _atom_site_label
 _atom_site_symmetry_multiplicity
 _atom_site_fract_x
 _atom_site_fract_y
 _atom_site_fract_z
 _atom_site_occupancy
  Tm  Tm0  1  0.805396  0.194604  0.747422  1
  Tm  Tm1  1  0.194604  0.805396  0.252578  1
  Tm  Tm2  1  0.387610  0.191524  0.752445  1
  Tm  Tm3  1  0.612390  0.808476  0.247555  1
  Tm  Tm4  1  0.808476  0.612390  0.752445  1
  Tm  Tm5  1  0.191524  0.387610  0.247555  1
  Al  Al6  1  0.674784  0.325216  0.979408  1
  Al  Al7  1  0.325216  0.674784  0.020592  1
  Al  Al8  1  0.333505  0.666495  0.480771  1
  Al  Al9  1  0.666495  0.333505  0.519229  1
  Al  Al10  1  0.839872  0.160128  0.422065  1
  Al  Al11  1  0.160128  0.839872  0.577935  1
  Al  Al12  1  0.318942  0.159400  0.423968  1
  Al  Al13  1  0.160907  0.839093  0.923607  1
  Al  Al14  1  0.681058  0.840600  0.576032  1
  Al  Al15  1  0.839093  0.160907  0.076393  1
  Al  Al16  1  0.840600  0.681058  0.423968  1
  Al  Al17  1  0.681601  0.852962  0.922515  1
  Al  Al18  1  0.159400  0.318942  0.576032  1
  Al  Al19  1  0.318399  0.147038  0.077485  1
  Al  Al20  1  0.147038  0.318399  0.922515  1
  Al  Al21  1  0.852962  0.681601  0.077485  1
  Al  Al22  1  0.435340  0.564660  0.744625  1
  Al  Al23  1  0.564660  0.435340  0.255375  1
  Al  Al24  1  0.119667  0.559992  0.755927  1
  Al  Al25  1  0.880333  0.440008  0.244073  1
  Al  Al26  1  0.440008  0.880333  0.755927  1
  Al  Al27  1  0.559992  0.119667  0.244073  1
  Al  Al28  1  0.000611  0.999389  0.749833  1
  Al  Al29  1  0.999389  0.000611  0.250167  1
  Fe  Fe30  1  0.000000  0.500000  0.000000  1
  Fe  Fe31  1  0.500000  0.000000  0.000000  1
  Fe  Fe32  1  0.000000  0.000000  0.000000  1
  Fe  Fe33  1  0.000000  0.000000  0.500000  1
  Ru  Ru34  1  0.500000  0.500000  0.500000  1
  Ru  Ru35  1  0.000000  0.500000  0.500000  1
  Ru  Ru36  1  0.500000  0.000000  0.500000  1
  Au  Au37  1  0.500000  0.500000  0.000000  1
