# generated using pymatgen
data_MnNi2MoP2
_symmetry_space_group_name_H-M   'P 1'
_cell_length_a   5.88111300
_cell_length_b   3.57053700
_cell_length_c   6.87861500
_cell_angle_alpha   90.00000000
_cell_angle_beta   90.00000000
_cell_angle_gamma   90.00000000
_symmetry_Int_Tables_number   1
_chemical_formula_structural   MnNi2MoP2
_chemical_formula_sum   'Mn2 Ni4 Mo2 P4'
_cell_volume   144.44218994
_cell_formula_units_Z   2
loop_
 _symmetry_equiv_pos_site_id
 _symmetry_equiv_pos_as_xyz
  1  'x, y, z'
loop_
 _atom_site_type_symbol
 _atom_site_label
 _atom_site_symmetry_multiplicity
 _atom_site_fract_x
 _atom_site_fract_y
 _atom_site_fract_z
 _atom_site_occupancy
  Mn  Mn0  1  0.969091  0.750000  0.834574  1
  Mn  Mn1  1  0.469091  0.750000  0.665426  1
  Ni  Ni2  1  0.143077  0.250000  0.571605  1
  Ni  Ni3  1  0.643077  0.250000  0.928395  1
  Ni  Ni4  1  0.860560  0.750000  0.441982  1
  Ni  Ni5  1  0.360560  0.750000  0.058018  1
  Mo  Mo6  1  0.029478  0.250000  0.168804  1
  Mo  Mo7  1  0.529478  0.250000  0.331196  1
  P  P8  1  0.762119  0.250000  0.625921  1
  P  P9  1  0.262119  0.250000  0.874079  1
  P  P10  1  0.235677  0.750000  0.376822  1
  P  P11  1  0.735677  0.750000  0.123178  1
