# generated using pymatgen
data_Eu9PdAu5
_symmetry_space_group_name_H-M   'P 1'
_cell_length_a   8.08022727
_cell_length_b   8.06149691
_cell_length_c   8.05785829
_cell_angle_alpha   71.69318857
_cell_angle_beta   71.22990833
_cell_angle_gamma   71.43268350
_symmetry_Int_Tables_number   1
_chemical_formula_structural   Eu9PdAu5
_chemical_formula_sum   'Eu9 Pd1 Au5'
_cell_volume   457.81205769
_cell_formula_units_Z   1
loop_
 _symmetry_equiv_pos_site_id
 _symmetry_equiv_pos_as_xyz
  1  'x, y, z'
loop_
 _atom_site_type_symbol
 _atom_site_label
 _atom_site_symmetry_multiplicity
 _atom_site_fract_x
 _atom_site_fract_y
 _atom_site_fract_z
 _atom_site_occupancy
  Eu  Eu0  1  0.499840  0.501331  0.496101  1
  Eu  Eu1  1  0.699438  0.703294  0.708615  1
  Eu  Eu2  1  0.298996  0.300460  0.297010  1
  Eu  Eu3  1  0.896975  0.161344  0.660687  1
  Eu  Eu4  1  0.657532  0.892633  0.159272  1
  Eu  Eu5  1  0.165168  0.661647  0.899905  1
  Eu  Eu6  1  0.109108  0.834857  0.333885  1
  Eu  Eu7  1  0.339424  0.103139  0.840027  1
  Eu  Eu8  1  0.835170  0.342041  0.102773  1
  Pd  Pd9  1  0.458418  0.649861  0.091631  1
  Au  Au10  1  0.907515  0.543317  0.344647  1
  Au  Au11  1  0.343834  0.909023  0.542453  1
  Au  Au12  1  0.541549  0.349183  0.907953  1
  Au  Au13  1  0.091189  0.456912  0.658402  1
  Au  Au14  1  0.655845  0.090958  0.456639  1
