# generated using pymatgen
data_Ca2SmUN4
_symmetry_space_group_name_H-M   'P 1'
_cell_length_a   6.95479089
_cell_length_b   9.29033169
_cell_length_c   6.15963854
_cell_angle_alpha   29.03459789
_cell_angle_beta   55.62927473
_cell_angle_gamma   41.53030290
_symmetry_Int_Tables_number   1
_chemical_formula_structural   Ca2SmUN4
_chemical_formula_sum   'Ca2 Sm1 U1 N4'
_cell_volume   122.95862551
_cell_formula_units_Z   1
loop_
 _symmetry_equiv_pos_site_id
 _symmetry_equiv_pos_as_xyz
  1  'x, y, z'
loop_
 _atom_site_type_symbol
 _atom_site_label
 _atom_site_symmetry_multiplicity
 _atom_site_fract_x
 _atom_site_fract_y
 _atom_site_fract_z
 _atom_site_occupancy
  Ca  Ca0  1  0.750000  0.500000  0.000000  1
  Ca  Ca1  1  0.500000  0.000000  0.000000  1
  Sm  Sm2  1  0.250000  0.500000  0.000000  1
  U  U3  1  0.000000  0.000000  0.000000  1
  N  N4  1  0.494132  0.500000  0.511737  1
  N  N5  1  0.208815  0.000000  0.582369  1
  N  N6  1  0.005868  0.500000  0.488263  1
  N  N7  1  0.791185  0.000000  0.417631  1
