# generated using pymatgen
data_Cr3Tc2AuO16
_symmetry_space_group_name_H-M   'P 1'
_cell_length_a   5.63210800
_cell_length_b   7.94184504
_cell_length_c   8.94209167
_cell_angle_alpha   100.32877587
_cell_angle_beta   90.00000000
_cell_angle_gamma   90.00000000
_symmetry_Int_Tables_number   1
_chemical_formula_structural   Cr3Tc2AuO16
_chemical_formula_sum   'Cr3 Tc2 Au1 O16'
_cell_volume   393.49223089
_cell_formula_units_Z   1
loop_
 _symmetry_equiv_pos_site_id
 _symmetry_equiv_pos_as_xyz
  1  'x, y, z'
loop_
 _atom_site_type_symbol
 _atom_site_label
 _atom_site_symmetry_multiplicity
 _atom_site_fract_x
 _atom_site_fract_y
 _atom_site_fract_z
 _atom_site_occupancy
  Cr  Cr0  1  0.500000  0.308914  0.828505  1
  Cr  Cr1  1  0.500000  0.691086  0.171495  1
  Cr  Cr2  1  0.500000  0.000000  0.500000  1
  Tc  Tc3  1  0.000000  0.194586  0.343997  1
  Tc  Tc4  1  0.000000  0.805414  0.656003  1
  Au  Au5  1  0.000000  0.500000  0.000000  1
  O  O6  1  0.000000  0.950056  0.821186  1
  O  O7  1  0.000000  0.397575  0.302970  1
  O  O8  1  0.000000  0.602425  0.697030  1
  O  O9  1  0.000000  0.049944  0.178814  1
  O  O10  1  0.748390  0.322323  0.942228  1
  O  O11  1  0.748390  0.677677  0.057772  1
  O  O12  1  0.744629  0.835170  0.547359  1
  O  O13  1  0.744629  0.164830  0.452641  1
  O  O14  1  0.500000  0.115468  0.715692  1
  O  O15  1  0.500000  0.456737  0.730304  1
  O  O16  1  0.500000  0.884532  0.284308  1
  O  O17  1  0.500000  0.543263  0.269696  1
  O  O18  1  0.255371  0.835170  0.547359  1
  O  O19  1  0.255371  0.164830  0.452641  1
  O  O20  1  0.251610  0.322323  0.942228  1
  O  O21  1  0.251610  0.677677  0.057772  1
