# generated using pymatgen
data_TbEr(CoOs)2
_symmetry_space_group_name_H-M   'P 1'
_cell_length_a   5.22673478
_cell_length_b   5.22673523
_cell_length_c   5.25160700
_cell_angle_alpha   59.84245630
_cell_angle_beta   59.84245343
_cell_angle_gamma   58.24034977
_symmetry_Int_Tables_number   1
_chemical_formula_structural   TbEr(CoOs)2
_chemical_formula_sum   'Tb1 Er1 Co2 Os2'
_cell_volume   99.79674176
_cell_formula_units_Z   1
loop_
 _symmetry_equiv_pos_site_id
 _symmetry_equiv_pos_as_xyz
  1  'x, y, z'
loop_
 _atom_site_type_symbol
 _atom_site_label
 _atom_site_symmetry_multiplicity
 _atom_site_fract_x
 _atom_site_fract_y
 _atom_site_fract_z
 _atom_site_occupancy
  Tb  Tb0  1  0.247489  0.247489  0.252511  1
  Er  Er1  1  0.002997  0.002997  0.997003  1
  Co  Co2  1  0.624913  0.624913  0.124669  1
  Co  Co3  1  0.624913  0.624913  0.625507  1
  Os  Os4  1  0.124844  0.624845  0.625156  1
  Os  Os5  1  0.624845  0.124844  0.625156  1
