# generated using pymatgen
data_Er3Cd3GaSnHg
_symmetry_space_group_name_H-M   'P 1'
_cell_length_a   7.33767700
_cell_length_b   7.33767752
_cell_length_c   4.57116000
_cell_angle_alpha   90.00000000
_cell_angle_beta   90.00000000
_cell_angle_gamma   120.00000216
_symmetry_Int_Tables_number   1
_chemical_formula_structural   Er3Cd3GaSnHg
_chemical_formula_sum   'Er3 Cd3 Ga1 Sn1 Hg1'
_cell_volume   213.14456196
_cell_formula_units_Z   1
loop_
 _symmetry_equiv_pos_site_id
 _symmetry_equiv_pos_as_xyz
  1  'x, y, z'
loop_
 _atom_site_type_symbol
 _atom_site_label
 _atom_site_symmetry_multiplicity
 _atom_site_fract_x
 _atom_site_fract_y
 _atom_site_fract_z
 _atom_site_occupancy
  Er  Er0  1  0.418842  0.431266  0.500000  1
  Er  Er1  1  0.568734  0.987576  0.500000  1
  Er  Er2  1  0.012424  0.581158  0.500000  1
  Cd  Cd3  1  0.741888  0.758012  0.000000  1
  Cd  Cd4  1  0.241988  0.983876  0.000000  1
  Cd  Cd5  1  0.016124  0.258112  0.000000  1
  Ga  Ga6  1  0.333333  0.666667  0.000000  1
  Sn  Sn7  1  0.666667  0.333333  0.000000  1
  Hg  Hg8  1  0.000000  0.000000  0.500000  1
