# generated using pymatgen
data_PrThCo22
_symmetry_space_group_name_H-M   'P 1'
_cell_length_a   7.63747164
_cell_length_b   7.63747147
_cell_length_c   7.63747132
_cell_angle_alpha   99.81735811
_cell_angle_beta   99.81734481
_cell_angle_gamma   131.22243787
_symmetry_Int_Tables_number   1
_chemical_formula_structural   PrThCo22
_chemical_formula_sum   'Pr1 Th1 Co22'
_cell_volume   305.18514150
_cell_formula_units_Z   1
loop_
 _symmetry_equiv_pos_site_id
 _symmetry_equiv_pos_as_xyz
  1  'x, y, z'
loop_
 _atom_site_type_symbol
 _atom_site_label
 _atom_site_symmetry_multiplicity
 _atom_site_fract_x
 _atom_site_fract_y
 _atom_site_fract_z
 _atom_site_occupancy
  Pr  Pr0  1  0.000000  0.000000  0.000000  1
  Th  Th1  1  0.250000  0.750000  0.500000  1
  Co  Co2  1  0.750000  0.250000  0.500000  1
  Co  Co3  1  0.762416  0.183186  0.828843  1
  Co  Co4  1  0.354342  0.933573  0.171157  1
  Co  Co5  1  0.184060  0.514081  0.079965  1
  Co  Co6  1  0.895906  0.565883  0.079965  1
  Co  Co7  1  0.485919  0.815940  0.920035  1
  Co  Co8  1  0.434117  0.104094  0.920035  1
  Co  Co9  1  0.066427  0.645658  0.828843  1
  Co  Co10  1  0.816814  0.645658  0.579230  1
  Co  Co11  1  0.485919  0.565883  0.669979  1
  Co  Co12  1  0.895906  0.815940  0.330021  1
  Co  Co13  1  0.066427  0.237584  0.420770  1
  Co  Co14  1  0.354342  0.183186  0.420770  1
  Co  Co15  1  0.762416  0.933573  0.579230  1
  Co  Co16  1  0.434117  0.514081  0.330021  1
  Co  Co17  1  0.184060  0.104094  0.669979  1
  Co  Co18  1  0.816814  0.237584  0.171157  1
  Co  Co19  1  0.500000  0.500000  0.000000  1
  Co  Co20  1  0.625595  0.875175  0.249580  1
  Co  Co21  1  0.623985  0.374405  0.249580  1
  Co  Co22  1  0.124825  0.374405  0.750420  1
  Co  Co23  1  0.625595  0.376015  0.750420  1
