# generated using pymatgen
data_Tm10Cd3Ir
_symmetry_space_group_name_H-M   'P 1'
_cell_length_a   9.49410400
_cell_length_b   9.49410465
_cell_length_c   9.74015300
_cell_angle_alpha   90.00000000
_cell_angle_beta   90.00000000
_cell_angle_gamma   119.99999774
_symmetry_Int_Tables_number   1
_chemical_formula_structural   Tm10Cd3Ir
_chemical_formula_sum   'Tm20 Cd6 Ir2'
_cell_volume   760.33401460
_cell_formula_units_Z   2
loop_
 _symmetry_equiv_pos_site_id
 _symmetry_equiv_pos_as_xyz
  1  'x, y, z'
loop_
 _atom_site_type_symbol
 _atom_site_label
 _atom_site_symmetry_multiplicity
 _atom_site_fract_x
 _atom_site_fract_y
 _atom_site_fract_z
 _atom_site_occupancy
  Tm  Tm0  1  0.000000  0.000000  0.500000  1
  Tm  Tm1  1  0.000000  0.000000  0.000000  1
  Tm  Tm2  1  0.209511  0.790489  0.441426  1
  Tm  Tm3  1  0.209511  0.419023  0.441426  1
  Tm  Tm4  1  0.580977  0.790489  0.441426  1
  Tm  Tm5  1  0.790489  0.209511  0.558574  1
  Tm  Tm6  1  0.790489  0.580977  0.558574  1
  Tm  Tm7  1  0.419023  0.209511  0.558574  1
  Tm  Tm8  1  0.790489  0.209511  0.941426  1
  Tm  Tm9  1  0.790489  0.580977  0.941426  1
  Tm  Tm10  1  0.419023  0.209511  0.941426  1
  Tm  Tm11  1  0.209511  0.790489  0.058574  1
  Tm  Tm12  1  0.209511  0.419023  0.058574  1
  Tm  Tm13  1  0.580977  0.790489  0.058574  1
  Tm  Tm14  1  0.541205  0.458795  0.250000  1
  Tm  Tm15  1  0.541205  0.082409  0.250000  1
  Tm  Tm16  1  0.917591  0.458795  0.250000  1
  Tm  Tm17  1  0.458795  0.541205  0.750000  1
  Tm  Tm18  1  0.458795  0.917591  0.750000  1
  Tm  Tm19  1  0.082409  0.541205  0.750000  1
  Cd  Cd20  1  0.885933  0.114067  0.250000  1
  Cd  Cd21  1  0.885933  0.771867  0.250000  1
  Cd  Cd22  1  0.228133  0.114067  0.250000  1
  Cd  Cd23  1  0.114067  0.885933  0.750000  1
  Cd  Cd24  1  0.114067  0.228133  0.750000  1
  Cd  Cd25  1  0.771867  0.885933  0.750000  1
  Ir  Ir26  1  0.333333  0.666667  0.250000  1
  Ir  Ir27  1  0.666667  0.333333  0.750000  1
