# generated using pymatgen
data_CaSc2(H6Os)2
_symmetry_space_group_name_H-M   'P 1'
_cell_length_a   4.67550100
_cell_length_b   4.67550379
_cell_length_c   8.14162500
_cell_angle_alpha   90.00000000
_cell_angle_beta   90.00000000
_cell_angle_gamma   120.00000147
_symmetry_Int_Tables_number   1
_chemical_formula_structural   CaSc2(H6Os)2
_chemical_formula_sum   'Ca1 Sc2 H12 Os2'
_cell_volume   154.13394288
_cell_formula_units_Z   1
loop_
 _symmetry_equiv_pos_site_id
 _symmetry_equiv_pos_as_xyz
  1  'x, y, z'
loop_
 _atom_site_type_symbol
 _atom_site_label
 _atom_site_symmetry_multiplicity
 _atom_site_fract_x
 _atom_site_fract_y
 _atom_site_fract_z
 _atom_site_occupancy
  Ca  Ca0  1  0.000000  0.000000  0.000000  1
  Sc  Sc1  1  0.666667  0.333333  0.366776  1
  Sc  Sc2  1  0.333333  0.666667  0.633224  1
  H  H3  1  0.157346  0.842654  0.390712  1
  H  H4  1  0.685311  0.842654  0.390712  1
  H  H5  1  0.157346  0.314689  0.390712  1
  H  H6  1  0.842654  0.157346  0.609288  1
  H  H7  1  0.314689  0.157346  0.609288  1
  H  H8  1  0.842654  0.685311  0.609288  1
  H  H9  1  0.497742  0.995483  0.852003  1
  H  H10  1  0.497742  0.502258  0.852003  1
  H  H11  1  0.004517  0.502258  0.852003  1
  H  H12  1  0.502258  0.004517  0.147997  1
  H  H13  1  0.502258  0.497742  0.147997  1
  H  H14  1  0.995483  0.497742  0.147997  1
  Os  Os15  1  0.666667  0.333333  0.723421  1
  Os  Os16  1  0.333333  0.666667  0.276579  1
