# generated using pymatgen
data_Ba12Fe3SiO19
_symmetry_space_group_name_H-M   'P 1'
_cell_length_a   7.87153274
_cell_length_b   7.87271344
_cell_length_c   10.51516840
_cell_angle_alpha   89.93490295
_cell_angle_beta   90.16691209
_cell_angle_gamma   96.65620202
_symmetry_Int_Tables_number   1
_chemical_formula_structural   Ba12Fe3SiO19
_chemical_formula_sum   'Ba12 Fe3 Si1 O19'
_cell_volume   647.23314032
_cell_formula_units_Z   1
loop_
 _symmetry_equiv_pos_site_id
 _symmetry_equiv_pos_as_xyz
  1  'x, y, z'
loop_
 _atom_site_type_symbol
 _atom_site_label
 _atom_site_symmetry_multiplicity
 _atom_site_fract_x
 _atom_site_fract_y
 _atom_site_fract_z
 _atom_site_occupancy
  Ba  Ba0  1  0.741899  0.262996  0.496625  1
  Ba  Ba1  1  0.257205  0.731970  0.004940  1
  Ba  Ba2  1  0.745493  0.269673  0.000033  1
  Ba  Ba3  1  0.254322  0.736911  0.497988  1
  Ba  Ba4  1  0.579044  0.578975  0.247755  1
  Ba  Ba5  1  0.069023  0.066139  0.762570  1
  Ba  Ba6  1  0.423133  0.426059  0.753137  1
  Ba  Ba7  1  0.931153  0.926552  0.236512  1
  Ba  Ba8  1  0.742473  0.752561  0.927625  1
  Ba  Ba9  1  0.261528  0.258917  0.426496  1
  Ba  Ba10  1  0.257447  0.248384  0.072834  1
  Ba  Ba11  1  0.736632  0.741668  0.573988  1
  Fe  Fe12  1  0.504865  0.003542  0.259249  1
  Fe  Fe13  1  0.995880  0.496469  0.741828  1
  Fe  Fe14  1  0.002821  0.500155  0.254845  1
  Si  Si15  1  0.495626  0.998401  0.744243  1
  O  O16  1  0.265037  0.961743  0.293503  1
  O  O17  1  0.757356  0.468632  0.764773  1
  O  O18  1  0.538161  0.242882  0.240530  1
  O  O19  1  0.036638  0.735740  0.703702  1
  O  O20  1  0.923458  0.628969  0.390452  1
  O  O21  1  0.428013  0.097778  0.871183  1
  O  O22  1  0.891073  0.583030  0.111343  1
  O  O23  1  0.387810  0.068543  0.621472  1
  O  O24  1  0.242227  0.536469  0.239440  1
  O  O25  1  0.707355  0.039357  0.725038  1
  O  O26  1  0.966762  0.260165  0.280149  1
  O  O27  1  0.456580  0.786600  0.758417  1
  O  O28  1  0.574390  0.884942  0.116125  1
  O  O29  1  0.063355  0.350044  0.610635  1
  O  O30  1  0.649473  0.939031  0.390678  1
  O  O31  1  0.113524  0.417639  0.884459  1
  O  O32  1  0.499050  0.497287  0.998158  1
  O  O33  1  0.004540  0.998434  0.997273  1
  O  O34  1  0.496652  0.503340  0.502000  1
