# generated using pymatgen
data_Li8Ca5Pr3Pt8
_symmetry_space_group_name_H-M   'P 1'
_cell_length_a   9.67144883
_cell_length_b   8.02233386
_cell_length_c   7.24194500
_cell_angle_alpha   90.00000000
_cell_angle_beta   90.12450348
_cell_angle_gamma   114.50314348
_symmetry_Int_Tables_number   1
_chemical_formula_structural   Li8Ca5Pr3Pt8
_chemical_formula_sum   'Li8 Ca5 Pr3 Pt8'
_cell_volume   511.27940979
_cell_formula_units_Z   1
loop_
 _symmetry_equiv_pos_site_id
 _symmetry_equiv_pos_as_xyz
  1  'x, y, z'
loop_
 _atom_site_type_symbol
 _atom_site_label
 _atom_site_symmetry_multiplicity
 _atom_site_fract_x
 _atom_site_fract_y
 _atom_site_fract_z
 _atom_site_occupancy
  Li  Li0  1  0.799164  0.150746  0.621535  1
  Li  Li1  1  0.799164  0.648417  0.621535  1
  Li  Li2  1  0.306173  0.153085  0.879519  1
  Li  Li3  1  0.202052  0.849776  0.125696  1
  Li  Li4  1  0.202052  0.352278  0.125696  1
  Li  Li5  1  0.690799  0.845399  0.375976  1
  Li  Li6  1  0.693864  0.346931  0.381735  1
  Li  Li7  1  0.309288  0.654645  0.880347  1
  Ca  Ca8  1  0.430334  0.467666  0.549384  1
  Ca  Ca9  1  0.430334  0.962668  0.549384  1
  Ca  Ca10  1  0.075123  0.537562  0.452875  1
  Ca  Ca11  1  0.567710  0.534195  0.050561  1
  Ca  Ca12  1  0.567710  0.033514  0.050561  1
  Pr  Pr13  1  0.925548  0.462775  0.954035  1
  Pr  Pr14  1  0.075827  0.037913  0.456189  1
  Pr  Pr15  1  0.924820  0.962410  0.955687  1
  Pt  Pt16  1  0.875794  0.186152  0.254240  1
  Pt  Pt17  1  0.875794  0.689641  0.254240  1
  Pt  Pt18  1  0.367213  0.183607  0.253823  1
  Pt  Pt19  1  0.122391  0.811372  0.758883  1
  Pt  Pt20  1  0.122391  0.311020  0.758883  1
  Pt  Pt21  1  0.633174  0.816587  0.749491  1
  Pt  Pt22  1  0.630779  0.315390  0.751039  1
  Pt  Pt23  1  0.372499  0.686250  0.246688  1
