# generated using pymatgen
data_ThSiPOs2
_symmetry_space_group_name_H-M   'P 1'
_cell_length_a   5.73026429
_cell_length_b   5.73026445
_cell_length_c   5.73026440
_cell_angle_alpha   137.14008881
_cell_angle_beta   137.14009529
_cell_angle_gamma   62.22257068
_symmetry_Int_Tables_number   1
_chemical_formula_structural   ThSiPOs2
_chemical_formula_sum   'Th1 Si1 P1 Os2'
_cell_volume   86.01850540
_cell_formula_units_Z   1
loop_
 _symmetry_equiv_pos_site_id
 _symmetry_equiv_pos_as_xyz
  1  'x, y, z'
loop_
 _atom_site_type_symbol
 _atom_site_label
 _atom_site_symmetry_multiplicity
 _atom_site_fract_x
 _atom_site_fract_y
 _atom_site_fract_z
 _atom_site_occupancy
  Th  Th0  1  0.001307  0.001307  0.000000  1
  Si  Si1  1  0.371983  0.371983  0.000000  1
  P  P2  1  0.630933  0.630933  0.000000  1
  Os  Os3  1  0.247889  0.747889  0.500000  1
  Os  Os4  1  0.747889  0.247889  0.500000  1
