# generated using pymatgen
data_Zr5In2BiB
_symmetry_space_group_name_H-M   'P 1'
_cell_length_a   8.68024518
_cell_length_b   8.68578358
_cell_length_c   5.84926700
_cell_angle_alpha   90.00000000
_cell_angle_beta   90.00000000
_cell_angle_gamma   120.02111314
_symmetry_Int_Tables_number   1
_chemical_formula_structural   Zr5In2BiB
_chemical_formula_sum   'Zr10 In4 Bi2 B2'
_cell_volume   381.83931155
_cell_formula_units_Z   2
loop_
 _symmetry_equiv_pos_site_id
 _symmetry_equiv_pos_as_xyz
  1  'x, y, z'
loop_
 _atom_site_type_symbol
 _atom_site_label
 _atom_site_symmetry_multiplicity
 _atom_site_fract_x
 _atom_site_fract_y
 _atom_site_fract_z
 _atom_site_occupancy
  Zr  Zr0  1  0.670164  0.335461  0.004809  1
  Zr  Zr1  1  0.329836  0.665298  0.004809  1
  Zr  Zr2  1  0.329836  0.665298  0.495191  1
  Zr  Zr3  1  0.670164  0.335461  0.495191  1
  Zr  Zr4  1  0.778458  0.775336  0.750000  1
  Zr  Zr5  1  0.221542  0.996879  0.750000  1
  Zr  Zr6  1  0.000000  0.222822  0.750000  1
  Zr  Zr7  1  0.226442  0.227289  0.250000  1
  Zr  Zr8  1  0.773558  0.000847  0.250000  1
  Zr  Zr9  1  0.000000  0.773125  0.250000  1
  In  In10  1  0.000000  0.601078  0.750000  1
  In  In11  1  0.604211  0.606010  0.250000  1
  In  In12  1  0.395789  0.001799  0.250000  1
  In  In13  1  0.000000  0.397087  0.250000  1
  Bi  Bi14  1  0.399831  0.398672  0.750000  1
  Bi  Bi15  1  0.600169  0.998841  0.750000  1
  B  B16  1  0.000000  0.999348  0.003174  1
  B  B17  1  0.000000  0.999348  0.496826  1
