# generated using pymatgen
data_Dy10ZnGa3Bi2
_symmetry_space_group_name_H-M   'P 1'
_cell_length_a   8.63001669
_cell_length_b   8.63001793
_cell_length_c   8.71591664
_cell_angle_alpha   123.55816007
_cell_angle_beta   123.55815491
_cell_angle_gamma   83.30576580
_symmetry_Int_Tables_number   1
_chemical_formula_structural   Dy10ZnGa3Bi2
_chemical_formula_sum   'Dy10 Zn1 Ga3 Bi2'
_cell_volume   433.76431995
_cell_formula_units_Z   1
loop_
 _symmetry_equiv_pos_site_id
 _symmetry_equiv_pos_as_xyz
  1  'x, y, z'
loop_
 _atom_site_type_symbol
 _atom_site_label
 _atom_site_symmetry_multiplicity
 _atom_site_fract_x
 _atom_site_fract_y
 _atom_site_fract_z
 _atom_site_occupancy
  Dy  Dy0  1  0.998281  0.999058  0.997339  1
  Dy  Dy1  1  0.500942  0.501719  0.002661  1
  Dy  Dy2  1  0.795165  0.295553  0.802941  1
  Dy  Dy3  1  0.204447  0.704835  0.197059  1
  Dy  Dy4  1  0.492225  0.992612  0.197059  1
  Dy  Dy5  1  0.291740  0.484014  0.500000  1
  Dy  Dy6  1  0.015986  0.208260  0.500000  1
  Dy  Dy7  1  0.507388  0.007775  0.802941  1
  Dy  Dy8  1  0.706741  0.513171  0.500000  1
  Dy  Dy9  1  0.986829  0.793259  0.500000  1
  Zn  Zn10  1  0.358987  0.141013  0.500000  1
  Ga  Ga11  1  0.151250  0.651407  0.802657  1
  Ga  Ga12  1  0.848593  0.348750  0.197343  1
  Ga  Ga13  1  0.642981  0.857019  0.500000  1
  Bi  Bi14  1  0.249222  0.250778  0.000000  1
  Bi  Bi15  1  0.749222  0.750778  0.000000  1
