# generated using pymatgen
data_Ca10HgIr3
_symmetry_space_group_name_H-M   'P 1'
_cell_length_a   8.82942501
_cell_length_b   8.78631182
_cell_length_c   7.74868522
_cell_angle_alpha   82.46309269
_cell_angle_beta   83.03974620
_cell_angle_gamma   44.14510364
_symmetry_Int_Tables_number   1
_chemical_formula_structural   Ca10HgIr3
_chemical_formula_sum   'Ca10 Hg1 Ir3'
_cell_volume   414.73649784
_cell_formula_units_Z   1
loop_
 _symmetry_equiv_pos_site_id
 _symmetry_equiv_pos_as_xyz
  1  'x, y, z'
loop_
 _atom_site_type_symbol
 _atom_site_label
 _atom_site_symmetry_multiplicity
 _atom_site_fract_x
 _atom_site_fract_y
 _atom_site_fract_z
 _atom_site_occupancy
  Ca  Ca0  1  0.053938  0.776049  0.910979  1
  Ca  Ca1  1  0.194853  0.986033  0.587306  1
  Ca  Ca2  1  0.988910  0.199144  0.083646  1
  Ca  Ca3  1  0.812302  0.019922  0.437669  1
  Ca  Ca4  1  0.352784  0.199148  0.804957  1
  Ca  Ca5  1  0.792373  0.640663  0.676304  1
  Ca  Ca6  1  0.633833  0.784730  0.175584  1
  Ca  Ca7  1  0.180869  0.376932  0.335486  1
  Ca  Ca8  1  0.575297  0.437379  0.730449  1
  Ca  Ca9  1  0.416701  0.589862  0.263665  1
  Hg  Hg10  1  0.596196  0.181147  0.077835  1
  Ir  Ir11  1  0.180283  0.594381  0.584398  1
  Ir  Ir12  1  0.396903  0.820641  0.917089  1
  Ir  Ir13  1  0.824757  0.393970  0.414634  1
