# generated using pymatgen
data_Tm15Sc5NiBi11
_symmetry_space_group_name_H-M   'P 1'
_cell_length_a   7.96566095
_cell_length_b   9.26079998
_cell_length_c   11.77141815
_cell_angle_alpha   89.94601028
_cell_angle_beta   89.66323658
_cell_angle_gamma   89.95527094
_symmetry_Int_Tables_number   1
_chemical_formula_structural   Tm15Sc5NiBi11
_chemical_formula_sum   'Tm15 Sc5 Ni1 Bi11'
_cell_volume   868.34295225
_cell_formula_units_Z   1
loop_
 _symmetry_equiv_pos_site_id
 _symmetry_equiv_pos_as_xyz
  1  'x, y, z'
loop_
 _atom_site_type_symbol
 _atom_site_label
 _atom_site_symmetry_multiplicity
 _atom_site_fract_x
 _atom_site_fract_y
 _atom_site_fract_z
 _atom_site_occupancy
  Tm  Tm0  1  0.354331  0.248905  0.305179  1
  Tm  Tm1  1  0.653382  0.749714  0.715763  1
  Tm  Tm2  1  0.147055  0.748689  0.780308  1
  Tm  Tm3  1  0.849360  0.249635  0.214620  1
  Tm  Tm4  1  0.195743  0.249723  0.774936  1
  Tm  Tm5  1  0.811357  0.749745  0.218363  1
  Tm  Tm6  1  0.316578  0.750499  0.280053  1
  Tm  Tm7  1  0.650952  0.248831  0.703699  1
  Tm  Tm8  1  0.805241  0.934687  0.940830  1
  Tm  Tm9  1  0.312127  0.968337  0.558344  1
  Tm  Tm10  1  0.806976  0.566424  0.941995  1
  Tm  Tm11  1  0.683011  0.073103  0.446680  1
  Tm  Tm12  1  0.194872  0.434325  0.063481  1
  Tm  Tm13  1  0.682274  0.425494  0.447142  1
  Tm  Tm14  1  0.312306  0.531175  0.558571  1
  Sc  Sc15  1  0.045281  0.249781  0.507322  1
  Sc  Sc16  1  0.985769  0.749832  0.490988  1
  Sc  Sc17  1  0.478096  0.750425  0.012610  1
  Sc  Sc18  1  0.524419  0.248159  0.989519  1
  Sc  Sc19  1  0.195797  0.069739  0.063362  1
  Ni  Ni20  1  0.407798  0.250089  0.531402  1
  Bi  Bi21  1  0.598183  0.749473  0.457912  1
  Bi  Bi22  1  0.103454  0.757475  0.042844  1
  Bi  Bi23  1  0.907560  0.248325  0.953736  1
  Bi  Bi24  1  0.059814  0.001660  0.326105  1
  Bi  Bi25  1  0.933581  0.999868  0.670004  1
  Bi  Bi26  1  0.433011  0.993938  0.832352  1
  Bi  Bi27  1  0.933046  0.498998  0.670472  1
  Bi  Bi28  1  0.560145  0.005811  0.170436  1
  Bi  Bi29  1  0.059337  0.498601  0.327937  1
  Bi  Bi30  1  0.563699  0.493559  0.171101  1
  Bi  Bi31  1  0.435447  0.504978  0.831935  1
