# generated using pymatgen
data_Ir3Rh5Se16
_symmetry_space_group_name_H-M   'P 1'
_cell_length_a   3.78997200
_cell_length_b   6.03148987
_cell_length_c   21.29758206
_cell_angle_alpha   89.93847337
_cell_angle_beta   90.00000000
_cell_angle_gamma   90.00000000
_symmetry_Int_Tables_number   1
_chemical_formula_structural   Ir3Rh5Se16
_chemical_formula_sum   'Ir3 Rh5 Se16'
_cell_volume   486.84493291
_cell_formula_units_Z   1
loop_
 _symmetry_equiv_pos_site_id
 _symmetry_equiv_pos_as_xyz
  1  'x, y, z'
loop_
 _atom_site_type_symbol
 _atom_site_label
 _atom_site_symmetry_multiplicity
 _atom_site_fract_x
 _atom_site_fract_y
 _atom_site_fract_z
 _atom_site_occupancy
  Ir  Ir0  1  0.250000  0.072838  0.576350  1
  Ir  Ir1  1  0.250000  0.427898  0.076245  1
  Ir  Ir2  1  0.750000  0.927340  0.423747  1
  Rh  Rh3  1  0.750000  0.573075  0.923926  1
  Rh  Rh4  1  0.250000  0.056243  0.805316  1
  Rh  Rh5  1  0.250000  0.443962  0.304987  1
  Rh  Rh6  1  0.750000  0.943285  0.194654  1
  Rh  Rh7  1  0.750000  0.555495  0.695236  1
  Se  Se8  1  0.250000  0.429491  0.860141  1
  Se  Se9  1  0.250000  0.070624  0.361313  1
  Se  Se10  1  0.750000  0.570894  0.138563  1
  Se  Se11  1  0.750000  0.929480  0.638974  1
  Se  Se12  1  0.750000  0.179944  0.737827  1
  Se  Se13  1  0.750000  0.319396  0.237713  1
  Se  Se14  1  0.250000  0.819540  0.262080  1
  Se  Se15  1  0.250000  0.679011  0.762768  1
  Se  Se16  1  0.750000  0.952259  0.878219  1
  Se  Se17  1  0.750000  0.549747  0.377984  1
  Se  Se18  1  0.250000  0.049450  0.121624  1
  Se  Se19  1  0.250000  0.450482  0.622079  1
  Se  Se20  1  0.750000  0.222495  0.508383  1
  Se  Se21  1  0.750000  0.277610  0.008387  1
  Se  Se22  1  0.250000  0.777437  0.491742  1
  Se  Se23  1  0.250000  0.722004  0.991743  1
