# generated using pymatgen
data_SrLi4Ca2(SiN3)2
_symmetry_space_group_name_H-M   'P 1'
_cell_length_a   5.68294861
_cell_length_b   5.68294744
_cell_length_c   6.07562157
_cell_angle_alpha   89.08670703
_cell_angle_beta   90.91329942
_cell_angle_gamma   63.15770885
_symmetry_Int_Tables_number   1
_chemical_formula_structural   SrLi4Ca2(SiN3)2
_chemical_formula_sum   'Sr1 Li4 Ca2 Si2 N6'
_cell_volume   174.99462933
_cell_formula_units_Z   1
loop_
 _symmetry_equiv_pos_site_id
 _symmetry_equiv_pos_as_xyz
  1  'x, y, z'
loop_
 _atom_site_type_symbol
 _atom_site_label
 _atom_site_symmetry_multiplicity
 _atom_site_fract_x
 _atom_site_fract_y
 _atom_site_fract_z
 _atom_site_occupancy
  Sr  Sr0  1  0.500000  0.500000  0.000000  1
  Li  Li1  1  0.686379  0.960970  0.127350  1
  Li  Li2  1  0.960972  0.686377  0.872650  1
  Li  Li3  1  0.313622  0.039028  0.872650  1
  Li  Li4  1  0.039029  0.313621  0.127350  1
  Ca  Ca5  1  0.311452  0.311450  0.500000  1
  Ca  Ca6  1  0.688549  0.688548  0.500000  1
  Si  Si7  1  0.114870  0.885129  0.334512  1
  Si  Si8  1  0.885129  0.114870  0.665488  1
  N  N9  1  0.356807  0.948070  0.215857  1
  N  N10  1  0.948071  0.356806  0.784144  1
  N  N11  1  0.643194  0.051929  0.784144  1
  N  N12  1  0.051930  0.643192  0.215857  1
  N  N13  1  0.190455  0.809544  0.632420  1
  N  N14  1  0.809544  0.190455  0.367580  1
