# generated using pymatgen
data_TbPr3(PI)2
_symmetry_space_group_name_H-M   'P 1'
_cell_length_a   4.18853600
_cell_length_b   4.18853550
_cell_length_c   15.42383000
_cell_angle_alpha   90.00000000
_cell_angle_beta   90.00000000
_cell_angle_gamma   120.00000397
_symmetry_Int_Tables_number   1
_chemical_formula_structural   TbPr3(PI)2
_chemical_formula_sum   'Tb1 Pr3 P2 I2'
_cell_volume   234.34047022
_cell_formula_units_Z   1
loop_
 _symmetry_equiv_pos_site_id
 _symmetry_equiv_pos_as_xyz
  1  'x, y, z'
loop_
 _atom_site_type_symbol
 _atom_site_label
 _atom_site_symmetry_multiplicity
 _atom_site_fract_x
 _atom_site_fract_y
 _atom_site_fract_z
 _atom_site_occupancy
  Tb  Tb0  1  0.333333  0.666667  0.905930  1
  Pr  Pr1  1  0.333333  0.666667  0.599706  1
  Pr  Pr2  1  0.666667  0.333333  0.403493  1
  Pr  Pr3  1  0.666667  0.333333  0.091856  1
  P  P4  1  0.000000  0.000000  0.991294  1
  P  P5  1  0.000000  0.000000  0.501593  1
  I  I6  1  0.333333  0.666667  0.247272  1
  I  I7  1  0.666667  0.333333  0.758857  1
