# generated using pymatgen
data_BaCdSiSe4
_symmetry_space_group_name_H-M   'P 1'
_cell_length_a   6.74735600
_cell_length_b   11.09130000
_cell_length_c   11.52868200
_cell_angle_alpha   90.00000000
_cell_angle_beta   90.00000000
_cell_angle_gamma   90.00000000
_symmetry_Int_Tables_number   1
_chemical_formula_structural   BaCdSiSe4
_chemical_formula_sum   'Ba4 Cd4 Si4 Se16'
_cell_volume   862.77139382
_cell_formula_units_Z   4
loop_
 _symmetry_equiv_pos_site_id
 _symmetry_equiv_pos_as_xyz
  1  'x, y, z'
loop_
 _atom_site_type_symbol
 _atom_site_label
 _atom_site_symmetry_multiplicity
 _atom_site_fract_x
 _atom_site_fract_y
 _atom_site_fract_z
 _atom_site_occupancy
  Ba  Ba0  1  0.055582  0.000000  0.500000  1
  Ba  Ba1  1  0.555582  0.500000  0.000000  1
  Ba  Ba2  1  0.059555  0.000000  0.000000  1
  Ba  Ba3  1  0.559555  0.500000  0.500000  1
  Cd  Cd4  1  0.486550  0.166332  0.252974  1
  Cd  Cd5  1  0.486550  0.833668  0.747026  1
  Cd  Cd6  1  0.986550  0.333668  0.752974  1
  Cd  Cd7  1  0.986550  0.666332  0.247026  1
  Si  Si8  1  0.043458  0.283057  0.249651  1
  Si  Si9  1  0.043458  0.716943  0.750349  1
  Si  Si10  1  0.543458  0.216943  0.749651  1
  Si  Si11  1  0.543458  0.783057  0.250349  1
  Se  Se12  1  0.248802  0.272305  0.089478  1
  Se  Se13  1  0.248802  0.727695  0.910522  1
  Se  Se14  1  0.748802  0.227695  0.589478  1
  Se  Se15  1  0.748802  0.772305  0.410522  1
  Se  Se16  1  0.244896  0.274168  0.411876  1
  Se  Se17  1  0.244896  0.725832  0.588124  1
  Se  Se18  1  0.744896  0.225832  0.911876  1
  Se  Se19  1  0.744896  0.774168  0.088124  1
  Se  Se20  1  0.860394  0.105996  0.249537  1
  Se  Se21  1  0.860394  0.894004  0.750463  1
  Se  Se22  1  0.360394  0.394004  0.749537  1
  Se  Se23  1  0.360394  0.605996  0.250463  1
  Se  Se24  1  0.817932  0.436163  0.248616  1
  Se  Se25  1  0.817932  0.563837  0.751384  1
  Se  Se26  1  0.317932  0.063837  0.748616  1
  Se  Se27  1  0.317932  0.936163  0.251384  1
