# generated using pymatgen
data_Hf8Ti7V5Si16
_symmetry_space_group_name_H-M   'P 1'
_cell_length_a   6.52319160
_cell_length_b   6.68775274
_cell_length_c   12.82780846
_cell_angle_alpha   90.03059175
_cell_angle_beta   90.03317967
_cell_angle_gamma   90.06891300
_symmetry_Int_Tables_number   1
_chemical_formula_structural   Hf8Ti7V5Si16
_chemical_formula_sum   'Hf8 Ti7 V5 Si16'
_cell_volume   559.61888251
_cell_formula_units_Z   1
loop_
 _symmetry_equiv_pos_site_id
 _symmetry_equiv_pos_as_xyz
  1  'x, y, z'
loop_
 _atom_site_type_symbol
 _atom_site_label
 _atom_site_symmetry_multiplicity
 _atom_site_fract_x
 _atom_site_fract_y
 _atom_site_fract_z
 _atom_site_occupancy
  Hf  Hf0  1  0.997678  0.173418  0.094050  1
  Hf  Hf1  1  0.003497  0.826245  0.907240  1
  Hf  Hf2  1  0.503958  0.673656  0.905968  1
  Hf  Hf3  1  0.002681  0.827136  0.594353  1
  Hf  Hf4  1  0.495996  0.326653  0.094932  1
  Hf  Hf5  1  0.997767  0.172945  0.404386  1
  Hf  Hf6  1  0.496654  0.326802  0.403845  1
  Hf  Hf7  1  0.502619  0.673627  0.594906  1
  Ti  Ti8  1  0.334567  0.170693  0.626012  1
  Ti  Ti9  1  0.665436  0.829346  0.373010  1
  Ti  Ti10  1  0.164112  0.671201  0.373743  1
  Ti  Ti11  1  0.663627  0.828971  0.124944  1
  Ti  Ti12  1  0.835362  0.329073  0.626029  1
  Ti  Ti13  1  0.332856  0.171296  0.876377  1
  Ti  Ti14  1  0.836725  0.330843  0.875266  1
  V  V15  1  0.161659  0.493162  0.750529  1
  V  V16  1  0.838678  0.508489  0.248276  1
  V  V17  1  0.338672  0.992487  0.248966  1
  V  V18  1  0.661555  0.007615  0.750268  1
  V  V19  1  0.164988  0.669172  0.125623  1
  Si  Si20  1  0.034004  0.116087  0.750692  1
  Si  Si21  1  0.968151  0.880505  0.247382  1
  Si  Si22  1  0.462608  0.618029  0.248666  1
  Si  Si23  1  0.533960  0.383211  0.750659  1
  Si  Si24  1  0.298845  0.861043  0.750754  1
  Si  Si25  1  0.702598  0.138040  0.249181  1
  Si  Si26  1  0.199519  0.363263  0.248975  1
  Si  Si27  1  0.799842  0.639972  0.750240  1
  Si  Si28  1  0.169419  0.462083  0.539103  1
  Si  Si29  1  0.830061  0.537419  0.459830  1
  Si  Si30  1  0.331148  0.962511  0.459702  1
  Si  Si31  1  0.834605  0.538250  0.041725  1
  Si  Si32  1  0.669125  0.038134  0.539126  1
  Si  Si33  1  0.171021  0.463897  0.963601  1
  Si  Si34  1  0.668862  0.038376  0.960238  1
  Si  Si35  1  0.327144  0.956346  0.041407  1
