# generated using pymatgen
data_Li5TcN4
_symmetry_space_group_name_H-M   'P 1'
_cell_length_a   4.90238300
_cell_length_b   6.60303200
_cell_length_c   6.70291700
_cell_angle_alpha   90.00000000
_cell_angle_beta   90.00000000
_cell_angle_gamma   90.00000000
_symmetry_Int_Tables_number   1
_chemical_formula_structural   Li5TcN4
_chemical_formula_sum   'Li10 Tc2 N8'
_cell_volume   216.97739025
_cell_formula_units_Z   2
loop_
 _symmetry_equiv_pos_site_id
 _symmetry_equiv_pos_as_xyz
  1  'x, y, z'
loop_
 _atom_site_type_symbol
 _atom_site_label
 _atom_site_symmetry_multiplicity
 _atom_site_fract_x
 _atom_site_fract_y
 _atom_site_fract_z
 _atom_site_occupancy
  Li  Li0  1  0.755161  0.238876  0.300495  1
  Li  Li1  1  0.755161  0.238876  0.699505  1
  Li  Li2  1  0.755161  0.761124  0.300495  1
  Li  Li3  1  0.755161  0.761124  0.699505  1
  Li  Li4  1  0.244839  0.261124  0.199505  1
  Li  Li5  1  0.244839  0.261124  0.800495  1
  Li  Li6  1  0.244839  0.738876  0.199505  1
  Li  Li7  1  0.244839  0.738876  0.800495  1
  Li  Li8  1  0.307126  0.500000  0.500000  1
  Li  Li9  1  0.692874  0.000000  0.000000  1
  Tc  Tc10  1  0.277635  0.000000  0.500000  1
  Tc  Tc11  1  0.722365  0.500000  0.000000  1
  N  N12  1  0.073517  0.768830  0.500000  1
  N  N13  1  0.073517  0.231170  0.500000  1
  N  N14  1  0.926483  0.731170  0.000000  1
  N  N15  1  0.926483  0.268830  0.000000  1
  N  N16  1  0.519150  0.500000  0.229298  1
  N  N17  1  0.519150  0.500000  0.770702  1
  N  N18  1  0.480850  0.000000  0.270702  1
  N  N19  1  0.480850  0.000000  0.729298  1
