# generated using pymatgen
data_Nd3Fe4P6Rh5
_symmetry_space_group_name_H-M   'P 1'
_cell_length_a   3.85471200
_cell_length_b   11.17357100
_cell_length_c   12.61346700
_cell_angle_alpha   90.00000000
_cell_angle_beta   90.00000000
_cell_angle_gamma   90.00000000
_symmetry_Int_Tables_number   1
_chemical_formula_structural   Nd3Fe4P6Rh5
_chemical_formula_sum   'Nd6 Fe8 P12 Rh10'
_cell_volume   543.27335331
_cell_formula_units_Z   2
loop_
 _symmetry_equiv_pos_site_id
 _symmetry_equiv_pos_as_xyz
  1  'x, y, z'
loop_
 _atom_site_type_symbol
 _atom_site_label
 _atom_site_symmetry_multiplicity
 _atom_site_fract_x
 _atom_site_fract_y
 _atom_site_fract_z
 _atom_site_occupancy
  Nd  Nd0  1  0.000000  0.500000  0.517765  1
  Nd  Nd1  1  0.500000  0.000000  0.477542  1
  Nd  Nd2  1  0.500000  0.821436  0.199552  1
  Nd  Nd3  1  0.500000  0.178564  0.199552  1
  Nd  Nd4  1  0.000000  0.678036  0.802206  1
  Nd  Nd5  1  0.000000  0.321964  0.802206  1
  Fe  Fe6  1  0.000000  0.500000  0.994689  1
  Fe  Fe7  1  0.500000  0.000000  0.006321  1
  Fe  Fe8  1  0.500000  0.334791  0.997828  1
  Fe  Fe9  1  0.500000  0.665209  0.997828  1
  Fe  Fe10  1  0.000000  0.165340  0.003184  1
  Fe  Fe11  1  0.000000  0.834660  0.003184  1
  Fe  Fe12  1  0.500000  0.296272  0.428944  1
  Fe  Fe13  1  0.500000  0.703728  0.428944  1
  P  P14  1  0.500000  0.500000  0.899337  1
  P  P15  1  0.000000  0.000000  0.101566  1
  P  P16  1  0.500000  0.500000  0.344854  1
  P  P17  1  0.000000  0.000000  0.659277  1
  P  P18  1  0.500000  0.313145  0.611398  1
  P  P19  1  0.500000  0.686855  0.611398  1
  P  P20  1  0.000000  0.197482  0.382377  1
  P  P21  1  0.000000  0.802518  0.382377  1
  P  P22  1  0.500000  0.838838  0.909047  1
  P  P23  1  0.500000  0.161162  0.909047  1
  P  P24  1  0.000000  0.660606  0.092192  1
  P  P25  1  0.000000  0.339394  0.092192  1
  Rh  Rh26  1  0.500000  0.500000  0.154908  1
  Rh  Rh27  1  0.000000  0.000000  0.845910  1
  Rh  Rh28  1  0.500000  0.500000  0.704421  1
  Rh  Rh29  1  0.000000  0.000000  0.297249  1
  Rh  Rh30  1  0.000000  0.205881  0.570685  1
  Rh  Rh31  1  0.000000  0.794119  0.570685  1
  Rh  Rh32  1  0.500000  0.875402  0.717405  1
  Rh  Rh33  1  0.500000  0.124598  0.717405  1
  Rh  Rh34  1  0.000000  0.623540  0.283262  1
  Rh  Rh35  1  0.000000  0.376460  0.283262  1
