# generated using pymatgen
data_Sr2DyY(NiP)4
_symmetry_space_group_name_H-M   'P 1'
_cell_length_a   3.91917600
_cell_length_b   3.91917652
_cell_length_c   16.79810100
_cell_angle_alpha   90.00000000
_cell_angle_beta   90.00000000
_cell_angle_gamma   120.00001250
_symmetry_Int_Tables_number   1
_chemical_formula_structural   Sr2DyY(NiP)4
_chemical_formula_sum   'Sr2 Dy1 Y1 Ni4 P4'
_cell_volume   223.44999876
_cell_formula_units_Z   1
loop_
 _symmetry_equiv_pos_site_id
 _symmetry_equiv_pos_as_xyz
  1  'x, y, z'
loop_
 _atom_site_type_symbol
 _atom_site_label
 _atom_site_symmetry_multiplicity
 _atom_site_fract_x
 _atom_site_fract_y
 _atom_site_fract_z
 _atom_site_occupancy
  Sr  Sr0  1  0.000000  0.000000  0.250221  1
  Sr  Sr1  1  0.000000  0.000000  0.749779  1
  Dy  Dy2  1  0.000000  0.000000  0.500000  1
  Y  Y3  1  0.000000  0.000000  0.000000  1
  Ni  Ni4  1  0.333333  0.666667  0.385554  1
  Ni  Ni5  1  0.666667  0.333333  0.614446  1
  Ni  Ni6  1  0.666667  0.333333  0.884663  1
  Ni  Ni7  1  0.333333  0.666667  0.115337  1
  P  P8  1  0.333333  0.666667  0.884756  1
  P  P9  1  0.666667  0.333333  0.115244  1
  P  P10  1  0.666667  0.333333  0.385212  1
  P  P11  1  0.333333  0.666667  0.614788  1
