# generated using pymatgen
data_Pr3Gd2MnRuO12
_symmetry_space_group_name_H-M   'P 1'
_cell_length_a   7.06022328
_cell_length_b   7.06022226
_cell_length_c   7.52825521
_cell_angle_alpha   74.03652529
_cell_angle_beta   74.03653432
_cell_angle_gamma   50.06067224
_symmetry_Int_Tables_number   1
_chemical_formula_structural   Pr3Gd2MnRuO12
_chemical_formula_sum   'Pr3 Gd2 Mn1 Ru1 O12'
_cell_volume   274.14616920
_cell_formula_units_Z   1
loop_
 _symmetry_equiv_pos_site_id
 _symmetry_equiv_pos_as_xyz
  1  'x, y, z'
loop_
 _atom_site_type_symbol
 _atom_site_label
 _atom_site_symmetry_multiplicity
 _atom_site_fract_x
 _atom_site_fract_y
 _atom_site_fract_z
 _atom_site_occupancy
  Pr  Pr0  1  0.695139  0.693827  0.166714  1
  Pr  Pr1  1  0.306173  0.304861  0.833286  1
  Pr  Pr2  1  0.998893  0.001107  0.500000  1
  Gd  Gd3  1  0.311002  0.297503  0.359045  1
  Gd  Gd4  1  0.702497  0.688998  0.640955  1
  Mn  Mn5  1  0.749120  0.250880  0.000000  1
  Ru  Ru6  1  0.240946  0.759054  0.000000  1
  O  O7  1  0.095570  0.594829  0.570170  1
  O  O8  1  0.994592  0.008154  0.170886  1
  O  O9  1  0.405171  0.904430  0.429830  1
  O  O10  1  0.501735  0.495735  0.176758  1
  O  O11  1  0.104168  0.578445  0.083550  1
  O  O12  1  0.910495  0.404237  0.427797  1
  O  O13  1  0.991846  0.005408  0.829114  1
  O  O14  1  0.595763  0.089504  0.572203  1
  O  O15  1  0.504265  0.498265  0.823242  1
  O  O16  1  0.577507  0.106439  0.083433  1
  O  O17  1  0.421555  0.895832  0.916450  1
  O  O18  1  0.893561  0.422493  0.916567  1
