# generated using pymatgen
data_La2Ga5AgPt2
_symmetry_space_group_name_H-M   'P 1'
_cell_length_a   8.74320752
_cell_length_b   8.74294005
_cell_length_c   8.74350300
_cell_angle_alpha   140.18047225
_cell_angle_beta   107.61360129
_cell_angle_gamma   85.94801214
_symmetry_Int_Tables_number   1
_chemical_formula_structural   La2Ga5AgPt2
_chemical_formula_sum   'La4 Ga10 Ag2 Pt4'
_cell_volume   393.35065613
_cell_formula_units_Z   2
loop_
 _symmetry_equiv_pos_site_id
 _symmetry_equiv_pos_as_xyz
  1  'x, y, z'
loop_
 _atom_site_type_symbol
 _atom_site_label
 _atom_site_symmetry_multiplicity
 _atom_site_fract_x
 _atom_site_fract_y
 _atom_site_fract_z
 _atom_site_occupancy
  La  La0  1  0.090217  0.864178  0.226093  1
  La  La1  1  0.638091  0.364133  0.273920  1
  La  La2  1  0.909783  0.135822  0.773907  1
  La  La3  1  0.361909  0.635867  0.726080  1
  Ga  Ga4  1  0.281869  0.031888  0.750016  1
  Ga  Ga5  1  0.281884  0.531906  0.250004  1
  Ga  Ga6  1  0.000057  0.250055  0.250042  1
  Ga  Ga7  1  0.228187  0.390418  0.837848  1
  Ga  Ga8  1  0.771813  0.609582  0.162152  1
  Ga  Ga9  1  0.718116  0.468094  0.749996  1
  Ga  Ga10  1  0.552564  0.890378  0.662178  1
  Ga  Ga11  1  0.718131  0.968112  0.249984  1
  Ga  Ga12  1  0.447436  0.109622  0.337822  1
  Ga  Ga13  1  0.999943  0.749945  0.749958  1
  Ag  Ag14  1  0.500034  0.750015  0.250012  1
  Ag  Ag15  1  0.499966  0.249985  0.749988  1
  Pt  Pt16  1  0.039421  0.640229  0.399200  1
  Pt  Pt17  1  0.758964  0.859762  0.899181  1
  Pt  Pt18  1  0.960579  0.359771  0.600800  1
  Pt  Pt19  1  0.241036  0.140238  0.100819  1
