# generated using pymatgen
data_PrMg3P7N12
_symmetry_space_group_name_H-M   'P 1'
_cell_length_a   7.35676260
_cell_length_b   7.35676385
_cell_length_c   7.35676300
_cell_angle_alpha   109.47150323
_cell_angle_beta   109.47150787
_cell_angle_gamma   109.47148951
_symmetry_Int_Tables_number   1
_chemical_formula_structural   PrMg3P7N12
_chemical_formula_sum   'Pr1 Mg3 P7 N12'
_cell_volume   306.50244005
_cell_formula_units_Z   1
loop_
 _symmetry_equiv_pos_site_id
 _symmetry_equiv_pos_as_xyz
  1  'x, y, z'
loop_
 _atom_site_type_symbol
 _atom_site_label
 _atom_site_symmetry_multiplicity
 _atom_site_fract_x
 _atom_site_fract_y
 _atom_site_fract_z
 _atom_site_occupancy
  Pr  Pr0  1  0.318522  0.318522  0.318522  1
  Mg  Mg1  1  0.003276  0.650119  0.003276  1
  Mg  Mg2  1  0.650119  0.003276  0.003276  1
  Mg  Mg3  1  0.003276  0.003276  0.650119  1
  P  P4  1  0.507737  0.252759  0.759230  1
  P  P5  1  0.507737  0.759230  0.252759  1
  P  P6  1  0.759230  0.252759  0.507737  1
  P  P7  1  0.252759  0.507737  0.759230  1
  P  P8  1  0.759230  0.507737  0.252759  1
  P  P9  1  0.252759  0.759230  0.507737  1
  P  P10  1  0.946109  0.946109  0.946109  1
  N  N11  1  0.004021  0.729663  0.429039  1
  N  N12  1  0.287411  0.708023  0.287411  1
  N  N13  1  0.277284  0.576835  0.576835  1
  N  N14  1  0.576835  0.576835  0.277284  1
  N  N15  1  0.576835  0.277284  0.576835  1
  N  N16  1  0.729663  0.004021  0.429039  1
  N  N17  1  0.429039  0.004021  0.729663  1
  N  N18  1  0.729663  0.429039  0.004021  1
  N  N19  1  0.287411  0.287411  0.708023  1
  N  N20  1  0.708023  0.287411  0.287411  1
  N  N21  1  0.004021  0.429039  0.729663  1
  N  N22  1  0.429039  0.729663  0.004021  1
