# generated using pymatgen
data_TbSm3Lu2(Si3Ru)8
_symmetry_space_group_name_H-M   'P 1'
_cell_length_a   10.11484527
_cell_length_b   10.11484495
_cell_length_c   8.16525649
_cell_angle_alpha   90.06972124
_cell_angle_beta   89.93027567
_cell_angle_gamma   132.43614316
_symmetry_Int_Tables_number   1
_chemical_formula_structural   TbSm3Lu2(Si3Ru)8
_chemical_formula_sum   'Tb1 Sm3 Lu2 Si24 Ru8'
_cell_volume   616.54082294
_cell_formula_units_Z   1
loop_
 _symmetry_equiv_pos_site_id
 _symmetry_equiv_pos_as_xyz
  1  'x, y, z'
loop_
 _atom_site_type_symbol
 _atom_site_label
 _atom_site_symmetry_multiplicity
 _atom_site_fract_x
 _atom_site_fract_y
 _atom_site_fract_z
 _atom_site_occupancy
  Tb  Tb0  1  0.002413  0.502413  0.750000  1
  Sm  Sm1  1  0.502529  0.002529  0.750000  1
  Sm  Sm2  1  0.997467  0.497467  0.250000  1
  Sm  Sm3  1  0.497086  0.997086  0.250000  1
  Lu  Lu4  1  0.499933  0.499994  0.500005  1
  Lu  Lu5  1  0.999994  0.999933  0.999995  1
  Si  Si6  1  0.795131  0.206072  0.501051  1
  Si  Si7  1  0.293803  0.704692  0.999235  1
  Si  Si8  1  0.204692  0.793803  0.500765  1
  Si  Si9  1  0.706072  0.295131  0.998949  1
  Si  Si10  1  0.331813  0.331385  0.832702  1
  Si  Si11  1  0.668395  0.668421  0.167431  1
  Si  Si12  1  0.168421  0.168395  0.332569  1
  Si  Si13  1  0.831385  0.831813  0.667298  1
  Si  Si14  1  0.120307  0.887601  0.728129  1
  Si  Si15  1  0.113143  0.880223  0.271146  1
  Si  Si16  1  0.611631  0.378477  0.228469  1
  Si  Si17  1  0.620735  0.387834  0.771338  1
  Si  Si18  1  0.878477  0.111631  0.271531  1
  Si  Si19  1  0.887834  0.120735  0.728662  1
  Si  Si20  1  0.387601  0.620307  0.771871  1
  Si  Si21  1  0.380223  0.613143  0.228854  1
  Si  Si22  1  0.345350  0.112881  0.504173  1
  Si  Si23  1  0.887729  0.656311  0.497051  1
  Si  Si24  1  0.386990  0.154585  0.004290  1
  Si  Si25  1  0.844066  0.612308  0.995126  1
  Si  Si26  1  0.654585  0.886990  0.495710  1
  Si  Si27  1  0.112308  0.344066  0.504874  1
  Si  Si28  1  0.612881  0.845350  0.995827  1
  Si  Si29  1  0.156311  0.387729  0.002949  1
  Ru  Ru30  1  0.669020  0.334363  0.500316  1
  Ru  Ru31  1  0.165739  0.831081  0.998724  1
  Ru  Ru32  1  0.331081  0.665739  0.501276  1
  Ru  Ru33  1  0.834363  0.169020  0.999684  1
  Ru  Ru34  1  0.125629  0.125540  0.626557  1
  Ru  Ru35  1  0.874654  0.874668  0.373137  1
  Ru  Ru36  1  0.374668  0.374654  0.126863  1
  Ru  Ru37  1  0.625540  0.625629  0.873443  1
