# generated using pymatgen
data_Ho4ReTcOs6
_symmetry_space_group_name_H-M   'P 1'
_cell_length_a   5.26600366
_cell_length_b   5.26600346
_cell_length_c   8.88139100
_cell_angle_alpha   90.00000000
_cell_angle_beta   90.00000000
_cell_angle_gamma   117.69943944
_symmetry_Int_Tables_number   1
_chemical_formula_structural   Ho4ReTcOs6
_chemical_formula_sum   'Ho4 Re1 Tc1 Os6'
_cell_volume   218.06296268
_cell_formula_units_Z   1
loop_
 _symmetry_equiv_pos_site_id
 _symmetry_equiv_pos_as_xyz
  1  'x, y, z'
loop_
 _atom_site_type_symbol
 _atom_site_label
 _atom_site_symmetry_multiplicity
 _atom_site_fract_x
 _atom_site_fract_y
 _atom_site_fract_z
 _atom_site_occupancy
  Ho  Ho0  1  0.332219  0.667781  0.435791  1
  Ho  Ho1  1  0.668494  0.331506  0.564185  1
  Ho  Ho2  1  0.668494  0.331506  0.935815  1
  Ho  Ho3  1  0.332219  0.667781  0.064209  1
  Re  Re4  1  0.171086  0.828914  0.750000  1
  Tc  Tc5  1  0.825384  0.174616  0.250000  1
  Os  Os6  1  0.003140  0.996860  0.499778  1
  Os  Os7  1  0.003140  0.996860  0.000222  1
  Os  Os8  1  0.828008  0.657881  0.250000  1
  Os  Os9  1  0.342119  0.171992  0.250000  1
  Os  Os10  1  0.170542  0.344847  0.750000  1
  Os  Os11  1  0.655153  0.829458  0.750000  1
