# generated using pymatgen
data_MnS2O7
_symmetry_space_group_name_H-M   'P 1'
_cell_length_a   5.12309278
_cell_length_b   7.18458604
_cell_length_c   8.65926762
_cell_angle_alpha   92.51330834
_cell_angle_beta   94.71432275
_cell_angle_gamma   106.80749580
_symmetry_Int_Tables_number   1
_chemical_formula_structural   MnS2O7
_chemical_formula_sum   'Mn2 S4 O14'
_cell_volume   303.31201713
_cell_formula_units_Z   2
loop_
 _symmetry_equiv_pos_site_id
 _symmetry_equiv_pos_as_xyz
  1  'x, y, z'
loop_
 _atom_site_type_symbol
 _atom_site_label
 _atom_site_symmetry_multiplicity
 _atom_site_fract_x
 _atom_site_fract_y
 _atom_site_fract_z
 _atom_site_occupancy
  Mn  Mn0  1  0.000000  0.500000  0.000000  1
  Mn  Mn1  1  0.500000  0.000000  0.500000  1
  S  S2  1  0.505472  0.644567  0.768093  1
  S  S3  1  0.494528  0.355433  0.231907  1
  S  S4  1  0.133954  0.252820  0.689052  1
  S  S5  1  0.866046  0.747180  0.310948  1
  O  O6  1  0.725354  0.562154  0.815171  1
  O  O7  1  0.274646  0.437846  0.184829  1
  O  O8  1  0.350659  0.681800  0.894072  1
  O  O9  1  0.649341  0.318200  0.105928  1
  O  O10  1  0.587501  0.804835  0.668996  1
  O  O11  1  0.412499  0.195165  0.331004  1
  O  O12  1  0.285719  0.478730  0.644024  1
  O  O13  1  0.714281  0.521270  0.355976  1
  O  O14  1  0.909620  0.196199  0.565963  1
  O  O15  1  0.090380  0.803801  0.434037  1
  O  O16  1  0.336662  0.147392  0.680081  1
  O  O17  1  0.663338  0.852608  0.319919  1
  O  O18  1  0.053355  0.268111  0.845821  1
  O  O19  1  0.946645  0.731889  0.154179  1
