# generated using pymatgen
data_CaAc3(SbPt)4
_symmetry_space_group_name_H-M   'P 1'
_cell_length_a   4.64812700
_cell_length_b   8.73073040
_cell_length_c   7.97671734
_cell_angle_alpha   89.94957593
_cell_angle_beta   90.00000000
_cell_angle_gamma   90.00000000
_symmetry_Int_Tables_number   1
_chemical_formula_structural   CaAc3(SbPt)4
_chemical_formula_sum   'Ca1 Ac3 Sb4 Pt4'
_cell_volume   323.70737770
_cell_formula_units_Z   1
loop_
 _symmetry_equiv_pos_site_id
 _symmetry_equiv_pos_as_xyz
  1  'x, y, z'
loop_
 _atom_site_type_symbol
 _atom_site_label
 _atom_site_symmetry_multiplicity
 _atom_site_fract_x
 _atom_site_fract_y
 _atom_site_fract_z
 _atom_site_occupancy
  Ca  Ca0  1  0.250000  0.506734  0.246743  1
  Ac  Ac1  1  0.750000  0.001493  0.745123  1
  Ac  Ac2  1  0.250000  0.003628  0.252582  1
  Ac  Ac3  1  0.750000  0.502056  0.756428  1
  Sb  Sb4  1  0.750000  0.271206  0.411478  1
  Sb  Sb5  1  0.250000  0.256809  0.919377  1
  Sb  Sb6  1  0.250000  0.750639  0.580942  1
  Sb  Sb7  1  0.750000  0.753618  0.087459  1
  Pt  Pt8  1  0.250000  0.739153  0.918773  1
  Pt  Pt9  1  0.250000  0.242144  0.580092  1
  Pt  Pt10  1  0.750000  0.733845  0.421134  1
  Pt  Pt11  1  0.750000  0.238676  0.079870  1
