# generated using pymatgen
data_Tb5Dy15Si15Ru
_symmetry_space_group_name_H-M   'P 1'
_cell_length_a   7.38585209
_cell_length_b   7.76691985
_cell_length_c   14.57847133
_cell_angle_alpha   89.98225053
_cell_angle_beta   90.01664066
_cell_angle_gamma   89.97816970
_symmetry_Int_Tables_number   1
_chemical_formula_structural   Tb5Dy15Si15Ru
_chemical_formula_sum   'Tb5 Dy15 Si15 Ru1'
_cell_volume   836.29855397
_cell_formula_units_Z   1
loop_
 _symmetry_equiv_pos_site_id
 _symmetry_equiv_pos_as_xyz
  1  'x, y, z'
loop_
 _atom_site_type_symbol
 _atom_site_label
 _atom_site_symmetry_multiplicity
 _atom_site_fract_x
 _atom_site_fract_y
 _atom_site_fract_z
 _atom_site_occupancy
  Tb  Tb0  1  0.973719  0.183069  0.403539  1
  Tb  Tb1  1  0.473098  0.314840  0.402884  1
  Tb  Tb2  1  0.973733  0.183011  0.096399  1
  Tb  Tb3  1  0.521888  0.674677  0.906060  1
  Tb  Tb4  1  0.025487  0.816302  0.595876  1
  Dy  Dy5  1  0.672525  0.184547  0.625496  1
  Dy  Dy6  1  0.193729  0.325076  0.872608  1
  Dy  Dy7  1  0.317747  0.819453  0.123647  1
  Dy  Dy8  1  0.816978  0.678228  0.377052  1
  Dy  Dy9  1  0.317933  0.819406  0.376240  1
  Dy  Dy10  1  0.817128  0.678292  0.122823  1
  Dy  Dy11  1  0.672452  0.184552  0.874655  1
  Dy  Dy12  1  0.193892  0.325369  0.627575  1
  Dy  Dy13  1  0.522021  0.674698  0.594172  1
  Dy  Dy14  1  0.025725  0.815973  0.903933  1
  Dy  Dy15  1  0.472695  0.314513  0.097305  1
  Dy  Dy16  1  0.838017  0.514554  0.750051  1
  Dy  Dy17  1  0.354678  0.979274  0.750039  1
  Dy  Dy18  1  0.150145  0.483389  0.249897  1
  Dy  Dy19  1  0.648815  0.014809  0.249868  1
  Si  Si20  1  0.646036  0.970902  0.460564  1
  Si  Si21  1  0.150375  0.528586  0.039202  1
  Si  Si22  1  0.348891  0.026218  0.960708  1
  Si  Si23  1  0.856835  0.469639  0.539493  1
  Si  Si24  1  0.349367  0.025860  0.539428  1
  Si  Si25  1  0.857405  0.469785  0.960485  1
  Si  Si26  1  0.645862  0.971448  0.039621  1
  Si  Si27  1  0.149967  0.528557  0.460810  1
  Si  Si28  1  0.980582  0.102554  0.750098  1
  Si  Si29  1  0.523392  0.602387  0.249921  1
  Si  Si30  1  0.019453  0.895139  0.249954  1
  Si  Si31  1  0.742050  0.877945  0.750100  1
  Si  Si32  1  0.228770  0.632577  0.750029  1
  Si  Si33  1  0.265809  0.126287  0.249857  1
  Si  Si34  1  0.767702  0.373525  0.249846  1
  Ru  Ru35  1  0.485100  0.414560  0.749766  1
