# generated using pymatgen
data_Zr2Nb3GaGe3
_symmetry_space_group_name_H-M   'P 1'
_cell_length_a   6.84276600
_cell_length_b   6.98810600
_cell_length_c   13.12650300
_cell_angle_alpha   90.00000000
_cell_angle_beta   90.00000000
_cell_angle_gamma   90.00000000
_symmetry_Int_Tables_number   1
_chemical_formula_structural   Zr2Nb3GaGe3
_chemical_formula_sum   'Zr8 Nb12 Ga4 Ge12'
_cell_volume   627.68278102
_cell_formula_units_Z   4
loop_
 _symmetry_equiv_pos_site_id
 _symmetry_equiv_pos_as_xyz
  1  'x, y, z'
loop_
 _atom_site_type_symbol
 _atom_site_label
 _atom_site_symmetry_multiplicity
 _atom_site_fract_x
 _atom_site_fract_y
 _atom_site_fract_z
 _atom_site_occupancy
  Zr  Zr0  1  0.492108  0.325091  0.091514  1
  Zr  Zr1  1  0.992108  0.174909  0.408486  1
  Zr  Zr2  1  0.507892  0.674909  0.591514  1
  Zr  Zr3  1  0.007892  0.825091  0.908486  1
  Zr  Zr4  1  0.507892  0.674909  0.908486  1
  Zr  Zr5  1  0.007892  0.825091  0.591514  1
  Zr  Zr6  1  0.492108  0.325091  0.408486  1
  Zr  Zr7  1  0.992108  0.174909  0.091514  1
  Nb  Nb8  1  0.662803  0.012133  0.750000  1
  Nb  Nb9  1  0.162803  0.487867  0.750000  1
  Nb  Nb10  1  0.337197  0.987867  0.250000  1
  Nb  Nb11  1  0.837197  0.512133  0.250000  1
  Nb  Nb12  1  0.840581  0.329477  0.624709  1
  Nb  Nb13  1  0.340581  0.170523  0.875291  1
  Nb  Nb14  1  0.159419  0.670523  0.124709  1
  Nb  Nb15  1  0.659419  0.829477  0.375291  1
  Nb  Nb16  1  0.159419  0.670523  0.375291  1
  Nb  Nb17  1  0.659419  0.829477  0.124709  1
  Nb  Nb18  1  0.840581  0.329477  0.875291  1
  Nb  Nb19  1  0.340581  0.170523  0.624709  1
  Ga  Ga20  1  0.802952  0.649972  0.750000  1
  Ga  Ga21  1  0.302952  0.850028  0.750000  1
  Ga  Ga22  1  0.197048  0.350028  0.250000  1
  Ga  Ga23  1  0.697048  0.149972  0.250000  1
  Ge  Ge24  1  0.541320  0.391756  0.750000  1
  Ge  Ge25  1  0.041320  0.108244  0.750000  1
  Ge  Ge26  1  0.458680  0.608244  0.250000  1
  Ge  Ge27  1  0.958680  0.891756  0.250000  1
  Ge  Ge28  1  0.680259  0.036280  0.539628  1
  Ge  Ge29  1  0.180259  0.463720  0.960372  1
  Ge  Ge30  1  0.319741  0.963720  0.039628  1
  Ge  Ge31  1  0.819741  0.536280  0.460372  1
  Ge  Ge32  1  0.319741  0.963720  0.460372  1
  Ge  Ge33  1  0.819741  0.536280  0.039628  1
  Ge  Ge34  1  0.680259  0.036280  0.960372  1
  Ge  Ge35  1  0.180259  0.463720  0.539628  1
