# generated using pymatgen
data_Er3Sn2BiRh3
_symmetry_space_group_name_H-M   'P 1'
_cell_length_a   7.57393310
_cell_length_b   7.57393305
_cell_length_c   3.85403300
_cell_angle_alpha   90.00000000
_cell_angle_beta   90.00000000
_cell_angle_gamma   119.41973197
_symmetry_Int_Tables_number   1
_chemical_formula_structural   Er3Sn2BiRh3
_chemical_formula_sum   'Er3 Sn2 Bi1 Rh3'
_cell_volume   192.57450810
_cell_formula_units_Z   1
loop_
 _symmetry_equiv_pos_site_id
 _symmetry_equiv_pos_as_xyz
  1  'x, y, z'
loop_
 _atom_site_type_symbol
 _atom_site_label
 _atom_site_symmetry_multiplicity
 _atom_site_fract_x
 _atom_site_fract_y
 _atom_site_fract_z
 _atom_site_occupancy
  Er  Er0  1  0.597660  0.008056  0.000000  1
  Er  Er1  1  0.008056  0.597660  0.000000  1
  Er  Er2  1  0.397071  0.397071  0.000000  1
  Sn  Sn3  1  0.265780  0.001813  0.500000  1
  Sn  Sn4  1  0.001813  0.265780  0.500000  1
  Bi  Bi5  1  0.734482  0.734482  0.500000  1
  Rh  Rh6  1  0.324321  0.663306  0.500000  1
  Rh  Rh7  1  0.663306  0.324321  0.500000  1
  Rh  Rh8  1  0.007511  0.007511  0.000000  1
