# generated using pymatgen
data_La7Pr5(PtI3)4
_symmetry_space_group_name_H-M   'P 1'
_cell_length_a   11.04016624
_cell_length_b   11.01711357
_cell_length_c   11.03641895
_cell_angle_alpha   109.53111900
_cell_angle_beta   109.42851304
_cell_angle_gamma   109.41819529
_symmetry_Int_Tables_number   1
_chemical_formula_structural   La7Pr5(PtI3)4
_chemical_formula_sum   'La7 Pr5 Pt4 I12'
_cell_volume   1033.81125776
_cell_formula_units_Z   1
loop_
 _symmetry_equiv_pos_site_id
 _symmetry_equiv_pos_as_xyz
  1  'x, y, z'
loop_
 _atom_site_type_symbol
 _atom_site_label
 _atom_site_symmetry_multiplicity
 _atom_site_fract_x
 _atom_site_fract_y
 _atom_site_fract_z
 _atom_site_occupancy
  La  La0  1  0.042764  0.272496  0.021405  1
  La  La1  1  0.018506  0.042484  0.273528  1
  La  La2  1  0.478172  0.747662  0.018609  1
  La  La3  1  0.481029  0.231574  0.462526  1
  La  La4  1  0.015060  0.476756  0.743007  1
  La  La5  1  0.270857  0.018970  0.040637  1
  La  La6  1  0.232035  0.269226  0.750147  1
  Pr  Pr7  1  0.461790  0.480883  0.232060  1
  Pr  Pr8  1  0.751006  0.230612  0.271666  1
  Pr  Pr9  1  0.744416  0.017724  0.476039  1
  Pr  Pr10  1  0.233306  0.462968  0.479846  1
  Pr  Pr11  1  0.269262  0.747202  0.229303  1
  Pt  Pt12  1  0.251505  0.250000  0.251186  1
  Pt  Pt13  1  0.497737  0.999662  0.249096  1
  Pt  Pt14  1  0.002229  0.251703  0.502031  1
  Pt  Pt15  1  0.249472  0.498755  0.997590  1
  I  I16  1  0.249816  0.756902  0.738233  1
  I  I17  1  0.519074  0.512176  0.757976  1
  I  I18  1  0.983826  0.740216  0.994967  1
  I  I19  1  0.739772  0.245921  0.757192  1
  I  I20  1  0.988592  0.982474  0.738715  1
  I  I21  1  0.249146  0.987641  0.506324  1
  I  I22  1  0.757520  0.518013  0.503940  1
  I  I23  1  0.513556  0.253566  0.997060  1
  I  I24  1  0.756504  0.740495  0.253211  1
  I  I25  1  0.740845  0.994612  0.984123  1
  I  I26  1  0.994550  0.510750  0.254225  1
  I  I27  1  0.507657  0.758554  0.515356  1
