# generated using pymatgen
data_TbNd3(NbRu3)2
_symmetry_space_group_name_H-M   'P 1'
_cell_length_a   5.82256600
_cell_length_b   5.82256421
_cell_length_c   8.02510600
_cell_angle_alpha   90.00000000
_cell_angle_beta   90.00000000
_cell_angle_gamma   120.00001019
_symmetry_Int_Tables_number   1
_chemical_formula_structural   TbNd3(NbRu3)2
_chemical_formula_sum   'Tb1 Nd3 Nb2 Ru6'
_cell_volume   235.61887114
_cell_formula_units_Z   1
loop_
 _symmetry_equiv_pos_site_id
 _symmetry_equiv_pos_as_xyz
  1  'x, y, z'
loop_
 _atom_site_type_symbol
 _atom_site_label
 _atom_site_symmetry_multiplicity
 _atom_site_fract_x
 _atom_site_fract_y
 _atom_site_fract_z
 _atom_site_occupancy
  Tb  Tb0  1  0.333333  0.666667  0.058621  1
  Nd  Nd1  1  0.333333  0.666667  0.439609  1
  Nd  Nd2  1  0.666667  0.333333  0.561267  1
  Nd  Nd3  1  0.666667  0.333333  0.940291  1
  Nb  Nb4  1  0.000000  0.000000  0.498299  1
  Nb  Nb5  1  0.000000  0.000000  0.998768  1
  Ru  Ru6  1  0.830809  0.169191  0.249287  1
  Ru  Ru7  1  0.830809  0.661618  0.249287  1
  Ru  Ru8  1  0.338382  0.169191  0.249287  1
  Ru  Ru9  1  0.169690  0.830310  0.751762  1
  Ru  Ru10  1  0.169690  0.339379  0.751762  1
  Ru  Ru11  1  0.660621  0.830310  0.751762  1
