# generated using pymatgen
data_Ba12IrPt
_symmetry_space_group_name_H-M   'P 1'
_cell_length_a   7.85183100
_cell_length_b   7.85183392
_cell_length_c   14.94730401
_cell_angle_alpha   90.00019385
_cell_angle_beta   90.00014254
_cell_angle_gamma   120.00181163
_symmetry_Int_Tables_number   1
_chemical_formula_structural   Ba12IrPt
_chemical_formula_sum   'Ba12 Ir1 Pt1'
_cell_volume   798.04543792
_cell_formula_units_Z   1
loop_
 _symmetry_equiv_pos_site_id
 _symmetry_equiv_pos_as_xyz
  1  'x, y, z'
loop_
 _atom_site_type_symbol
 _atom_site_label
 _atom_site_symmetry_multiplicity
 _atom_site_fract_x
 _atom_site_fract_y
 _atom_site_fract_z
 _atom_site_occupancy
  Ba  Ba0  1  0.667758  0.007199  0.118973  1
  Ba  Ba1  1  0.992751  0.660529  0.118976  1
  Ba  Ba2  1  0.339497  0.332129  0.118968  1
  Ba  Ba3  1  0.014139  0.346167  0.382387  1
  Ba  Ba4  1  0.653826  0.668094  0.382399  1
  Ba  Ba5  1  0.331877  0.985897  0.382438  1
  Ba  Ba6  1  0.014113  0.668045  0.617597  1
  Ba  Ba7  1  0.653876  0.985877  0.617596  1
  Ba  Ba8  1  0.331910  0.346158  0.617600  1
  Ba  Ba9  1  0.339525  0.007245  0.881005  1
  Ba  Ba10  1  0.667863  0.660483  0.881028  1
  Ba  Ba11  1  0.992795  0.332152  0.881066  1
  Ir  Ir12  1  0.333340  0.666713  0.500026  1
  Pt  Pt13  1  0.666707  0.333290  0.999996  1
