# generated using pymatgen
data_KLaPN3
_symmetry_space_group_name_H-M   'P 1'
_cell_length_a   6.03602300
_cell_length_b   6.03602280
_cell_length_c   11.74190100
_cell_angle_alpha   90.00000000
_cell_angle_beta   90.00000000
_cell_angle_gamma   126.44625594
_symmetry_Int_Tables_number   1
_chemical_formula_structural   KLaPN3
_chemical_formula_sum   'K4 La4 P4 N12'
_cell_volume   344.12802246
_cell_formula_units_Z   4
loop_
 _symmetry_equiv_pos_site_id
 _symmetry_equiv_pos_as_xyz
  1  'x, y, z'
loop_
 _atom_site_type_symbol
 _atom_site_label
 _atom_site_symmetry_multiplicity
 _atom_site_fract_x
 _atom_site_fract_y
 _atom_site_fract_z
 _atom_site_occupancy
  K  K0  1  0.542145  0.457855  0.639543  1
  K  K1  1  0.457855  0.542145  0.360457  1
  K  K2  1  0.957855  0.042145  0.139543  1
  K  K3  1  0.042145  0.957855  0.860457  1
  La  La4  1  0.853202  0.146798  0.581884  1
  La  La5  1  0.146798  0.853202  0.418116  1
  La  La6  1  0.646798  0.353202  0.081884  1
  La  La7  1  0.353202  0.646798  0.918116  1
  P  P8  1  0.717751  0.282249  0.832903  1
  P  P9  1  0.282249  0.717751  0.167097  1
  P  P10  1  0.782249  0.217751  0.332903  1
  P  P11  1  0.217751  0.782249  0.667097  1
  N  N12  1  0.813902  0.186098  0.938587  1
  N  N13  1  0.186098  0.813902  0.061413  1
  N  N14  1  0.686098  0.313902  0.438587  1
  N  N15  1  0.313902  0.686098  0.561413  1
  N  N16  1  0.574144  0.425856  0.873582  1
  N  N17  1  0.425856  0.574144  0.126418  1
  N  N18  1  0.925856  0.074144  0.373582  1
  N  N19  1  0.074144  0.925856  0.626418  1
  N  N20  1  0.506132  0.993868  0.750000  1
  N  N21  1  0.993868  0.506132  0.250000  1
  N  N22  1  0.493868  0.006132  0.250000  1
  N  N23  1  0.006132  0.493868  0.750000  1
