# generated using pymatgen
data_Th5Ge12Pd19
_symmetry_space_group_name_H-M   'P 1'
_cell_length_a   16.14706083
_cell_length_b   16.14705968
_cell_length_c   10.28327469
_cell_angle_alpha   75.89929137
_cell_angle_beta   75.89929281
_cell_angle_gamma   14.38762082
_symmetry_Int_Tables_number   1
_chemical_formula_structural   Th5Ge12Pd19
_chemical_formula_sum   'Th5 Ge12 Pd19'
_cell_volume   645.81117792
_cell_formula_units_Z   1
loop_
 _symmetry_equiv_pos_site_id
 _symmetry_equiv_pos_as_xyz
  1  'x, y, z'
loop_
 _atom_site_type_symbol
 _atom_site_label
 _atom_site_symmetry_multiplicity
 _atom_site_fract_x
 _atom_site_fract_y
 _atom_site_fract_z
 _atom_site_occupancy
  Th  Th0  1  0.500000  0.500000  0.500000  1
  Th  Th1  1  0.575526  0.575526  0.821353  1
  Th  Th2  1  0.424474  0.424474  0.178647  1
  Th  Th3  1  0.174483  0.174483  0.230319  1
  Th  Th4  1  0.825517  0.825517  0.769681  1
  Ge  Ge5  1  0.925196  0.925196  0.947591  1
  Ge  Ge6  1  0.074804  0.074804  0.052409  1
  Ge  Ge7  1  0.694239  0.694239  0.972114  1
  Ge  Ge8  1  0.305761  0.305761  0.027886  1
  Ge  Ge9  1  0.400020  0.400020  0.616983  1
  Ge  Ge10  1  0.733939  0.733939  0.342164  1
  Ge  Ge11  1  0.151304  0.151304  0.667969  1
  Ge  Ge12  1  0.848696  0.848696  0.332031  1
  Ge  Ge13  1  0.014700  0.014700  0.725104  1
  Ge  Ge14  1  0.985300  0.985300  0.274896  1
  Ge  Ge15  1  0.599980  0.599980  0.383017  1
  Ge  Ge16  1  0.266061  0.266061  0.657836  1
  Pd  Pd17  1  0.780881  0.780881  0.509186  1
  Pd  Pd18  1  0.756522  0.756522  0.094301  1
  Pd  Pd19  1  0.243478  0.243478  0.905699  1
  Pd  Pd20  1  0.219119  0.219119  0.490814  1
  Pd  Pd21  1  0.344467  0.344467  0.487155  1
  Pd  Pd22  1  0.618335  0.618335  0.118003  1
  Pd  Pd23  1  0.381665  0.381665  0.881997  1
  Pd  Pd24  1  0.526275  0.526275  0.161578  1
  Pd  Pd25  1  0.473725  0.473725  0.838422  1
  Pd  Pd26  1  0.295981  0.295981  0.278290  1
  Pd  Pd27  1  0.704019  0.704019  0.721710  1
  Pd  Pd28  1  0.000000  0.000000  0.000000  1
  Pd  Pd29  1  0.849346  0.849346  0.090253  1
  Pd  Pd30  1  0.086965  0.086965  0.555060  1
  Pd  Pd31  1  0.913035  0.913035  0.444940  1
  Pd  Pd32  1  0.066287  0.066287  0.302767  1
  Pd  Pd33  1  0.933713  0.933713  0.697233  1
  Pd  Pd34  1  0.655533  0.655533  0.512845  1
  Pd  Pd35  1  0.150654  0.150654  0.909747  1
