# generated using pymatgen
data_Nd7Ho11(ErSi8)2
_symmetry_space_group_name_H-M   'P 1'
_cell_length_a   7.72845492
_cell_length_b   7.73329942
_cell_length_c   14.29974204
_cell_angle_alpha   90.00464501
_cell_angle_beta   89.87719667
_cell_angle_gamma   90.07590510
_symmetry_Int_Tables_number   1
_chemical_formula_structural   Nd7Ho11(ErSi8)2
_chemical_formula_sum   'Nd7 Ho11 Er2 Si16'
_cell_volume   854.64218724
_cell_formula_units_Z   1
loop_
 _symmetry_equiv_pos_site_id
 _symmetry_equiv_pos_as_xyz
  1  'x, y, z'
loop_
 _atom_site_type_symbol
 _atom_site_label
 _atom_site_symmetry_multiplicity
 _atom_site_fract_x
 _atom_site_fract_y
 _atom_site_fract_z
 _atom_site_occupancy
  Nd  Nd0  1  0.358692  0.007429  0.958113  1
  Nd  Nd1  1  0.992336  0.642864  0.540795  1
  Nd  Nd2  1  0.490525  0.858567  0.209445  1
  Nd  Nd3  1  0.509406  0.139583  0.707074  1
  Nd  Nd4  1  0.859736  0.490373  0.791630  1
  Nd  Nd5  1  0.139711  0.508747  0.292960  1
  Nd  Nd6  1  0.007679  0.358179  0.042652  1
  Ho  Ho7  1  0.491033  0.360869  0.124904  1
  Ho  Ho8  1  0.991723  0.136679  0.624244  1
  Ho  Ho9  1  0.861982  0.008397  0.874626  1
  Ho  Ho10  1  0.137335  0.992995  0.375191  1
  Ho  Ho11  1  0.511222  0.639676  0.622911  1
  Ho  Ho12  1  0.361250  0.491101  0.875223  1
  Ho  Ho13  1  0.639687  0.510058  0.376289  1
  Ho  Ho14  1  0.006728  0.861358  0.126520  1
  Ho  Ho15  1  0.636247  0.995830  0.456041  1
  Ho  Ho16  1  0.318030  0.316906  0.499844  1
  Ho  Ho17  1  0.184402  0.816377  0.749098  1
  Er  Er18  1  0.815017  0.182909  0.250553  1
  Er  Er19  1  0.682665  0.681912  0.000318  1
  Si  Si20  1  0.294033  0.938557  0.560173  1
  Si  Si21  1  0.709409  0.063211  0.061861  1
  Si  Si22  1  0.933608  0.288080  0.438171  1
  Si  Si23  1  0.438046  0.209138  0.312877  1
  Si  Si24  1  0.564702  0.788420  0.811631  1
  Si  Si25  1  0.211661  0.436156  0.687739  1
  Si  Si26  1  0.788314  0.564994  0.189006  1
  Si  Si27  1  0.064335  0.710165  0.938685  1
  Si  Si28  1  0.799165  0.844820  0.690638  1
  Si  Si29  1  0.202515  0.153206  0.189944  1
  Si  Si30  1  0.843165  0.801512  0.314070  1
  Si  Si31  1  0.350419  0.706938  0.437967  1
  Si  Si32  1  0.653245  0.296162  0.939762  1
  Si  Si33  1  0.701632  0.342477  0.558840  1
  Si  Si34  1  0.296096  0.653275  0.060715  1
  Si  Si35  1  0.154249  0.202084  0.809488  1
