# generated using pymatgen
data_La2YbSiGe
_symmetry_space_group_name_H-M   'P 1'
_cell_length_a   7.81070749
_cell_length_b   7.81070899
_cell_length_c   4.51916600
_cell_angle_alpha   90.00000000
_cell_angle_beta   90.00000000
_cell_angle_gamma   89.56157298
_symmetry_Int_Tables_number   1
_chemical_formula_structural   La2YbSiGe
_chemical_formula_sum   'La4 Yb2 Si2 Ge2'
_cell_volume   275.69342608
_cell_formula_units_Z   2
loop_
 _symmetry_equiv_pos_site_id
 _symmetry_equiv_pos_as_xyz
  1  'x, y, z'
loop_
 _atom_site_type_symbol
 _atom_site_label
 _atom_site_symmetry_multiplicity
 _atom_site_fract_x
 _atom_site_fract_y
 _atom_site_fract_z
 _atom_site_occupancy
  La  La0  1  0.675870  0.175870  0.500000  1
  La  La1  1  0.324130  0.824130  0.500000  1
  La  La2  1  0.179950  0.320050  0.500000  1
  La  La3  1  0.820050  0.679950  0.500000  1
  Yb  Yb4  1  0.000000  0.000000  0.000000  1
  Yb  Yb5  1  0.500000  0.500000  0.000000  1
  Si  Si6  1  0.609948  0.890052  0.000000  1
  Si  Si7  1  0.390052  0.109948  0.000000  1
  Ge  Ge8  1  0.115498  0.615498  0.000000  1
  Ge  Ge9  1  0.884502  0.384502  0.000000  1
