# generated using pymatgen
data_Pm2PtO4
_symmetry_space_group_name_H-M   'P 1'
_cell_length_a   5.65749800
_cell_length_b   5.68483100
_cell_length_c   12.76425500
_cell_angle_alpha   90.00000000
_cell_angle_beta   90.00000000
_cell_angle_gamma   90.00000000
_symmetry_Int_Tables_number   1
_chemical_formula_structural   Pm2PtO4
_chemical_formula_sum   'Pm8 Pt4 O16'
_cell_volume   410.52294833
_cell_formula_units_Z   4
loop_
 _symmetry_equiv_pos_site_id
 _symmetry_equiv_pos_as_xyz
  1  'x, y, z'
loop_
 _atom_site_type_symbol
 _atom_site_label
 _atom_site_symmetry_multiplicity
 _atom_site_fract_x
 _atom_site_fract_y
 _atom_site_fract_z
 _atom_site_occupancy
  Pm  Pm0  1  0.492660  0.038418  0.158085  1
  Pm  Pm1  1  0.007341  0.538417  0.158085  1
  Pm  Pm2  1  0.992661  0.038418  0.341914  1
  Pm  Pm3  1  0.507339  0.538417  0.341914  1
  Pm  Pm4  1  0.492660  0.461583  0.658086  1
  Pm  Pm5  1  0.007341  0.961583  0.658086  1
  Pm  Pm6  1  0.992661  0.461583  0.841915  1
  Pm  Pm7  1  0.507339  0.961583  0.841915  1
  Pt  Pt8  1  0.000000  0.000000  0.000000  1
  Pt  Pt9  1  0.500001  0.500001  0.000000  1
  Pt  Pt10  1  0.500001  0.000000  0.500000  1
  Pt  Pt11  1  0.000000  0.500001  0.500000  1
  O  O12  1  0.180164  0.318802  0.010537  1
  O  O13  1  0.319836  0.818800  0.010537  1
  O  O14  1  0.757963  0.288881  0.245600  1
  O  O15  1  0.742037  0.788880  0.245600  1
  O  O16  1  0.257964  0.288881  0.254400  1
  O  O17  1  0.242036  0.788880  0.254400  1
  O  O18  1  0.680165  0.318802  0.489463  1
  O  O19  1  0.819835  0.818800  0.489463  1
  O  O20  1  0.180164  0.181199  0.510537  1
  O  O21  1  0.319836  0.681200  0.510537  1
  O  O22  1  0.757963  0.211119  0.745600  1
  O  O23  1  0.742037  0.711118  0.745600  1
  O  O24  1  0.257964  0.211119  0.754400  1
  O  O25  1  0.242036  0.711118  0.754400  1
  O  O26  1  0.680165  0.181199  0.989463  1
  O  O27  1  0.819835  0.681200  0.989463  1
