# generated using pymatgen
data_Ho4Hf5Nb3Sn10
_symmetry_space_group_name_H-M   'P 1'
_cell_length_a   10.88475570
_cell_length_b   10.88489681
_cell_length_c   10.88527300
_cell_angle_alpha   149.32562787
_cell_angle_beta   131.85113474
_cell_angle_gamma   58.17363695
_symmetry_Int_Tables_number   1
_chemical_formula_structural   Ho4Hf5Nb3Sn10
_chemical_formula_sum   'Ho4 Hf5 Nb3 Sn10'
_cell_volume   486.40549718
_cell_formula_units_Z   1
loop_
 _symmetry_equiv_pos_site_id
 _symmetry_equiv_pos_as_xyz
  1  'x, y, z'
loop_
 _atom_site_type_symbol
 _atom_site_label
 _atom_site_symmetry_multiplicity
 _atom_site_fract_x
 _atom_site_fract_y
 _atom_site_fract_z
 _atom_site_occupancy
  Ho  Ho0  1  0.258010  0.145444  0.112806  1
  Ho  Ho1  1  0.742920  0.854852  0.888255  1
  Ho  Ho2  1  0.032658  0.645208  0.387203  1
  Ho  Ho3  1  0.966574  0.354651  0.611723  1
  Hf  Hf4  1  0.309869  0.059879  0.750017  1
  Hf  Hf5  1  0.673594  0.435621  0.238095  1
  Hf  Hf6  1  0.327272  0.563970  0.761547  1
  Hf  Hf7  1  0.197550  0.935502  0.261925  1
  Hf  Hf8  1  0.802416  0.065661  0.738380  1
  Nb  Nb9  1  0.310451  0.560489  0.249998  1
  Nb  Nb10  1  0.688902  0.438904  0.750000  1
  Nb  Nb11  1  0.689637  0.939655  0.250031  1
  Sn  Sn12  1  0.585594  0.290250  0.302079  1
  Sn  Sn13  1  0.418207  0.708259  0.701511  1
  Sn  Sn14  1  0.988155  0.783510  0.197890  1
  Sn  Sn15  1  0.006764  0.216704  0.798526  1
  Sn  Sn16  1  0.000096  0.250104  0.250012  1
  Sn  Sn17  1  0.000251  0.750245  0.749991  1
  Sn  Sn18  1  0.468316  0.067206  0.399395  1
  Sn  Sn19  1  0.533177  0.930503  0.598733  1
  Sn  Sn20  1  0.667813  0.568923  0.100602  1
  Sn  Sn21  1  0.331773  0.434460  0.901282  1
