# generated using pymatgen
data_La2Nd3Y3(CdPd)2
_symmetry_space_group_name_H-M   'P 1'
_cell_length_a   9.94992678
_cell_length_b   9.94992761
_cell_length_c   9.94992700
_cell_angle_alpha   59.99999871
_cell_angle_beta   59.99999593
_cell_angle_gamma   60.00000198
_symmetry_Int_Tables_number   1
_chemical_formula_structural   La2Nd3Y3(CdPd)2
_chemical_formula_sum   'La4 Nd6 Y6 Cd4 Pd4'
_cell_volume   696.53780225
_cell_formula_units_Z   2
loop_
 _symmetry_equiv_pos_site_id
 _symmetry_equiv_pos_as_xyz
  1  'x, y, z'
loop_
 _atom_site_type_symbol
 _atom_site_label
 _atom_site_symmetry_multiplicity
 _atom_site_fract_x
 _atom_site_fract_y
 _atom_site_fract_z
 _atom_site_occupancy
  La  La0  1  0.353634  0.353634  0.353634  1
  La  La1  1  0.353634  0.353634  0.939097  1
  La  La2  1  0.353634  0.939097  0.353634  1
  La  La3  1  0.939097  0.353634  0.353634  1
  Nd  Nd4  1  0.935333  0.564667  0.564667  1
  Nd  Nd5  1  0.564667  0.935333  0.935333  1
  Nd  Nd6  1  0.564667  0.935333  0.564667  1
  Nd  Nd7  1  0.935333  0.564667  0.935333  1
  Nd  Nd8  1  0.564667  0.564667  0.935333  1
  Nd  Nd9  1  0.935333  0.935333  0.564667  1
  Y  Y10  1  0.813804  0.186196  0.186196  1
  Y  Y11  1  0.186196  0.813804  0.813804  1
  Y  Y12  1  0.186196  0.813804  0.186196  1
  Y  Y13  1  0.813804  0.186196  0.813804  1
  Y  Y14  1  0.186196  0.186196  0.813804  1
  Y  Y15  1  0.813804  0.813804  0.186196  1
  Cd  Cd16  1  0.580976  0.580976  0.580976  1
  Cd  Cd17  1  0.580976  0.580976  0.257072  1
  Cd  Cd18  1  0.580976  0.257072  0.580976  1
  Cd  Cd19  1  0.257072  0.580976  0.580976  1
  Pd  Pd20  1  0.142176  0.142176  0.142176  1
  Pd  Pd21  1  0.142176  0.142176  0.573471  1
  Pd  Pd22  1  0.142176  0.573471  0.142176  1
  Pd  Pd23  1  0.573471  0.142176  0.142176  1
