# generated using pymatgen
data_Ac5SnRu2
_symmetry_space_group_name_H-M   'P 1'
_cell_length_a   8.38998000
_cell_length_b   9.48175981
_cell_length_c   8.38998000
_cell_angle_alpha   116.25885939
_cell_angle_beta   90.00000000
_cell_angle_gamma   116.25885939
_symmetry_Int_Tables_number   1
_chemical_formula_structural   Ac5SnRu2
_chemical_formula_sum   'Ac10 Sn2 Ru4'
_cell_volume   520.65113677
_cell_formula_units_Z   2
loop_
 _symmetry_equiv_pos_site_id
 _symmetry_equiv_pos_as_xyz
  1  'x, y, z'
loop_
 _atom_site_type_symbol
 _atom_site_label
 _atom_site_symmetry_multiplicity
 _atom_site_fract_x
 _atom_site_fract_y
 _atom_site_fract_z
 _atom_site_occupancy
  Ac  Ac0  1  0.000000  0.000000  0.000000  1
  Ac  Ac1  1  0.500000  0.000000  0.500000  1
  Ac  Ac2  1  0.527720  0.737322  0.709604  1
  Ac  Ac3  1  0.209604  0.737322  0.027720  1
  Ac  Ac4  1  0.709604  0.737322  0.209604  1
  Ac  Ac5  1  0.027720  0.737322  0.527720  1
  Ac  Ac6  1  0.472280  0.262678  0.290396  1
  Ac  Ac7  1  0.790396  0.262678  0.972280  1
  Ac  Ac8  1  0.290396  0.262678  0.790396  1
  Ac  Ac9  1  0.972280  0.262678  0.472280  1
  Sn  Sn10  1  0.750000  0.500000  0.750000  1
  Sn  Sn11  1  0.250000  0.500000  0.250000  1
  Ru  Ru12  1  0.855748  0.000000  0.644252  1
  Ru  Ru13  1  0.144252  0.000000  0.355748  1
  Ru  Ru14  1  0.644252  0.000000  0.144252  1
  Ru  Ru15  1  0.355748  0.000000  0.855748  1
