# generated using pymatgen
data_Gd4Dy4Re3B24Ru
_symmetry_space_group_name_H-M   'P 1'
_cell_length_a   3.69385600
_cell_length_b   9.19674945
_cell_length_c   11.59365900
_cell_angle_alpha   90.11265828
_cell_angle_beta   90.00000000
_cell_angle_gamma   90.00000000
_symmetry_Int_Tables_number   1
_chemical_formula_structural   Gd4Dy4Re3B24Ru
_chemical_formula_sum   'Gd4 Dy4 Re3 B24 Ru1'
_cell_volume   393.85285597
_cell_formula_units_Z   1
loop_
 _symmetry_equiv_pos_site_id
 _symmetry_equiv_pos_as_xyz
  1  'x, y, z'
loop_
 _atom_site_type_symbol
 _atom_site_label
 _atom_site_symmetry_multiplicity
 _atom_site_fract_x
 _atom_site_fract_y
 _atom_site_fract_z
 _atom_site_occupancy
  Gd  Gd0  1  0.000000  0.321817  0.414485  1
  Gd  Gd1  1  0.000000  0.677047  0.587493  1
  Gd  Gd2  1  0.000000  0.824831  0.084271  1
  Gd  Gd3  1  0.000000  0.176847  0.913617  1
  Dy  Dy4  1  0.000000  0.941689  0.369419  1
  Dy  Dy5  1  0.000000  0.056476  0.629555  1
  Dy  Dy6  1  0.000000  0.443136  0.130911  1
  Dy  Dy7  1  0.000000  0.556958  0.870662  1
  Re  Re8  1  0.000000  0.361957  0.678272  1
  Re  Re9  1  0.000000  0.138813  0.180131  1
  Re  Re10  1  0.000000  0.861405  0.820508  1
  B  B11  1  0.500000  0.554221  0.432171  1
  B  B12  1  0.500000  0.446599  0.567147  1
  B  B13  1  0.500000  0.053772  0.067380  1
  B  B14  1  0.500000  0.946734  0.932358  1
  B  B15  1  0.500000  0.748062  0.417867  1
  B  B16  1  0.500000  0.250872  0.581476  1
  B  B17  1  0.500000  0.249204  0.081948  1
  B  B18  1  0.500000  0.751579  0.918328  1
  B  B19  1  0.500000  0.790407  0.265723  1
  B  B20  1  0.500000  0.208471  0.733947  1
  B  B21  1  0.500000  0.291442  0.234865  1
  B  B22  1  0.500000  0.708328  0.765914  1
  B  B23  1  0.500000  0.631343  0.186307  1
  B  B24  1  0.500000  0.369333  0.813663  1
  B  B25  1  0.500000  0.130895  0.314583  1
  B  B26  1  0.500000  0.868716  0.685820  1
  B  B27  1  0.500000  0.983252  0.211869  1
  B  B28  1  0.500000  0.016842  0.787490  1
  B  B29  1  0.500000  0.484295  0.288339  1
  B  B30  1  0.500000  0.517262  0.712106  1
  B  B31  1  0.500000  0.601358  0.028778  1
  B  B32  1  0.500000  0.399207  0.972421  1
  B  B33  1  0.500000  0.100095  0.471521  1
  B  B34  1  0.500000  0.898084  0.527916  1
  Ru  Ru35  1  0.000000  0.638653  0.320741  1
