# generated using pymatgen
data_Tb5CuTe4
_symmetry_space_group_name_H-M   'P 1'
_cell_length_a   7.61219485
_cell_length_b   7.61219415
_cell_length_c   10.77673276
_cell_angle_alpha   61.06252947
_cell_angle_beta   61.06253353
_cell_angle_gamma   32.29650684
_symmetry_Int_Tables_number   1
_chemical_formula_structural   Tb5CuTe4
_chemical_formula_sum   'Tb5 Cu1 Te4'
_cell_volume   288.22845438
_cell_formula_units_Z   1
loop_
 _symmetry_equiv_pos_site_id
 _symmetry_equiv_pos_as_xyz
  1  'x, y, z'
loop_
 _atom_site_type_symbol
 _atom_site_label
 _atom_site_symmetry_multiplicity
 _atom_site_fract_x
 _atom_site_fract_y
 _atom_site_fract_z
 _atom_site_occupancy
  Tb  Tb0  1  0.000000  0.000000  0.500000  1
  Tb  Tb1  1  0.582435  0.582435  0.090100  1
  Tb  Tb2  1  0.184725  0.184725  0.730319  1
  Tb  Tb3  1  0.815275  0.815275  0.269681  1
  Tb  Tb4  1  0.417565  0.417565  0.909900  1
  Cu  Cu5  1  0.000000  0.000000  0.000000  1
  Te  Te6  1  0.611869  0.611869  0.584122  1
  Te  Te7  1  0.192185  0.192185  0.192600  1
  Te  Te8  1  0.807815  0.807815  0.807400  1
  Te  Te9  1  0.388131  0.388131  0.415878  1
