# generated using pymatgen
data_Li3Sc6OsPt2
_symmetry_space_group_name_H-M   'P 1'
_cell_length_a   4.70464300
_cell_length_b   6.62788400
_cell_length_c   13.77481700
_cell_angle_alpha   90.00000000
_cell_angle_beta   90.00027123
_cell_angle_gamma   90.00000000
_symmetry_Int_Tables_number   1
_chemical_formula_structural   Li3Sc6OsPt2
_chemical_formula_sum   'Li6 Sc12 Os2 Pt4'
_cell_volume   429.52397532
_cell_formula_units_Z   2
loop_
 _symmetry_equiv_pos_site_id
 _symmetry_equiv_pos_as_xyz
  1  'x, y, z'
loop_
 _atom_site_type_symbol
 _atom_site_label
 _atom_site_symmetry_multiplicity
 _atom_site_fract_x
 _atom_site_fract_y
 _atom_site_fract_z
 _atom_site_occupancy
  Li  Li0  1  0.000004  0.500000  0.999385  1
  Li  Li1  1  0.499872  0.000000  0.165842  1
  Li  Li2  1  0.999865  0.500000  0.334172  1
  Li  Li3  1  0.500003  0.000000  0.500600  1
  Li  Li4  1  0.000116  0.500000  0.666317  1
  Li  Li5  1  0.500117  0.000000  0.833653  1
  Sc  Sc6  1  0.500008  0.256144  0.996656  1
  Sc  Sc7  1  0.500008  0.743858  0.996656  1
  Sc  Sc8  1  0.999818  0.247865  0.166568  1
  Sc  Sc9  1  0.999818  0.752135  0.166568  1
  Sc  Sc10  1  0.499819  0.252159  0.333523  1
  Sc  Sc11  1  0.499819  0.747841  0.333523  1
  Sc  Sc12  1  0.000009  0.243832  0.503331  1
  Sc  Sc13  1  0.000009  0.756167  0.503331  1
  Sc  Sc14  1  0.500192  0.248204  0.669428  1
  Sc  Sc15  1  0.500192  0.751796  0.669428  1
  Sc  Sc16  1  0.000190  0.251815  0.830472  1
  Sc  Sc17  1  0.000190  0.748185  0.830472  1
  Os  Os18  1  0.000277  0.000000  0.665065  1
  Os  Os19  1  0.500279  0.500000  0.834981  1
  Pt  Pt20  1  0.999990  0.000000  0.002430  1
  Pt  Pt21  1  0.499701  0.500000  0.167610  1
  Pt  Pt22  1  0.999711  0.000000  0.332403  1
  Pt  Pt23  1  0.499994  0.500000  0.497586  1
