# generated using pymatgen
data_BaIn8GeAu4
_symmetry_space_group_name_H-M   'P 1'
_cell_length_a   6.73693135
_cell_length_b   6.73693187
_cell_length_c   16.72343000
_cell_angle_alpha   101.62012352
_cell_angle_beta   101.62012443
_cell_angle_gamma   90.00000956
_symmetry_Int_Tables_number   1
_chemical_formula_structural   BaIn8GeAu4
_chemical_formula_sum   'Ba2 In16 Ge2 Au8'
_cell_volume   727.56855670
_cell_formula_units_Z   2
loop_
 _symmetry_equiv_pos_site_id
 _symmetry_equiv_pos_as_xyz
  1  'x, y, z'
loop_
 _atom_site_type_symbol
 _atom_site_label
 _atom_site_symmetry_multiplicity
 _atom_site_fract_x
 _atom_site_fract_y
 _atom_site_fract_z
 _atom_site_occupancy
  Ba  Ba0  1  0.750001  0.250000  0.500000  1
  Ba  Ba1  1  0.250000  0.750001  0.500000  1
  In  In2  1  0.300143  0.300143  0.103476  1
  In  In3  1  0.803332  0.300143  0.103476  1
  In  In4  1  0.300143  0.803332  0.103476  1
  In  In5  1  0.803332  0.803332  0.103476  1
  In  In6  1  0.408467  0.408467  0.311358  1
  In  In7  1  0.902890  0.408467  0.311358  1
  In  In8  1  0.408467  0.902890  0.311358  1
  In  In9  1  0.902890  0.902890  0.311358  1
  In  In10  1  0.097109  0.097109  0.688642  1
  In  In11  1  0.591533  0.097109  0.688642  1
  In  In12  1  0.097109  0.591533  0.688642  1
  In  In13  1  0.591533  0.591533  0.688642  1
  In  In14  1  0.196669  0.196669  0.896524  1
  In  In15  1  0.699856  0.196669  0.896524  1
  In  In16  1  0.196669  0.699856  0.896524  1
  In  In17  1  0.699856  0.699856  0.896524  1
  Ge  Ge18  1  0.207690  0.207690  0.415381  1
  Ge  Ge19  1  0.792310  0.792310  0.584620  1
  Au  Au20  1  0.000000  0.000000  0.000000  1
  Au  Au21  1  0.500001  0.500001  0.000000  1
  Au  Au22  1  0.604120  0.104120  0.208240  1
  Au  Au23  1  0.104120  0.604120  0.208240  1
  Au  Au24  1  0.709436  0.709436  0.418871  1
  Au  Au25  1  0.290565  0.290565  0.581129  1
  Au  Au26  1  0.895881  0.395880  0.791759  1
  Au  Au27  1  0.395880  0.895881  0.791759  1
