# generated using pymatgen
data_Er16Tm4Ir11Os
_symmetry_space_group_name_H-M   'P 1'
_cell_length_a   10.76335300
_cell_length_b   10.76335300
_cell_length_c   6.34463600
_cell_angle_alpha   90.00000000
_cell_angle_beta   90.00000000
_cell_angle_gamma   90.00000000
_symmetry_Int_Tables_number   1
_chemical_formula_structural   Er16Tm4Ir11Os
_chemical_formula_sum   'Er16 Tm4 Ir11 Os1'
_cell_volume   735.02460739
_cell_formula_units_Z   1
loop_
 _symmetry_equiv_pos_site_id
 _symmetry_equiv_pos_as_xyz
  1  'x, y, z'
loop_
 _atom_site_type_symbol
 _atom_site_label
 _atom_site_symmetry_multiplicity
 _atom_site_fract_x
 _atom_site_fract_y
 _atom_site_fract_z
 _atom_site_occupancy
  Er  Er0  1  0.292328  0.086753  0.375266  1
  Er  Er1  1  0.292747  0.913277  0.878704  1
  Er  Er2  1  0.707253  0.086723  0.878704  1
  Er  Er3  1  0.707672  0.913247  0.375266  1
  Er  Er4  1  0.586723  0.792747  0.878704  1
  Er  Er5  1  0.586753  0.207672  0.375266  1
  Er  Er6  1  0.413247  0.792328  0.375266  1
  Er  Er7  1  0.413277  0.207253  0.878704  1
  Er  Er8  1  0.209236  0.412325  0.622733  1
  Er  Er9  1  0.209169  0.587530  0.122488  1
  Er  Er10  1  0.790831  0.412470  0.122488  1
  Er  Er11  1  0.790764  0.587675  0.622733  1
  Er  Er12  1  0.912470  0.709169  0.122488  1
  Er  Er13  1  0.912325  0.290764  0.622733  1
  Er  Er14  1  0.087675  0.709236  0.622733  1
  Er  Er15  1  0.087530  0.290831  0.122488  1
  Tm  Tm16  1  0.000000  0.000000  0.499633  1
  Tm  Tm17  1  0.000000  0.000000  0.999605  1
  Tm  Tm18  1  0.500000  0.500000  0.999605  1
  Tm  Tm19  1  0.500000  0.500000  0.499633  1
  Ir  Ir20  1  0.847564  0.153327  0.250272  1
  Ir  Ir21  1  0.847589  0.846827  0.750034  1
  Ir  Ir22  1  0.152411  0.153173  0.750034  1
  Ir  Ir23  1  0.152436  0.846673  0.250272  1
  Ir  Ir24  1  0.653173  0.347589  0.750034  1
  Ir  Ir25  1  0.653327  0.652436  0.250272  1
  Ir  Ir26  1  0.346673  0.347564  0.250272  1
  Ir  Ir27  1  0.346827  0.652411  0.750034  1
  Ir  Ir28  1  0.500000  0.000000  0.622599  1
  Ir  Ir29  1  0.000000  0.500000  0.878211  1
  Ir  Ir30  1  0.000000  0.500000  0.378324  1
  Os  Os31  1  0.500000  0.000000  0.124405  1
