# generated using pymatgen
data_Li2Nd2InBi
_symmetry_space_group_name_H-M   'P 1'
_cell_length_a   9.69357000
_cell_length_b   9.68264497
_cell_length_c   7.69300713
_cell_angle_alpha   89.87474287
_cell_angle_beta   90.00000000
_cell_angle_gamma   120.03733808
_symmetry_Int_Tables_number   1
_chemical_formula_structural   Li2Nd2InBi
_chemical_formula_sum   'Li8 Nd8 In4 Bi4'
_cell_volume   625.08577708
_cell_formula_units_Z   4
loop_
 _symmetry_equiv_pos_site_id
 _symmetry_equiv_pos_as_xyz
  1  'x, y, z'
loop_
 _atom_site_type_symbol
 _atom_site_label
 _atom_site_symmetry_multiplicity
 _atom_site_fract_x
 _atom_site_fract_y
 _atom_site_fract_z
 _atom_site_occupancy
  Li  Li0  1  0.166872  0.333744  0.271783  1
  Li  Li1  1  0.169636  0.834057  0.279037  1
  Li  Li2  1  0.664422  0.834057  0.279037  1
  Li  Li3  1  0.832097  0.664194  0.779483  1
  Li  Li4  1  0.831336  0.168376  0.785462  1
  Li  Li5  1  0.337040  0.168376  0.785462  1
  Li  Li6  1  0.333493  0.666987  0.672705  1
  Li  Li7  1  0.665110  0.330221  0.179036  1
  Nd  Nd8  1  0.512677  0.025354  0.490257  1
  Nd  Nd9  1  0.508030  0.484247  0.491784  1
  Nd  Nd10  1  0.976215  0.484247  0.491784  1
  Nd  Nd11  1  0.489555  0.979109  0.002572  1
  Nd  Nd12  1  0.486793  0.507683  0.999268  1
  Nd  Nd13  1  0.020892  0.507683  0.999268  1
  Nd  Nd14  1  0.002782  0.005564  0.492515  1
  Nd  Nd15  1  0.002227  0.004455  0.008642  1
  In  In16  1  0.833266  0.167989  0.230320  1
  In  In17  1  0.334723  0.167989  0.230320  1
  In  In18  1  0.332737  0.665475  0.266110  1
  In  In19  1  0.666930  0.333861  0.770289  1
  Bi  Bi20  1  0.166300  0.332600  0.735013  1
  Bi  Bi21  1  0.166261  0.834012  0.732924  1
  Bi  Bi22  1  0.667749  0.834012  0.732924  1
  Bi  Bi23  1  0.832855  0.665709  0.235982  1
