# generated using pymatgen
data_Tb2YU(ReB6)2
_symmetry_space_group_name_H-M   'P 1'
_cell_length_a   3.68802300
_cell_length_b   9.22274077
_cell_length_c   11.48402348
_cell_angle_alpha   89.42403820
_cell_angle_beta   90.00000000
_cell_angle_gamma   90.00000000
_symmetry_Int_Tables_number   1
_chemical_formula_structural   Tb2YU(ReB6)2
_chemical_formula_sum   'Tb4 Y2 U2 Re4 B24'
_cell_volume   390.59416490
_cell_formula_units_Z   2
loop_
 _symmetry_equiv_pos_site_id
 _symmetry_equiv_pos_as_xyz
  1  'x, y, z'
loop_
 _atom_site_type_symbol
 _atom_site_label
 _atom_site_symmetry_multiplicity
 _atom_site_fract_x
 _atom_site_fract_y
 _atom_site_fract_z
 _atom_site_occupancy
  Tb  Tb0  1  0.000000  0.325680  0.411730  1
  Tb  Tb1  1  0.000000  0.674320  0.588270  1
  Tb  Tb2  1  0.000000  0.834357  0.089588  1
  Tb  Tb3  1  0.000000  0.165643  0.910412  1
  Y  Y4  1  0.000000  0.945394  0.371944  1
  Y  Y5  1  0.000000  0.054606  0.628056  1
  U  U6  1  0.000000  0.454341  0.105714  1
  U  U7  1  0.000000  0.545659  0.894286  1
  Re  Re8  1  0.000000  0.636825  0.313904  1
  Re  Re9  1  0.000000  0.363175  0.686096  1
  Re  Re10  1  0.000000  0.149185  0.176667  1
  Re  Re11  1  0.000000  0.850815  0.823333  1
  B  B12  1  0.500000  0.554258  0.431645  1
  B  B13  1  0.500000  0.445742  0.568355  1
  B  B14  1  0.500000  0.052723  0.067761  1
  B  B15  1  0.500000  0.947277  0.932239  1
  B  B16  1  0.500000  0.748298  0.418577  1
  B  B17  1  0.500000  0.251702  0.581423  1
  B  B18  1  0.500000  0.245643  0.079468  1
  B  B19  1  0.500000  0.754357  0.920532  1
  B  B20  1  0.500000  0.796679  0.267949  1
  B  B21  1  0.500000  0.203321  0.732051  1
  B  B22  1  0.500000  0.297772  0.229575  1
  B  B23  1  0.500000  0.702228  0.770425  1
  B  B24  1  0.500000  0.637881  0.186535  1
  B  B25  1  0.500000  0.362119  0.813465  1
  B  B26  1  0.500000  0.136254  0.313707  1
  B  B27  1  0.500000  0.863746  0.686293  1
  B  B28  1  0.500000  0.987991  0.213762  1
  B  B29  1  0.500000  0.012009  0.786238  1
  B  B30  1  0.500000  0.485021  0.281916  1
  B  B31  1  0.500000  0.514979  0.718084  1
  B  B32  1  0.500000  0.631659  0.035769  1
  B  B33  1  0.500000  0.368341  0.964231  1
  B  B34  1  0.500000  0.108917  0.470255  1
  B  B35  1  0.500000  0.891083  0.529745  1
