# generated using pymatgen
data_Yb3Pa(B4Os)4
_symmetry_space_group_name_H-M   'P 1'
_cell_length_a   3.56517100
_cell_length_b   5.95981105
_cell_length_c   11.52304410
_cell_angle_alpha   89.98507572
_cell_angle_beta   90.00000000
_cell_angle_gamma   90.00000000
_symmetry_Int_Tables_number   1
_chemical_formula_structural   Yb3Pa(B4Os)4
_chemical_formula_sum   'Yb3 Pa1 B16 Os4'
_cell_volume   244.83870033
_cell_formula_units_Z   1
loop_
 _symmetry_equiv_pos_site_id
 _symmetry_equiv_pos_as_xyz
  1  'x, y, z'
loop_
 _atom_site_type_symbol
 _atom_site_label
 _atom_site_symmetry_multiplicity
 _atom_site_fract_x
 _atom_site_fract_y
 _atom_site_fract_z
 _atom_site_occupancy
  Yb  Yb0  1  0.000000  0.870006  0.348217  1
  Yb  Yb1  1  0.000000  0.627891  0.852941  1
  Yb  Yb2  1  0.000000  0.371700  0.150096  1
  Pa  Pa3  1  0.000000  0.128516  0.650473  1
  B  B4  1  0.500000  0.472937  0.691084  1
  B  B5  1  0.500000  0.524973  0.308113  1
  B  B6  1  0.500000  0.976933  0.809345  1
  B  B7  1  0.500000  0.024839  0.191124  1
  B  B8  1  0.500000  0.287776  0.814808  1
  B  B9  1  0.500000  0.712837  0.184598  1
  B  B10  1  0.500000  0.788727  0.685534  1
  B  B11  1  0.500000  0.214485  0.313150  1
  B  B12  1  0.500000  0.362951  0.969729  1
  B  B13  1  0.500000  0.636138  0.030089  1
  B  B14  1  0.500000  0.864286  0.530851  1
  B  B15  1  0.500000  0.136367  0.468806  1
  B  B16  1  0.500000  0.389182  0.545762  1
  B  B17  1  0.500000  0.613202  0.450906  1
  B  B18  1  0.500000  0.885120  0.953869  1
  B  B19  1  0.500000  0.112797  0.046849  1
  Os  Os20  1  0.000000  0.136628  0.907417  1
  Os  Os21  1  0.000000  0.862090  0.089966  1
  Os  Os22  1  0.000000  0.641968  0.595429  1
  Os  Os23  1  0.000000  0.357652  0.410845  1
