# generated using pymatgen
data_Ta6Nb8Si3As5
_symmetry_space_group_name_H-M   'P 1'
_cell_length_a   3.54908900
_cell_length_b   7.89832523
_cell_length_c   14.11864751
_cell_angle_alpha   103.77394760
_cell_angle_beta   90.00000000
_cell_angle_gamma   102.98368420
_symmetry_Int_Tables_number   1
_chemical_formula_structural   Ta6Nb8Si3As5
_chemical_formula_sum   'Ta6 Nb8 Si3 As5'
_cell_volume   373.96449454
_cell_formula_units_Z   1
loop_
 _symmetry_equiv_pos_site_id
 _symmetry_equiv_pos_as_xyz
  1  'x, y, z'
loop_
 _atom_site_type_symbol
 _atom_site_label
 _atom_site_symmetry_multiplicity
 _atom_site_fract_x
 _atom_site_fract_y
 _atom_site_fract_z
 _atom_site_occupancy
  Ta  Ta0  1  0.000139  0.000278  0.999787  1
  Ta  Ta1  1  0.498280  0.996558  0.500802  1
  Ta  Ta2  1  0.426818  0.853638  0.824143  1
  Ta  Ta3  1  0.571939  0.143876  0.169856  1
  Ta  Ta4  1  0.195062  0.390124  0.305803  1
  Ta  Ta5  1  0.803980  0.607959  0.692823  1
  Nb  Nb6  1  0.212715  0.425430  0.798905  1
  Nb  Nb7  1  0.787068  0.574134  0.200775  1
  Nb  Nb8  1  0.332867  0.665732  0.027870  1
  Nb  Nb9  1  0.667459  0.334918  0.971079  1
  Nb  Nb10  1  0.996656  0.993313  0.661430  1
  Nb  Nb11  1  0.001824  0.003649  0.338269  1
  Nb  Nb12  1  0.183633  0.367266  0.547253  1
  Nb  Nb13  1  0.821403  0.642807  0.458521  1
  Si  Si14  1  0.174102  0.348201  0.107707  1
  Si  Si15  1  0.826546  0.653095  0.891103  1
  Si  Si16  1  0.370544  0.741090  0.600032  1
  As  As17  1  0.630530  0.261058  0.403671  1
  As  As18  1  0.371992  0.743981  0.333612  1
  As  As19  1  0.626725  0.253451  0.666979  1
  As  As20  1  0.062640  0.125281  0.847860  1
  As  As21  1  0.937080  0.874159  0.151722  1
