# generated using pymatgen
data_Sc8Be3Si13Mo12
_symmetry_space_group_name_H-M   'P 1'
_cell_length_a   6.51926576
_cell_length_b   6.69787689
_cell_length_c   12.65477500
_cell_angle_alpha   90.00000000
_cell_angle_beta   90.00000000
_cell_angle_gamma   90.10593191
_symmetry_Int_Tables_number   1
_chemical_formula_structural   Sc8Be3Si13Mo12
_chemical_formula_sum   'Sc8 Be3 Si13 Mo12'
_cell_volume   552.57283629
_cell_formula_units_Z   1
loop_
 _symmetry_equiv_pos_site_id
 _symmetry_equiv_pos_as_xyz
  1  'x, y, z'
loop_
 _atom_site_type_symbol
 _atom_site_label
 _atom_site_symmetry_multiplicity
 _atom_site_fract_x
 _atom_site_fract_y
 _atom_site_fract_z
 _atom_site_occupancy
  Sc  Sc0  1  0.496687  0.331975  0.092506  1
  Sc  Sc1  1  0.999085  0.172153  0.406328  1
  Sc  Sc2  1  0.500032  0.670186  0.595698  1
  Sc  Sc3  1  0.000371  0.829903  0.904288  1
  Sc  Sc4  1  0.500032  0.670186  0.904302  1
  Sc  Sc5  1  0.000371  0.829903  0.595712  1
  Sc  Sc6  1  0.496687  0.331975  0.407494  1
  Sc  Sc7  1  0.999085  0.172153  0.093672  1
  Be  Be8  1  0.539225  0.377098  0.750000  1
  Be  Be9  1  0.039908  0.122863  0.750000  1
  Be  Be10  1  0.460809  0.624888  0.250000  1
  Si  Si11  1  0.667417  0.039674  0.542060  1
  Si  Si12  1  0.167106  0.459307  0.956844  1
  Si  Si13  1  0.332710  0.961434  0.041377  1
  Si  Si14  1  0.832327  0.536966  0.458925  1
  Si  Si15  1  0.332710  0.961434  0.458623  1
  Si  Si16  1  0.832327  0.536966  0.041075  1
  Si  Si17  1  0.667417  0.039674  0.957940  1
  Si  Si18  1  0.167106  0.459307  0.543156  1
  Si  Si19  1  0.965362  0.877848  0.250000  1
  Si  Si20  1  0.790476  0.631307  0.750000  1
  Si  Si21  1  0.290379  0.868369  0.750000  1
  Si  Si22  1  0.209155  0.368679  0.250000  1
  Si  Si23  1  0.699893  0.141379  0.250000  1
  Mo  Mo24  1  0.835680  0.330367  0.627820  1
  Mo  Mo25  1  0.336218  0.168461  0.872287  1
  Mo  Mo26  1  0.169576  0.663837  0.124593  1
  Mo  Mo27  1  0.665244  0.830333  0.373802  1
  Mo  Mo28  1  0.169576  0.663837  0.375407  1
  Mo  Mo29  1  0.665244  0.830333  0.126198  1
  Mo  Mo30  1  0.835680  0.330367  0.872180  1
  Mo  Mo31  1  0.336218  0.168461  0.627713  1
  Mo  Mo32  1  0.664873  0.009048  0.750000  1
  Mo  Mo33  1  0.164018  0.490897  0.750000  1
  Mo  Mo34  1  0.336905  0.996640  0.250000  1
  Mo  Mo35  1  0.834089  0.501791  0.250000  1
