# generated using pymatgen
data_TbDy3Al13Ga4SiIr6
_symmetry_space_group_name_H-M   'P 1'
_cell_length_a   7.52847300
_cell_length_b   7.52866602
_cell_length_c   9.56436600
_cell_angle_alpha   90.00000000
_cell_angle_beta   90.00000000
_cell_angle_gamma   119.58344715
_symmetry_Int_Tables_number   1
_chemical_formula_structural   TbDy3Al13Ga4SiIr6
_chemical_formula_sum   'Tb1 Dy3 Al13 Ga4 Si1 Ir6'
_cell_volume   471.43239417
_cell_formula_units_Z   1
loop_
 _symmetry_equiv_pos_site_id
 _symmetry_equiv_pos_as_xyz
  1  'x, y, z'
loop_
 _atom_site_type_symbol
 _atom_site_label
 _atom_site_symmetry_multiplicity
 _atom_site_fract_x
 _atom_site_fract_y
 _atom_site_fract_z
 _atom_site_occupancy
  Tb  Tb0  1  0.995782  0.669718  0.750000  1
  Dy  Dy1  1  0.000254  0.324616  0.250000  1
  Dy  Dy2  1  0.669870  0.997166  0.750000  1
  Dy  Dy3  1  0.328187  0.005197  0.250000  1
  Al  Al4  1  0.002660  0.334126  0.572651  1
  Al  Al5  1  0.999381  0.664162  0.424402  1
  Al  Al6  1  0.999381  0.664162  0.075598  1
  Al  Al7  1  0.334386  0.002318  0.927589  1
  Al  Al8  1  0.002660  0.334126  0.927349  1
  Al  Al9  1  0.663297  0.998093  0.075329  1
  Al  Al10  1  0.663297  0.998093  0.424671  1
  Al  Al11  1  0.334386  0.002318  0.572411  1
  Al  Al12  1  0.335241  0.335773  0.058638  1
  Al  Al13  1  0.665954  0.666112  0.945866  1
  Al  Al14  1  0.665954  0.666112  0.554134  1
  Al  Al15  1  0.335241  0.335773  0.441362  1
  Al  Al16  1  0.451468  0.663726  0.250000  1
  Ga  Ga17  1  0.125403  0.125692  0.750000  1
  Ga  Ga18  1  0.338669  0.547934  0.750000  1
  Ga  Ga19  1  0.663657  0.452790  0.250000  1
  Ga  Ga20  1  0.547300  0.338869  0.750000  1
  Si  Si21  1  0.872753  0.872293  0.250000  1
  Ir  Ir22  1  0.673136  0.329086  0.499793  1
  Ir  Ir23  1  0.330334  0.672460  0.497291  1
  Ir  Ir24  1  0.330334  0.672460  0.002709  1
  Ir  Ir25  1  0.673136  0.329086  0.000207  1
  Ir  Ir26  1  0.998940  0.998870  0.490162  1
  Ir  Ir27  1  0.998940  0.998870  0.009838  1
