# generated using pymatgen
data_La8Tb11SmSi16
_symmetry_space_group_name_H-M   'P 1'
_cell_length_a   7.84585596
_cell_length_b   7.84585643
_cell_length_c   14.65332900
_cell_angle_alpha   90.02837091
_cell_angle_beta   89.97162909
_cell_angle_gamma   89.98024570
_symmetry_Int_Tables_number   1
_chemical_formula_structural   La8Tb11SmSi16
_chemical_formula_sum   'La8 Tb11 Sm1 Si16'
_cell_volume   902.02143070
_cell_formula_units_Z   1
loop_
 _symmetry_equiv_pos_site_id
 _symmetry_equiv_pos_as_xyz
  1  'x, y, z'
loop_
 _atom_site_type_symbol
 _atom_site_label
 _atom_site_symmetry_multiplicity
 _atom_site_fract_x
 _atom_site_fract_y
 _atom_site_fract_z
 _atom_site_occupancy
  La  La0  1  0.989606  0.636536  0.044242  1
  La  La1  1  0.010360  0.363393  0.544317  1
  La  La2  1  0.636536  0.989606  0.955758  1
  La  La3  1  0.136397  0.510619  0.794289  1
  La  La4  1  0.863555  0.489614  0.294241  1
  La  La5  1  0.510619  0.136397  0.205711  1
  La  La6  1  0.489614  0.863555  0.705759  1
  La  La7  1  0.363393  0.010360  0.455683  1
  Tb  Tb8  1  0.364301  0.489544  0.374619  1
  Tb  Tb9  1  0.864518  0.010619  0.375308  1
  Tb  Tb10  1  0.989295  0.135498  0.124722  1
  Tb  Tb11  1  0.010619  0.864518  0.624692  1
  Tb  Tb12  1  0.635661  0.510803  0.874587  1
  Tb  Tb13  1  0.489544  0.364301  0.625381  1
  Tb  Tb14  1  0.510803  0.635661  0.125413  1
  Tb  Tb15  1  0.135498  0.989295  0.875278  1
  Tb  Tb16  1  0.684813  0.684813  0.500000  1
  Tb  Tb17  1  0.814912  0.184736  0.750075  1
  Tb  Tb18  1  0.184736  0.814912  0.249925  1
  Sm  Sm19  1  0.314897  0.314897  0.000000  1
  Si  Si20  1  0.069528  0.712857  0.438455  1
  Si  Si21  1  0.928877  0.286840  0.938344  1
  Si  Si22  1  0.712857  0.069528  0.561545  1
  Si  Si23  1  0.212320  0.431189  0.189833  1
  Si  Si24  1  0.787270  0.569567  0.688364  1
  Si  Si25  1  0.431189  0.212320  0.810167  1
  Si  Si26  1  0.569567  0.787270  0.311636  1
  Si  Si27  1  0.286840  0.928877  0.061656  1
  Si  Si28  1  0.841930  0.799006  0.805505  1
  Si  Si29  1  0.157927  0.201019  0.305666  1
  Si  Si30  1  0.799006  0.841930  0.194495  1
  Si  Si31  1  0.299273  0.658119  0.555487  1
  Si  Si32  1  0.702413  0.342189  0.055745  1
  Si  Si33  1  0.658119  0.299273  0.444513  1
  Si  Si34  1  0.342189  0.702413  0.944255  1
  Si  Si35  1  0.201019  0.157927  0.694334  1
