# generated using pymatgen
data_DyLu3(NiPt)2
_symmetry_space_group_name_H-M   'P 1'
_cell_length_a   4.31691300
_cell_length_b   5.41980730
_cell_length_c   6.92944468
_cell_angle_alpha   90.45912027
_cell_angle_beta   90.00000000
_cell_angle_gamma   90.00000000
_symmetry_Int_Tables_number   1
_chemical_formula_structural   DyLu3(NiPt)2
_chemical_formula_sum   'Dy1 Lu3 Ni2 Pt2'
_cell_volume   162.12187974
_cell_formula_units_Z   1
loop_
 _symmetry_equiv_pos_site_id
 _symmetry_equiv_pos_as_xyz
  1  'x, y, z'
loop_
 _atom_site_type_symbol
 _atom_site_label
 _atom_site_symmetry_multiplicity
 _atom_site_fract_x
 _atom_site_fract_y
 _atom_site_fract_z
 _atom_site_occupancy
  Dy  Dy0  1  0.000000  0.881193  0.178607  1
  Lu  Lu1  1  0.000000  0.117795  0.678335  1
  Lu  Lu2  1  0.500000  0.385432  0.320973  1
  Lu  Lu3  1  0.500000  0.613910  0.818121  1
  Ni  Ni4  1  0.000000  0.602174  0.545863  1
  Ni  Ni5  1  0.000000  0.395019  0.038471  1
  Pt  Pt6  1  0.500000  0.886656  0.464813  1
  Pt  Pt7  1  0.500000  0.117821  0.954815  1
