# generated using pymatgen
data_LaFe3Sb12Pt
_symmetry_space_group_name_H-M   'P 1'
_cell_length_a   8.04281422
_cell_length_b   8.04281470
_cell_length_c   8.04281419
_cell_angle_alpha   109.52963297
_cell_angle_beta   109.52963010
_cell_angle_gamma   109.52963956
_symmetry_Int_Tables_number   1
_chemical_formula_structural   LaFe3Sb12Pt
_chemical_formula_sum   'La1 Fe3 Sb12 Pt1'
_cell_volume   399.63123595
_cell_formula_units_Z   1
loop_
 _symmetry_equiv_pos_site_id
 _symmetry_equiv_pos_as_xyz
  1  'x, y, z'
loop_
 _atom_site_type_symbol
 _atom_site_label
 _atom_site_symmetry_multiplicity
 _atom_site_fract_x
 _atom_site_fract_y
 _atom_site_fract_z
 _atom_site_occupancy
  La  La0  1  0.000000  0.000000  0.000000  1
  Fe  Fe1  1  0.500000  0.000000  0.000000  1
  Fe  Fe2  1  0.000000  0.500000  0.000000  1
  Fe  Fe3  1  0.000000  0.000000  0.500000  1
  Sb  Sb4  1  0.169232  0.835999  0.332056  1
  Sb  Sb5  1  0.147084  0.329512  0.497455  1
  Sb  Sb6  1  0.667944  0.830768  0.164001  1
  Sb  Sb7  1  0.670488  0.502545  0.852916  1
  Sb  Sb8  1  0.502545  0.852916  0.670488  1
  Sb  Sb9  1  0.830768  0.164001  0.667944  1
  Sb  Sb10  1  0.332056  0.169232  0.835999  1
  Sb  Sb11  1  0.835999  0.332056  0.169232  1
  Sb  Sb12  1  0.497455  0.147084  0.329512  1
  Sb  Sb13  1  0.329512  0.497455  0.147084  1
  Sb  Sb14  1  0.164001  0.667944  0.830768  1
  Sb  Sb15  1  0.852916  0.670488  0.502545  1
  Pt  Pt16  1  0.500000  0.500000  0.500000  1
