# generated using pymatgen
data_La3Ho2(Ni2Sn5)2
_symmetry_space_group_name_H-M   'P 1'
_cell_length_a   14.03070900
_cell_length_b   14.03070900
_cell_length_c   4.55365800
_cell_angle_alpha   90.00000000
_cell_angle_beta   90.00000000
_cell_angle_gamma   90.00000000
_symmetry_Int_Tables_number   1
_chemical_formula_structural   La3Ho2(Ni2Sn5)2
_chemical_formula_sum   'La6 Ho4 Ni8 Sn20'
_cell_volume   896.43673423
_cell_formula_units_Z   2
loop_
 _symmetry_equiv_pos_site_id
 _symmetry_equiv_pos_as_xyz
  1  'x, y, z'
loop_
 _atom_site_type_symbol
 _atom_site_label
 _atom_site_symmetry_multiplicity
 _atom_site_fract_x
 _atom_site_fract_y
 _atom_site_fract_z
 _atom_site_occupancy
  La  La0  1  0.000000  0.000000  0.000000  1
  La  La1  1  0.500000  0.500000  0.000000  1
  La  La2  1  0.891968  0.608032  0.500000  1
  La  La3  1  0.108032  0.391968  0.500000  1
  La  La4  1  0.391968  0.891968  0.500000  1
  La  La5  1  0.608032  0.108032  0.500000  1
  Ho  Ho6  1  0.180612  0.680612  0.500000  1
  Ho  Ho7  1  0.819388  0.319388  0.500000  1
  Ho  Ho8  1  0.680612  0.819388  0.500000  1
  Ho  Ho9  1  0.319388  0.180612  0.500000  1
  Ni  Ni10  1  0.255952  0.536866  0.000000  1
  Ni  Ni11  1  0.744048  0.463134  0.000000  1
  Ni  Ni12  1  0.755952  0.963134  0.000000  1
  Ni  Ni13  1  0.244048  0.036866  0.000000  1
  Ni  Ni14  1  0.463134  0.255952  0.000000  1
  Ni  Ni15  1  0.536866  0.744048  0.000000  1
  Ni  Ni16  1  0.036866  0.755952  0.000000  1
  Ni  Ni17  1  0.963134  0.244048  0.000000  1
  Sn  Sn18  1  0.351605  0.701433  0.000000  1
  Sn  Sn19  1  0.648395  0.298567  0.000000  1
  Sn  Sn20  1  0.851605  0.798567  0.000000  1
  Sn  Sn21  1  0.148395  0.201433  0.000000  1
  Sn  Sn22  1  0.298567  0.351605  0.000000  1
  Sn  Sn23  1  0.701433  0.648395  0.000000  1
  Sn  Sn24  1  0.201433  0.851605  0.000000  1
  Sn  Sn25  1  0.798567  0.148395  0.000000  1
  Sn  Sn26  1  0.334040  0.513754  0.500000  1
  Sn  Sn27  1  0.665960  0.486246  0.500000  1
  Sn  Sn28  1  0.834040  0.986246  0.500000  1
  Sn  Sn29  1  0.165960  0.013754  0.500000  1
  Sn  Sn30  1  0.486246  0.334040  0.500000  1
  Sn  Sn31  1  0.513754  0.665960  0.500000  1
  Sn  Sn32  1  0.013754  0.834040  0.500000  1
  Sn  Sn33  1  0.986246  0.165960  0.500000  1
  Sn  Sn34  1  0.073284  0.573284  0.000000  1
  Sn  Sn35  1  0.926716  0.426716  0.000000  1
  Sn  Sn36  1  0.573284  0.926716  0.000000  1
  Sn  Sn37  1  0.426716  0.073284  0.000000  1
