# generated using pymatgen
data_Tb2Co9TcP6
_symmetry_space_group_name_H-M   'P 1'
_cell_length_a   3.68700300
_cell_length_b   10.32961600
_cell_length_c   11.78239200
_cell_angle_alpha   90.00000000
_cell_angle_beta   90.00000000
_cell_angle_gamma   90.00000000
_symmetry_Int_Tables_number   1
_chemical_formula_structural   Tb2Co9TcP6
_chemical_formula_sum   'Tb4 Co18 Tc2 P12'
_cell_volume   448.73623073
_cell_formula_units_Z   2
loop_
 _symmetry_equiv_pos_site_id
 _symmetry_equiv_pos_as_xyz
  1  'x, y, z'
loop_
 _atom_site_type_symbol
 _atom_site_label
 _atom_site_symmetry_multiplicity
 _atom_site_fract_x
 _atom_site_fract_y
 _atom_site_fract_z
 _atom_site_occupancy
  Tb  Tb0  1  0.250000  0.582515  0.702895  1
  Tb  Tb1  1  0.250000  0.917485  0.202895  1
  Tb  Tb2  1  0.750000  0.415223  0.295697  1
  Tb  Tb3  1  0.750000  0.084777  0.795697  1
  Co  Co4  1  0.750000  0.285231  0.010138  1
  Co  Co5  1  0.750000  0.214769  0.510138  1
  Co  Co6  1  0.250000  0.405946  0.488432  1
  Co  Co7  1  0.250000  0.094054  0.988432  1
  Co  Co8  1  0.750000  0.592205  0.510626  1
  Co  Co9  1  0.750000  0.907795  0.010626  1
  Co  Co10  1  0.250000  0.220822  0.176465  1
  Co  Co11  1  0.250000  0.279178  0.676465  1
  Co  Co12  1  0.750000  0.778787  0.822904  1
  Co  Co13  1  0.750000  0.721213  0.322904  1
  Co  Co14  1  0.250000  0.885546  0.700998  1
  Co  Co15  1  0.250000  0.614454  0.200998  1
  Co  Co16  1  0.750000  0.116751  0.301480  1
  Co  Co17  1  0.750000  0.383249  0.801480  1
  Co  Co18  1  0.250000  0.464505  0.932800  1
  Co  Co19  1  0.250000  0.035495  0.432800  1
  Co  Co20  1  0.750000  0.532813  0.068187  1
  Co  Co21  1  0.750000  0.967187  0.568187  1
  Tc  Tc22  1  0.250000  0.709996  0.989045  1
  Tc  Tc23  1  0.250000  0.790004  0.489045  1
  P  P24  1  0.250000  0.417563  0.112171  1
  P  P25  1  0.250000  0.082437  0.612171  1
  P  P26  1  0.750000  0.578768  0.886987  1
  P  P27  1  0.750000  0.921232  0.386987  1
  P  P28  1  0.250000  0.270383  0.868556  1
  P  P29  1  0.250000  0.229617  0.368556  1
  P  P30  1  0.750000  0.728744  0.133173  1
  P  P31  1  0.750000  0.771256  0.633173  1
  P  P32  1  0.250000  0.596227  0.391145  1
  P  P33  1  0.250000  0.903773  0.891145  1
  P  P34  1  0.750000  0.396966  0.608300  1
  P  P35  1  0.750000  0.103034  0.108300  1
