# generated using pymatgen
data_Ca3Sm(NiH6)2
_symmetry_space_group_name_H-M   'P 1'
_cell_length_a   6.97548253
_cell_length_b   6.97547446
_cell_length_c   5.05480900
_cell_angle_alpha   90.00001821
_cell_angle_beta   90.00162164
_cell_angle_gamma   137.47322517
_symmetry_Int_Tables_number   1
_chemical_formula_structural   Ca3Sm(NiH6)2
_chemical_formula_sum   'Ca3 Sm1 Ni2 H12'
_cell_volume   166.24840253
_cell_formula_units_Z   1
loop_
 _symmetry_equiv_pos_site_id
 _symmetry_equiv_pos_as_xyz
  1  'x, y, z'
loop_
 _atom_site_type_symbol
 _atom_site_label
 _atom_site_symmetry_multiplicity
 _atom_site_fract_x
 _atom_site_fract_y
 _atom_site_fract_z
 _atom_site_occupancy
  Ca  Ca0  1  0.644813  0.355188  0.999991  1
  Ca  Ca1  1  0.855272  0.144728  0.500000  1
  Ca  Ca2  1  0.356891  0.643108  0.000009  1
  Sm  Sm3  1  0.142019  0.857981  0.500011  1
  Ni  Ni4  1  0.501523  0.498454  0.499998  1
  Ni  Ni5  1  0.000753  0.999253  0.000004  1
  H  H6  1  0.001679  0.507975  0.746030  1
  H  H7  1  0.492092  0.998406  0.253981  1
  H  H8  1  0.001471  0.507784  0.254067  1
  H  H9  1  0.492151  0.998445  0.745944  1
  H  H10  1  0.380420  0.619582  0.500004  1
  H  H11  1  0.879119  0.120880  0.000002  1
  H  H12  1  0.622896  0.377104  0.500018  1
  H  H13  1  0.122099  0.877902  0.999952  1
  H  H14  1  0.250009  0.246627  0.746846  1
  H  H15  1  0.753363  0.749976  0.253147  1
  H  H16  1  0.249390  0.245977  0.252167  1
  H  H17  1  0.754037  0.750629  0.747828  1
