# generated using pymatgen
data_Ti2Ga3Ru6W
_symmetry_space_group_name_H-M   'P 1'
_cell_length_a   4.33384600
_cell_length_b   6.13629600
_cell_length_c   12.96371000
_cell_angle_alpha   89.99992730
_cell_angle_beta   89.99983228
_cell_angle_gamma   90.00438885
_symmetry_Int_Tables_number   1
_chemical_formula_structural   Ti2Ga3Ru6W
_chemical_formula_sum   'Ti4 Ga6 Ru12 W2'
_cell_volume   344.75381624
_cell_formula_units_Z   2
loop_
 _symmetry_equiv_pos_site_id
 _symmetry_equiv_pos_as_xyz
  1  'x, y, z'
loop_
 _atom_site_type_symbol
 _atom_site_label
 _atom_site_symmetry_multiplicity
 _atom_site_fract_x
 _atom_site_fract_y
 _atom_site_fract_z
 _atom_site_occupancy
  Ti  Ti0  1  0.999781  0.499999  0.337106  1
  Ti  Ti1  1  0.500061  0.000002  0.501548  1
  Ti  Ti2  1  0.000413  0.499996  0.665115  1
  Ti  Ti3  1  0.500096  0.000001  0.829581  1
  Ga  Ga4  1  0.999986  0.999999  0.997733  1
  Ga  Ga5  1  0.500006  0.500001  0.168873  1
  Ga  Ga6  1  0.999632  0.999999  0.336471  1
  Ga  Ga7  1  0.500020  0.499998  0.500602  1
  Ga  Ga8  1  0.000122  0.000002  0.666107  1
  Ga  Ga9  1  0.500253  0.500000  0.830194  1
  Ru  Ru10  1  0.499932  0.252336  0.002065  1
  Ru  Ru11  1  0.500100  0.747663  0.002067  1
  Ru  Ru12  1  0.000064  0.247650  0.164586  1
  Ru  Ru13  1  0.999905  0.752351  0.164586  1
  Ru  Ru14  1  0.499650  0.249672  0.331051  1
  Ru  Ru15  1  0.499777  0.750328  0.331057  1
  Ru  Ru16  1  0.999801  0.250761  0.499498  1
  Ru  Ru17  1  0.000093  0.749232  0.499499  1
  Ru  Ru18  1  0.500251  0.249206  0.667165  1
  Ru  Ru19  1  0.499986  0.750802  0.667163  1
  Ru  Ru20  1  0.000223  0.250389  0.835587  1
  Ru  Ru21  1  0.000092  0.749614  0.835586  1
  W  W22  1  0.999918  0.499997  0.996121  1
  W  W23  1  0.499842  0.000003  0.170642  1
