# generated using pymatgen
data_PaRhS3
_symmetry_space_group_name_H-M   'P 1'
_cell_length_a   6.07941200
_cell_length_b   7.38082100
_cell_length_c   8.34728700
_cell_angle_alpha   90.00000000
_cell_angle_beta   90.00000000
_cell_angle_gamma   90.00000000
_symmetry_Int_Tables_number   1
_chemical_formula_structural   PaRhS3
_chemical_formula_sum   'Pa4 Rh4 S12'
_cell_volume   374.55154701
_cell_formula_units_Z   4
loop_
 _symmetry_equiv_pos_site_id
 _symmetry_equiv_pos_as_xyz
  1  'x, y, z'
loop_
 _atom_site_type_symbol
 _atom_site_label
 _atom_site_symmetry_multiplicity
 _atom_site_fract_x
 _atom_site_fract_y
 _atom_site_fract_z
 _atom_site_occupancy
  Pa  Pa0  1  0.432658  0.131684  0.750000  1
  Pa  Pa1  1  0.932658  0.368316  0.250000  1
  Pa  Pa2  1  0.567342  0.868316  0.250000  1
  Pa  Pa3  1  0.067342  0.631684  0.750000  1
  Rh  Rh4  1  0.500000  0.500000  0.000000  1
  Rh  Rh5  1  0.000000  0.000000  0.000000  1
  Rh  Rh6  1  0.000000  0.000000  0.500000  1
  Rh  Rh7  1  0.500000  0.500000  0.500000  1
  S  S8  1  0.663766  0.165270  0.055601  1
  S  S9  1  0.836234  0.665270  0.444399  1
  S  S10  1  0.836234  0.665270  0.055601  1
  S  S11  1  0.168889  0.061648  0.250000  1
  S  S12  1  0.163766  0.334730  0.555601  1
  S  S13  1  0.331111  0.561648  0.250000  1
  S  S14  1  0.831111  0.938352  0.750000  1
  S  S15  1  0.163766  0.334730  0.944399  1
  S  S16  1  0.336234  0.834730  0.944399  1
  S  S17  1  0.663766  0.165270  0.444399  1
  S  S18  1  0.668889  0.438352  0.750000  1
  S  S19  1  0.336234  0.834730  0.555601  1
