# generated using pymatgen
data_Tm8Sc7Re4Si16W
_symmetry_space_group_name_H-M   'P 1'
_cell_length_a   6.77927101
_cell_length_b   7.04534364
_cell_length_c   13.49166155
_cell_angle_alpha   90.07533131
_cell_angle_beta   89.82412479
_cell_angle_gamma   89.77064816
_symmetry_Int_Tables_number   1
_chemical_formula_structural   Tm8Sc7Re4Si16W
_chemical_formula_sum   'Tm8 Sc7 Re4 Si16 W1'
_cell_volume   644.38393814
_cell_formula_units_Z   1
loop_
 _symmetry_equiv_pos_site_id
 _symmetry_equiv_pos_as_xyz
  1  'x, y, z'
loop_
 _atom_site_type_symbol
 _atom_site_label
 _atom_site_symmetry_multiplicity
 _atom_site_fract_x
 _atom_site_fract_y
 _atom_site_fract_z
 _atom_site_occupancy
  Tm  Tm0  1  0.006887  0.176953  0.097959  1
  Tm  Tm1  1  0.994460  0.825971  0.901126  1
  Tm  Tm2  1  0.492335  0.675066  0.899324  1
  Tm  Tm3  1  0.996854  0.825701  0.595855  1
  Tm  Tm4  1  0.506345  0.324314  0.096631  1
  Tm  Tm5  1  0.005776  0.175852  0.403604  1
  Tm  Tm6  1  0.502974  0.321594  0.408362  1
  Tm  Tm7  1  0.493550  0.673090  0.596496  1
  Sc  Sc8  1  0.669533  0.834067  0.377132  1
  Sc  Sc9  1  0.172024  0.672770  0.376386  1
  Sc  Sc10  1  0.673544  0.829811  0.126385  1
  Sc  Sc11  1  0.830570  0.327693  0.622730  1
  Sc  Sc12  1  0.326584  0.169907  0.872885  1
  Sc  Sc13  1  0.826640  0.327987  0.870933  1
  Sc  Sc14  1  0.172019  0.671323  0.125956  1
  Re  Re15  1  0.156548  0.493396  0.746963  1
  Re  Re16  1  0.846130  0.505347  0.252166  1
  Re  Re17  1  0.344034  0.001084  0.250752  1
  Re  Re18  1  0.658377  0.007918  0.746993  1
  Si  Si19  1  0.029840  0.115751  0.746909  1
  Si  Si20  1  0.977137  0.890221  0.251237  1
  Si  Si21  1  0.478738  0.610276  0.251694  1
  Si  Si22  1  0.519496  0.379078  0.743976  1
  Si  Si23  1  0.296036  0.870180  0.747411  1
  Si  Si24  1  0.707769  0.141107  0.250672  1
  Si  Si25  1  0.211273  0.362290  0.251696  1
  Si  Si26  1  0.792591  0.637185  0.747757  1
  Si  Si27  1  0.170928  0.456408  0.545798  1
  Si  Si28  1  0.838876  0.532264  0.454240  1
  Si  Si29  1  0.331779  0.963328  0.466178  1
  Si  Si30  1  0.840626  0.536161  0.042926  1
  Si  Si31  1  0.646530  0.033029  0.550708  1
  Si  Si32  1  0.158895  0.465157  0.954626  1
  Si  Si33  1  0.659677  0.035209  0.955018  1
  Si  Si34  1  0.341635  0.963810  0.043896  1
  W  W35  1  0.322991  0.168702  0.626622  1
