# generated using pymatgen
data_Ho8Ta3Ti8Si16Ag
_symmetry_space_group_name_H-M   'P 1'
_cell_length_a   7.05402551
_cell_length_b   7.05402508
_cell_length_c   12.90679368
_cell_angle_alpha   90.14911015
_cell_angle_beta   89.85088841
_cell_angle_gamma   89.57040472
_symmetry_Int_Tables_number   1
_chemical_formula_structural   Ho8Ta3Ti8Si16Ag
_chemical_formula_sum   'Ho8 Ta3 Ti8 Si16 Ag1'
_cell_volume   642.21023288
_cell_formula_units_Z   1
loop_
 _symmetry_equiv_pos_site_id
 _symmetry_equiv_pos_as_xyz
  1  'x, y, z'
loop_
 _atom_site_type_symbol
 _atom_site_label
 _atom_site_symmetry_multiplicity
 _atom_site_fract_x
 _atom_site_fract_y
 _atom_site_fract_z
 _atom_site_occupancy
  Ho  Ho0  1  0.341768  0.001098  0.467304  1
  Ho  Ho1  1  0.497981  0.840876  0.717047  1
  Ho  Ho2  1  0.501274  0.157911  0.215372  1
  Ho  Ho3  1  0.840876  0.497981  0.282953  1
  Ho  Ho4  1  0.157911  0.501274  0.784628  1
  Ho  Ho5  1  0.656517  0.001135  0.968241  1
  Ho  Ho6  1  0.001098  0.341768  0.532696  1
  Ho  Ho7  1  0.001135  0.656517  0.031759  1
  Ta  Ta8  1  0.173496  0.826269  0.249771  1
  Ta  Ta9  1  0.826269  0.173496  0.750229  1
  Ta  Ta10  1  0.672996  0.672996  0.500000  1
  Ti  Ti11  1  0.147692  0.007988  0.876061  1
  Ti  Ti12  1  0.494165  0.652048  0.124394  1
  Ti  Ti13  1  0.508907  0.350053  0.625113  1
  Ti  Ti14  1  0.652048  0.494165  0.875606  1
  Ti  Ti15  1  0.350053  0.508907  0.374887  1
  Ti  Ti16  1  0.848056  0.990823  0.373906  1
  Ti  Ti17  1  0.007988  0.147692  0.123939  1
  Ti  Ti18  1  0.990823  0.848056  0.626094  1
  Si  Si19  1  0.202208  0.132187  0.683821  1
  Si  Si20  1  0.373401  0.718250  0.929216  1
  Si  Si21  1  0.631334  0.294956  0.433057  1
  Si  Si22  1  0.718250  0.373401  0.070784  1
  Si  Si23  1  0.294956  0.631334  0.566943  1
  Si  Si24  1  0.797902  0.867171  0.182691  1
  Si  Si25  1  0.132187  0.202208  0.316179  1
  Si  Si26  1  0.867171  0.797902  0.817309  1
  Si  Si27  1  0.287687  0.939454  0.064626  1
  Si  Si28  1  0.546705  0.792631  0.313719  1
  Si  Si29  1  0.454293  0.207369  0.809182  1
  Si  Si30  1  0.792631  0.546705  0.686281  1
  Si  Si31  1  0.207369  0.454293  0.190818  1
  Si  Si32  1  0.708375  0.046809  0.563364  1
  Si  Si33  1  0.939454  0.287687  0.935374  1
  Si  Si34  1  0.046809  0.708375  0.436636  1
  Ag  Ag35  1  0.328212  0.328212  0.000000  1
