# generated using pymatgen
data_Sc3Ni2Sn3Ir
_symmetry_space_group_name_H-M   'P 1'
_cell_length_a   7.38238100
_cell_length_b   7.38238169
_cell_length_c   3.46751300
_cell_angle_alpha   90.00000000
_cell_angle_beta   90.00000000
_cell_angle_gamma   120.00000137
_symmetry_Int_Tables_number   1
_chemical_formula_structural   Sc3Ni2Sn3Ir
_chemical_formula_sum   'Sc3 Ni2 Sn3 Ir1'
_cell_volume   163.65967136
_cell_formula_units_Z   1
loop_
 _symmetry_equiv_pos_site_id
 _symmetry_equiv_pos_as_xyz
  1  'x, y, z'
loop_
 _atom_site_type_symbol
 _atom_site_label
 _atom_site_symmetry_multiplicity
 _atom_site_fract_x
 _atom_site_fract_y
 _atom_site_fract_z
 _atom_site_occupancy
  Sc  Sc0  1  0.602879  0.997857  0.000000  1
  Sc  Sc1  1  0.002143  0.605022  0.000000  1
  Sc  Sc2  1  0.394978  0.397121  0.000000  1
  Ni  Ni3  1  0.000000  0.000000  0.000000  1
  Ni  Ni4  1  0.666667  0.333333  0.500000  1
  Sn  Sn5  1  0.272270  0.009175  0.500000  1
  Sn  Sn6  1  0.990825  0.263095  0.500000  1
  Sn  Sn7  1  0.736905  0.727730  0.500000  1
  Ir  Ir8  1  0.333333  0.666667  0.500000  1
