# generated using pymatgen
data_K3CuSi4
_symmetry_space_group_name_H-M   'P 1'
_cell_length_a   5.73455000
_cell_length_b   6.61532000
_cell_length_c   12.04139400
_cell_angle_alpha   90.00000000
_cell_angle_beta   90.00000000
_cell_angle_gamma   90.00000000
_symmetry_Int_Tables_number   1
_chemical_formula_structural   K3CuSi4
_chemical_formula_sum   'K6 Cu2 Si8'
_cell_volume   456.80091763
_cell_formula_units_Z   2
loop_
 _symmetry_equiv_pos_site_id
 _symmetry_equiv_pos_as_xyz
  1  'x, y, z'
loop_
 _atom_site_type_symbol
 _atom_site_label
 _atom_site_symmetry_multiplicity
 _atom_site_fract_x
 _atom_site_fract_y
 _atom_site_fract_z
 _atom_site_occupancy
  K  K0  1  0.428884  0.500000  0.500000  1
  K  K1  1  0.571116  0.000000  0.000000  1
  K  K2  1  0.165419  0.000000  0.235254  1
  K  K3  1  0.165419  0.000000  0.764746  1
  K  K4  1  0.834581  0.500000  0.264746  1
  K  K5  1  0.834581  0.500000  0.735254  1
  Cu  Cu6  1  0.692533  0.500000  0.000000  1
  Cu  Cu7  1  0.307467  0.000000  0.500000  1
  Si  Si8  1  0.948680  0.190690  0.500000  1
  Si  Si9  1  0.665791  0.000000  0.604649  1
  Si  Si10  1  0.334209  0.500000  0.104649  1
  Si  Si11  1  0.334209  0.500000  0.895351  1
  Si  Si12  1  0.051320  0.690690  0.000000  1
  Si  Si13  1  0.051320  0.309310  0.000000  1
  Si  Si14  1  0.665791  0.000000  0.395351  1
  Si  Si15  1  0.948680  0.809310  0.500000  1
