# generated using pymatgen
data_Rb2LiDyAs2
_symmetry_space_group_name_H-M   'P 1'
_cell_length_a   10.61683099
_cell_length_b   10.61683195
_cell_length_c   6.86555800
_cell_angle_alpha   90.00000000
_cell_angle_beta   90.00000000
_cell_angle_gamma   99.39569510
_symmetry_Int_Tables_number   1
_chemical_formula_structural   Rb2LiDyAs2
_chemical_formula_sum   'Rb8 Li4 Dy4 As8'
_cell_volume   763.48400766
_cell_formula_units_Z   4
loop_
 _symmetry_equiv_pos_site_id
 _symmetry_equiv_pos_as_xyz
  1  'x, y, z'
loop_
 _atom_site_type_symbol
 _atom_site_label
 _atom_site_symmetry_multiplicity
 _atom_site_fract_x
 _atom_site_fract_y
 _atom_site_fract_z
 _atom_site_occupancy
  Rb  Rb0  1  0.567369  0.932631  0.750000  1
  Rb  Rb1  1  0.932631  0.567369  0.250000  1
  Rb  Rb2  1  0.432631  0.067369  0.250000  1
  Rb  Rb3  1  0.067369  0.432631  0.750000  1
  Rb  Rb4  1  0.678236  0.321764  0.789961  1
  Rb  Rb5  1  0.821764  0.178236  0.289961  1
  Rb  Rb6  1  0.321764  0.678236  0.210039  1
  Rb  Rb7  1  0.178236  0.821764  0.710039  1
  Li  Li8  1  0.617686  0.617686  0.000000  1
  Li  Li9  1  0.882314  0.882314  0.500000  1
  Li  Li10  1  0.382314  0.382314  0.000000  1
  Li  Li11  1  0.117686  0.117686  0.500000  1
  Dy  Dy12  1  0.867887  0.867887  0.000000  1
  Dy  Dy13  1  0.632113  0.632113  0.500000  1
  Dy  Dy14  1  0.132113  0.132113  0.000000  1
  Dy  Dy15  1  0.367887  0.367887  0.500000  1
  As  As16  1  0.343601  0.156399  0.750000  1
  As  As17  1  0.156399  0.343601  0.250000  1
  As  As18  1  0.656399  0.843601  0.250000  1
  As  As19  1  0.843601  0.656399  0.750000  1
  As  As20  1  0.910554  0.089446  0.763808  1
  As  As21  1  0.589446  0.410554  0.263808  1
  As  As22  1  0.089446  0.910554  0.236192  1
  As  As23  1  0.410554  0.589446  0.736192  1
