# generated using pymatgen
data_Y7Lu3(SiSb)4
_symmetry_space_group_name_H-M   'P 1'
_cell_length_a   8.46768517
_cell_length_b   8.51970760
_cell_length_c   7.82344500
_cell_angle_alpha   90.21001823
_cell_angle_beta   90.15545832
_cell_angle_gamma   125.33275405
_symmetry_Int_Tables_number   1
_chemical_formula_structural   Y7Lu3(SiSb)4
_chemical_formula_sum   'Y7 Lu3 Si4 Sb4'
_cell_volume   460.43080881
_cell_formula_units_Z   1
loop_
 _symmetry_equiv_pos_site_id
 _symmetry_equiv_pos_as_xyz
  1  'x, y, z'
loop_
 _atom_site_type_symbol
 _atom_site_label
 _atom_site_symmetry_multiplicity
 _atom_site_fract_x
 _atom_site_fract_y
 _atom_site_fract_z
 _atom_site_occupancy
  Y  Y0  1  0.959142  0.707997  0.666558  1
  Y  Y1  1  0.460186  0.208192  0.832813  1
  Y  Y2  1  0.797042  0.543616  0.168400  1
  Y  Y3  1  0.541202  0.794602  0.167271  1
  Y  Y4  1  0.203542  0.458065  0.832120  1
  Y  Y5  1  0.702872  0.957203  0.667834  1
  Y  Y6  1  0.296039  0.042560  0.332163  1
  Lu  Lu7  1  0.040965  0.286790  0.335016  1
  Lu  Lu8  1  0.000196  0.001241  0.000663  1
  Lu  Lu9  1  0.499105  0.498918  0.499320  1
  Si  Si10  1  0.367589  0.369528  0.131431  1
  Si  Si11  1  0.630368  0.631195  0.869873  1
  Si  Si12  1  0.129530  0.130557  0.628110  1
  Si  Si13  1  0.870711  0.871707  0.371133  1
  Sb  Sb14  1  0.796513  0.205842  0.005347  1
  Sb  Sb15  1  0.207201  0.798224  0.996978  1
  Sb  Sb16  1  0.709276  0.295573  0.500495  1
  Sb  Sb17  1  0.288521  0.698188  0.494480  1
