# generated using pymatgen
data_Ho16In2AgHgIr4
_symmetry_space_group_name_H-M   'P 1'
_cell_length_a   9.57258848
_cell_length_b   9.57258881
_cell_length_c   9.58102479
_cell_angle_alpha   59.98571040
_cell_angle_beta   59.98571530
_cell_angle_gamma   59.97800317
_symmetry_Int_Tables_number   1
_chemical_formula_structural   Ho16In2AgHgIr4
_chemical_formula_sum   'Ho16 In2 Ag1 Hg1 Ir4'
_cell_volume   620.56849208
_cell_formula_units_Z   1
loop_
 _symmetry_equiv_pos_site_id
 _symmetry_equiv_pos_as_xyz
  1  'x, y, z'
loop_
 _atom_site_type_symbol
 _atom_site_label
 _atom_site_symmetry_multiplicity
 _atom_site_fract_x
 _atom_site_fract_y
 _atom_site_fract_z
 _atom_site_occupancy
  Ho  Ho0  1  0.439221  0.439221  0.058410  1
  Ho  Ho1  1  0.649421  0.649421  0.051110  1
  Ho  Ho2  1  0.190624  0.811313  0.191344  1
  Ho  Ho3  1  0.064804  0.439752  0.057742  1
  Ho  Ho4  1  0.191146  0.809684  0.809138  1
  Ho  Ho5  1  0.063356  0.438519  0.437139  1
  Ho  Ho6  1  0.811313  0.190624  0.191344  1
  Ho  Ho7  1  0.651249  0.651249  0.650485  1
  Ho  Ho8  1  0.809684  0.191146  0.809138  1
  Ho  Ho9  1  0.190163  0.190163  0.812016  1
  Ho  Ho10  1  0.050994  0.648865  0.649145  1
  Ho  Ho11  1  0.439752  0.064804  0.057742  1
  Ho  Ho12  1  0.061631  0.061631  0.438583  1
  Ho  Ho13  1  0.648865  0.050994  0.649145  1
  Ho  Ho14  1  0.808347  0.808347  0.192834  1
  Ho  Ho15  1  0.438519  0.063356  0.437139  1
  In  In16  1  0.417372  0.744015  0.420562  1
  In  In17  1  0.744015  0.417372  0.420562  1
  Ag  Ag18  1  0.416810  0.416810  0.749748  1
  Hg  Hg19  1  0.414197  0.414197  0.416818  1
  Ir  Ir20  1  0.425030  0.857793  0.858225  1
  Ir  Ir21  1  0.857687  0.857687  0.858401  1
  Ir  Ir22  1  0.857793  0.425030  0.858225  1
  Ir  Ir23  1  0.858011  0.858011  0.425006  1
