# generated using pymatgen
data_FeBi6(PtO9)2
_symmetry_space_group_name_H-M   'P 1'
_cell_length_a   9.27790000
_cell_length_b   9.27790361
_cell_length_c   5.11621500
_cell_angle_alpha   90.00001235
_cell_angle_beta   90.00000000
_cell_angle_gamma   119.99996572
_symmetry_Int_Tables_number   1
_chemical_formula_structural   FeBi6(PtO9)2
_chemical_formula_sum   'Fe1 Bi6 Pt2 O18'
_cell_volume   381.39861541
_cell_formula_units_Z   1
loop_
 _symmetry_equiv_pos_site_id
 _symmetry_equiv_pos_as_xyz
  1  'x, y, z'
loop_
 _atom_site_type_symbol
 _atom_site_label
 _atom_site_symmetry_multiplicity
 _atom_site_fract_x
 _atom_site_fract_y
 _atom_site_fract_z
 _atom_site_occupancy
  Fe  Fe0  1  0.000000  0.000000  0.499822  1
  Bi  Bi1  1  0.999925  0.365332  0.499996  1
  Bi  Bi2  1  0.291782  0.291752  0.999997  1
  Bi  Bi3  1  0.999970  0.708218  0.999997  1
  Bi  Bi4  1  0.634668  0.634593  0.499996  1
  Bi  Bi5  1  0.365407  0.000075  0.499996  1
  Bi  Bi6  1  0.708247  0.000031  0.999997  1
  Pt  Pt7  1  0.333333  0.666667  0.001120  1
  Pt  Pt8  1  0.666667  0.333333  0.998875  1
  O  O9  1  0.090238  0.207806  0.720941  1
  O  O10  1  0.229820  0.458832  0.222574  1
  O  O11  1  0.130928  0.593149  0.782445  1
  O  O12  1  0.406851  0.537779  0.782444  1
  O  O13  1  0.229012  0.770180  0.222574  1
  O  O14  1  0.117567  0.909761  0.720941  1
  O  O15  1  0.541168  0.770988  0.222575  1
  O  O16  1  0.207792  0.090258  0.279165  1
  O  O17  1  0.462221  0.869072  0.782445  1
  O  O18  1  0.792195  0.882433  0.720941  1
  O  O19  1  0.459148  0.230030  0.777373  1
  O  O20  1  0.593361  0.131210  0.217572  1
  O  O21  1  0.537849  0.406639  0.217573  1
  O  O22  1  0.769970  0.229119  0.777373  1
  O  O23  1  0.909742  0.117534  0.279165  1
  O  O24  1  0.770881  0.540851  0.777373  1
  O  O25  1  0.868790  0.462151  0.217571  1
  O  O26  1  0.882466  0.792209  0.279165  1
