# generated using pymatgen
data_Pr12AlGa7Rh8
_symmetry_space_group_name_H-M   'P 1'
_cell_length_a   5.76440600
_cell_length_b   8.23846566
_cell_length_c   13.69574210
_cell_angle_alpha   90.04592321
_cell_angle_beta   90.00000000
_cell_angle_gamma   90.00000000
_symmetry_Int_Tables_number   1
_chemical_formula_structural   Pr12AlGa7Rh8
_chemical_formula_sum   'Pr12 Al1 Ga7 Rh8'
_cell_volume   650.40867819
_cell_formula_units_Z   1
loop_
 _symmetry_equiv_pos_site_id
 _symmetry_equiv_pos_as_xyz
  1  'x, y, z'
loop_
 _atom_site_type_symbol
 _atom_site_label
 _atom_site_symmetry_multiplicity
 _atom_site_fract_x
 _atom_site_fract_y
 _atom_site_fract_z
 _atom_site_occupancy
  Pr  Pr0  1  0.633475  0.255384  0.250658  1
  Pr  Pr1  1  0.366448  0.744461  0.749491  1
  Pr  Pr2  1  0.366448  0.755539  0.250509  1
  Pr  Pr3  1  0.633475  0.244616  0.749342  1
  Pr  Pr4  1  0.145029  0.397899  0.098498  1
  Pr  Pr5  1  0.855140  0.603669  0.902226  1
  Pr  Pr6  1  0.854272  0.603001  0.597797  1
  Pr  Pr7  1  0.854272  0.896999  0.402203  1
  Pr  Pr8  1  0.145688  0.397067  0.402364  1
  Pr  Pr9  1  0.145688  0.102933  0.597636  1
  Pr  Pr10  1  0.145029  0.102101  0.901502  1
  Pr  Pr11  1  0.855140  0.896331  0.097774  1
  Al  Al12  1  0.623132  0.250000  0.000000  1
  Ga  Ga13  1  0.137081  0.107350  0.250007  1
  Ga  Ga14  1  0.862827  0.892924  0.749725  1
  Ga  Ga15  1  0.862827  0.607076  0.250275  1
  Ga  Ga16  1  0.137081  0.392650  0.749993  1
  Ga  Ga17  1  0.368556  0.750000  0.000000  1
  Ga  Ga18  1  0.368946  0.750000  0.500000  1
  Ga  Ga19  1  0.631026  0.250000  0.500000  1
  Rh  Rh20  1  0.363845  0.033984  0.091142  1
  Rh  Rh21  1  0.640385  0.970914  0.909342  1
  Rh  Rh22  1  0.639551  0.968183  0.591421  1
  Rh  Rh23  1  0.639551  0.531817  0.408579  1
  Rh  Rh24  1  0.360430  0.031543  0.408483  1
  Rh  Rh25  1  0.360430  0.468457  0.591517  1
  Rh  Rh26  1  0.363845  0.466016  0.908858  1
  Rh  Rh27  1  0.640385  0.529086  0.090658  1
