# generated using pymatgen
data_Tb2ErV(Co4P3)2
_symmetry_space_group_name_H-M   'P 1'
_cell_length_a   3.68601600
_cell_length_b   10.54157900
_cell_length_c   12.21997500
_cell_angle_alpha   90.00000000
_cell_angle_beta   90.00000000
_cell_angle_gamma   90.00000000
_symmetry_Int_Tables_number   1
_chemical_formula_structural   Tb2ErV(Co4P3)2
_chemical_formula_sum   'Tb4 Er2 V2 Co16 P12'
_cell_volume   474.82458925
_cell_formula_units_Z   2
loop_
 _symmetry_equiv_pos_site_id
 _symmetry_equiv_pos_as_xyz
  1  'x, y, z'
loop_
 _atom_site_type_symbol
 _atom_site_label
 _atom_site_symmetry_multiplicity
 _atom_site_fract_x
 _atom_site_fract_y
 _atom_site_fract_z
 _atom_site_occupancy
  Tb  Tb0  1  0.000000  0.500000  0.522913  1
  Tb  Tb1  1  0.500000  0.000000  0.476514  1
  Tb  Tb2  1  0.000000  0.681201  0.795500  1
  Tb  Tb3  1  0.000000  0.318799  0.795500  1
  Er  Er4  1  0.500000  0.819078  0.204431  1
  Er  Er5  1  0.500000  0.180922  0.204431  1
  V  V6  1  0.500000  0.500000  0.154093  1
  V  V7  1  0.000000  0.000000  0.846270  1
  Co  Co8  1  0.500000  0.500000  0.702376  1
  Co  Co9  1  0.000000  0.000000  0.296942  1
  Co  Co10  1  0.000000  0.500000  0.987752  1
  Co  Co11  1  0.500000  0.000000  0.014179  1
  Co  Co12  1  0.500000  0.332106  0.994236  1
  Co  Co13  1  0.500000  0.667894  0.994236  1
  Co  Co14  1  0.000000  0.167106  0.007672  1
  Co  Co15  1  0.000000  0.832894  0.007672  1
  Co  Co16  1  0.500000  0.295793  0.430145  1
  Co  Co17  1  0.500000  0.704207  0.430145  1
  Co  Co18  1  0.000000  0.203952  0.568225  1
  Co  Co19  1  0.000000  0.796048  0.568225  1
  Co  Co20  1  0.500000  0.878995  0.708022  1
  Co  Co21  1  0.500000  0.121005  0.708022  1
  Co  Co22  1  0.000000  0.621601  0.291222  1
  Co  Co23  1  0.000000  0.378399  0.291222  1
  P  P24  1  0.500000  0.500000  0.883406  1
  P  P25  1  0.000000  0.000000  0.118509  1
  P  P26  1  0.500000  0.500000  0.346152  1
  P  P27  1  0.000000  0.000000  0.653555  1
  P  P28  1  0.500000  0.310615  0.615213  1
  P  P29  1  0.500000  0.689385  0.615213  1
  P  P30  1  0.000000  0.188908  0.382925  1
  P  P31  1  0.000000  0.811092  0.382925  1
  P  P32  1  0.500000  0.846298  0.892678  1
  P  P33  1  0.500000  0.153702  0.892678  1
  P  P34  1  0.000000  0.654912  0.108401  1
  P  P35  1  0.000000  0.345088  0.108401  1
