# generated using pymatgen
data_Tm16In4Ru2PtRh
_symmetry_space_group_name_H-M   'P 1'
_cell_length_a   9.54937828
_cell_length_b   9.53084988
_cell_length_c   9.55883000
_cell_angle_alpha   59.90283187
_cell_angle_beta   59.96724624
_cell_angle_gamma   59.83380149
_symmetry_Int_Tables_number   1
_chemical_formula_structural   Tm16In4Ru2PtRh
_chemical_formula_sum   'Tm16 In4 Ru2 Pt1 Rh1'
_cell_volume   613.79263356
_cell_formula_units_Z   1
loop_
 _symmetry_equiv_pos_site_id
 _symmetry_equiv_pos_as_xyz
  1  'x, y, z'
loop_
 _atom_site_type_symbol
 _atom_site_label
 _atom_site_symmetry_multiplicity
 _atom_site_fract_x
 _atom_site_fract_y
 _atom_site_fract_z
 _atom_site_occupancy
  Tm  Tm0  1  0.058639  0.057608  0.441877  1
  Tm  Tm1  1  0.442607  0.061312  0.435759  1
  Tm  Tm2  1  0.062016  0.441376  0.059688  1
  Tm  Tm3  1  0.044507  0.651065  0.652214  1
  Tm  Tm4  1  0.439948  0.436681  0.061686  1
  Tm  Tm5  1  0.652641  0.046519  0.650420  1
  Tm  Tm6  1  0.186628  0.809855  0.195664  1
  Tm  Tm7  1  0.188270  0.195050  0.808340  1
  Tm  Tm8  1  0.809670  0.810056  0.190137  1
  Tm  Tm9  1  0.442607  0.061312  0.060323  1
  Tm  Tm10  1  0.809933  0.189431  0.192181  1
  Tm  Tm11  1  0.062016  0.441376  0.436921  1
  Tm  Tm12  1  0.809933  0.189431  0.808455  1
  Tm  Tm13  1  0.186628  0.809855  0.807853  1
  Tm  Tm14  1  0.653153  0.649993  0.048212  1
  Tm  Tm15  1  0.653153  0.649993  0.648642  1
  In  In16  1  0.416715  0.417202  0.417496  1
  In  In17  1  0.751675  0.416505  0.415909  1
  In  In18  1  0.417329  0.750152  0.416259  1
  In  In19  1  0.416715  0.417202  0.748585  1
  Ru  Ru20  1  0.857633  0.858516  0.423210  1
  Ru  Ru21  1  0.857633  0.858516  0.860640  1
  Pt  Pt22  1  0.423139  0.857508  0.859677  1
  Rh  Rh23  1  0.856814  0.423488  0.859849  1
