# generated using pymatgen
data_Pr3Al12Os3Rh
_symmetry_space_group_name_H-M   'P 1'
_cell_length_a   8.91012209
_cell_length_b   8.91012089
_cell_length_c   9.70750400
_cell_angle_alpha   90.00000000
_cell_angle_beta   90.00000000
_cell_angle_gamma   118.96707706
_symmetry_Int_Tables_number   1
_chemical_formula_structural   Pr3Al12Os3Rh
_chemical_formula_sum   'Pr6 Al24 Os6 Rh2'
_cell_volume   674.26764942
_cell_formula_units_Z   2
loop_
 _symmetry_equiv_pos_site_id
 _symmetry_equiv_pos_as_xyz
  1  'x, y, z'
loop_
 _atom_site_type_symbol
 _atom_site_label
 _atom_site_symmetry_multiplicity
 _atom_site_fract_x
 _atom_site_fract_y
 _atom_site_fract_z
 _atom_site_occupancy
  Pr  Pr0  1  0.183947  0.382536  0.250000  1
  Pr  Pr1  1  0.816053  0.617464  0.750000  1
  Pr  Pr2  1  0.617464  0.816053  0.250000  1
  Pr  Pr3  1  0.382536  0.183947  0.750000  1
  Pr  Pr4  1  0.192845  0.807155  0.250000  1
  Pr  Pr5  1  0.807155  0.192845  0.750000  1
  Al  Al6  1  0.332449  0.667551  0.014640  1
  Al  Al7  1  0.667551  0.332449  0.985360  1
  Al  Al8  1  0.667551  0.332449  0.514640  1
  Al  Al9  1  0.332449  0.667551  0.485360  1
  Al  Al10  1  0.162412  0.324124  0.576161  1
  Al  Al11  1  0.837588  0.675876  0.423839  1
  Al  Al12  1  0.675876  0.837588  0.576161  1
  Al  Al13  1  0.837588  0.675876  0.076161  1
  Al  Al14  1  0.324124  0.162412  0.423839  1
  Al  Al15  1  0.162412  0.324124  0.923839  1
  Al  Al16  1  0.164824  0.835176  0.573978  1
  Al  Al17  1  0.324124  0.162412  0.076161  1
  Al  Al18  1  0.835176  0.164824  0.426022  1
  Al  Al19  1  0.675876  0.837588  0.923839  1
  Al  Al20  1  0.835176  0.164824  0.073978  1
  Al  Al21  1  0.164824  0.835176  0.926022  1
  Al  Al22  1  0.560571  0.127311  0.250000  1
  Al  Al23  1  0.439429  0.872689  0.750000  1
  Al  Al24  1  0.872689  0.439429  0.250000  1
  Al  Al25  1  0.127311  0.560571  0.750000  1
  Al  Al26  1  0.559464  0.440536  0.250000  1
  Al  Al27  1  0.440536  0.559464  0.750000  1
  Al  Al28  1  0.998243  0.001757  0.250000  1
  Al  Al29  1  0.001757  0.998243  0.750000  1
  Os  Os30  1  0.500000  0.000000  0.000000  1
  Os  Os31  1  0.000000  0.500000  0.000000  1
  Os  Os32  1  0.500000  0.000000  0.500000  1
  Os  Os33  1  0.000000  0.500000  0.500000  1
  Os  Os34  1  0.000000  0.000000  0.000000  1
  Os  Os35  1  0.000000  0.000000  0.500000  1
  Rh  Rh36  1  0.500000  0.500000  0.000000  1
  Rh  Rh37  1  0.500000  0.500000  0.500000  1
