# generated using pymatgen
data_Ta3NbV4Si3P
_symmetry_space_group_name_H-M   'P 1'
_cell_length_a   3.41612000
_cell_length_b   6.51010290
_cell_length_c   7.84911883
_cell_angle_alpha   89.78607234
_cell_angle_beta   90.00000000
_cell_angle_gamma   90.00000000
_symmetry_Int_Tables_number   1
_chemical_formula_structural   Ta3NbV4Si3P
_chemical_formula_sum   'Ta3 Nb1 V4 Si3 P1'
_cell_volume   174.55763447
_cell_formula_units_Z   1
loop_
 _symmetry_equiv_pos_site_id
 _symmetry_equiv_pos_as_xyz
  1  'x, y, z'
loop_
 _atom_site_type_symbol
 _atom_site_label
 _atom_site_symmetry_multiplicity
 _atom_site_fract_x
 _atom_site_fract_y
 _atom_site_fract_z
 _atom_site_occupancy
  Ta  Ta0  1  0.250000  0.543434  0.167703  1
  Ta  Ta1  1  0.750000  0.963456  0.666556  1
  Ta  Ta2  1  0.250000  0.040866  0.333574  1
  Nb  Nb3  1  0.750000  0.456223  0.829274  1
  V  V4  1  0.250000  0.628406  0.560327  1
  V  V5  1  0.750000  0.364656  0.443587  1
  V  V6  1  0.750000  0.870327  0.059719  1
  V  V7  1  0.250000  0.132607  0.938183  1
  Si  Si8  1  0.250000  0.756458  0.860545  1
  Si  Si9  1  0.750000  0.245135  0.139892  1
  Si  Si10  1  0.750000  0.742269  0.362118  1
  P  P11  1  0.250000  0.256163  0.638521  1
