# generated using pymatgen
data_Pr2Gd4CoBr10
_symmetry_space_group_name_H-M   'P 1'
_cell_length_a   7.52799031
_cell_length_b   9.44376870
_cell_length_c   9.46445600
_cell_angle_alpha   106.81575300
_cell_angle_beta   95.48178010
_cell_angle_gamma   105.93448167
_symmetry_Int_Tables_number   1
_chemical_formula_structural   Pr2Gd4CoBr10
_chemical_formula_sum   'Pr2 Gd4 Co1 Br10'
_cell_volume   608.04345290
_cell_formula_units_Z   1
loop_
 _symmetry_equiv_pos_site_id
 _symmetry_equiv_pos_as_xyz
  1  'x, y, z'
loop_
 _atom_site_type_symbol
 _atom_site_label
 _atom_site_symmetry_multiplicity
 _atom_site_fract_x
 _atom_site_fract_y
 _atom_site_fract_z
 _atom_site_occupancy
  Pr  Pr0  1  0.870436  0.948535  0.238270  1
  Pr  Pr1  1  0.129564  0.051465  0.761730  1
  Gd  Gd2  1  0.033737  0.707469  0.911258  1
  Gd  Gd3  1  0.966263  0.292531  0.088742  1
  Gd  Gd4  1  0.648681  0.870313  0.829036  1
  Gd  Gd5  1  0.351319  0.129687  0.170964  1
  Co  Co6  1  0.000000  0.000000  0.000000  1
  Br  Br7  1  0.662336  0.559289  0.738132  1
  Br  Br8  1  0.337664  0.440711  0.261868  1
  Br  Br9  1  0.752425  0.920652  0.554517  1
  Br  Br10  1  0.247575  0.079348  0.445483  1
  Br  Br11  1  0.082611  0.375313  0.829139  1
  Br  Br12  1  0.917389  0.624687  0.170861  1
  Br  Br13  1  0.447637  0.823195  0.084262  1
  Br  Br14  1  0.552363  0.176805  0.915738  1
  Br  Br15  1  0.231218  0.750471  0.666522  1
  Br  Br16  1  0.768782  0.249529  0.333478  1
