# generated using pymatgen
data_Ti6Al6Fe7Rh5
_symmetry_space_group_name_H-M   'P 1'
_cell_length_a   4.23065000
_cell_length_b   5.94369390
_cell_length_c   12.58144491
_cell_angle_alpha   89.93691989
_cell_angle_beta   90.00010855
_cell_angle_gamma   89.99944962
_symmetry_Int_Tables_number   1
_chemical_formula_structural   Ti6Al6Fe7Rh5
_chemical_formula_sum   'Ti6 Al6 Fe7 Rh5'
_cell_volume   316.36890401
_cell_formula_units_Z   1
loop_
 _symmetry_equiv_pos_site_id
 _symmetry_equiv_pos_as_xyz
  1  'x, y, z'
loop_
 _atom_site_type_symbol
 _atom_site_label
 _atom_site_symmetry_multiplicity
 _atom_site_fract_x
 _atom_site_fract_y
 _atom_site_fract_z
 _atom_site_occupancy
  Ti  Ti0  1  0.999995  0.499146  0.984671  1
  Ti  Ti1  1  0.499996  0.993649  0.173791  1
  Ti  Ti2  1  0.999987  0.512494  0.347761  1
  Ti  Ti3  1  0.500007  0.995193  0.507941  1
  Ti  Ti4  1  0.000004  0.498606  0.665432  1
  Ti  Ti5  1  0.499994  0.000462  0.820312  1
  Al  Al6  1  0.999996  0.999968  0.991356  1
  Al  Al7  1  0.500003  0.501374  0.170184  1
  Al  Al8  1  0.000018  0.995476  0.343008  1
  Al  Al9  1  0.500019  0.503767  0.506564  1
  Al  Al10  1  0.999987  0.999841  0.665451  1
  Al  Al11  1  0.500002  0.499647  0.823304  1
  Fe  Fe12  1  0.500013  0.750828  0.335871  1
  Fe  Fe13  1  0.999987  0.251902  0.502976  1
  Fe  Fe14  1  0.000036  0.749393  0.502519  1
  Fe  Fe15  1  0.500041  0.247564  0.665376  1
  Fe  Fe16  1  0.499936  0.751699  0.666108  1
  Fe  Fe17  1  0.000008  0.250514  0.830141  1
  Fe  Fe18  1  0.999986  0.748872  0.830178  1
  Rh  Rh19  1  0.499994  0.249165  0.997936  1
  Rh  Rh20  1  0.499993  0.749580  0.997487  1
  Rh  Rh21  1  0.999999  0.249742  0.166897  1
  Rh  Rh22  1  0.000001  0.749576  0.167427  1
  Rh  Rh23  1  0.499997  0.251538  0.337312  1
