# generated using pymatgen
data_Sc11In9NiIr3
_symmetry_space_group_name_H-M   'P 1'
_cell_length_a   12.69630944
_cell_length_b   12.67989512
_cell_length_c   3.38176400
_cell_angle_alpha   90.00000000
_cell_angle_beta   90.00000000
_cell_angle_gamma   112.50935044
_symmetry_Int_Tables_number   1
_chemical_formula_structural   Sc11In9NiIr3
_chemical_formula_sum   'Sc11 In9 Ni1 Ir3'
_cell_volume   502.94725085
_cell_formula_units_Z   1
loop_
 _symmetry_equiv_pos_site_id
 _symmetry_equiv_pos_as_xyz
  1  'x, y, z'
loop_
 _atom_site_type_symbol
 _atom_site_label
 _atom_site_symmetry_multiplicity
 _atom_site_fract_x
 _atom_site_fract_y
 _atom_site_fract_z
 _atom_site_occupancy
  Sc  Sc0  1  0.311862  0.311573  0.000000  1
  Sc  Sc1  1  0.688927  0.690097  0.000000  1
  Sc  Sc2  1  0.998572  0.000073  0.000000  1
  Sc  Sc3  1  0.075836  0.416613  0.000000  1
  Sc  Sc4  1  0.924513  0.584339  0.000000  1
  Sc  Sc5  1  0.415494  0.073102  0.000000  1
  Sc  Sc6  1  0.582830  0.919193  0.000000  1
  Sc  Sc7  1  0.841500  0.156723  0.000000  1
  Sc  Sc8  1  0.158357  0.842142  0.000000  1
  Sc  Sc9  1  0.626445  0.373029  0.000000  1
  Sc  Sc10  1  0.374381  0.628787  0.000000  1
  In  In11  1  0.845695  0.366962  0.500000  1
  In  In12  1  0.154238  0.633979  0.500000  1
  In  In13  1  0.369171  0.845035  0.500000  1
  In  In14  1  0.632855  0.151747  0.500000  1
  In  In15  1  0.072067  0.217106  0.500000  1
  In  In16  1  0.928087  0.783705  0.500000  1
  In  In17  1  0.216189  0.071580  0.500000  1
  In  In18  1  0.780626  0.926125  0.500000  1
  In  In19  1  0.500613  0.503104  0.500000  1
  Ni  Ni20  1  0.551017  0.755463  0.500000  1
  Ir  Ir21  1  0.247991  0.452648  0.500000  1
  Ir  Ir22  1  0.752989  0.552509  0.500000  1
  Ir  Ir23  1  0.449744  0.244365  0.500000  1
