# generated using pymatgen
data_LiNdHoSi3Ag
_symmetry_space_group_name_H-M   'P 1'
_cell_length_a   9.34204382
_cell_length_b   9.34204415
_cell_length_c   6.97440600
_cell_angle_alpha   90.00000000
_cell_angle_beta   90.00000000
_cell_angle_gamma   153.48710135
_symmetry_Int_Tables_number   1
_chemical_formula_structural   LiNdHoSi3Ag
_chemical_formula_sum   'Li2 Nd2 Ho2 Si6 Ag2'
_cell_volume   271.71556601
_cell_formula_units_Z   2
loop_
 _symmetry_equiv_pos_site_id
 _symmetry_equiv_pos_as_xyz
  1  'x, y, z'
loop_
 _atom_site_type_symbol
 _atom_site_label
 _atom_site_symmetry_multiplicity
 _atom_site_fract_x
 _atom_site_fract_y
 _atom_site_fract_z
 _atom_site_occupancy
  Li  Li0  1  0.808330  0.191670  0.939513  1
  Li  Li1  1  0.808330  0.191670  0.560487  1
  Nd  Nd2  1  0.554801  0.445199  0.250000  1
  Nd  Nd3  1  0.446810  0.553190  0.750000  1
  Ho  Ho4  1  0.347280  0.652720  0.250000  1
  Ho  Ho5  1  0.652038  0.347962  0.750000  1
  Si  Si6  1  0.726037  0.273963  0.250000  1
  Si  Si7  1  0.278108  0.721892  0.750000  1
  Si  Si8  1  0.057657  0.942343  0.922352  1
  Si  Si9  1  0.940237  0.059763  0.077205  1
  Si  Si10  1  0.940237  0.059763  0.422795  1
  Si  Si11  1  0.057657  0.942343  0.577648  1
  Ag  Ag12  1  0.191239  0.808761  0.048880  1
  Ag  Ag13  1  0.191239  0.808761  0.451120  1
