# generated using pymatgen
data_In3FeNi4(BO4)4
_symmetry_space_group_name_H-M   'P 1'
_cell_length_a   4.59039236
_cell_length_b   5.98490800
_cell_length_c   10.25464092
_cell_angle_alpha   90.00000000
_cell_angle_beta   89.86156024
_cell_angle_gamma   90.00000000
_symmetry_Int_Tables_number   1
_chemical_formula_structural   In3FeNi4(BO4)4
_chemical_formula_sum   'In3 Fe1 Ni4 B4 O16'
_cell_volume   281.72570622
_cell_formula_units_Z   1
loop_
 _symmetry_equiv_pos_site_id
 _symmetry_equiv_pos_as_xyz
  1  'x, y, z'
loop_
 _atom_site_type_symbol
 _atom_site_label
 _atom_site_symmetry_multiplicity
 _atom_site_fract_x
 _atom_site_fract_y
 _atom_site_fract_z
 _atom_site_occupancy
  In  In0  1  0.518336  0.249999  0.218556  1
  In  In1  1  0.013851  0.750001  0.278978  1
  In  In2  1  0.981703  0.249999  0.722574  1
  Fe  Fe3  1  0.485619  0.750001  0.778488  1
  Ni  Ni4  1  0.003028  0.997031  0.994724  1
  Ni  Ni5  1  0.003028  0.502969  0.994724  1
  Ni  Ni6  1  0.497224  0.998821  0.504374  1
  Ni  Ni7  1  0.497224  0.501179  0.504374  1
  B  B8  1  0.575839  0.750001  0.083326  1
  B  B9  1  0.077569  0.249999  0.411419  1
  B  B10  1  0.917951  0.750001  0.597359  1
  B  B11  1  0.428425  0.249999  0.907537  1
  O  O12  1  0.281725  0.249999  0.039172  1
  O  O13  1  0.262212  0.750001  0.088842  1
  O  O14  1  0.721201  0.551722  0.152469  1
  O  O15  1  0.721201  0.948278  0.152469  1
  O  O16  1  0.221861  0.050418  0.343552  1
  O  O17  1  0.221861  0.449582  0.343552  1
  O  O18  1  0.763587  0.249999  0.409418  1
  O  O19  1  0.784209  0.750001  0.462049  1
  O  O20  1  0.215131  0.249999  0.544400  1
  O  O21  1  0.232510  0.750001  0.603217  1
  O  O22  1  0.767429  0.554921  0.665413  1
  O  O23  1  0.767429  0.945079  0.665413  1
  O  O24  1  0.294970  0.045544  0.838119  1
  O  O25  1  0.294970  0.454456  0.838119  1
  O  O26  1  0.742739  0.249999  0.909213  1
  O  O27  1  0.707170  0.750001  0.948156  1
