# generated using pymatgen
data_PrTh3Pd11Rh
_symmetry_space_group_name_H-M   'P 1'
_cell_length_a   5.96284669
_cell_length_b   5.91165450
_cell_length_c   9.78232263
_cell_angle_alpha   89.99999724
_cell_angle_beta   89.14805282
_cell_angle_gamma   119.71641823
_symmetry_Int_Tables_number   1
_chemical_formula_structural   PrTh3Pd11Rh
_chemical_formula_sum   'Pr1 Th3 Pd11 Rh1'
_cell_volume   299.43708634
_cell_formula_units_Z   1
loop_
 _symmetry_equiv_pos_site_id
 _symmetry_equiv_pos_as_xyz
  1  'x, y, z'
loop_
 _atom_site_type_symbol
 _atom_site_label
 _atom_site_symmetry_multiplicity
 _atom_site_fract_x
 _atom_site_fract_y
 _atom_site_fract_z
 _atom_site_occupancy
  Pr  Pr0  1  0.000000  0.000000  0.000000  1
  Th  Th1  1  0.000000  0.000000  0.500000  1
  Th  Th2  1  0.323855  0.661928  0.253041  1
  Th  Th3  1  0.676145  0.338072  0.746959  1
  Pd  Pd4  1  0.500000  0.500000  0.500000  1
  Pd  Pd5  1  0.500000  0.000000  0.500000  1
  Pd  Pd6  1  0.500000  0.500000  0.000000  1
  Pd  Pd7  1  0.500000  0.000000  0.000000  1
  Pd  Pd8  1  0.000000  0.500000  0.000000  1
  Pd  Pd9  1  0.820749  0.648125  0.251667  1
  Pd  Pd10  1  0.350588  0.175294  0.250584  1
  Pd  Pd11  1  0.820749  0.172624  0.251667  1
  Pd  Pd12  1  0.179251  0.351875  0.748333  1
  Pd  Pd13  1  0.649412  0.824706  0.749416  1
  Pd  Pd14  1  0.179251  0.827376  0.748333  1
  Rh  Rh15  1  0.000000  0.500000  0.500000  1
