# generated using pymatgen
data_U2CuAs4Pd
_symmetry_space_group_name_H-M   'P 1'
_cell_length_a   3.96925800
_cell_length_b   3.96925800
_cell_length_c   9.60736400
_cell_angle_alpha   90.00000000
_cell_angle_beta   90.00000000
_cell_angle_gamma   90.00000000
_symmetry_Int_Tables_number   1
_chemical_formula_structural   U2CuAs4Pd
_chemical_formula_sum   'U2 Cu1 As4 Pd1'
_cell_volume   151.36410696
_cell_formula_units_Z   1
loop_
 _symmetry_equiv_pos_site_id
 _symmetry_equiv_pos_as_xyz
  1  'x, y, z'
loop_
 _atom_site_type_symbol
 _atom_site_label
 _atom_site_symmetry_multiplicity
 _atom_site_fract_x
 _atom_site_fract_y
 _atom_site_fract_z
 _atom_site_occupancy
  U  U0  1  0.500000  0.000000  0.233999  1
  U  U1  1  0.000000  0.500000  0.766001  1
  Cu  Cu2  1  0.000000  0.000000  0.500000  1
  As  As3  1  0.500000  0.000000  0.676796  1
  As  As4  1  0.000000  0.500000  0.323204  1
  As  As5  1  0.000000  0.000000  0.000000  1
  As  As6  1  0.500000  0.500000  0.000000  1
  Pd  Pd7  1  0.500000  0.500000  0.500000  1
