# generated using pymatgen
data_Ta4Nb2Pd11Rh7
_symmetry_space_group_name_H-M   'P 1'
_cell_length_a   5.60280982
_cell_length_b   5.60280991
_cell_length_c   13.66153117
_cell_angle_alpha   90.29423786
_cell_angle_beta   89.70576121
_cell_angle_gamma   120.22913068
_symmetry_Int_Tables_number   1
_chemical_formula_structural   Ta4Nb2Pd11Rh7
_chemical_formula_sum   'Ta4 Nb2 Pd11 Rh7'
_cell_volume   370.53291387
_cell_formula_units_Z   1
loop_
 _symmetry_equiv_pos_site_id
 _symmetry_equiv_pos_as_xyz
  1  'x, y, z'
loop_
 _atom_site_type_symbol
 _atom_site_label
 _atom_site_symmetry_multiplicity
 _atom_site_fract_x
 _atom_site_fract_y
 _atom_site_fract_z
 _atom_site_occupancy
  Ta  Ta0  1  0.999504  0.000496  0.250093  1
  Ta  Ta1  1  0.004824  0.995176  0.745660  1
  Ta  Ta2  1  0.330411  0.669589  0.404436  1
  Ta  Ta3  1  0.666702  0.333298  0.597887  1
  Nb  Nb4  1  0.666864  0.333136  0.900372  1
  Nb  Nb5  1  0.333871  0.666129  0.098799  1
  Pd  Pd6  1  0.166109  0.332518  0.917495  1
  Pd  Pd7  1  0.667482  0.833891  0.917495  1
  Pd  Pd8  1  0.166713  0.833287  0.917556  1
  Pd  Pd9  1  0.833720  0.666882  0.082513  1
  Pd  Pd10  1  0.333118  0.166280  0.082513  1
  Pd  Pd11  1  0.833977  0.166023  0.082809  1
  Pd  Pd12  1  0.833626  0.668437  0.417825  1
  Pd  Pd13  1  0.331563  0.166374  0.417825  1
  Pd  Pd14  1  0.832567  0.167433  0.416961  1
  Pd  Pd15  1  0.166415  0.335316  0.581836  1
  Pd  Pd16  1  0.664684  0.833585  0.581836  1
  Rh  Rh17  1  0.500547  0.499453  0.250472  1
  Rh  Rh18  1  0.500682  0.003392  0.250306  1
  Rh  Rh19  1  0.996608  0.499318  0.250306  1
  Rh  Rh20  1  0.500564  0.499436  0.750316  1
  Rh  Rh21  1  0.500166  0.995541  0.750275  1
  Rh  Rh22  1  0.004459  0.499834  0.750275  1
  Rh  Rh23  1  0.164824  0.835176  0.584140  1
