# generated using pymatgen
data_Tb2Y2SBr6
_symmetry_space_group_name_H-M   'P 1'
_cell_length_a   4.00400100
_cell_length_b   13.18603900
_cell_length_c   13.94240700
_cell_angle_alpha   90.00000000
_cell_angle_beta   90.00000000
_cell_angle_gamma   90.00000000
_symmetry_Int_Tables_number   1
_chemical_formula_structural   Tb2Y2SBr6
_chemical_formula_sum   'Tb4 Y4 S2 Br12'
_cell_volume   736.11605416
_cell_formula_units_Z   2
loop_
 _symmetry_equiv_pos_site_id
 _symmetry_equiv_pos_as_xyz
  1  'x, y, z'
loop_
 _atom_site_type_symbol
 _atom_site_label
 _atom_site_symmetry_multiplicity
 _atom_site_fract_x
 _atom_site_fract_y
 _atom_site_fract_z
 _atom_site_occupancy
  Tb  Tb0  1  0.000000  0.112111  0.575377  1
  Tb  Tb1  1  0.000000  0.887889  0.424623  1
  Tb  Tb2  1  0.000000  0.612111  0.924623  1
  Tb  Tb3  1  0.000000  0.387889  0.075377  1
  Y  Y4  1  0.500000  0.115695  0.346793  1
  Y  Y5  1  0.500000  0.884305  0.653207  1
  Y  Y6  1  0.500000  0.615695  0.153207  1
  Y  Y7  1  0.500000  0.384305  0.846793  1
  S  S8  1  0.500000  0.000000  0.500000  1
  S  S9  1  0.500000  0.500000  0.000000  1
  Br  Br10  1  0.500000  0.247904  0.162576  1
  Br  Br11  1  0.500000  0.752096  0.837424  1
  Br  Br12  1  0.500000  0.747904  0.337424  1
  Br  Br13  1  0.500000  0.252096  0.662576  1
  Br  Br14  1  0.000000  0.255713  0.414499  1
  Br  Br15  1  0.000000  0.744287  0.585501  1
  Br  Br16  1  0.000000  0.755713  0.085501  1
  Br  Br17  1  0.000000  0.244287  0.914499  1
  Br  Br18  1  0.000000  0.001731  0.243658  1
  Br  Br19  1  0.000000  0.998269  0.756342  1
  Br  Br20  1  0.000000  0.501731  0.256342  1
  Br  Br21  1  0.000000  0.498269  0.743658  1
