# generated using pymatgen
data_Hf14CoCu15Au4
_symmetry_space_group_name_H-M   'P 1'
_cell_length_a   7.92258829
_cell_length_b   7.87437345
_cell_length_c   9.40519818
_cell_angle_alpha   90.01859969
_cell_angle_beta   89.98268870
_cell_angle_gamma   106.73849740
_symmetry_Int_Tables_number   1
_chemical_formula_structural   Hf14CoCu15Au4
_chemical_formula_sum   'Hf14 Co1 Cu15 Au4'
_cell_volume   561.88623542
_cell_formula_units_Z   1
loop_
 _symmetry_equiv_pos_site_id
 _symmetry_equiv_pos_as_xyz
  1  'x, y, z'
loop_
 _atom_site_type_symbol
 _atom_site_label
 _atom_site_symmetry_multiplicity
 _atom_site_fract_x
 _atom_site_fract_y
 _atom_site_fract_z
 _atom_site_occupancy
  Hf  Hf0  1  0.699964  0.298980  0.006941  1
  Hf  Hf1  1  0.305429  0.694017  0.000169  1
  Hf  Hf2  1  0.807676  0.192740  0.489778  1
  Hf  Hf3  1  0.193323  0.806393  0.498740  1
  Hf  Hf4  1  0.996280  0.004997  0.007773  1
  Hf  Hf5  1  0.499545  0.500466  0.501541  1
  Hf  Hf6  1  0.005141  0.497962  0.249651  1
  Hf  Hf7  1  0.990568  0.491845  0.748548  1
  Hf  Hf8  1  0.490130  0.992527  0.749526  1
  Hf  Hf9  1  0.513839  0.011290  0.249263  1
  Hf  Hf10  1  0.317142  0.315141  0.185317  1
  Hf  Hf11  1  0.686412  0.685134  0.812905  1
  Hf  Hf12  1  0.185070  0.185572  0.688417  1
  Hf  Hf13  1  0.817950  0.827582  0.306303  1
  Co  Co14  1  0.847933  0.152438  0.207747  1
  Cu  Cu15  1  0.136159  0.841501  0.799958  1
  Cu  Cu16  1  0.640005  0.340453  0.701183  1
  Cu  Cu17  1  0.657313  0.365825  0.299161  1
  Cu  Cu18  1  0.360419  0.659229  0.296968  1
  Cu  Cu19  1  0.338729  0.638199  0.702391  1
  Cu  Cu20  1  0.839974  0.137173  0.796187  1
  Cu  Cu21  1  0.162047  0.858539  0.203556  1
  Cu  Cu22  1  0.948970  0.650266  0.004828  1
  Cu  Cu23  1  0.053956  0.352339  0.993941  1
  Cu  Cu24  1  0.550279  0.849178  0.506493  1
  Cu  Cu25  1  0.150799  0.449209  0.497221  1
  Cu  Cu26  1  0.449383  0.148427  0.496500  1
  Cu  Cu27  1  0.850557  0.553913  0.503270  1
  Cu  Cu28  1  0.348077  0.051089  0.995503  1
  Cu  Cu29  1  0.646284  0.944561  0.001185  1
  Au  Au30  1  0.117707  0.114263  0.390993  1
  Au  Au31  1  0.888789  0.888748  0.607891  1
  Au  Au32  1  0.391800  0.388343  0.890592  1
  Au  Au33  1  0.612350  0.611662  0.109559  1
