# generated using pymatgen
data_PrNd2AgPdPt3O14
_symmetry_space_group_name_H-M   'P 1'
_cell_length_a   7.32306173
_cell_length_b   7.32398199
_cell_length_c   7.32398000
_cell_angle_alpha   61.36762008
_cell_angle_beta   61.37618639
_cell_angle_gamma   61.37618099
_symmetry_Int_Tables_number   1
_chemical_formula_structural   PrNd2AgPdPt3O14
_chemical_formula_sum   'Pr1 Nd2 Ag1 Pd1 Pt3 O14'
_cell_volume   286.33186347
_cell_formula_units_Z   1
loop_
 _symmetry_equiv_pos_site_id
 _symmetry_equiv_pos_as_xyz
  1  'x, y, z'
loop_
 _atom_site_type_symbol
 _atom_site_label
 _atom_site_symmetry_multiplicity
 _atom_site_fract_x
 _atom_site_fract_y
 _atom_site_fract_z
 _atom_site_occupancy
  Pr  Pr0  1  0.125000  0.625000  0.625000  1
  Nd  Nd1  1  0.625000  0.625000  0.125000  1
  Nd  Nd2  1  0.625000  0.125000  0.625000  1
  Ag  Ag3  1  0.625000  0.625000  0.625000  1
  Pd  Pd4  1  0.125000  0.125000  0.125000  1
  Pt  Pt5  1  0.125000  0.125000  0.625000  1
  Pt  Pt6  1  0.125000  0.625000  0.125000  1
  Pt  Pt7  1  0.625000  0.125000  0.125000  1
  O  O8  1  0.510670  0.507380  0.507380  1
  O  O9  1  0.739330  0.742620  0.742620  1
  O  O10  1  0.452100  0.056421  0.452089  1
  O  O11  1  0.213375  0.788909  0.211435  1
  O  O12  1  0.452100  0.452089  0.056421  1
  O  O13  1  0.055745  0.451670  0.451670  1
  O  O14  1  0.461495  0.037285  0.037285  1
  O  O15  1  0.036625  0.038565  0.461091  1
  O  O16  1  0.036625  0.461091  0.038565  1
  O  O17  1  0.788505  0.212715  0.212715  1
  O  O18  1  0.194255  0.798330  0.798330  1
  O  O19  1  0.797900  0.193579  0.797911  1
  O  O20  1  0.213375  0.211435  0.788909  1
  O  O21  1  0.797900  0.797911  0.193579  1
