# generated using pymatgen
data_Zr4Al4CuRe3
_symmetry_space_group_name_H-M   'P 1'
_cell_length_a   5.24095009
_cell_length_b   5.24095064
_cell_length_c   8.67586100
_cell_angle_alpha   90.00000000
_cell_angle_beta   90.00000000
_cell_angle_gamma   119.18984996
_symmetry_Int_Tables_number   1
_chemical_formula_structural   Zr4Al4CuRe3
_chemical_formula_sum   'Zr4 Al4 Cu1 Re3'
_cell_volume   208.04206009
_cell_formula_units_Z   1
loop_
 _symmetry_equiv_pos_site_id
 _symmetry_equiv_pos_as_xyz
  1  'x, y, z'
loop_
 _atom_site_type_symbol
 _atom_site_label
 _atom_site_symmetry_multiplicity
 _atom_site_fract_x
 _atom_site_fract_y
 _atom_site_fract_z
 _atom_site_occupancy
  Zr  Zr0  1  0.333032  0.666968  0.191810  1
  Zr  Zr1  1  0.665529  0.334471  0.318656  1
  Zr  Zr2  1  0.665529  0.334471  0.681344  1
  Zr  Zr3  1  0.333032  0.666968  0.808190  1
  Al  Al4  1  0.994377  0.005623  0.243979  1
  Al  Al5  1  0.994377  0.005623  0.756021  1
  Al  Al6  1  0.833911  0.648235  0.000000  1
  Al  Al7  1  0.351765  0.166089  0.000000  1
  Cu  Cu8  1  0.834321  0.165679  0.000000  1
  Re  Re9  1  0.167489  0.339670  0.500000  1
  Re  Re10  1  0.660330  0.832511  0.500000  1
  Re  Re11  1  0.166398  0.833602  0.500000  1
