# generated using pymatgen
data_Ti3MnReP3W
_symmetry_space_group_name_H-M   'P 1'
_cell_length_a   6.59887518
_cell_length_b   6.57155920
_cell_length_c   3.32170900
_cell_angle_alpha   90.00000000
_cell_angle_beta   90.00000000
_cell_angle_gamma   120.91952919
_symmetry_Int_Tables_number   1
_chemical_formula_structural   Ti3MnReP3W
_chemical_formula_sum   'Ti3 Mn1 Re1 P3 W1'
_cell_volume   123.57523184
_cell_formula_units_Z   1
loop_
 _symmetry_equiv_pos_site_id
 _symmetry_equiv_pos_as_xyz
  1  'x, y, z'
loop_
 _atom_site_type_symbol
 _atom_site_label
 _atom_site_symmetry_multiplicity
 _atom_site_fract_x
 _atom_site_fract_y
 _atom_site_fract_z
 _atom_site_occupancy
  Ti  Ti0  1  0.594861  0.002888  0.000000  1
  Ti  Ti1  1  0.004602  0.597727  0.000000  1
  Ti  Ti2  1  0.410915  0.407248  0.000000  1
  Mn  Mn3  1  0.742870  0.744209  0.500000  1
  Re  Re4  1  0.001580  0.255112  0.500000  1
  P  P5  1  0.346210  0.670390  0.500000  1
  P  P6  1  0.673537  0.346575  0.500000  1
  P  P7  1  0.972166  0.974101  0.000000  1
  W  W8  1  0.253261  0.001750  0.500000  1
