# generated using pymatgen
data_Tb4Ho4Er4Co5Bi
_symmetry_space_group_name_H-M   'P 1'
_cell_length_a   8.31069281
_cell_length_b   8.31091212
_cell_length_c   8.31069397
_cell_angle_alpha   110.66898244
_cell_angle_beta   110.73035325
_cell_angle_gamma   107.04029312
_symmetry_Int_Tables_number   1
_chemical_formula_structural   Tb4Ho4Er4Co5Bi
_chemical_formula_sum   'Tb4 Ho4 Er4 Co5 Bi1'
_cell_volume   441.28922965
_cell_formula_units_Z   1
loop_
 _symmetry_equiv_pos_site_id
 _symmetry_equiv_pos_as_xyz
  1  'x, y, z'
loop_
 _atom_site_type_symbol
 _atom_site_label
 _atom_site_symmetry_multiplicity
 _atom_site_fract_x
 _atom_site_fract_y
 _atom_site_fract_z
 _atom_site_occupancy
  Tb  Tb0  1  0.815749  0.711086  0.526832  1
  Tb  Tb1  1  0.184251  0.288914  0.473168  1
  Tb  Tb2  1  0.184255  0.711086  0.895337  1
  Tb  Tb3  1  0.815745  0.288914  0.104663  1
  Ho  Ho4  1  0.599005  0.793194  0.805794  1
  Ho  Ho5  1  0.400995  0.206806  0.194206  1
  Ho  Ho6  1  0.987400  0.793194  0.194188  1
  Ho  Ho7  1  0.012600  0.206806  0.805812  1
  Er  Er8  1  0.687842  0.377116  0.689276  1
  Er  Er9  1  0.312158  0.622884  0.310724  1
  Er  Er10  1  0.687903  0.998670  0.310768  1
  Er  Er11  1  0.312097  0.001330  0.689232  1
  Co  Co12  1  0.623702  0.000000  0.623702  1
  Co  Co13  1  0.376298  0.000000  0.376298  1
  Co  Co14  1  0.111827  0.611830  0.500004  1
  Co  Co15  1  0.888173  0.388170  0.499996  1
  Co  Co16  1  0.000000  0.000000  0.000000  1
  Bi  Bi17  1  0.500000  0.500000  0.000000  1
