# generated using pymatgen
data_Ho8In2RuPt
_symmetry_space_group_name_H-M   'P 1'
_cell_length_a   9.65811083
_cell_length_b   9.63550649
_cell_length_c   9.63600660
_cell_angle_alpha   60.07060036
_cell_angle_beta   59.92483848
_cell_angle_gamma   59.92541602
_symmetry_Int_Tables_number   1
_chemical_formula_structural   Ho8In2RuPt
_chemical_formula_sum   'Ho16 In4 Ru2 Pt2'
_cell_volume   633.70489921
_cell_formula_units_Z   2
loop_
 _symmetry_equiv_pos_site_id
 _symmetry_equiv_pos_as_xyz
  1  'x, y, z'
loop_
 _atom_site_type_symbol
 _atom_site_label
 _atom_site_symmetry_multiplicity
 _atom_site_fract_x
 _atom_site_fract_y
 _atom_site_fract_z
 _atom_site_occupancy
  Ho  Ho0  1  0.442803  0.435601  0.059698  1
  Ho  Ho1  1  0.651643  0.642299  0.054452  1
  Ho  Ho2  1  0.185185  0.809190  0.195931  1
  Ho  Ho3  1  0.061911  0.435583  0.059676  1
  Ho  Ho4  1  0.190766  0.809214  0.809238  1
  Ho  Ho5  1  0.060714  0.439251  0.439304  1
  Ho  Ho6  1  0.810361  0.189707  0.189578  1
  Ho  Ho7  1  0.654817  0.649280  0.649451  1
  Ho  Ho8  1  0.809720  0.196050  0.809214  1
  Ho  Ho9  1  0.185042  0.196047  0.809192  1
  Ho  Ho10  1  0.046459  0.649265  0.649470  1
  Ho  Ho11  1  0.438849  0.061138  0.061123  1
  Ho  Ho12  1  0.061959  0.059733  0.435579  1
  Ho  Ho13  1  0.651533  0.054548  0.642408  1
  Ho  Ho14  1  0.809715  0.809189  0.195904  1
  Ho  Ho15  1  0.442745  0.059726  0.435594  1
  In  In16  1  0.416268  0.416851  0.416844  1
  In  In17  1  0.416982  0.417321  0.748697  1
  In  In18  1  0.417004  0.748725  0.417302  1
  In  In19  1  0.750017  0.416831  0.416860  1
  Ru  Ru20  1  0.857082  0.425425  0.860426  1
  Ru  Ru21  1  0.857057  0.860433  0.425431  1
  Pt  Pt22  1  0.426383  0.859280  0.859323  1
  Pt  Pt23  1  0.854985  0.859311  0.859307  1
