# generated using pymatgen
data_HoMn2(FeP)3
_symmetry_space_group_name_H-M   'P 1'
_cell_length_a   3.63833700
_cell_length_b   10.25849000
_cell_length_c   12.12024900
_cell_angle_alpha   90.00000000
_cell_angle_beta   90.00000000
_cell_angle_gamma   90.00000000
_symmetry_Int_Tables_number   1
_chemical_formula_structural   HoMn2(FeP)3
_chemical_formula_sum   'Ho4 Mn8 Fe12 P12'
_cell_volume   452.37427966
_cell_formula_units_Z   4
loop_
 _symmetry_equiv_pos_site_id
 _symmetry_equiv_pos_as_xyz
  1  'x, y, z'
loop_
 _atom_site_type_symbol
 _atom_site_label
 _atom_site_symmetry_multiplicity
 _atom_site_fract_x
 _atom_site_fract_y
 _atom_site_fract_z
 _atom_site_occupancy
  Ho  Ho0  1  0.250000  0.580504  0.710659  1
  Ho  Ho1  1  0.250000  0.919496  0.210659  1
  Ho  Ho2  1  0.750000  0.419496  0.289341  1
  Ho  Ho3  1  0.750000  0.080504  0.789341  1
  Mn  Mn4  1  0.250000  0.705820  0.992304  1
  Mn  Mn5  1  0.250000  0.794180  0.492304  1
  Mn  Mn6  1  0.750000  0.294180  0.007696  1
  Mn  Mn7  1  0.750000  0.205820  0.507696  1
  Mn  Mn8  1  0.250000  0.408309  0.490179  1
  Mn  Mn9  1  0.250000  0.091691  0.990179  1
  Mn  Mn10  1  0.750000  0.591691  0.509821  1
  Mn  Mn11  1  0.750000  0.908309  0.009821  1
  Fe  Fe12  1  0.250000  0.220289  0.171431  1
  Fe  Fe13  1  0.250000  0.279711  0.671431  1
  Fe  Fe14  1  0.750000  0.779711  0.828569  1
  Fe  Fe15  1  0.750000  0.720289  0.328569  1
  Fe  Fe16  1  0.250000  0.877022  0.695826  1
  Fe  Fe17  1  0.250000  0.622978  0.195826  1
  Fe  Fe18  1  0.750000  0.122978  0.304174  1
  Fe  Fe19  1  0.750000  0.377022  0.804174  1
  Fe  Fe20  1  0.250000  0.462645  0.935921  1
  Fe  Fe21  1  0.250000  0.037355  0.435921  1
  Fe  Fe22  1  0.750000  0.537355  0.064079  1
  Fe  Fe23  1  0.750000  0.962645  0.564079  1
  P  P24  1  0.250000  0.423447  0.113169  1
  P  P25  1  0.250000  0.076553  0.613169  1
  P  P26  1  0.750000  0.576553  0.886831  1
  P  P27  1  0.750000  0.923447  0.386831  1
  P  P28  1  0.250000  0.268781  0.860620  1
  P  P29  1  0.250000  0.231219  0.360620  1
  P  P30  1  0.750000  0.731219  0.139380  1
  P  P31  1  0.750000  0.768781  0.639380  1
  P  P32  1  0.250000  0.602824  0.381035  1
  P  P33  1  0.250000  0.897176  0.881035  1
  P  P34  1  0.750000  0.397176  0.618965  1
  P  P35  1  0.750000  0.102824  0.118965  1
