# generated using pymatgen
data_Dy3Er2(In2Ni)2
_symmetry_space_group_name_H-M   'P 1'
_cell_length_a   17.89562700
_cell_length_b   7.99520900
_cell_length_c   3.57859200
_cell_angle_alpha   90.00000000
_cell_angle_beta   90.00000000
_cell_angle_gamma   90.00000000
_symmetry_Int_Tables_number   1
_chemical_formula_structural   Dy3Er2(In2Ni)2
_chemical_formula_sum   'Dy6 Er4 In8 Ni4'
_cell_volume   512.02235980
_cell_formula_units_Z   2
loop_
 _symmetry_equiv_pos_site_id
 _symmetry_equiv_pos_as_xyz
  1  'x, y, z'
loop_
 _atom_site_type_symbol
 _atom_site_label
 _atom_site_symmetry_multiplicity
 _atom_site_fract_x
 _atom_site_fract_y
 _atom_site_fract_z
 _atom_site_occupancy
  Dy  Dy0  1  0.000000  0.000000  0.000000  1
  Dy  Dy1  1  0.500000  0.500000  0.000000  1
  Dy  Dy2  1  0.221714  0.249625  0.000000  1
  Dy  Dy3  1  0.778286  0.750375  0.000000  1
  Dy  Dy4  1  0.721714  0.250375  0.000000  1
  Dy  Dy5  1  0.278286  0.749624  0.000000  1
  Er  Er6  1  0.411442  0.118957  0.000000  1
  Er  Er7  1  0.588557  0.881042  0.000000  1
  Er  Er8  1  0.911443  0.381043  0.000000  1
  Er  Er9  1  0.088557  0.618957  0.000000  1
  In  In10  1  0.568393  0.202617  0.500002  1
  In  In11  1  0.431607  0.797382  0.500002  1
  In  In12  1  0.068393  0.297383  0.500002  1
  In  In13  1  0.931607  0.702617  0.500002  1
  In  In14  1  0.848629  0.070165  0.500002  1
  In  In15  1  0.151371  0.929835  0.500002  1
  In  In16  1  0.348629  0.429835  0.500002  1
  In  In17  1  0.651371  0.570166  0.500002  1
  Ni  Ni18  1  0.303803  0.028335  0.500002  1
  Ni  Ni19  1  0.696196  0.971664  0.500002  1
  Ni  Ni20  1  0.803803  0.471665  0.500002  1
  Ni  Ni21  1  0.196197  0.528336  0.500002  1
