# generated using pymatgen
data_Tb5YNi20P13
_symmetry_space_group_name_H-M   'P 1'
_cell_length_a   12.64964800
_cell_length_b   12.64975717
_cell_length_c   3.75531000
_cell_angle_alpha   90.00000000
_cell_angle_beta   90.00000000
_cell_angle_gamma   120.00073888
_symmetry_Int_Tables_number   1
_chemical_formula_structural   Tb5YNi20P13
_chemical_formula_sum   'Tb5 Y1 Ni20 P13'
_cell_volume   520.39584618
_cell_formula_units_Z   1
loop_
 _symmetry_equiv_pos_site_id
 _symmetry_equiv_pos_as_xyz
  1  'x, y, z'
loop_
 _atom_site_type_symbol
 _atom_site_label
 _atom_site_symmetry_multiplicity
 _atom_site_fract_x
 _atom_site_fract_y
 _atom_site_fract_z
 _atom_site_occupancy
  Tb  Tb0  1  0.470313  0.188123  0.000000  1
  Tb  Tb1  1  0.717801  0.529682  0.000000  1
  Tb  Tb2  1  0.811879  0.282189  0.000000  1
  Tb  Tb3  1  0.530661  0.812168  0.500000  1
  Tb  Tb4  1  0.281507  0.469336  0.500000  1
  Y  Y5  1  0.187832  0.718493  0.500000  1
  Ni  Ni6  1  0.333332  0.666668  0.000000  1
  Ni  Ni7  1  0.666667  0.333333  0.500000  1
  Ni  Ni8  1  0.195561  0.090521  0.000000  1
  Ni  Ni9  1  0.894965  0.804441  0.000000  1
  Ni  Ni10  1  0.909480  0.105040  0.000000  1
  Ni  Ni11  1  0.848160  0.927512  0.500000  1
  Ni  Ni12  1  0.079354  0.151840  0.500000  1
  Ni  Ni13  1  0.072489  0.920651  0.500000  1
  Ni  Ni14  1  0.437795  0.416305  0.000000  1
  Ni  Ni15  1  0.978515  0.562209  0.000000  1
  Ni  Ni16  1  0.583694  0.021489  0.000000  1
  Ni  Ni17  1  0.564833  0.586808  0.500000  1
  Ni  Ni18  1  0.021972  0.435166  0.500000  1
  Ni  Ni19  1  0.413193  0.978026  0.500000  1
  Ni  Ni20  1  0.078031  0.320202  0.000000  1
  Ni  Ni21  1  0.242165  0.921964  0.000000  1
  Ni  Ni22  1  0.679798  0.757832  0.000000  1
  Ni  Ni23  1  0.929122  0.683035  0.500000  1
  Ni  Ni24  1  0.753914  0.070879  0.500000  1
  Ni  Ni25  1  0.316964  0.246085  0.500000  1
  P  P26  1  0.234295  0.281944  0.000000  1
  P  P27  1  0.047656  0.765706  0.000000  1
  P  P28  1  0.718058  0.952350  0.000000  1
  P  P29  1  0.767415  0.721491  0.500000  1
  P  P30  1  0.954075  0.232584  0.500000  1
  P  P31  1  0.278511  0.045929  0.500000  1
  P  P32  1  0.476767  0.614255  0.000000  1
  P  P33  1  0.137494  0.523243  0.000000  1
  P  P34  1  0.385738  0.862504  0.000000  1
  P  P35  1  0.523467  0.386516  0.500000  1
  P  P36  1  0.863045  0.476529  0.500000  1
  P  P37  1  0.613484  0.136952  0.500000  1
  P  P38  1  0.999999  0.000000  0.000000  1
