# generated using pymatgen
data_NaErSi2(B12C)2
_symmetry_space_group_name_H-M   'P 1'
_cell_length_a   7.26839319
_cell_length_b   7.24712330
_cell_length_c   7.24712273
_cell_angle_alpha   132.60518760
_cell_angle_beta   110.17901953
_cell_angle_gamma   88.69109649
_symmetry_Int_Tables_number   1
_chemical_formula_structural   NaErSi2(B12C)2
_chemical_formula_sum   'Na1 Er1 Si2 B24 C2'
_cell_volume   251.16794729
_cell_formula_units_Z   1
loop_
 _symmetry_equiv_pos_site_id
 _symmetry_equiv_pos_as_xyz
  1  'x, y, z'
loop_
 _atom_site_type_symbol
 _atom_site_label
 _atom_site_symmetry_multiplicity
 _atom_site_fract_x
 _atom_site_fract_y
 _atom_site_fract_z
 _atom_site_occupancy
  Na  Na0  1  0.896842  0.242750  0.154091  1
  Er  Er1  1  0.096905  0.748730  0.848175  1
  Si  Si2  1  0.475391  0.829720  0.145671  1
  Si  Si3  1  0.689595  0.327314  0.862281  1
  B  B4  1  0.872273  0.834881  0.537390  1
  B  B5  1  0.296209  0.334181  0.462028  1
  B  B6  1  0.143901  0.167569  0.476331  1
  B  B7  1  0.689804  0.666667  0.523137  1
  B  B8  1  0.273294  0.091908  0.681386  1
  B  B9  1  0.408940  0.590910  0.318029  1
  B  B10  1  0.764644  0.913976  0.350668  1
  B  B11  1  0.561483  0.409734  0.651750  1
  B  B12  1  0.108418  0.784789  0.508772  1
  B  B13  1  0.274608  0.600286  0.491309  1
  B  B14  1  0.274608  0.283300  0.174323  1
  B  B15  1  0.108418  0.099646  0.823630  1
  B  B16  1  0.902988  0.221340  0.508771  1
  B  B17  1  0.710477  0.395010  0.493203  1
  B  B18  1  0.710477  0.717273  0.815466  1
  B  B19  1  0.902988  0.894217  0.181648  1
  B  B20  1  0.135624  0.823693  0.298539  1
  B  B21  1  0.525029  0.839717  0.702419  1
  B  B22  1  0.525029  0.322609  0.185311  1
  B  B23  1  0.135624  0.337085  0.811931  1
  B  B24  1  0.887664  0.164845  0.710251  1
  B  B25  1  0.452487  0.178191  0.289542  1
  B  B26  1  0.452487  0.662945  0.774296  1
  B  B27  1  0.887664  0.677413  0.222819  1
  C  C28  1  0.512444  0.141988  0.870456  1
  C  C29  1  0.269543  0.643168  0.126376  1
