# generated using pymatgen
data_Hf12PaTi3Mn8
_symmetry_space_group_name_H-M   'P 1'
_cell_length_a   8.42769255
_cell_length_b   8.39330808
_cell_length_c   8.42769300
_cell_angle_alpha   59.86439320
_cell_angle_beta   60.00000215
_cell_angle_gamma   59.86439476
_symmetry_Int_Tables_number   1
_chemical_formula_structural   Hf12PaTi3Mn8
_chemical_formula_sum   'Hf12 Pa1 Ti3 Mn8'
_cell_volume   420.67078316
_cell_formula_units_Z   1
loop_
 _symmetry_equiv_pos_site_id
 _symmetry_equiv_pos_as_xyz
  1  'x, y, z'
loop_
 _atom_site_type_symbol
 _atom_site_label
 _atom_site_symmetry_multiplicity
 _atom_site_fract_x
 _atom_site_fract_y
 _atom_site_fract_z
 _atom_site_occupancy
  Hf  Hf0  1  0.432313  0.818536  0.816838  1
  Hf  Hf1  1  0.813489  0.429766  0.443256  1
  Hf  Hf2  1  0.813489  0.429766  0.813489  1
  Hf  Hf3  1  0.432313  0.818536  0.432313  1
  Hf  Hf4  1  0.816838  0.818536  0.432313  1
  Hf  Hf5  1  0.443256  0.429766  0.813489  1
  Hf  Hf6  1  0.567687  0.181464  0.183162  1
  Hf  Hf7  1  0.186511  0.570234  0.556744  1
  Hf  Hf8  1  0.186511  0.570234  0.186511  1
  Hf  Hf9  1  0.567687  0.181464  0.567687  1
  Hf  Hf10  1  0.183162  0.181464  0.567687  1
  Hf  Hf11  1  0.556744  0.570234  0.186511  1
  Pa  Pa12  1  0.000000  0.500000  0.000000  1
  Ti  Ti13  1  0.000000  0.000000  0.500000  1
  Ti  Ti14  1  0.500000  0.000000  0.000000  1
  Ti  Ti15  1  0.000000  0.000000  0.000000  1
  Mn  Mn16  1  0.207666  0.206657  0.878010  1
  Mn  Mn17  1  0.208867  0.873399  0.208867  1
  Mn  Mn18  1  0.878010  0.206657  0.207666  1
  Mn  Mn19  1  0.207666  0.206657  0.207666  1
  Mn  Mn20  1  0.792334  0.793343  0.121990  1
  Mn  Mn21  1  0.791133  0.126601  0.791133  1
  Mn  Mn22  1  0.121990  0.793343  0.792334  1
  Mn  Mn23  1  0.792334  0.793343  0.792334  1
