# generated using pymatgen
data_LuBi3(AuO3)4
_symmetry_space_group_name_H-M   'P 1'
_cell_length_a   3.96394846
_cell_length_b   5.62967700
_cell_length_c   13.24009159
_cell_angle_alpha   90.00000000
_cell_angle_beta   91.41207484
_cell_angle_gamma   90.00000000
_symmetry_Int_Tables_number   1
_chemical_formula_structural   LuBi3(AuO3)4
_chemical_formula_sum   'Lu1 Bi3 Au4 O12'
_cell_volume   295.37284052
_cell_formula_units_Z   1
loop_
 _symmetry_equiv_pos_site_id
 _symmetry_equiv_pos_as_xyz
  1  'x, y, z'
loop_
 _atom_site_type_symbol
 _atom_site_label
 _atom_site_symmetry_multiplicity
 _atom_site_fract_x
 _atom_site_fract_y
 _atom_site_fract_z
 _atom_site_occupancy
  Lu  Lu0  1  0.747299  0.750000  0.578368  1
  Bi  Bi1  1  0.265782  0.750000  0.074919  1
  Bi  Bi2  1  0.282633  0.250000  0.430274  1
  Bi  Bi3  1  0.719946  0.250000  0.924728  1
  Au  Au4  1  0.069382  0.750000  0.822780  1
  Au  Au5  1  0.082861  0.250000  0.665366  1
  Au  Au6  1  0.920052  0.250000  0.172697  1
  Au  Au7  1  0.919647  0.750000  0.335983  1
  O  O8  1  0.166196  0.499626  0.254990  1
  O  O9  1  0.823221  0.985739  0.732881  1
  O  O10  1  0.823221  0.514261  0.732881  1
  O  O11  1  0.166196  0.000374  0.254990  1
  O  O12  1  0.739317  0.489200  0.070520  1
  O  O13  1  0.746114  0.511830  0.435792  1
  O  O14  1  0.246633  0.989460  0.925647  1
  O  O15  1  0.274719  0.992773  0.577612  1
  O  O16  1  0.746114  0.988170  0.435792  1
  O  O17  1  0.739317  0.010800  0.070520  1
  O  O18  1  0.274719  0.507227  0.577612  1
  O  O19  1  0.246633  0.510540  0.925647  1
