# generated using pymatgen
data_Hf16ZnFe3Ir4
_symmetry_space_group_name_H-M   'P 1'
_cell_length_a   8.59050357
_cell_length_b   8.59050285
_cell_length_c   8.59050300
_cell_angle_alpha   60.12057359
_cell_angle_beta   60.12057633
_cell_angle_gamma   60.12057965
_symmetry_Int_Tables_number   1
_chemical_formula_structural   Hf16ZnFe3Ir4
_chemical_formula_sum   'Hf16 Zn1 Fe3 Ir4'
_cell_volume   449.49570203
_cell_formula_units_Z   1
loop_
 _symmetry_equiv_pos_site_id
 _symmetry_equiv_pos_as_xyz
  1  'x, y, z'
loop_
 _atom_site_type_symbol
 _atom_site_label
 _atom_site_symmetry_multiplicity
 _atom_site_fract_x
 _atom_site_fract_y
 _atom_site_fract_z
 _atom_site_occupancy
  Hf  Hf0  1  0.670427  0.114312  0.114312  1
  Hf  Hf1  1  0.114312  0.670427  0.114312  1
  Hf  Hf2  1  0.114312  0.114312  0.670427  1
  Hf  Hf3  1  0.103519  0.103519  0.103519  1
  Hf  Hf4  1  0.312861  0.312861  0.688709  1
  Hf  Hf5  1  0.687936  0.687936  0.314234  1
  Hf  Hf6  1  0.312861  0.688709  0.312861  1
  Hf  Hf7  1  0.687936  0.314234  0.687936  1
  Hf  Hf8  1  0.688709  0.312861  0.312861  1
  Hf  Hf9  1  0.314234  0.687936  0.687936  1
  Hf  Hf10  1  0.948534  0.948534  0.539255  1
  Hf  Hf11  1  0.557425  0.557425  0.942931  1
  Hf  Hf12  1  0.948534  0.539255  0.948534  1
  Hf  Hf13  1  0.557425  0.942931  0.557425  1
  Hf  Hf14  1  0.539255  0.948534  0.948534  1
  Hf  Hf15  1  0.942931  0.557425  0.557425  1
  Zn  Zn16  1  0.894711  0.894711  0.894711  1
  Fe  Fe17  1  0.320434  0.892201  0.892201  1
  Fe  Fe18  1  0.892201  0.320434  0.892201  1
  Fe  Fe19  1  0.892201  0.892201  0.320434  1
  Ir  Ir20  1  0.996509  0.333965  0.333965  1
  Ir  Ir21  1  0.333965  0.996509  0.333965  1
  Ir  Ir22  1  0.333965  0.333965  0.996509  1
  Ir  Ir23  1  0.334801  0.334801  0.334801  1
