# generated using pymatgen
data_Zr18Re8IrPt
_symmetry_space_group_name_H-M   'P 1'
_cell_length_a   8.73979800
_cell_length_b   8.73979842
_cell_length_c   8.67763000
_cell_angle_alpha   90.00000000
_cell_angle_beta   90.00000000
_cell_angle_gamma   120.00000598
_symmetry_Int_Tables_number   1
_chemical_formula_structural   Zr18Re8IrPt
_chemical_formula_sum   'Zr18 Re8 Ir1 Pt1'
_cell_volume   574.02994049
_cell_formula_units_Z   1
loop_
 _symmetry_equiv_pos_site_id
 _symmetry_equiv_pos_as_xyz
  1  'x, y, z'
loop_
 _atom_site_type_symbol
 _atom_site_label
 _atom_site_symmetry_multiplicity
 _atom_site_fract_x
 _atom_site_fract_y
 _atom_site_fract_z
 _atom_site_occupancy
  Zr  Zr0  1  0.193968  0.806032  0.446543  1
  Zr  Zr1  1  0.193968  0.387937  0.446543  1
  Zr  Zr2  1  0.612063  0.806032  0.446543  1
  Zr  Zr3  1  0.804540  0.195460  0.554812  1
  Zr  Zr4  1  0.804540  0.609079  0.554812  1
  Zr  Zr5  1  0.390921  0.195460  0.554812  1
  Zr  Zr6  1  0.804540  0.195460  0.945188  1
  Zr  Zr7  1  0.804540  0.609079  0.945188  1
  Zr  Zr8  1  0.390921  0.195460  0.945188  1
  Zr  Zr9  1  0.193968  0.806032  0.053457  1
  Zr  Zr10  1  0.193968  0.387937  0.053457  1
  Zr  Zr11  1  0.612063  0.806032  0.053457  1
  Zr  Zr12  1  0.542998  0.457002  0.250000  1
  Zr  Zr13  1  0.542998  0.085994  0.250000  1
  Zr  Zr14  1  0.914006  0.457002  0.250000  1
  Zr  Zr15  1  0.457308  0.542692  0.750000  1
  Zr  Zr16  1  0.457308  0.914617  0.750000  1
  Zr  Zr17  1  0.085383  0.542692  0.750000  1
  Re  Re18  1  0.892531  0.107469  0.250000  1
  Re  Re19  1  0.892531  0.785062  0.250000  1
  Re  Re20  1  0.214938  0.107469  0.250000  1
  Re  Re21  1  0.107438  0.892562  0.750000  1
  Re  Re22  1  0.107438  0.214875  0.750000  1
  Re  Re23  1  0.785125  0.892562  0.750000  1
  Re  Re24  1  0.000000  0.000000  0.500101  1
  Re  Re25  1  0.000000  0.000000  0.999899  1
  Ir  Ir26  1  0.666667  0.333333  0.750000  1
  Pt  Pt27  1  0.333333  0.666667  0.250000  1
