# generated using pymatgen
data_Li3HoEr2Si2Ge
_symmetry_space_group_name_H-M   'P 1'
_cell_length_a   6.96571445
_cell_length_b   6.94383021
_cell_length_c   4.23527000
_cell_angle_alpha   90.00000000
_cell_angle_beta   90.00000000
_cell_angle_gamma   119.89611908
_symmetry_Int_Tables_number   1
_chemical_formula_structural   Li3HoEr2Si2Ge
_chemical_formula_sum   'Li3 Ho1 Er2 Si2 Ge1'
_cell_volume   177.59476111
_cell_formula_units_Z   1
loop_
 _symmetry_equiv_pos_site_id
 _symmetry_equiv_pos_as_xyz
  1  'x, y, z'
loop_
 _atom_site_type_symbol
 _atom_site_label
 _atom_site_symmetry_multiplicity
 _atom_site_fract_x
 _atom_site_fract_y
 _atom_site_fract_z
 _atom_site_occupancy
  Li  Li0  1  0.234755  0.000175  0.500000  1
  Li  Li1  1  0.765245  0.765421  0.500000  1
  Li  Li2  1  0.000000  0.234446  0.500000  1
  Ho  Ho3  1  0.000000  0.572061  0.000000  1
  Er  Er4  1  0.572281  0.999997  0.000000  1
  Er  Er5  1  0.427719  0.427716  0.000000  1
  Si  Si6  1  0.334475  0.666990  0.500000  1
  Si  Si7  1  0.665525  0.332513  0.500000  1
  Ge  Ge8  1  0.000000  0.000681  0.000000  1
