# generated using pymatgen
data_Rb2Hg3Bi
_symmetry_space_group_name_H-M   'P 1'
_cell_length_a   6.97484765
_cell_length_b   6.99785417
_cell_length_c   6.99785406
_cell_angle_alpha   134.87527053
_cell_angle_beta   100.61285319
_cell_angle_gamma   96.38642827
_symmetry_Int_Tables_number   1
_chemical_formula_structural   Rb2Hg3Bi
_chemical_formula_sum   'Rb2 Hg3 Bi1'
_cell_volume   223.18568193
_cell_formula_units_Z   1
loop_
 _symmetry_equiv_pos_site_id
 _symmetry_equiv_pos_as_xyz
  1  'x, y, z'
loop_
 _atom_site_type_symbol
 _atom_site_label
 _atom_site_symmetry_multiplicity
 _atom_site_fract_x
 _atom_site_fract_y
 _atom_site_fract_z
 _atom_site_occupancy
  Rb  Rb0  1  0.313559  0.055584  0.257975  1
  Rb  Rb1  1  0.684089  0.943794  0.740295  1
  Hg  Hg2  1  0.906801  0.343271  0.563530  1
  Hg  Hg3  1  0.272111  0.335458  0.936651  1
  Hg  Hg4  1  0.730547  0.667273  0.063275  1
  Bi  Bi5  1  0.092894  0.654620  0.438274  1
