# generated using pymatgen
data_CdRh2F12
_symmetry_space_group_name_H-M   'P 1'
_cell_length_a   7.18942897
_cell_length_b   7.18942922
_cell_length_c   10.34135764
_cell_angle_alpha   68.83965642
_cell_angle_beta   68.83965470
_cell_angle_gamma   77.70302746
_symmetry_Int_Tables_number   1
_chemical_formula_structural   CdRh2F12
_chemical_formula_sum   'Cd2 Rh4 F24'
_cell_volume   462.76629010
_cell_formula_units_Z   2
loop_
 _symmetry_equiv_pos_site_id
 _symmetry_equiv_pos_as_xyz
  1  'x, y, z'
loop_
 _atom_site_type_symbol
 _atom_site_label
 _atom_site_symmetry_multiplicity
 _atom_site_fract_x
 _atom_site_fract_y
 _atom_site_fract_z
 _atom_site_occupancy
  Cd  Cd0  1  0.173237  0.826763  0.750000  1
  Cd  Cd1  1  0.826763  0.173237  0.250000  1
  Rh  Rh2  1  0.246719  0.256158  0.373673  1
  Rh  Rh3  1  0.256158  0.246719  0.873673  1
  Rh  Rh4  1  0.753281  0.743842  0.626327  1
  Rh  Rh5  1  0.743842  0.753281  0.126327  1
  F  F6  1  0.860950  0.868704  0.220555  1
  F  F7  1  0.139050  0.131296  0.779445  1
  F  F8  1  0.287655  0.988277  0.504225  1
  F  F9  1  0.990535  0.287808  0.504783  1
  F  F10  1  0.287808  0.990535  0.004783  1
  F  F11  1  0.366822  0.358481  0.464227  1
  F  F12  1  0.358481  0.366822  0.964227  1
  F  F13  1  0.868704  0.860950  0.720555  1
  F  F14  1  0.790429  0.487884  0.260211  1
  F  F15  1  0.011723  0.712345  0.995775  1
  F  F16  1  0.712345  0.011723  0.495775  1
  F  F17  1  0.988277  0.287655  0.004225  1
  F  F18  1  0.508049  0.212453  0.742077  1
  F  F19  1  0.633178  0.641519  0.535773  1
  F  F20  1  0.209571  0.512116  0.739789  1
  F  F21  1  0.641519  0.633178  0.035773  1
  F  F22  1  0.487884  0.790429  0.760211  1
  F  F23  1  0.787547  0.491951  0.757923  1
  F  F24  1  0.512116  0.209571  0.239789  1
  F  F25  1  0.491951  0.787547  0.257923  1
  F  F26  1  0.212453  0.508049  0.242077  1
  F  F27  1  0.712192  0.009465  0.995217  1
  F  F28  1  0.131296  0.139050  0.279445  1
  F  F29  1  0.009465  0.712192  0.495217  1
