# generated using pymatgen
data_CaNi(P4Os)3
_symmetry_space_group_name_H-M   'P 1'
_cell_length_a   6.98189548
_cell_length_b   7.01850932
_cell_length_c   6.98189500
_cell_angle_alpha   109.57747986
_cell_angle_beta   109.36473879
_cell_angle_gamma   109.57748769
_symmetry_Int_Tables_number   1
_chemical_formula_structural   CaNi(P4Os)3
_chemical_formula_sum   'Ca1 Ni1 P12 Os3'
_cell_volume   263.02587371
_cell_formula_units_Z   1
loop_
 _symmetry_equiv_pos_site_id
 _symmetry_equiv_pos_as_xyz
  1  'x, y, z'
loop_
 _atom_site_type_symbol
 _atom_site_label
 _atom_site_symmetry_multiplicity
 _atom_site_fract_x
 _atom_site_fract_y
 _atom_site_fract_z
 _atom_site_occupancy
  Ca  Ca0  1  0.000000  0.000000  0.000000  1
  Ni  Ni1  1  0.000000  0.500000  0.000000  1
  P  P2  1  0.858091  0.644232  0.501188  1
  P  P3  1  0.141909  0.355768  0.498812  1
  P  P4  1  0.141790  0.643464  0.788802  1
  P  P5  1  0.858210  0.356536  0.211198  1
  P  P6  1  0.647011  0.501675  0.858210  1
  P  P7  1  0.352989  0.498325  0.141790  1
  P  P8  1  0.643097  0.786142  0.141909  1
  P  P9  1  0.356903  0.213858  0.858091  1
  P  P10  1  0.501188  0.856956  0.643097  1
  P  P11  1  0.498812  0.143044  0.356903  1
  P  P12  1  0.788802  0.145337  0.647011  1
  P  P13  1  0.211198  0.854663  0.352989  1
  Os  Os14  1  0.500000  0.500000  0.500000  1
  Os  Os15  1  0.500000  0.000000  0.000000  1
  Os  Os16  1  0.000000  0.000000  0.500000  1
