# generated using pymatgen
data_Yb2DyErNi13C4
_symmetry_space_group_name_H-M   'P 1'
_cell_length_a   8.31538957
_cell_length_b   8.31652400
_cell_length_c   3.84585200
_cell_angle_alpha   90.00000000
_cell_angle_beta   90.00000000
_cell_angle_gamma   91.02275694
_symmetry_Int_Tables_number   1
_chemical_formula_structural   Yb2DyErNi13C4
_chemical_formula_sum   'Yb2 Dy1 Er1 Ni13 C4'
_cell_volume   265.91804991
_cell_formula_units_Z   1
loop_
 _symmetry_equiv_pos_site_id
 _symmetry_equiv_pos_as_xyz
  1  'x, y, z'
loop_
 _atom_site_type_symbol
 _atom_site_label
 _atom_site_symmetry_multiplicity
 _atom_site_fract_x
 _atom_site_fract_y
 _atom_site_fract_z
 _atom_site_occupancy
  Yb  Yb0  1  0.192452  0.808336  0.500000  1
  Yb  Yb1  1  0.651226  0.654206  0.500000  1
  Dy  Dy2  1  0.348330  0.350627  0.500000  1
  Er  Er3  1  0.813038  0.187671  0.500000  1
  Ni  Ni4  1  0.000902  0.000227  0.000000  1
  Ni  Ni5  1  0.214669  0.570853  0.000000  1
  Ni  Ni6  1  0.782823  0.428660  0.000000  1
  Ni  Ni7  1  0.427506  0.782620  0.000000  1
  Ni  Ni8  1  0.569976  0.214397  0.000000  1
  Ni  Ni9  1  0.998396  0.500564  0.500000  1
  Ni  Ni10  1  0.500158  0.003759  0.500000  1
  Ni  Ni11  1  0.072882  0.291276  0.000000  1
  Ni  Ni12  1  0.924872  0.711269  0.000000  1
  Ni  Ni13  1  0.710982  0.928173  0.000000  1
  Ni  Ni14  1  0.291057  0.075799  0.000000  1
  Ni  Ni15  1  0.124655  0.118036  0.500000  1
  Ni  Ni16  1  0.880996  0.875282  0.500000  1
  C  C17  1  0.998135  0.502531  0.000000  1
  C  C18  1  0.499047  0.996788  0.000000  1
  C  C19  1  0.442320  0.556415  0.000000  1
  C  C20  1  0.555579  0.442509  0.000000  1
