# generated using pymatgen
data_Ca2Ac3Pd4
_symmetry_space_group_name_H-M   'P 1'
_cell_length_a   8.15910400
_cell_length_b   8.00814401
_cell_length_c   8.16284046
_cell_angle_alpha   71.10779189
_cell_angle_beta   90.00000000
_cell_angle_gamma   90.00000000
_symmetry_Int_Tables_number   1
_chemical_formula_structural   Ca2Ac3Pd4
_chemical_formula_sum   'Ca4 Ac6 Pd8'
_cell_volume   504.62201150
_cell_formula_units_Z   2
loop_
 _symmetry_equiv_pos_site_id
 _symmetry_equiv_pos_as_xyz
  1  'x, y, z'
loop_
 _atom_site_type_symbol
 _atom_site_label
 _atom_site_symmetry_multiplicity
 _atom_site_fract_x
 _atom_site_fract_y
 _atom_site_fract_z
 _atom_site_occupancy
  Ca  Ca0  1  0.997001  0.989972  0.000577  1
  Ca  Ca1  1  0.170806  0.752666  0.749092  1
  Ca  Ca2  1  0.670806  0.747334  0.250908  1
  Ca  Ca3  1  0.497001  0.510028  0.999423  1
  Ac  Ac4  1  0.322818  0.069415  0.303169  1
  Ac  Ac5  1  0.181759  0.579109  0.299509  1
  Ac  Ac6  1  0.822818  0.430585  0.696831  1
  Ac  Ac7  1  0.330051  0.255049  0.748252  1
  Ac  Ac8  1  0.681759  0.920891  0.700491  1
  Ac  Ac9  1  0.830051  0.244951  0.251748  1
  Pd  Pd10  1  0.869452  0.627715  0.986952  1
  Pd  Pd11  1  0.966665  0.848841  0.423578  1
  Pd  Pd12  1  0.128610  0.371746  0.012049  1
  Pd  Pd13  1  0.532837  0.355347  0.420223  1
  Pd  Pd14  1  0.369452  0.872285  0.013048  1
  Pd  Pd15  1  0.466665  0.651159  0.576422  1
  Pd  Pd16  1  0.032837  0.144653  0.579777  1
  Pd  Pd17  1  0.628610  0.128254  0.987951  1
