# generated using pymatgen
data_Nd4Y6Si7Ir
_symmetry_space_group_name_H-M   'P 1'
_cell_length_a   7.75961835
_cell_length_b   7.80596319
_cell_length_c   14.44141400
_cell_angle_alpha   90.00000000
_cell_angle_beta   90.00000000
_cell_angle_gamma   90.15662668
_symmetry_Int_Tables_number   1
_chemical_formula_structural   Nd4Y6Si7Ir
_chemical_formula_sum   'Nd8 Y12 Si14 Ir2'
_cell_volume   874.73188224
_cell_formula_units_Z   2
loop_
 _symmetry_equiv_pos_site_id
 _symmetry_equiv_pos_as_xyz
  1  'x, y, z'
loop_
 _atom_site_type_symbol
 _atom_site_label
 _atom_site_symmetry_multiplicity
 _atom_site_fract_x
 _atom_site_fract_y
 _atom_site_fract_z
 _atom_site_occupancy
  Nd  Nd0  1  0.630814  0.990582  0.458383  1
  Nd  Nd1  1  0.369186  0.009418  0.958383  1
  Nd  Nd2  1  0.988106  0.635531  0.541734  1
  Nd  Nd3  1  0.492834  0.864959  0.203783  1
  Nd  Nd4  1  0.507166  0.135041  0.703783  1
  Nd  Nd5  1  0.862642  0.494454  0.794014  1
  Nd  Nd6  1  0.137358  0.505546  0.294014  1
  Nd  Nd7  1  0.011894  0.364469  0.041734  1
  Y  Y8  1  0.491746  0.359927  0.121557  1
  Y  Y9  1  0.992996  0.133502  0.625445  1
  Y  Y10  1  0.863522  0.016078  0.878394  1
  Y  Y11  1  0.136478  0.983922  0.378394  1
  Y  Y12  1  0.508254  0.640073  0.621557  1
  Y  Y13  1  0.364721  0.492087  0.876264  1
  Y  Y14  1  0.635279  0.507913  0.376264  1
  Y  Y15  1  0.007004  0.866498  0.125445  1
  Y  Y16  1  0.312427  0.305477  0.502742  1
  Y  Y17  1  0.187976  0.823217  0.744583  1
  Y  Y18  1  0.812024  0.176783  0.244583  1
  Y  Y19  1  0.687573  0.694523  0.002742  1
  Si  Si20  1  0.930445  0.289385  0.437300  1
  Si  Si21  1  0.429504  0.211124  0.310942  1
  Si  Si22  1  0.570496  0.788876  0.810942  1
  Si  Si23  1  0.209828  0.435487  0.690487  1
  Si  Si24  1  0.790172  0.564513  0.190487  1
  Si  Si25  1  0.069555  0.710615  0.937300  1
  Si  Si26  1  0.796732  0.844641  0.692467  1
  Si  Si27  1  0.203268  0.155359  0.192467  1
  Si  Si28  1  0.844127  0.791020  0.309925  1
  Si  Si29  1  0.340770  0.696144  0.441780  1
  Si  Si30  1  0.659230  0.303856  0.941780  1
  Si  Si31  1  0.704322  0.344381  0.558014  1
  Si  Si32  1  0.295678  0.655619  0.058014  1
  Si  Si33  1  0.155873  0.208980  0.809925  1
  Ir  Ir34  1  0.288496  0.933869  0.562187  1
  Ir  Ir35  1  0.711504  0.066131  0.062187  1
