# generated using pymatgen
data_Dy3Sc2Sn2Sb
_symmetry_space_group_name_H-M   'P 1'
_cell_length_a   8.80155300
_cell_length_b   8.79849543
_cell_length_c   6.21979600
_cell_angle_alpha   90.00000000
_cell_angle_beta   90.00000000
_cell_angle_gamma   119.98851123
_symmetry_Int_Tables_number   1
_chemical_formula_structural   Dy3Sc2Sn2Sb
_chemical_formula_sum   'Dy6 Sc4 Sn4 Sb2'
_cell_volume   417.18122929
_cell_formula_units_Z   2
loop_
 _symmetry_equiv_pos_site_id
 _symmetry_equiv_pos_as_xyz
  1  'x, y, z'
loop_
 _atom_site_type_symbol
 _atom_site_label
 _atom_site_symmetry_multiplicity
 _atom_site_fract_x
 _atom_site_fract_y
 _atom_site_fract_z
 _atom_site_occupancy
  Dy  Dy0  1  0.759901  0.001166  0.750000  1
  Dy  Dy1  1  0.759901  0.758737  0.250000  1
  Dy  Dy2  1  0.241454  0.997819  0.250000  1
  Dy  Dy3  1  0.241454  0.243635  0.750000  1
  Dy  Dy4  1  0.998959  0.758934  0.750000  1
  Dy  Dy5  1  0.998959  0.240026  0.250000  1
  Sc  Sc6  1  0.332962  0.666481  0.500000  1
  Sc  Sc7  1  0.667492  0.333745  0.000000  1
  Sc  Sc8  1  0.667492  0.333745  0.500000  1
  Sc  Sc9  1  0.332962  0.666481  0.000000  1
  Sn  Sn10  1  0.000173  0.598907  0.250000  1
  Sn  Sn11  1  0.000173  0.401267  0.750000  1
  Sn  Sn12  1  0.600797  0.601052  0.750000  1
  Sn  Sn13  1  0.600797  0.999745  0.250000  1
  Sb  Sb14  1  0.398261  0.000438  0.750000  1
  Sb  Sb15  1  0.398261  0.397823  0.250000  1
