# generated using pymatgen
data_ErTm3Sb10
_symmetry_space_group_name_H-M   'P 1'
_cell_length_a   4.20217100
_cell_length_b   13.13185299
_cell_length_c   14.56633619
_cell_angle_alpha   78.39094091
_cell_angle_beta   90.00000000
_cell_angle_gamma   90.00000000
_symmetry_Int_Tables_number   1
_chemical_formula_structural   ErTm3Sb10
_chemical_formula_sum   'Er2 Tm6 Sb20'
_cell_volume   787.36075718
_cell_formula_units_Z   2
loop_
 _symmetry_equiv_pos_site_id
 _symmetry_equiv_pos_as_xyz
  1  'x, y, z'
loop_
 _atom_site_type_symbol
 _atom_site_label
 _atom_site_symmetry_multiplicity
 _atom_site_fract_x
 _atom_site_fract_y
 _atom_site_fract_z
 _atom_site_occupancy
  Er  Er0  1  0.250000  0.953758  0.359137  1
  Er  Er1  1  0.750000  0.046242  0.640863  1
  Tm  Tm2  1  0.250000  0.395517  0.770624  1
  Tm  Tm3  1  0.750000  0.604483  0.229376  1
  Tm  Tm4  1  0.250000  0.661535  0.856132  1
  Tm  Tm5  1  0.750000  0.338465  0.143868  1
  Tm  Tm6  1  0.250000  0.668459  0.576244  1
  Tm  Tm7  1  0.750000  0.331541  0.423756  1
  Sb  Sb8  1  0.250000  0.144226  0.778360  1
  Sb  Sb9  1  0.750000  0.855774  0.221640  1
  Sb  Sb10  1  0.250000  0.144331  0.483179  1
  Sb  Sb11  1  0.750000  0.855669  0.516821  1
  Sb  Sb12  1  0.250000  0.153616  0.170229  1
  Sb  Sb13  1  0.750000  0.846384  0.829771  1
  Sb  Sb14  1  0.250000  0.420828  0.975572  1
  Sb  Sb15  1  0.750000  0.579172  0.024428  1
  Sb  Sb16  1  0.750000  0.028997  0.910827  1
  Sb  Sb17  1  0.250000  0.971003  0.089173  1
  Sb  Sb18  1  0.750000  0.139905  0.322081  1
  Sb  Sb19  1  0.250000  0.860095  0.677919  1
  Sb  Sb20  1  0.750000  0.279182  0.936547  1
  Sb  Sb21  1  0.250000  0.720818  0.063453  1
  Sb  Sb22  1  0.750000  0.285209  0.653078  1
  Sb  Sb23  1  0.250000  0.714791  0.346922  1
  Sb  Sb24  1  0.750000  0.576544  0.734344  1
  Sb  Sb25  1  0.250000  0.423456  0.265656  1
  Sb  Sb26  1  0.750000  0.571609  0.447152  1
  Sb  Sb27  1  0.250000  0.428391  0.552848  1
