# generated using pymatgen
data_Tm8Co(Si4Pt)3
_symmetry_space_group_name_H-M   'P 1'
_cell_length_a   8.09293400
_cell_length_b   8.09293449
_cell_length_c   7.77768100
_cell_angle_alpha   90.00000000
_cell_angle_beta   90.00000000
_cell_angle_gamma   119.99999800
_symmetry_Int_Tables_number   1
_chemical_formula_structural   Tm8Co(Si4Pt)3
_chemical_formula_sum   'Tm8 Co1 Si12 Pt3'
_cell_volume   441.15660982
_cell_formula_units_Z   1
loop_
 _symmetry_equiv_pos_site_id
 _symmetry_equiv_pos_as_xyz
  1  'x, y, z'
loop_
 _atom_site_type_symbol
 _atom_site_label
 _atom_site_symmetry_multiplicity
 _atom_site_fract_x
 _atom_site_fract_y
 _atom_site_fract_z
 _atom_site_occupancy
  Tm  Tm0  1  0.508967  0.017934  0.245757  1
  Tm  Tm1  1  0.486971  0.973942  0.752603  1
  Tm  Tm2  1  0.982066  0.491033  0.245757  1
  Tm  Tm3  1  0.026058  0.513029  0.752603  1
  Tm  Tm4  1  0.508967  0.491033  0.245757  1
  Tm  Tm5  1  0.486971  0.513029  0.752603  1
  Tm  Tm6  1  0.000000  0.000000  0.248630  1
  Tm  Tm7  1  0.000000  0.000000  0.752141  1
  Co  Co8  1  0.333333  0.666667  0.041000  1
  Si  Si9  1  0.173011  0.346020  0.004816  1
  Si  Si10  1  0.836697  0.673396  0.996780  1
  Si  Si11  1  0.653980  0.826989  0.004816  1
  Si  Si12  1  0.834665  0.669331  0.501906  1
  Si  Si13  1  0.326604  0.163303  0.996780  1
  Si  Si14  1  0.164836  0.329670  0.498059  1
  Si  Si15  1  0.173011  0.826989  0.004816  1
  Si  Si16  1  0.330669  0.165335  0.501906  1
  Si  Si17  1  0.836697  0.163303  0.996780  1
  Si  Si18  1  0.670330  0.835164  0.498059  1
  Si  Si19  1  0.834665  0.165335  0.501906  1
  Si  Si20  1  0.164836  0.835164  0.498059  1
  Pt  Pt21  1  0.666667  0.333333  0.962994  1
  Pt  Pt22  1  0.666667  0.333333  0.537024  1
  Pt  Pt23  1  0.333333  0.666667  0.458450  1
