# generated using pymatgen
data_La8Er2OsRu3
_symmetry_space_group_name_H-M   'P 1'
_cell_length_a   6.69222841
_cell_length_b   7.28003089
_cell_length_c   8.99945527
_cell_angle_alpha   94.49854429
_cell_angle_beta   111.21496580
_cell_angle_gamma   89.97766502
_symmetry_Int_Tables_number   1
_chemical_formula_structural   La8Er2OsRu3
_chemical_formula_sum   'La8 Er2 Os1 Ru3'
_cell_volume   407.29199330
_cell_formula_units_Z   1
loop_
 _symmetry_equiv_pos_site_id
 _symmetry_equiv_pos_as_xyz
  1  'x, y, z'
loop_
 _atom_site_type_symbol
 _atom_site_label
 _atom_site_symmetry_multiplicity
 _atom_site_fract_x
 _atom_site_fract_y
 _atom_site_fract_z
 _atom_site_occupancy
  La  La0  1  0.797966  0.590365  0.818092  1
  La  La1  1  0.976909  0.907536  0.181179  1
  La  La2  1  0.204787  0.406066  0.182079  1
  La  La3  1  0.021420  0.090789  0.817618  1
  La  La4  1  0.211589  0.681489  0.577631  1
  La  La5  1  0.634714  0.817749  0.427434  1
  La  La6  1  0.790200  0.319787  0.422230  1
  La  La7  1  0.363637  0.183976  0.572629  1
  Er  Er8  1  0.434284  0.750354  0.999746  1
  Er  Er9  1  0.566659  0.247383  0.998223  1
  Os  Os10  1  0.601085  0.926999  0.784593  1
  Ru  Ru11  1  0.819019  0.577006  0.214269  1
  Ru  Ru12  1  0.395622  0.077013  0.217923  1
  Ru  Ru13  1  0.182110  0.423488  0.786355  1
