# generated using pymatgen
data_Er(HfH5)3
_symmetry_space_group_name_H-M   'P 1'
_cell_length_a   7.00616847
_cell_length_b   7.02205677
_cell_length_c   7.05778714
_cell_angle_alpha   109.54480452
_cell_angle_beta   109.45394842
_cell_angle_gamma   109.16259485
_symmetry_Int_Tables_number   1
_chemical_formula_structural   Er(HfH5)3
_chemical_formula_sum   'Er2 Hf6 H30'
_cell_volume   268.12211411
_cell_formula_units_Z   2
loop_
 _symmetry_equiv_pos_site_id
 _symmetry_equiv_pos_as_xyz
  1  'x, y, z'
loop_
 _atom_site_type_symbol
 _atom_site_label
 _atom_site_symmetry_multiplicity
 _atom_site_fract_x
 _atom_site_fract_y
 _atom_site_fract_z
 _atom_site_occupancy
  Er  Er0  1  0.909660  0.908358  0.907760  1
  Er  Er1  1  0.501899  0.000597  0.092240  1
  Hf  Hf2  1  0.004649  0.108649  0.504806  1
  Hf  Hf3  1  0.105468  0.497625  0.001031  1
  Hf  Hf4  1  0.999843  0.603843  0.495194  1
  Hf  Hf5  1  0.604435  0.496595  0.998969  1
  Hf  Hf6  1  0.498022  0.000478  0.594250  1
  Hf  Hf7  1  0.403772  0.406228  0.405750  1
  H  H8  1  0.665915  0.977228  0.399687  1
  H  H9  1  0.224294  0.303732  0.847237  1
  H  H10  1  0.194745  0.424246  0.540764  1
  H  H11  1  0.089032  0.286744  0.126552  1
  H  H12  1  0.281043  0.136245  0.103586  1
  H  H13  1  0.127819  0.101124  0.291591  1
  H  H14  1  0.462480  0.160190  0.873448  1
  H  H15  1  0.723090  0.340701  0.809856  1
  H  H16  1  0.625496  0.382524  0.251954  1
  H  H17  1  0.239196  0.622178  0.367770  1
  H  H18  1  0.760622  0.871695  0.141089  1
  H  H19  1  0.119535  0.730607  0.858911  1
  H  H20  1  0.371426  0.254408  0.632230  1
  H  H21  1  0.873543  0.130570  0.748046  1
  H  H22  1  0.766227  0.577541  0.600313  1
  H  H23  1  0.305184  0.833595  0.227560  1
  H  H24  1  0.381593  0.639384  0.969696  1
  H  H25  1  0.974760  0.382945  0.659686  1
  H  H26  1  0.528316  0.195800  0.429048  1
  H  H27  1  0.413233  0.530845  0.190144  1
  H  H28  1  0.860817  0.236468  0.325510  1
  H  H29  1  0.911897  0.669688  0.030304  1
  H  H30  1  0.815073  0.723257  0.340314  1
  H  H31  1  0.153981  0.883482  0.459236  1
  H  H32  1  0.677457  0.032659  0.896414  1
  H  H33  1  0.336228  0.809531  0.708409  1
  H  H34  1  0.877057  0.456494  0.152763  1
  H  H35  1  0.599267  0.766752  0.570952  1
  H  H36  1  0.577623  0.606034  0.772440  1
  H  H37  1  0.035307  0.910958  0.674490  1
