# generated using pymatgen
data_Ho2ErTm5CdHgIr2
_symmetry_space_group_name_H-M   'P 1'
_cell_length_a   9.51300828
_cell_length_b   9.51098398
_cell_length_c   9.51947722
_cell_angle_alpha   59.98453665
_cell_angle_beta   59.96343263
_cell_angle_gamma   59.95219077
_symmetry_Int_Tables_number   1
_chemical_formula_structural   Ho2ErTm5CdHgIr2
_chemical_formula_sum   'Ho4 Er2 Tm10 Cd2 Hg2 Ir4'
_cell_volume   608.57410586
_cell_formula_units_Z   2
loop_
 _symmetry_equiv_pos_site_id
 _symmetry_equiv_pos_as_xyz
  1  'x, y, z'
loop_
 _atom_site_type_symbol
 _atom_site_label
 _atom_site_symmetry_multiplicity
 _atom_site_fract_x
 _atom_site_fract_y
 _atom_site_fract_z
 _atom_site_occupancy
  Ho  Ho0  1  0.811390  0.187845  0.811954  1
  Ho  Ho1  1  0.187845  0.811390  0.188811  1
  Ho  Ho2  1  0.811539  0.811539  0.188461  1
  Ho  Ho3  1  0.188255  0.188255  0.811745  1
  Er  Er4  1  0.188088  0.811124  0.811723  1
  Er  Er5  1  0.811124  0.188088  0.189065  1
  Tm  Tm6  1  0.599869  0.599856  0.598265  1
  Tm  Tm7  1  0.599856  0.599869  0.202012  1
  Tm  Tm8  1  0.601194  0.199160  0.599836  1
  Tm  Tm9  1  0.199160  0.601194  0.599811  1
  Tm  Tm10  1  0.060439  0.437837  0.440222  1
  Tm  Tm11  1  0.437837  0.060439  0.061501  1
  Tm  Tm12  1  0.437885  0.060426  0.440248  1
  Tm  Tm13  1  0.060426  0.437885  0.061439  1
  Tm  Tm14  1  0.438531  0.438531  0.061469  1
  Tm  Tm15  1  0.060221  0.060221  0.439779  1
  Cd  Cd16  1  0.829873  0.508413  0.830957  1
  Cd  Cd17  1  0.508413  0.829873  0.830756  1
  Hg  Hg18  1  0.833543  0.833239  0.835447  1
  Hg  Hg19  1  0.833239  0.833543  0.497770  1
  Ir  Ir20  1  0.392627  0.392341  0.391974  1
  Ir  Ir21  1  0.392341  0.392627  0.823059  1
  Ir  Ir22  1  0.392066  0.824238  0.391967  1
  Ir  Ir23  1  0.824238  0.392066  0.391731  1
