# generated using pymatgen
data_Be10CuIr
_symmetry_space_group_name_H-M   'P 1'
_cell_length_a   4.20281200
_cell_length_b   4.20281290
_cell_length_c   6.76550900
_cell_angle_alpha   90.00000000
_cell_angle_beta   90.00000000
_cell_angle_gamma   119.99999291
_symmetry_Int_Tables_number   1
_chemical_formula_structural   Be10CuIr
_chemical_formula_sum   'Be10 Cu1 Ir1'
_cell_volume   103.49304360
_cell_formula_units_Z   1
loop_
 _symmetry_equiv_pos_site_id
 _symmetry_equiv_pos_as_xyz
  1  'x, y, z'
loop_
 _atom_site_type_symbol
 _atom_site_label
 _atom_site_symmetry_multiplicity
 _atom_site_fract_x
 _atom_site_fract_y
 _atom_site_fract_z
 _atom_site_occupancy
  Be  Be0  1  0.338246  0.169124  0.053673  1
  Be  Be1  1  0.830878  0.169124  0.053673  1
  Be  Be2  1  0.830877  0.661754  0.053673  1
  Be  Be3  1  0.000000  0.000000  0.298163  1
  Be  Be4  1  0.666667  0.333333  0.369795  1
  Be  Be5  1  0.167440  0.334881  0.551041  1
  Be  Be6  1  0.167439  0.832562  0.551041  1
  Be  Be7  1  0.665121  0.832562  0.551041  1
  Be  Be8  1  0.000000  0.000000  0.801213  1
  Be  Be9  1  0.333333  0.666666  0.854501  1
  Cu  Cu10  1  0.333333  0.666666  0.243417  1
  Ir  Ir11  1  0.666667  0.333333  0.746904  1
