# generated using pymatgen
data_NaNdGd5PtBr12
_symmetry_space_group_name_H-M   'P 1'
_cell_length_a   9.36099330
_cell_length_b   9.33601804
_cell_length_c   9.40456500
_cell_angle_alpha   106.95991100
_cell_angle_beta   106.74792051
_cell_angle_gamma   107.52500703
_symmetry_Int_Tables_number   1
_chemical_formula_structural   NaNdGd5PtBr12
_chemical_formula_sum   'Na1 Nd1 Gd5 Pt1 Br12'
_cell_volume   683.01109640
_cell_formula_units_Z   1
loop_
 _symmetry_equiv_pos_site_id
 _symmetry_equiv_pos_as_xyz
  1  'x, y, z'
loop_
 _atom_site_type_symbol
 _atom_site_label
 _atom_site_symmetry_multiplicity
 _atom_site_fract_x
 _atom_site_fract_y
 _atom_site_fract_z
 _atom_site_occupancy
  Na  Na0  1  0.500253  0.501841  0.498342  1
  Nd  Nd1  1  0.887696  0.678696  0.972213  1
  Gd  Gd2  1  0.111076  0.318238  0.028819  1
  Gd  Gd3  1  0.327820  0.030385  0.116047  1
  Gd  Gd4  1  0.030252  0.114948  0.326525  1
  Gd  Gd5  1  0.971012  0.888167  0.676008  1
  Gd  Gd6  1  0.672022  0.967181  0.884384  1
  Pt  Pt7  1  0.999847  0.000013  0.000763  1
  Br  Br8  1  0.224073  0.681546  0.074817  1
  Br  Br9  1  0.453737  0.368780  0.150697  1
  Br  Br10  1  0.681481  0.074377  0.217921  1
  Br  Br11  1  0.925066  0.783073  0.322673  1
  Br  Br12  1  0.149712  0.454184  0.367280  1
  Br  Br13  1  0.370102  0.152294  0.453660  1
  Br  Br14  1  0.631231  0.851848  0.547137  1
  Br  Br15  1  0.849231  0.546579  0.627156  1
  Br  Br16  1  0.077093  0.220911  0.683433  1
  Br  Br17  1  0.319280  0.927747  0.783824  1
  Br  Br18  1  0.539028  0.626328  0.844775  1
  Br  Br19  1  0.779994  0.312866  0.923532  1
