# generated using pymatgen
data_GdTmSi3Rh
_symmetry_space_group_name_H-M   'P 1'
_cell_length_a   8.15268200
_cell_length_b   8.15287017
_cell_length_c   7.83946800
_cell_angle_alpha   90.00000000
_cell_angle_beta   90.00000000
_cell_angle_gamma   119.99923652
_symmetry_Int_Tables_number   1
_chemical_formula_structural   GdTmSi3Rh
_chemical_formula_sum   'Gd4 Tm4 Si12 Rh4'
_cell_volume   451.26494046
_cell_formula_units_Z   4
loop_
 _symmetry_equiv_pos_site_id
 _symmetry_equiv_pos_as_xyz
  1  'x, y, z'
loop_
 _atom_site_type_symbol
 _atom_site_label
 _atom_site_symmetry_multiplicity
 _atom_site_fract_x
 _atom_site_fract_y
 _atom_site_fract_z
 _atom_site_occupancy
  Gd  Gd0  1  0.999902  0.999806  0.750000  1
  Gd  Gd1  1  0.014816  0.507707  0.750000  1
  Gd  Gd2  1  0.492890  0.507707  0.750000  1
  Gd  Gd3  1  0.493080  0.986158  0.750000  1
  Tm  Tm4  1  0.999923  0.999846  0.249999  1
  Tm  Tm5  1  0.509142  0.018286  0.249999  1
  Tm  Tm6  1  0.509123  0.490642  0.249999  1
  Tm  Tm7  1  0.981519  0.490642  0.249999  1
  Si  Si8  1  0.167295  0.832568  0.004299  1
  Si  Si9  1  0.665272  0.832568  0.004299  1
  Si  Si10  1  0.167303  0.334607  0.004533  1
  Si  Si11  1  0.167303  0.334607  0.495467  1
  Si  Si12  1  0.167295  0.832568  0.495701  1
  Si  Si13  1  0.665272  0.832568  0.495701  1
  Si  Si14  1  0.331740  0.165924  0.495863  1
  Si  Si15  1  0.834184  0.165924  0.495863  1
  Si  Si16  1  0.834049  0.668098  0.495455  1
  Si  Si17  1  0.834049  0.668098  0.004546  1
  Si  Si18  1  0.331740  0.165924  0.004137  1
  Si  Si19  1  0.834184  0.165924  0.004137  1
  Rh  Rh20  1  0.333172  0.666346  0.044001  1
  Rh  Rh21  1  0.333172  0.666346  0.455999  1
  Rh  Rh22  1  0.666785  0.333571  0.518972  1
  Rh  Rh23  1  0.666785  0.333571  0.981028  1
