# generated using pymatgen
data_V12Si5Ni3N4
_symmetry_space_group_name_H-M   'P 1'
_cell_length_a   6.44392681
_cell_length_b   6.44392677
_cell_length_c   6.44392693
_cell_angle_alpha   90.22022430
_cell_angle_beta   90.22022377
_cell_angle_gamma   90.22022545
_symmetry_Int_Tables_number   1
_chemical_formula_structural   V12Si5Ni3N4
_chemical_formula_sum   'V12 Si5 Ni3 N4'
_cell_volume   267.57291721
_cell_formula_units_Z   1
loop_
 _symmetry_equiv_pos_site_id
 _symmetry_equiv_pos_as_xyz
  1  'x, y, z'
loop_
 _atom_site_type_symbol
 _atom_site_label
 _atom_site_symmetry_multiplicity
 _atom_site_fract_x
 _atom_site_fract_y
 _atom_site_fract_z
 _atom_site_occupancy
  V  V0  1  0.784174  0.953031  0.388098  1
  V  V1  1  0.708724  0.037071  0.867931  1
  V  V2  1  0.208408  0.453082  0.127514  1
  V  V3  1  0.296623  0.547555  0.625725  1
  V  V4  1  0.953031  0.388098  0.784174  1
  V  V5  1  0.037071  0.867931  0.708724  1
  V  V6  1  0.453082  0.127514  0.208408  1
  V  V7  1  0.547555  0.625725  0.296623  1
  V  V8  1  0.388098  0.784174  0.953031  1
  V  V9  1  0.867931  0.708724  0.037071  1
  V  V10  1  0.127514  0.208408  0.453082  1
  V  V11  1  0.625725  0.296623  0.547555  1
  Si  Si12  1  0.675803  0.675803  0.675803  1
  Si  Si13  1  0.571769  0.411871  0.937096  1
  Si  Si14  1  0.411871  0.937096  0.571769  1
  Si  Si15  1  0.937096  0.571769  0.411871  1
  Si  Si16  1  0.072267  0.072267  0.072267  1
  Ni  Ni17  1  0.175928  0.824637  0.317414  1
  Ni  Ni18  1  0.317414  0.175928  0.824637  1
  Ni  Ni19  1  0.824637  0.317414  0.175928  1
  N  N20  1  0.881778  0.129587  0.626012  1
  N  N21  1  0.626012  0.881778  0.129587  1
  N  N22  1  0.129587  0.626012  0.881778  1
  N  N23  1  0.377904  0.377904  0.377904  1
