# generated using pymatgen
data_YbY4Tm(CoSn6)2
_symmetry_space_group_name_H-M   'P 1'
_cell_length_a   8.45450380
_cell_length_b   8.45450489
_cell_length_c   13.14816481
_cell_angle_alpha   90.00590143
_cell_angle_beta   89.99410474
_cell_angle_gamma   148.48140894
_symmetry_Int_Tables_number   1
_chemical_formula_structural   YbY4Tm(CoSn6)2
_chemical_formula_sum   'Yb1 Y4 Tm1 Co2 Sn12'
_cell_volume   491.31091840
_cell_formula_units_Z   1
loop_
 _symmetry_equiv_pos_site_id
 _symmetry_equiv_pos_as_xyz
  1  'x, y, z'
loop_
 _atom_site_type_symbol
 _atom_site_label
 _atom_site_symmetry_multiplicity
 _atom_site_fract_x
 _atom_site_fract_y
 _atom_site_fract_z
 _atom_site_occupancy
  Yb  Yb0  1  0.899707  0.100293  0.403128  1
  Y  Y1  1  0.898913  0.101087  0.094528  1
  Y  Y2  1  0.101127  0.898873  0.595419  1
  Y  Y3  1  0.901286  0.098714  0.752060  1
  Y  Y4  1  0.100700  0.899300  0.905918  1
  Tm  Tm5  1  0.099452  0.900548  0.248938  1
  Co  Co6  1  0.298172  0.701828  0.249939  1
  Co  Co7  1  0.700372  0.299628  0.750015  1
  Sn  Sn8  1  0.757473  0.242527  0.572119  1
  Sn  Sn9  1  0.428056  0.571944  0.576390  1
  Sn  Sn10  1  0.573660  0.426340  0.423492  1
  Sn  Sn11  1  0.732613  0.267387  0.248977  1
  Sn  Sn12  1  0.266161  0.733839  0.750349  1
  Sn  Sn13  1  0.242828  0.757172  0.071439  1
  Sn  Sn14  1  0.243417  0.756583  0.428538  1
  Sn  Sn15  1  0.572905  0.427095  0.075354  1
  Sn  Sn16  1  0.454669  0.545331  0.248280  1
  Sn  Sn17  1  0.545695  0.454305  0.750935  1
  Sn  Sn18  1  0.756394  0.243606  0.928409  1
  Sn  Sn19  1  0.426398  0.573602  0.925773  1
