# generated using pymatgen
data_Er2Ga9NiIr2
_symmetry_space_group_name_H-M   'P 1'
_cell_length_a   7.51971143
_cell_length_b   7.51971208
_cell_length_c   9.40703500
_cell_angle_alpha   90.00000000
_cell_angle_beta   90.00000000
_cell_angle_gamma   119.90712329
_symmetry_Int_Tables_number   1
_chemical_formula_structural   Er2Ga9NiIr2
_chemical_formula_sum   'Er4 Ga18 Ni2 Ir4'
_cell_volume   461.09612141
_cell_formula_units_Z   2
loop_
 _symmetry_equiv_pos_site_id
 _symmetry_equiv_pos_as_xyz
  1  'x, y, z'
loop_
 _atom_site_type_symbol
 _atom_site_label
 _atom_site_symmetry_multiplicity
 _atom_site_fract_x
 _atom_site_fract_y
 _atom_site_fract_z
 _atom_site_occupancy
  Er  Er0  1  0.996677  0.665689  0.750000  1
  Er  Er1  1  0.003323  0.334311  0.250000  1
  Er  Er2  1  0.665689  0.996677  0.750000  1
  Er  Er3  1  0.334311  0.003323  0.250000  1
  Ga  Ga4  1  0.117112  0.117112  0.750000  1
  Ga  Ga5  1  0.882888  0.882888  0.250000  1
  Ga  Ga6  1  0.999284  0.329235  0.579507  1
  Ga  Ga7  1  0.000716  0.670765  0.420493  1
  Ga  Ga8  1  0.000716  0.670765  0.079507  1
  Ga  Ga9  1  0.329235  0.999284  0.920493  1
  Ga  Ga10  1  0.999284  0.329235  0.920493  1
  Ga  Ga11  1  0.670765  0.000716  0.079507  1
  Ga  Ga12  1  0.670765  0.000716  0.420493  1
  Ga  Ga13  1  0.329235  0.999284  0.579507  1
  Ga  Ga14  1  0.326016  0.326016  0.065572  1
  Ga  Ga15  1  0.673984  0.673984  0.934428  1
  Ga  Ga16  1  0.673984  0.673984  0.565572  1
  Ga  Ga17  1  0.326016  0.326016  0.434428  1
  Ga  Ga18  1  0.338494  0.544298  0.750000  1
  Ga  Ga19  1  0.661506  0.455702  0.250000  1
  Ga  Ga20  1  0.544298  0.338494  0.750000  1
  Ga  Ga21  1  0.455702  0.661506  0.250000  1
  Ni  Ni22  1  0.000000  0.000000  0.500000  1
  Ni  Ni23  1  0.000000  0.000000  0.000000  1
  Ir  Ir24  1  0.671939  0.328061  0.500000  1
  Ir  Ir25  1  0.328061  0.671939  0.500000  1
  Ir  Ir26  1  0.328061  0.671939  0.000000  1
  Ir  Ir27  1  0.671939  0.328061  0.000000  1
