# generated using pymatgen
data_Ho13Lu7(CoBi2)4
_symmetry_space_group_name_H-M   'P 1'
_cell_length_a   7.87926554
_cell_length_b   8.87536366
_cell_length_c   12.35883325
_cell_angle_alpha   89.97049564
_cell_angle_beta   90.06300999
_cell_angle_gamma   90.03303335
_symmetry_Int_Tables_number   1
_chemical_formula_structural   Ho13Lu7(CoBi2)4
_chemical_formula_sum   'Ho13 Lu7 Co4 Bi8'
_cell_volume   864.26907626
_cell_formula_units_Z   1
loop_
 _symmetry_equiv_pos_site_id
 _symmetry_equiv_pos_as_xyz
  1  'x, y, z'
loop_
 _atom_site_type_symbol
 _atom_site_label
 _atom_site_symmetry_multiplicity
 _atom_site_fract_x
 _atom_site_fract_y
 _atom_site_fract_z
 _atom_site_occupancy
  Ho  Ho0  1  0.348765  0.749955  0.699479  1
  Ho  Ho1  1  0.651382  0.249995  0.300227  1
  Ho  Ho2  1  0.847941  0.250419  0.800108  1
  Ho  Ho3  1  0.151542  0.749828  0.199981  1
  Ho  Ho4  1  0.883882  0.749481  0.812425  1
  Ho  Ho5  1  0.114621  0.250801  0.187716  1
  Ho  Ho6  1  0.384903  0.249833  0.686992  1
  Ho  Ho7  1  0.615230  0.750055  0.312958  1
  Ho  Ho8  1  0.175486  0.037689  0.937201  1
  Ho  Ho9  1  0.055420  0.749969  0.497481  1
  Ho  Ho10  1  0.944404  0.250104  0.502446  1
  Ho  Ho11  1  0.556007  0.250491  0.002439  1
  Ho  Ho12  1  0.446480  0.749213  0.997784  1
  Lu  Lu13  1  0.671891  0.538052  0.562356  1
  Lu  Lu14  1  0.328011  0.461952  0.437515  1
  Lu  Lu15  1  0.171898  0.461821  0.937659  1
  Lu  Lu16  1  0.327984  0.038092  0.437615  1
  Lu  Lu17  1  0.828041  0.538607  0.062684  1
  Lu  Lu18  1  0.671986  0.962032  0.562323  1
  Lu  Lu19  1  0.827639  0.961876  0.062659  1
  Co  Co20  1  0.063583  0.749143  0.992919  1
  Co  Co21  1  0.933099  0.251041  0.007830  1
  Co  Co22  1  0.564578  0.250020  0.507099  1
  Co  Co23  1  0.435468  0.749994  0.492764  1
  Bi  Bi24  1  0.569439  0.508880  0.826912  1
  Bi  Bi25  1  0.430153  0.491131  0.173028  1
  Bi  Bi26  1  0.069560  0.491135  0.672914  1
  Bi  Bi27  1  0.429813  0.008827  0.172802  1
  Bi  Bi28  1  0.930140  0.509013  0.327356  1
  Bi  Bi29  1  0.571062  0.990729  0.826623  1
  Bi  Bi30  1  0.930321  0.991067  0.327167  1
  Bi  Bi31  1  0.069272  0.008755  0.672538  1
