# generated using pymatgen
data_PuCdO4
_symmetry_space_group_name_H-M   'P 1'
_cell_length_a   3.48325400
_cell_length_b   5.00131711
_cell_length_c   5.00131757
_cell_angle_alpha   88.47289526
_cell_angle_beta   90.00000000
_cell_angle_gamma   90.00000000
_symmetry_Int_Tables_number   1
_chemical_formula_structural   PuCdO4
_chemical_formula_sum   'Pu1 Cd1 O4'
_cell_volume   87.09629723
_cell_formula_units_Z   1
loop_
 _symmetry_equiv_pos_site_id
 _symmetry_equiv_pos_as_xyz
  1  'x, y, z'
loop_
 _atom_site_type_symbol
 _atom_site_label
 _atom_site_symmetry_multiplicity
 _atom_site_fract_x
 _atom_site_fract_y
 _atom_site_fract_z
 _atom_site_occupancy
  Pu  Pu0  1  0.000000  0.000000  0.000000  1
  Cd  Cd1  1  0.499999  0.500001  0.500001  1
  O  O2  1  0.499999  0.180416  0.180416  1
  O  O3  1  0.000000  0.722231  0.277771  1
  O  O4  1  0.000000  0.277771  0.722231  1
  O  O5  1  0.499999  0.819584  0.819584  1
