# generated using pymatgen
data_DyLu4GaSb2
_symmetry_space_group_name_H-M   'P 1'
_cell_length_a   8.70619262
_cell_length_b   8.70619183
_cell_length_c   6.29292200
_cell_angle_alpha   90.00000000
_cell_angle_beta   90.00000000
_cell_angle_gamma   120.27703361
_symmetry_Int_Tables_number   1
_chemical_formula_structural   DyLu4GaSb2
_chemical_formula_sum   'Dy2 Lu8 Ga2 Sb4'
_cell_volume   411.92707403
_cell_formula_units_Z   2
loop_
 _symmetry_equiv_pos_site_id
 _symmetry_equiv_pos_as_xyz
  1  'x, y, z'
loop_
 _atom_site_type_symbol
 _atom_site_label
 _atom_site_symmetry_multiplicity
 _atom_site_fract_x
 _atom_site_fract_y
 _atom_site_fract_z
 _atom_site_occupancy
  Dy  Dy0  1  0.761144  0.761144  0.750000  1
  Dy  Dy1  1  0.235717  0.235717  0.250000  1
  Lu  Lu2  1  0.667819  0.325521  0.004015  1
  Lu  Lu3  1  0.325521  0.667819  0.004015  1
  Lu  Lu4  1  0.325521  0.667819  0.495985  1
  Lu  Lu5  1  0.667819  0.325521  0.495985  1
  Lu  Lu6  1  0.239162  0.997597  0.750000  1
  Lu  Lu7  1  0.997597  0.239162  0.750000  1
  Lu  Lu8  1  0.764111  0.014616  0.250000  1
  Lu  Lu9  1  0.014616  0.764111  0.250000  1
  Ga  Ga10  1  0.395929  0.000160  0.250000  1
  Ga  Ga11  1  0.000160  0.395929  0.250000  1
  Sb  Sb12  1  0.392462  0.392462  0.750000  1
  Sb  Sb13  1  0.601923  0.996974  0.750000  1
  Sb  Sb14  1  0.996974  0.601923  0.750000  1
  Sb  Sb15  1  0.613529  0.613529  0.250000  1
