# generated using pymatgen
data_HfZr(ScMn4)2
_symmetry_space_group_name_H-M   'P 1'
_cell_length_a   4.88877700
_cell_length_b   4.88877668
_cell_length_c   8.18094700
_cell_angle_alpha   90.00000000
_cell_angle_beta   90.00000000
_cell_angle_gamma   119.99999537
_symmetry_Int_Tables_number   1
_chemical_formula_structural   HfZr(ScMn4)2
_chemical_formula_sum   'Hf1 Zr1 Sc2 Mn8'
_cell_volume   169.33029231
_cell_formula_units_Z   1
loop_
 _symmetry_equiv_pos_site_id
 _symmetry_equiv_pos_as_xyz
  1  'x, y, z'
loop_
 _atom_site_type_symbol
 _atom_site_label
 _atom_site_symmetry_multiplicity
 _atom_site_fract_x
 _atom_site_fract_y
 _atom_site_fract_z
 _atom_site_occupancy
  Hf  Hf0  1  0.333333  0.666667  0.063692  1
  Zr  Zr1  1  0.666667  0.333333  0.563849  1
  Sc  Sc2  1  0.666667  0.333333  0.936713  1
  Sc  Sc3  1  0.333333  0.666667  0.436189  1
  Mn  Mn4  1  0.000000  0.000000  0.999620  1
  Mn  Mn5  1  0.000000  0.000000  0.499668  1
  Mn  Mn6  1  0.829565  0.659129  0.248786  1
  Mn  Mn7  1  0.170674  0.829326  0.751304  1
  Mn  Mn8  1  0.658652  0.829326  0.751304  1
  Mn  Mn9  1  0.340871  0.170435  0.248786  1
  Mn  Mn10  1  0.829565  0.170435  0.248786  1
  Mn  Mn11  1  0.170674  0.341348  0.751304  1
