# generated using pymatgen
data_Dy3Ho9Tc3Ni
_symmetry_space_group_name_H-M   'P 1'
_cell_length_a   6.26191315
_cell_length_b   7.29927909
_cell_length_c   9.15828500
_cell_angle_alpha   90.00000000
_cell_angle_beta   90.00000000
_cell_angle_gamma   90.16527980
_symmetry_Int_Tables_number   1
_chemical_formula_structural   Dy3Ho9Tc3Ni
_chemical_formula_sum   'Dy3 Ho9 Tc3 Ni1'
_cell_volume   418.60012732
_cell_formula_units_Z   1
loop_
 _symmetry_equiv_pos_site_id
 _symmetry_equiv_pos_as_xyz
  1  'x, y, z'
loop_
 _atom_site_type_symbol
 _atom_site_label
 _atom_site_symmetry_multiplicity
 _atom_site_fract_x
 _atom_site_fract_y
 _atom_site_fract_z
 _atom_site_occupancy
  Dy  Dy0  1  0.871320  0.541232  0.250000  1
  Dy  Dy1  1  0.140264  0.457299  0.750000  1
  Dy  Dy2  1  0.372409  0.956563  0.750000  1
  Ho  Ho3  1  0.327997  0.677933  0.066984  1
  Ho  Ho4  1  0.164479  0.176874  0.437176  1
  Ho  Ho5  1  0.667380  0.322696  0.562644  1
  Ho  Ho6  1  0.833385  0.823477  0.938371  1
  Ho  Ho7  1  0.667380  0.322696  0.937356  1
  Ho  Ho8  1  0.833385  0.823477  0.561629  1
  Ho  Ho9  1  0.327997  0.677933  0.433016  1
  Ho  Ho10  1  0.164479  0.176874  0.062824  1
  Ho  Ho11  1  0.624776  0.040747  0.250000  1
  Tc  Tc12  1  0.037363  0.886746  0.250000  1
  Tc  Tc13  1  0.460446  0.389083  0.250000  1
  Tc  Tc14  1  0.959870  0.112413  0.750000  1
  Ni  Ni15  1  0.547071  0.613955  0.750000  1
