# generated using pymatgen
data_Tb3YZnCo
_symmetry_space_group_name_H-M   'P 1'
_cell_length_a   9.38133814
_cell_length_b   9.38915920
_cell_length_c   9.38993831
_cell_angle_alpha   59.96263316
_cell_angle_beta   60.02766235
_cell_angle_gamma   60.02129647
_symmetry_Int_Tables_number   1
_chemical_formula_structural   Tb3YZnCo
_chemical_formula_sum   'Tb12 Y4 Zn4 Co4'
_cell_volume   584.89369283
_cell_formula_units_Z   4
loop_
 _symmetry_equiv_pos_site_id
 _symmetry_equiv_pos_as_xyz
  1  'x, y, z'
loop_
 _atom_site_type_symbol
 _atom_site_label
 _atom_site_symmetry_multiplicity
 _atom_site_fract_x
 _atom_site_fract_y
 _atom_site_fract_z
 _atom_site_occupancy
  Tb  Tb0  1  0.599578  0.600121  0.600097  1
  Tb  Tb1  1  0.600142  0.599664  0.200237  1
  Tb  Tb2  1  0.600200  0.200278  0.599521  1
  Tb  Tb3  1  0.200093  0.600215  0.600178  1
  Tb  Tb4  1  0.058723  0.441268  0.441135  1
  Tb  Tb5  1  0.441242  0.058664  0.058862  1
  Tb  Tb6  1  0.441050  0.058818  0.441017  1
  Tb  Tb7  1  0.058876  0.441135  0.059015  1
  Tb  Tb8  1  0.440951  0.441166  0.058955  1
  Tb  Tb9  1  0.059068  0.058884  0.440983  1
  Tb  Tb10  1  0.188429  0.811585  0.811549  1
  Tb  Tb11  1  0.811615  0.188353  0.188391  1
  Y  Y12  1  0.811903  0.187965  0.811982  1
  Y  Y13  1  0.188278  0.811873  0.188105  1
  Y  Y14  1  0.811718  0.811960  0.188054  1
  Y  Y15  1  0.188163  0.188006  0.811904  1
  Zn  Zn16  1  0.827037  0.827203  0.827120  1
  Zn  Zn17  1  0.827050  0.827114  0.518761  1
  Zn  Zn18  1  0.827125  0.518647  0.827076  1
  Zn  Zn19  1  0.518684  0.827178  0.827093  1
  Co  Co20  1  0.391391  0.391644  0.391643  1
  Co  Co21  1  0.391670  0.391304  0.825378  1
  Co  Co22  1  0.391700  0.825323  0.391288  1
  Co  Co23  1  0.825310  0.391634  0.391652  1
