# generated using pymatgen
data_Pr3Cd(Mo2O7)2
_symmetry_space_group_name_H-M   'P 1'
_cell_length_a   7.41270561
_cell_length_b   7.61478384
_cell_length_c   7.58801018
_cell_angle_alpha   120.39242472
_cell_angle_beta   120.04221056
_cell_angle_gamma   90.30588505
_symmetry_Int_Tables_number   1
_chemical_formula_structural   Pr3Cd(Mo2O7)2
_chemical_formula_sum   'Pr3 Cd1 Mo4 O14'
_cell_volume   300.02592804
_cell_formula_units_Z   1
loop_
 _symmetry_equiv_pos_site_id
 _symmetry_equiv_pos_as_xyz
  1  'x, y, z'
loop_
 _atom_site_type_symbol
 _atom_site_label
 _atom_site_symmetry_multiplicity
 _atom_site_fract_x
 _atom_site_fract_y
 _atom_site_fract_z
 _atom_site_occupancy
  Pr  Pr0  1  0.375000  0.625000  0.750000  1
  Pr  Pr1  1  0.375000  0.625000  0.250000  1
  Pr  Pr2  1  0.375000  0.125000  0.750000  1
  Cd  Cd3  1  0.875000  0.625000  0.250000  1
  Mo  Mo4  1  0.875000  0.625000  0.750000  1
  Mo  Mo5  1  0.375000  0.125000  0.250000  1
  Mo  Mo6  1  0.875000  0.125000  0.250000  1
  Mo  Mo7  1  0.875000  0.125000  0.750000  1
  O  O8  1  0.790714  0.183297  0.985323  1
  O  O9  1  0.541052  0.461321  0.490834  1
  O  O10  1  0.203932  0.209684  0.000604  1
  O  O11  1  0.953542  0.449342  0.502173  1
  O  O12  1  0.802897  0.811355  0.604113  1
  O  O13  1  0.530708  0.039890  0.076881  1
  O  O14  1  0.234595  0.744562  0.490782  1
  O  O15  1  0.947103  0.438645  0.895887  1
  O  O16  1  0.959286  0.066703  0.514677  1
  O  O17  1  0.546068  0.040316  0.499396  1
  O  O18  1  0.219292  0.210110  0.423119  1
  O  O19  1  0.515405  0.505438  0.009218  1
  O  O20  1  0.796458  0.800658  0.997827  1
  O  O21  1  0.208948  0.788679  0.009166  1
