# generated using pymatgen
data_YEr3Al8
_symmetry_space_group_name_H-M   'P 1'
_cell_length_a   9.59697673
_cell_length_b   9.59697580
_cell_length_c   9.59697501
_cell_angle_alpha   33.52524172
_cell_angle_beta   33.52525154
_cell_angle_gamma   33.52524675
_symmetry_Int_Tables_number   1
_chemical_formula_structural   YEr3Al8
_chemical_formula_sum   'Y1 Er3 Al8'
_cell_volume   240.14868427
_cell_formula_units_Z   1
loop_
 _symmetry_equiv_pos_site_id
 _symmetry_equiv_pos_as_xyz
  1  'x, y, z'
loop_
 _atom_site_type_symbol
 _atom_site_label
 _atom_site_symmetry_multiplicity
 _atom_site_fract_x
 _atom_site_fract_y
 _atom_site_fract_z
 _atom_site_occupancy
  Y  Y0  1  0.687467  0.687467  0.687467  1
  Er  Er1  1  0.187523  0.187523  0.187523  1
  Er  Er2  1  0.812747  0.812747  0.812747  1
  Er  Er3  1  0.312232  0.312232  0.312232  1
  Al  Al4  1  0.999875  0.999875  0.999875  1
  Al  Al5  1  0.500011  0.500011  0.500011  1
  Al  Al6  1  0.750133  0.250356  0.250356  1
  Al  Al7  1  0.249347  0.749975  0.749975  1
  Al  Al8  1  0.250356  0.750133  0.250356  1
  Al  Al9  1  0.749975  0.249347  0.749975  1
  Al  Al10  1  0.250356  0.250356  0.750133  1
  Al  Al11  1  0.749975  0.749975  0.249347  1
