# generated using pymatgen
data_TbDy9(SnSb)3
_symmetry_space_group_name_H-M   'P 1'
_cell_length_a   6.40962400
_cell_length_b   8.99581855
_cell_length_c   8.99772307
_cell_angle_alpha   119.99300677
_cell_angle_beta   89.99985562
_cell_angle_gamma   90.00027550
_symmetry_Int_Tables_number   1
_chemical_formula_structural   TbDy9(SnSb)3
_chemical_formula_sum   'Tb1 Dy9 Sn3 Sb3'
_cell_volume   449.33173681
_cell_formula_units_Z   1
loop_
 _symmetry_equiv_pos_site_id
 _symmetry_equiv_pos_as_xyz
  1  'x, y, z'
loop_
 _atom_site_type_symbol
 _atom_site_label
 _atom_site_symmetry_multiplicity
 _atom_site_fract_x
 _atom_site_fract_y
 _atom_site_fract_z
 _atom_site_occupancy
  Tb  Tb0  1  0.249998  0.757829  0.000000  1
  Dy  Dy1  1  0.500614  0.333333  0.666685  1
  Dy  Dy2  1  0.500614  0.666648  0.333315  1
  Dy  Dy3  1  0.999386  0.666650  0.333317  1
  Dy  Dy4  1  0.999386  0.333333  0.666683  1
  Dy  Dy5  1  0.749998  0.241670  0.000000  1
  Dy  Dy6  1  0.750001  0.758305  0.758273  1
  Dy  Dy7  1  0.750001  0.000033  0.241727  1
  Dy  Dy8  1  0.250001  0.242199  0.242210  1
  Dy  Dy9  1  0.250001  0.999989  0.757790  1
  Sn  Sn10  1  0.750000  0.607343  0.000000  1
  Sn  Sn11  1  0.750000  0.392697  0.392700  1
  Sn  Sn12  1  0.750000  0.999995  0.607300  1
  Sb  Sb13  1  0.249990  0.391289  0.000000  1
  Sb  Sb14  1  0.250006  0.608622  0.608556  1
  Sb  Sb15  1  0.250006  0.000066  0.391444  1
