# generated using pymatgen
data_Sm2Nb3Ni9P7
_symmetry_space_group_name_H-M   'P 1'
_cell_length_a   3.75152600
_cell_length_b   9.35928649
_cell_length_c   9.35928600
_cell_angle_alpha   119.99999828
_cell_angle_beta   90.00000000
_cell_angle_gamma   90.00000000
_symmetry_Int_Tables_number   1
_chemical_formula_structural   Sm2Nb3Ni9P7
_chemical_formula_sum   'Sm2 Nb3 Ni9 P7'
_cell_volume   284.59289907
_cell_formula_units_Z   1
loop_
 _symmetry_equiv_pos_site_id
 _symmetry_equiv_pos_as_xyz
  1  'x, y, z'
loop_
 _atom_site_type_symbol
 _atom_site_label
 _atom_site_symmetry_multiplicity
 _atom_site_fract_x
 _atom_site_fract_y
 _atom_site_fract_z
 _atom_site_occupancy
  Sm  Sm0  1  0.000000  0.666667  0.333333  1
  Sm  Sm1  1  0.500000  0.333333  0.666667  1
  Nb  Nb2  1  0.500000  0.776025  0.893354  1
  Nb  Nb3  1  0.500000  0.117329  0.223975  1
  Nb  Nb4  1  0.500000  0.106646  0.882671  1
  Ni  Ni5  1  0.000000  0.568788  0.936554  1
  Ni  Ni6  1  0.000000  0.367765  0.431212  1
  Ni  Ni7  1  0.000000  0.063446  0.632235  1
  Ni  Ni8  1  0.000000  0.870460  0.154661  1
  Ni  Ni9  1  0.000000  0.284202  0.129540  1
  Ni  Ni10  1  0.000000  0.845339  0.715798  1
  Ni  Ni11  1  0.500000  0.942667  0.385484  1
  Ni  Ni12  1  0.500000  0.442817  0.057333  1
  Ni  Ni13  1  0.500000  0.614516  0.557183  1
  P  P14  1  0.500000  0.708891  0.116482  1
  P  P15  1  0.500000  0.407592  0.291109  1
  P  P16  1  0.500000  0.883518  0.592408  1
  P  P17  1  0.000000  0.000000  0.000000  1
  P  P18  1  0.000000  0.586793  0.693439  1
  P  P19  1  0.000000  0.106646  0.413207  1
  P  P20  1  0.000000  0.306561  0.893354  1
