# generated using pymatgen
data_Tm6Lu7Th3(CdIr)4
_symmetry_space_group_name_H-M   'P 1'
_cell_length_a   9.59637436
_cell_length_b   9.58267588
_cell_length_c   9.58267600
_cell_angle_alpha   59.99999960
_cell_angle_beta   60.04720849
_cell_angle_gamma   60.04720917
_symmetry_Int_Tables_number   1
_chemical_formula_structural   Tm6Lu7Th3(CdIr)4
_chemical_formula_sum   'Tm6 Lu7 Th3 Cd4 Ir4'
_cell_volume   623.55578628
_cell_formula_units_Z   1
loop_
 _symmetry_equiv_pos_site_id
 _symmetry_equiv_pos_as_xyz
  1  'x, y, z'
loop_
 _atom_site_type_symbol
 _atom_site_label
 _atom_site_symmetry_multiplicity
 _atom_site_fract_x
 _atom_site_fract_y
 _atom_site_fract_z
 _atom_site_occupancy
  Tm  Tm0  1  0.185650  0.813930  0.813930  1
  Tm  Tm1  1  0.815969  0.184028  0.184028  1
  Tm  Tm2  1  0.815969  0.184028  0.815975  1
  Tm  Tm3  1  0.185650  0.813930  0.186490  1
  Tm  Tm4  1  0.815969  0.815975  0.184028  1
  Tm  Tm5  1  0.185650  0.186490  0.813930  1
  Lu  Lu6  1  0.197343  0.600886  0.600886  1
  Lu  Lu7  1  0.062852  0.438516  0.438516  1
  Lu  Lu8  1  0.435916  0.063905  0.063905  1
  Lu  Lu9  1  0.435916  0.063905  0.436272  1
  Lu  Lu10  1  0.062852  0.438516  0.060115  1
  Lu  Lu11  1  0.435916  0.436272  0.063905  1
  Lu  Lu12  1  0.062852  0.060115  0.438516  1
  Th  Th13  1  0.598679  0.601399  0.601399  1
  Th  Th14  1  0.598679  0.601399  0.198524  1
  Th  Th15  1  0.598679  0.198524  0.601399  1
  Cd  Cd16  1  0.836243  0.831141  0.831141  1
  Cd  Cd17  1  0.836243  0.831141  0.501476  1
  Cd  Cd18  1  0.836243  0.501476  0.831141  1
  Cd  Cd19  1  0.498609  0.833797  0.833797  1
  Ir  Ir20  1  0.391044  0.392073  0.392073  1
  Ir  Ir21  1  0.391044  0.392073  0.824810  1
  Ir  Ir22  1  0.391044  0.824810  0.392073  1
  Ir  Ir23  1  0.824986  0.391671  0.391671  1
