# generated using pymatgen
data_CsRb7Mn2(Mo3N8)2
_symmetry_space_group_name_H-M   'P 1'
_cell_length_a   6.00616454
_cell_length_b   8.39558400
_cell_length_c   12.08573200
_cell_angle_alpha   90.00000000
_cell_angle_beta   90.34311254
_cell_angle_gamma   90.00000000
_symmetry_Int_Tables_number   1
_chemical_formula_structural   CsRb7Mn2(Mo3N8)2
_chemical_formula_sum   'Cs1 Rb7 Mn2 Mo6 N16'
_cell_volume   609.41523784
_cell_formula_units_Z   1
loop_
 _symmetry_equiv_pos_site_id
 _symmetry_equiv_pos_as_xyz
  1  'x, y, z'
loop_
 _atom_site_type_symbol
 _atom_site_label
 _atom_site_symmetry_multiplicity
 _atom_site_fract_x
 _atom_site_fract_y
 _atom_site_fract_z
 _atom_site_occupancy
  Cs  Cs0  1  0.250000  0.854455  0.500000  1
  Rb  Rb1  1  0.750000  0.157683  0.000000  1
  Rb  Rb2  1  0.250000  0.884485  0.000000  1
  Rb  Rb3  1  0.750000  0.120958  0.500000  1
  Rb  Rb4  1  0.691478  0.390064  0.266954  1
  Rb  Rb5  1  0.192576  0.609853  0.232467  1
  Rb  Rb6  1  0.307424  0.609853  0.767533  1
  Rb  Rb7  1  0.808522  0.390064  0.733046  1
  Mn  Mn8  1  0.250000  0.365992  0.000000  1
  Mn  Mn9  1  0.750000  0.632620  0.500000  1
  Mo  Mo10  1  0.750000  0.612213  0.000000  1
  Mo  Mo11  1  0.250000  0.385842  0.500000  1
  Mo  Mo12  1  0.204264  0.122962  0.246975  1
  Mo  Mo13  1  0.704413  0.876310  0.251795  1
  Mo  Mo14  1  0.795587  0.876310  0.748205  1
  Mo  Mo15  1  0.295736  0.122962  0.753025  1
  N  N16  1  0.900843  0.054515  0.254853  1
  N  N17  1  0.401824  0.945248  0.241919  1
  N  N18  1  0.098176  0.945248  0.758081  1
  N  N19  1  0.599157  0.054515  0.745147  1
  N  N20  1  0.265548  0.253886  0.370538  1
  N  N21  1  0.765403  0.744058  0.129527  1
  N  N22  1  0.734597  0.744058  0.870473  1
  N  N23  1  0.234452  0.253886  0.629462  1
  N  N24  1  0.762930  0.755597  0.619698  1
  N  N25  1  0.262267  0.243327  0.880764  1
  N  N26  1  0.237733  0.243327  0.119236  1
  N  N27  1  0.737070  0.755597  0.380302  1
  N  N28  1  0.508009  0.509614  0.507031  1
  N  N29  1  0.006779  0.487442  0.993246  1
  N  N30  1  0.493221  0.487442  0.006754  1
  N  N31  1  0.991991  0.509614  0.492969  1
