# generated using pymatgen
data_PrSm(OsO3)6
_symmetry_space_group_name_H-M   'P 1'
_cell_length_a   7.48092400
_cell_length_b   5.32877983
_cell_length_c   8.23487714
_cell_angle_alpha   85.43334639
_cell_angle_beta   90.00000000
_cell_angle_gamma   90.00000000
_symmetry_Int_Tables_number   1
_chemical_formula_structural   PrSm(OsO3)6
_chemical_formula_sum   'Pr1 Sm1 Os6 O18'
_cell_volume   327.23461158
_cell_formula_units_Z   1
loop_
 _symmetry_equiv_pos_site_id
 _symmetry_equiv_pos_as_xyz
  1  'x, y, z'
loop_
 _atom_site_type_symbol
 _atom_site_label
 _atom_site_symmetry_multiplicity
 _atom_site_fract_x
 _atom_site_fract_y
 _atom_site_fract_z
 _atom_site_occupancy
  Pr  Pr0  1  0.750000  0.026633  0.573205  1
  Sm  Sm1  1  0.250000  0.969372  0.425610  1
  Os  Os2  1  0.494530  0.534820  0.693405  1
  Os  Os3  1  0.005470  0.534820  0.693405  1
  Os  Os4  1  0.996519  0.462618  0.306911  1
  Os  Os5  1  0.000564  0.998659  0.000621  1
  Os  Os6  1  0.503481  0.462618  0.306911  1
  Os  Os7  1  0.499436  0.998659  0.000621  1
  O  O8  1  0.965649  0.691038  0.123645  1
  O  O9  1  0.033835  0.305871  0.875956  1
  O  O10  1  0.060838  0.152461  0.211055  1
  O  O11  1  0.750000  0.369429  0.323884  1
  O  O12  1  0.038755  0.266468  0.527098  1
  O  O13  1  0.439162  0.152461  0.211055  1
  O  O14  1  0.534351  0.691038  0.123645  1
  O  O15  1  0.531041  0.733941  0.471893  1
  O  O16  1  0.750000  0.071807  0.017002  1
  O  O17  1  0.941466  0.842859  0.792305  1
  O  O18  1  0.750000  0.434215  0.684761  1
  O  O19  1  0.558534  0.842859  0.792305  1
  O  O20  1  0.250000  0.575997  0.311492  1
  O  O21  1  0.466165  0.305871  0.875956  1
  O  O22  1  0.968959  0.733941  0.471893  1
  O  O23  1  0.461245  0.266468  0.527098  1
  O  O24  1  0.250000  0.645627  0.672906  1
  O  O25  1  0.250000  0.929451  0.985361  1
