# generated using pymatgen
data_Sm2Zn19Au3
_symmetry_space_group_name_H-M   'P 1'
_cell_length_a   8.34900479
_cell_length_b   8.36780714
_cell_length_c   8.34451935
_cell_angle_alpha   100.10887825
_cell_angle_beta   99.77356793
_cell_angle_gamma   130.85052501
_symmetry_Int_Tables_number   1
_chemical_formula_structural   Sm2Zn19Au3
_chemical_formula_sum   'Sm2 Zn19 Au3'
_cell_volume   401.17957178
_cell_formula_units_Z   1
loop_
 _symmetry_equiv_pos_site_id
 _symmetry_equiv_pos_as_xyz
  1  'x, y, z'
loop_
 _atom_site_type_symbol
 _atom_site_label
 _atom_site_symmetry_multiplicity
 _atom_site_fract_x
 _atom_site_fract_y
 _atom_site_fract_z
 _atom_site_occupancy
  Sm  Sm0  1  0.994670  0.994930  0.992168  1
  Sm  Sm1  1  0.252369  0.752372  0.507084  1
  Zn  Zn2  1  0.836171  0.246832  0.171979  1
  Zn  Zn3  1  0.751754  0.250337  0.501221  1
  Zn  Zn4  1  0.499170  0.498854  0.998977  1
  Zn  Zn5  1  0.620537  0.371421  0.748083  1
  Zn  Zn6  1  0.125861  0.371226  0.750805  1
  Zn  Zn7  1  0.825962  0.660571  0.586193  1
  Zn  Zn8  1  0.914196  0.825403  0.328364  1
  Zn  Zn9  1  0.490255  0.574696  0.673221  1
  Zn  Zn10  1  0.073871  0.246918  0.416129  1
  Zn  Zn11  1  0.756496  0.929178  0.590509  1
  Zn  Zn12  1  0.342189  0.169430  0.415868  1
  Zn  Zn13  1  0.414485  0.503903  0.328375  1
  Zn  Zn14  1  0.181645  0.098177  0.672694  1
  Zn  Zn15  1  0.423301  0.096268  0.911635  1
  Zn  Zn16  1  0.338247  0.925736  0.173677  1
  Zn  Zn17  1  0.759250  0.174708  0.826870  1
  Zn  Zn18  1  0.177149  0.503868  0.083395  1
  Zn  Zn19  1  0.496867  0.821912  0.912265  1
  Zn  Zn20  1  0.905803  0.579284  0.085762  1
  Au  Au21  1  0.068813  0.653267  0.822159  1
  Au  Au22  1  0.624621  0.374676  0.250815  1
  Au  Au23  1  0.626318  0.876033  0.251752  1
