# generated using pymatgen
data_Ho16In4Os3Pt
_symmetry_space_group_name_H-M   'P 1'
_cell_length_a   9.60488952
_cell_length_b   9.64419195
_cell_length_c   9.64419300
_cell_angle_alpha   59.99999982
_cell_angle_beta   59.86454767
_cell_angle_gamma   59.86454968
_symmetry_Int_Tables_number   1
_chemical_formula_structural   Ho16In4Os3Pt
_chemical_formula_sum   'Ho16 In4 Os3 Pt1'
_cell_volume   630.40104160
_cell_formula_units_Z   1
loop_
 _symmetry_equiv_pos_site_id
 _symmetry_equiv_pos_as_xyz
  1  'x, y, z'
loop_
 _atom_site_type_symbol
 _atom_site_label
 _atom_site_symmetry_multiplicity
 _atom_site_fract_x
 _atom_site_fract_y
 _atom_site_fract_z
 _atom_site_occupancy
  Ho  Ho0  1  0.444080  0.435203  0.060359  1
  Ho  Ho1  1  0.653128  0.648807  0.049261  1
  Ho  Ho2  1  0.186769  0.808493  0.196244  1
  Ho  Ho3  1  0.059093  0.441952  0.057003  1
  Ho  Ho4  1  0.186769  0.808493  0.808493  1
  Ho  Ho5  1  0.059093  0.441952  0.441952  1
  Ho  Ho6  1  0.809970  0.191100  0.191100  1
  Ho  Ho7  1  0.653128  0.648807  0.648807  1
  Ho  Ho8  1  0.809970  0.191100  0.807831  1
  Ho  Ho9  1  0.186769  0.196244  0.808493  1
  Ho  Ho10  1  0.043679  0.652107  0.652107  1
  Ho  Ho11  1  0.444080  0.060359  0.060359  1
  Ho  Ho12  1  0.059093  0.057003  0.441952  1
  Ho  Ho13  1  0.653128  0.049261  0.648807  1
  Ho  Ho14  1  0.809970  0.807831  0.191100  1
  Ho  Ho15  1  0.444080  0.060359  0.435203  1
  In  In16  1  0.417491  0.416885  0.416885  1
  In  In17  1  0.417491  0.416885  0.748740  1
  In  In18  1  0.417491  0.748740  0.416885  1
  In  In19  1  0.750015  0.416662  0.416662  1
  Os  Os20  1  0.856922  0.860415  0.860415  1
  Os  Os21  1  0.856922  0.422247  0.860415  1
  Os  Os22  1  0.856922  0.860415  0.422247  1
  Pt  Pt23  1  0.423947  0.858684  0.858684  1
