# generated using pymatgen
data_Zr2Fe2Si7Ni10
_symmetry_space_group_name_H-M   'P 1'
_cell_length_a   9.10679869
_cell_length_b   9.11775857
_cell_length_c   3.63558000
_cell_angle_alpha   90.00000000
_cell_angle_beta   90.00000000
_cell_angle_gamma   120.11860679
_symmetry_Int_Tables_number   1
_chemical_formula_structural   Zr2Fe2Si7Ni10
_chemical_formula_sum   'Zr2 Fe2 Si7 Ni10'
_cell_volume   261.11863586
_cell_formula_units_Z   1
loop_
 _symmetry_equiv_pos_site_id
 _symmetry_equiv_pos_as_xyz
  1  'x, y, z'
loop_
 _atom_site_type_symbol
 _atom_site_label
 _atom_site_symmetry_multiplicity
 _atom_site_fract_x
 _atom_site_fract_y
 _atom_site_fract_z
 _atom_site_occupancy
  Zr  Zr0  1  0.998041  0.999848  0.000000  1
  Zr  Zr1  1  0.332545  0.666107  0.500000  1
  Fe  Fe2  1  0.879841  0.452595  0.500000  1
  Fe  Fe3  1  0.549263  0.427948  0.500000  1
  Si  Si4  1  0.667053  0.334093  0.000000  1
  Si  Si5  1  0.069632  0.455035  0.000000  1
  Si  Si6  1  0.258544  0.218861  0.500000  1
  Si  Si7  1  0.779657  0.039069  0.500000  1
  Si  Si8  1  0.960563  0.741472  0.500000  1
  Si  Si9  1  0.544877  0.614887  0.000000  1
  Si  Si10  1  0.386156  0.930608  0.000000  1
  Ni  Ni11  1  0.282075  0.389363  0.000000  1
  Ni  Ni12  1  0.107688  0.718099  0.000000  1
  Ni  Ni13  1  0.383644  0.176150  0.000000  1
  Ni  Ni14  1  0.793179  0.616842  0.000000  1
  Ni  Ni15  1  0.823176  0.207367  0.000000  1
  Ni  Ni16  1  0.236482  0.951565  0.500000  1
  Ni  Ni17  1  0.047505  0.283549  0.500000  1
  Ni  Ni18  1  0.716246  0.763645  0.500000  1
  Ni  Ni19  1  0.574155  0.122225  0.500000  1
  Ni  Ni20  1  0.609678  0.890671  0.000000  1
