# generated using pymatgen
data_Pr13Th3Mg2(CdIr2)2
_symmetry_space_group_name_H-M   'P 1'
_cell_length_a   10.06598063
_cell_length_b   10.08813020
_cell_length_c   10.07566038
_cell_angle_alpha   60.04361362
_cell_angle_beta   60.02449024
_cell_angle_gamma   60.04338441
_symmetry_Int_Tables_number   1
_chemical_formula_structural   Pr13Th3Mg2(CdIr2)2
_chemical_formula_sum   'Pr13 Th3 Mg2 Cd2 Ir4'
_cell_volume   724.08732359
_cell_formula_units_Z   1
loop_
 _symmetry_equiv_pos_site_id
 _symmetry_equiv_pos_as_xyz
  1  'x, y, z'
loop_
 _atom_site_type_symbol
 _atom_site_label
 _atom_site_symmetry_multiplicity
 _atom_site_fract_x
 _atom_site_fract_y
 _atom_site_fract_z
 _atom_site_occupancy
  Pr  Pr0  1  0.953537  0.348564  0.349254  1
  Pr  Pr1  1  0.810475  0.190333  0.189504  1
  Pr  Pr2  1  0.190871  0.810060  0.809928  1
  Pr  Pr3  1  0.190571  0.810378  0.189511  1
  Pr  Pr4  1  0.810191  0.189043  0.809756  1
  Pr  Pr5  1  0.191626  0.191747  0.808722  1
  Pr  Pr6  1  0.810551  0.810906  0.187440  1
  Pr  Pr7  1  0.944276  0.562364  0.561212  1
  Pr  Pr8  1  0.559404  0.940260  0.938356  1
  Pr  Pr9  1  0.561048  0.942208  0.561435  1
  Pr  Pr10  1  0.941833  0.560232  0.935747  1
  Pr  Pr11  1  0.561389  0.562624  0.940725  1
  Pr  Pr12  1  0.940831  0.937212  0.559220  1
  Th  Th13  1  0.344327  0.345099  0.344832  1
  Th  Th14  1  0.344853  0.346564  0.962610  1
  Th  Th15  1  0.344298  0.963791  0.346262  1
  Mg  Mg16  1  0.573304  0.576576  0.580595  1
  Mg  Mg17  1  0.573056  0.576786  0.269149  1
  Cd  Cd18  1  0.578994  0.259101  0.581230  1
  Cd  Cd19  1  0.257353  0.581638  0.580655  1
  Ir  Ir20  1  0.152451  0.141704  0.141078  1
  Ir  Ir21  1  0.151939  0.141210  0.565636  1
  Ir  Ir22  1  0.151097  0.565656  0.141205  1
  Ir  Ir23  1  0.561721  0.145941  0.145931  1
