# generated using pymatgen
data_Tb5Yb7(PrSn2)8
_symmetry_space_group_name_H-M   'P 1'
_cell_length_a   8.01239775
_cell_length_b   8.43489152
_cell_length_c   15.93954644
_cell_angle_alpha   90.02261668
_cell_angle_beta   90.07157002
_cell_angle_gamma   90.08523293
_symmetry_Int_Tables_number   1
_chemical_formula_structural   Tb5Yb7(PrSn2)8
_chemical_formula_sum   'Tb5 Yb7 Pr8 Sn16'
_cell_volume   1077.25150063
_cell_formula_units_Z   1
loop_
 _symmetry_equiv_pos_site_id
 _symmetry_equiv_pos_as_xyz
  1  'x, y, z'
loop_
 _atom_site_type_symbol
 _atom_site_label
 _atom_site_symmetry_multiplicity
 _atom_site_fract_x
 _atom_site_fract_y
 _atom_site_fract_z
 _atom_site_occupancy
  Tb  Tb0  1  0.334761  0.827465  0.875749  1
  Tb  Tb1  1  0.835350  0.671933  0.624238  1
  Tb  Tb2  1  0.665544  0.171041  0.374977  1
  Tb  Tb3  1  0.165676  0.328468  0.124095  1
  Tb  Tb4  1  0.666009  0.172868  0.124386  1
  Yb  Yb5  1  0.167675  0.329738  0.376282  1
  Yb  Yb6  1  0.333201  0.829023  0.623285  1
  Yb  Yb7  1  0.833457  0.671389  0.877202  1
  Yb  Yb8  1  0.163499  0.502385  0.750340  1
  Yb  Yb9  1  0.663595  0.997674  0.749860  1
  Yb  Yb10  1  0.836675  0.499651  0.250889  1
  Yb  Yb11  1  0.335265  0.001332  0.250625  1
  Pr  Pr12  1  0.492799  0.316390  0.903868  1
  Pr  Pr13  1  0.993451  0.183224  0.595558  1
  Pr  Pr14  1  0.505336  0.682394  0.403643  1
  Pr  Pr15  1  0.006808  0.816838  0.096083  1
  Pr  Pr16  1  0.506640  0.682291  0.095625  1
  Pr  Pr17  1  0.008076  0.817355  0.403669  1
  Pr  Pr18  1  0.492033  0.316392  0.595974  1
  Pr  Pr19  1  0.992526  0.182905  0.904479  1
  Sn  Sn20  1  0.326772  0.038732  0.038125  1
  Sn  Sn21  1  0.824943  0.461912  0.462077  1
  Sn  Sn22  1  0.675226  0.961362  0.537537  1
  Sn  Sn23  1  0.175927  0.538031  0.962506  1
  Sn  Sn24  1  0.670893  0.963407  0.962082  1
  Sn  Sn25  1  0.168809  0.537227  0.539924  1
  Sn  Sn26  1  0.331510  0.037401  0.460357  1
  Sn  Sn27  1  0.828066  0.461084  0.039745  1
  Sn  Sn28  1  0.534311  0.609176  0.748846  1
  Sn  Sn29  1  0.034340  0.890372  0.751120  1
  Sn  Sn30  1  0.467791  0.387694  0.248942  1
  Sn  Sn31  1  0.966185  0.109132  0.249376  1
  Sn  Sn32  1  0.291038  0.139297  0.750847  1
  Sn  Sn33  1  0.791007  0.361382  0.749509  1
  Sn  Sn34  1  0.707019  0.863163  0.249385  1
  Sn  Sn35  1  0.207789  0.639872  0.248793  1
