# generated using pymatgen
data_NdHo2Th(Al3Ir)6
_symmetry_space_group_name_H-M   'P 1'
_cell_length_a   7.59456172
_cell_length_b   7.59907917
_cell_length_c   9.50404100
_cell_angle_alpha   90.00000000
_cell_angle_beta   90.00000000
_cell_angle_gamma   119.48945432
_symmetry_Int_Tables_number   1
_chemical_formula_structural   NdHo2Th(Al3Ir)6
_chemical_formula_sum   'Nd1 Ho2 Th1 Al18 Ir6'
_cell_volume   477.43469645
_cell_formula_units_Z   1
loop_
 _symmetry_equiv_pos_site_id
 _symmetry_equiv_pos_as_xyz
  1  'x, y, z'
loop_
 _atom_site_type_symbol
 _atom_site_label
 _atom_site_symmetry_multiplicity
 _atom_site_fract_x
 _atom_site_fract_y
 _atom_site_fract_z
 _atom_site_occupancy
  Nd  Nd0  1  0.671444  0.994476  0.250000  1
  Ho  Ho1  1  0.003982  0.328667  0.750000  1
  Ho  Ho2  1  0.327812  0.004388  0.750000  1
  Th  Th3  1  0.994967  0.670805  0.250000  1
  Al  Al4  1  0.133181  0.133395  0.250000  1
  Al  Al5  1  0.872200  0.873735  0.750000  1
  Al  Al6  1  0.003082  0.332566  0.070282  1
  Al  Al7  1  0.999409  0.664363  0.918642  1
  Al  Al8  1  0.999409  0.664363  0.581358  1
  Al  Al9  1  0.338258  0.005251  0.429803  1
  Al  Al10  1  0.003082  0.332566  0.429718  1
  Al  Al11  1  0.664654  0.000409  0.577903  1
  Al  Al12  1  0.664654  0.000409  0.922097  1
  Al  Al13  1  0.338258  0.005251  0.070197  1
  Al  Al14  1  0.332273  0.332269  0.556028  1
  Al  Al15  1  0.663203  0.665287  0.456699  1
  Al  Al16  1  0.663203  0.665287  0.043301  1
  Al  Al17  1  0.332273  0.332269  0.943972  1
  Al  Al18  1  0.341734  0.546082  0.250000  1
  Al  Al19  1  0.658342  0.449202  0.750000  1
  Al  Al20  1  0.544262  0.338771  0.250000  1
  Al  Al21  1  0.449276  0.660365  0.750000  1
  Ir  Ir22  1  0.673020  0.329652  0.999580  1
  Ir  Ir23  1  0.326404  0.671165  0.999532  1
  Ir  Ir24  1  0.326404  0.671165  0.500468  1
  Ir  Ir25  1  0.673020  0.329652  0.500420  1
  Ir  Ir26  1  0.001098  0.999094  0.999478  1
  Ir  Ir27  1  0.001098  0.999094  0.500522  1
