# generated using pymatgen
data_Pa6Zn22BPd
_symmetry_space_group_name_H-M   'P 1'
_cell_length_a   8.96044871
_cell_length_b   8.96044751
_cell_length_c   8.96044900
_cell_angle_alpha   60.00000557
_cell_angle_beta   60.00001002
_cell_angle_gamma   60.00000223
_symmetry_Int_Tables_number   1
_chemical_formula_structural   Pa6Zn22BPd
_chemical_formula_sum   'Pa6 Zn22 B1 Pd1'
_cell_volume   508.71470480
_cell_formula_units_Z   1
loop_
 _symmetry_equiv_pos_site_id
 _symmetry_equiv_pos_as_xyz
  1  'x, y, z'
loop_
 _atom_site_type_symbol
 _atom_site_label
 _atom_site_symmetry_multiplicity
 _atom_site_fract_x
 _atom_site_fract_y
 _atom_site_fract_z
 _atom_site_occupancy
  Pa  Pa0  1  0.698270  0.301730  0.301730  1
  Pa  Pa1  1  0.301730  0.698270  0.698270  1
  Pa  Pa2  1  0.301730  0.698270  0.301730  1
  Pa  Pa3  1  0.698270  0.301730  0.698270  1
  Pa  Pa4  1  0.301730  0.301730  0.698270  1
  Pa  Pa5  1  0.698270  0.698270  0.301730  1
  Zn  Zn6  1  0.119710  0.119710  0.119710  1
  Zn  Zn7  1  0.880290  0.880290  0.880290  1
  Zn  Zn8  1  0.119710  0.119710  0.640870  1
  Zn  Zn9  1  0.119710  0.640870  0.119710  1
  Zn  Zn10  1  0.880290  0.880290  0.359130  1
  Zn  Zn11  1  0.880290  0.359130  0.880290  1
  Zn  Zn12  1  0.640870  0.119710  0.119710  1
  Zn  Zn13  1  0.359130  0.880290  0.880290  1
  Zn  Zn14  1  0.500000  0.000000  0.000000  1
  Zn  Zn15  1  0.000000  0.500000  0.500000  1
  Zn  Zn16  1  0.000000  0.500000  0.000000  1
  Zn  Zn17  1  0.500000  0.000000  0.500000  1
  Zn  Zn18  1  0.000000  0.000000  0.500000  1
  Zn  Zn19  1  0.500000  0.500000  0.000000  1
  Zn  Zn20  1  0.327321  0.327321  0.327321  1
  Zn  Zn21  1  0.672679  0.672679  0.672679  1
  Zn  Zn22  1  0.327321  0.327321  0.018035  1
  Zn  Zn23  1  0.327321  0.018035  0.327321  1
  Zn  Zn24  1  0.672679  0.672679  0.981965  1
  Zn  Zn25  1  0.672679  0.981965  0.672679  1
  Zn  Zn26  1  0.018035  0.327321  0.327321  1
  Zn  Zn27  1  0.981965  0.672679  0.672679  1
  B  B28  1  0.500000  0.500000  0.500000  1
  Pd  Pd29  1  0.000000  0.000000  0.000000  1
