# generated using pymatgen
data_Pr3Nd3Al18(Tc3Os4)2
_symmetry_space_group_name_H-M   'P 1'
_cell_length_a   8.91456000
_cell_length_b   8.91440220
_cell_length_c   9.71502600
_cell_angle_alpha   90.00000000
_cell_angle_beta   90.00000000
_cell_angle_gamma   120.00109600
_symmetry_Int_Tables_number   1
_chemical_formula_structural   Pr3Nd3Al18(Tc3Os4)2
_chemical_formula_sum   'Pr3 Nd3 Al18 Tc6 Os8'
_cell_volume   668.59317558
_cell_formula_units_Z   1
loop_
 _symmetry_equiv_pos_site_id
 _symmetry_equiv_pos_as_xyz
  1  'x, y, z'
loop_
 _atom_site_type_symbol
 _atom_site_label
 _atom_site_symmetry_multiplicity
 _atom_site_fract_x
 _atom_site_fract_y
 _atom_site_fract_z
 _atom_site_occupancy
  Pr  Pr0  1  0.194865  0.389897  0.250000  1
  Pr  Pr1  1  0.804931  0.609948  0.750000  1
  Pr  Pr2  1  0.610094  0.805103  0.250000  1
  Nd  Nd3  1  0.390167  0.195045  0.750000  1
  Nd  Nd4  1  0.194986  0.804969  0.250000  1
  Nd  Nd5  1  0.804837  0.195012  0.750000  1
  Al  Al6  1  0.333273  0.666751  0.006210  1
  Al  Al7  1  0.666597  0.333180  0.993561  1
  Al  Al8  1  0.666597  0.333180  0.506439  1
  Al  Al9  1  0.333273  0.666751  0.493790  1
  Al  Al10  1  0.165744  0.331435  0.576047  1
  Al  Al11  1  0.834424  0.668570  0.424075  1
  Al  Al12  1  0.668494  0.834363  0.575982  1
  Al  Al13  1  0.834424  0.668570  0.075925  1
  Al  Al14  1  0.331414  0.165583  0.424232  1
  Al  Al15  1  0.165744  0.331435  0.923953  1
  Al  Al16  1  0.165879  0.834403  0.575820  1
  Al  Al17  1  0.331414  0.165583  0.075768  1
  Al  Al18  1  0.834271  0.165758  0.424290  1
  Al  Al19  1  0.668494  0.834363  0.924018  1
  Al  Al20  1  0.834271  0.165758  0.075710  1
  Al  Al21  1  0.165879  0.834403  0.924180  1
  Al  Al22  1  0.000108  0.999885  0.250000  1
  Al  Al23  1  0.000110  0.000227  0.750000  1
  Tc  Tc24  1  0.574134  0.148530  0.250000  1
  Tc  Tc25  1  0.425827  0.851604  0.750000  1
  Tc  Tc26  1  0.851477  0.425886  0.250000  1
  Tc  Tc27  1  0.148596  0.574145  0.750000  1
  Tc  Tc28  1  0.574386  0.425649  0.250000  1
  Tc  Tc29  1  0.425583  0.574160  0.750000  1
  Os  Os30  1  0.499897  0.000081  0.999810  1
  Os  Os31  1  0.999998  0.499999  0.999954  1
  Os  Os32  1  0.499897  0.000081  0.500190  1
  Os  Os33  1  0.499897  0.499815  0.999815  1
  Os  Os34  1  0.999998  0.499999  0.500046  1
  Os  Os35  1  0.499897  0.499815  0.500185  1
  Os  Os36  1  0.000061  0.000032  0.999946  1
  Os  Os37  1  0.000061  0.000032  0.500054  1
