# generated using pymatgen
data_Y2Ho3ErPtI10
_symmetry_space_group_name_H-M   'P 1'
_cell_length_a   7.72771483
_cell_length_b   9.73191870
_cell_length_c   9.75146141
_cell_angle_alpha   107.03581806
_cell_angle_beta   96.70533396
_cell_angle_gamma   104.27698610
_symmetry_Int_Tables_number   1
_chemical_formula_structural   Y2Ho3ErPtI10
_chemical_formula_sum   'Y2 Ho3 Er1 Pt1 I10'
_cell_volume   665.24061088
_cell_formula_units_Z   1
loop_
 _symmetry_equiv_pos_site_id
 _symmetry_equiv_pos_as_xyz
  1  'x, y, z'
loop_
 _atom_site_type_symbol
 _atom_site_label
 _atom_site_symmetry_multiplicity
 _atom_site_fract_x
 _atom_site_fract_y
 _atom_site_fract_z
 _atom_site_occupancy
  Y  Y0  1  0.967864  0.287265  0.086451  1
  Y  Y1  1  0.031706  0.712857  0.913390  1
  Ho  Ho2  1  0.884548  0.958983  0.240359  1
  Ho  Ho3  1  0.114851  0.040860  0.759471  1
  Ho  Ho4  1  0.344820  0.122946  0.164504  1
  Er  Er5  1  0.656147  0.877338  0.836174  1
  Pt  Pt6  1  0.999296  0.999723  0.999596  1
  I  I7  1  0.351323  0.449211  0.272058  1
  I  I8  1  0.648309  0.551377  0.727984  1
  I  I9  1  0.914366  0.627773  0.181031  1
  I  I10  1  0.086080  0.372443  0.819105  1
  I  I11  1  0.455683  0.816863  0.092084  1
  I  I12  1  0.544139  0.182337  0.907186  1
  I  I13  1  0.255454  0.086063  0.461722  1
  I  I14  1  0.744437  0.913681  0.538531  1
  I  I15  1  0.772406  0.254678  0.345629  1
  I  I16  1  0.228570  0.745601  0.654724  1
