# generated using pymatgen
data_Np2MnN3
_symmetry_space_group_name_H-M   'P 1'
_cell_length_a   3.31476769
_cell_length_b   3.76626806
_cell_length_c   6.55489866
_cell_angle_alpha   106.69456301
_cell_angle_beta   104.64675264
_cell_angle_gamma   89.99523960
_symmetry_Int_Tables_number   1
_chemical_formula_structural   Np2MnN3
_chemical_formula_sum   'Np2 Mn1 N3'
_cell_volume   75.60402907
_cell_formula_units_Z   1
loop_
 _symmetry_equiv_pos_site_id
 _symmetry_equiv_pos_as_xyz
  1  'x, y, z'
loop_
 _atom_site_type_symbol
 _atom_site_label
 _atom_site_symmetry_multiplicity
 _atom_site_fract_x
 _atom_site_fract_y
 _atom_site_fract_z
 _atom_site_occupancy
  Np  Np0  1  0.354517  0.354498  0.709057  1
  Np  Np1  1  0.645483  0.645502  0.290943  1
  Mn  Mn2  1  0.000000  0.000000  0.000000  1
  N  N3  1  0.167922  0.167916  0.335833  1
  N  N4  1  0.832077  0.832084  0.664167  1
  N  N5  1  0.000000  0.500000  0.000000  1
