# generated using pymatgen
data_Tb4Ga10PdRh5
_symmetry_space_group_name_H-M   'P 1'
_cell_length_a   8.63826468
_cell_length_b   8.63826458
_cell_length_c   5.65190642
_cell_angle_alpha   70.89368310
_cell_angle_beta   70.89367885
_cell_angle_gamma   96.52791969
_symmetry_Int_Tables_number   1
_chemical_formula_structural   Tb4Ga10PdRh5
_chemical_formula_sum   'Tb4 Ga10 Pd1 Rh5'
_cell_volume   364.85890597
_cell_formula_units_Z   1
loop_
 _symmetry_equiv_pos_site_id
 _symmetry_equiv_pos_as_xyz
  1  'x, y, z'
loop_
 _atom_site_type_symbol
 _atom_site_label
 _atom_site_symmetry_multiplicity
 _atom_site_fract_x
 _atom_site_fract_y
 _atom_site_fract_z
 _atom_site_occupancy
  Tb  Tb0  1  0.865923  0.582782  0.775875  1
  Tb  Tb1  1  0.417218  0.134077  0.724125  1
  Tb  Tb2  1  0.134127  0.417133  0.223608  1
  Tb  Tb3  1  0.582867  0.865873  0.276392  1
  Ga  Ga4  1  0.091621  0.266003  0.816427  1
  Ga  Ga5  1  0.733997  0.908379  0.683573  1
  Ga  Ga6  1  0.908321  0.733888  0.174560  1
  Ga  Ga7  1  0.266112  0.091679  0.325440  1
  Ga  Ga8  1  0.500271  0.499729  0.750000  1
  Ga  Ga9  1  0.499690  0.500310  0.250000  1
  Ga  Ga10  1  0.796657  0.203343  0.750000  1
  Ga  Ga11  1  0.795681  0.204319  0.250000  1
  Ga  Ga12  1  0.202489  0.797511  0.750000  1
  Ga  Ga13  1  0.205126  0.794874  0.250000  1
  Pd  Pd14  1  0.000307  0.999693  0.250000  1
  Rh  Rh15  1  0.439072  0.738933  0.908428  1
  Rh  Rh16  1  0.738707  0.438924  0.411342  1
  Rh  Rh17  1  0.561076  0.261293  0.088658  1
  Rh  Rh18  1  0.999672  0.000328  0.750000  1
  Rh  Rh19  1  0.261067  0.560928  0.591572  1
