# generated using pymatgen
data_KPa2NiSe5
_symmetry_space_group_name_H-M   'P 1'
_cell_length_a   7.76274500
_cell_length_b   7.76274448
_cell_length_c   17.43602300
_cell_angle_alpha   90.00000000
_cell_angle_beta   90.00000000
_cell_angle_gamma   149.38481627
_symmetry_Int_Tables_number   1
_chemical_formula_structural   KPa2NiSe5
_chemical_formula_sum   'K2 Pa4 Ni2 Se10'
_cell_volume   535.08861625
_cell_formula_units_Z   2
loop_
 _symmetry_equiv_pos_site_id
 _symmetry_equiv_pos_as_xyz
  1  'x, y, z'
loop_
 _atom_site_type_symbol
 _atom_site_label
 _atom_site_symmetry_multiplicity
 _atom_site_fract_x
 _atom_site_fract_y
 _atom_site_fract_z
 _atom_site_occupancy
  K  K0  1  0.042533  0.957467  0.250000  1
  K  K1  1  0.957467  0.042533  0.750000  1
  Pa  Pa2  1  0.208009  0.791991  0.897896  1
  Pa  Pa3  1  0.791991  0.208009  0.397896  1
  Pa  Pa4  1  0.208009  0.791991  0.602104  1
  Pa  Pa5  1  0.791991  0.208009  0.102104  1
  Ni  Ni6  1  0.314372  0.685628  0.250000  1
  Ni  Ni7  1  0.685628  0.314372  0.750000  1
  Se  Se8  1  0.165717  0.834283  0.441431  1
  Se  Se9  1  0.834283  0.165717  0.941431  1
  Se  Se10  1  0.277595  0.722405  0.750000  1
  Se  Se11  1  0.412503  0.587497  0.359981  1
  Se  Se12  1  0.165717  0.834283  0.058569  1
  Se  Se13  1  0.587497  0.412503  0.859981  1
  Se  Se14  1  0.587497  0.412503  0.640019  1
  Se  Se15  1  0.412503  0.587497  0.140019  1
  Se  Se16  1  0.834283  0.165717  0.558569  1
  Se  Se17  1  0.722405  0.277595  0.250000  1
