# generated using pymatgen
data_Ac4Ru
_symmetry_space_group_name_H-M   'P 1'
_cell_length_a   7.99423961
_cell_length_b   7.99426514
_cell_length_c   7.99424135
_cell_angle_alpha   108.02593702
_cell_angle_beta   108.03239424
_cell_angle_gamma   112.39536905
_symmetry_Int_Tables_number   1
_chemical_formula_structural   Ac4Ru
_chemical_formula_sum   'Ac8 Ru2'
_cell_volume   392.51641033
_cell_formula_units_Z   2
loop_
 _symmetry_equiv_pos_site_id
 _symmetry_equiv_pos_as_xyz
  1  'x, y, z'
loop_
 _atom_site_type_symbol
 _atom_site_label
 _atom_site_symmetry_multiplicity
 _atom_site_fract_x
 _atom_site_fract_y
 _atom_site_fract_z
 _atom_site_occupancy
  Ac  Ac0  1  0.838198  0.047839  0.209640  1
  Ac  Ac1  1  0.411800  0.121440  0.709641  1
  Ac  Ac2  1  0.878553  0.588201  0.290359  1
  Ac  Ac3  1  0.838200  0.628560  0.790359  1
  Ac  Ac4  1  0.371447  0.161799  0.209641  1
  Ac  Ac5  1  0.411802  0.702161  0.290360  1
  Ac  Ac6  1  0.297844  0.588201  0.709650  1
  Ac  Ac7  1  0.952156  0.161799  0.790350  1
  Ru  Ru8  1  0.499978  0.499970  0.999992  1
  Ru  Ru9  1  0.750022  0.250030  0.500008  1
