# generated using pymatgen
data_Er6CuRh17
_symmetry_space_group_name_H-M   'P 1'
_cell_length_a   5.25292200
_cell_length_b   5.25342848
_cell_length_c   17.42212400
_cell_angle_alpha   90.00000000
_cell_angle_beta   90.00000000
_cell_angle_gamma   119.99121965
_symmetry_Int_Tables_number   1
_chemical_formula_structural   Er6CuRh17
_chemical_formula_sum   'Er6 Cu1 Rh17'
_cell_volume   416.40307352
_cell_formula_units_Z   1
loop_
 _symmetry_equiv_pos_site_id
 _symmetry_equiv_pos_as_xyz
  1  'x, y, z'
loop_
 _atom_site_type_symbol
 _atom_site_label
 _atom_site_symmetry_multiplicity
 _atom_site_fract_x
 _atom_site_fract_y
 _atom_site_fract_z
 _atom_site_occupancy
  Er  Er0  1  0.333333  0.666696  0.957633  1
  Er  Er1  1  0.666660  0.333324  0.041501  1
  Er  Er2  1  0.666660  0.333324  0.458499  1
  Er  Er3  1  0.333333  0.666696  0.542367  1
  Er  Er4  1  0.333328  0.666664  0.750000  1
  Er  Er5  1  0.666666  0.333321  0.250000  1
  Cu  Cu6  1  0.333386  0.666691  0.250000  1
  Rh  Rh7  1  0.169166  0.830839  0.373600  1
  Rh  Rh8  1  0.169152  0.338289  0.373585  1
  Rh  Rh9  1  0.661686  0.830834  0.373599  1
  Rh  Rh10  1  0.832509  0.167472  0.624503  1
  Rh  Rh11  1  0.832518  0.665062  0.624521  1
  Rh  Rh12  1  0.334949  0.167478  0.624509  1
  Rh  Rh13  1  0.832509  0.167472  0.875497  1
  Rh  Rh14  1  0.832518  0.665062  0.875479  1
  Rh  Rh15  1  0.334949  0.167478  0.875491  1
  Rh  Rh16  1  0.169166  0.830839  0.126400  1
  Rh  Rh17  1  0.169152  0.338289  0.126415  1
  Rh  Rh18  1  0.661686  0.830834  0.126401  1
  Rh  Rh19  1  0.666702  0.333392  0.750000  1
  Rh  Rh20  1  0.999985  0.999970  0.250000  1
  Rh  Rh21  1  0.999990  0.999975  0.750000  1
  Rh  Rh22  1  0.999997  0.000000  0.497558  1
  Rh  Rh23  1  0.999997  0.000000  0.002442  1
