# generated using pymatgen
data_Gd8CrSi16Mo11
_symmetry_space_group_name_H-M   'P 1'
_cell_length_a   6.72407500
_cell_length_b   6.82473020
_cell_length_c   12.68878300
_cell_angle_alpha   90.00000000
_cell_angle_beta   90.00000000
_cell_angle_gamma   90.01403697
_symmetry_Int_Tables_number   1
_chemical_formula_structural   Gd8CrSi16Mo11
_chemical_formula_sum   'Gd8 Cr1 Si16 Mo11'
_cell_volume   582.28820587
_cell_formula_units_Z   1
loop_
 _symmetry_equiv_pos_site_id
 _symmetry_equiv_pos_as_xyz
  1  'x, y, z'
loop_
 _atom_site_type_symbol
 _atom_site_label
 _atom_site_symmetry_multiplicity
 _atom_site_fract_x
 _atom_site_fract_y
 _atom_site_fract_z
 _atom_site_occupancy
  Gd  Gd0  1  0.002561  0.163956  0.092476  1
  Gd  Gd1  1  0.501662  0.333855  0.407537  1
  Gd  Gd2  1  0.498370  0.666128  0.905993  1
  Gd  Gd3  1  0.997557  0.834580  0.593886  1
  Gd  Gd4  1  0.997557  0.834580  0.906114  1
  Gd  Gd5  1  0.498370  0.666128  0.594007  1
  Gd  Gd6  1  0.501662  0.333855  0.092463  1
  Gd  Gd7  1  0.002561  0.163956  0.407524  1
  Cr  Cr8  1  0.337853  0.001738  0.750000  1
  Si  Si9  1  0.802786  0.368436  0.250000  1
  Si  Si10  1  0.302393  0.129797  0.250000  1
  Si  Si11  1  0.692713  0.874701  0.750000  1
  Si  Si12  1  0.198826  0.632533  0.750000  1
  Si  Si13  1  0.037032  0.864677  0.250000  1
  Si  Si14  1  0.535156  0.632494  0.250000  1
  Si  Si15  1  0.461598  0.362981  0.750000  1
  Si  Si16  1  0.968019  0.131807  0.750000  1
  Si  Si17  1  0.841928  0.457718  0.954146  1
  Si  Si18  1  0.341576  0.042431  0.549817  1
  Si  Si19  1  0.658528  0.957632  0.045028  1
  Si  Si20  1  0.158060  0.542201  0.453970  1
  Si  Si21  1  0.158060  0.542201  0.046030  1
  Si  Si22  1  0.658528  0.957632  0.454972  1
  Si  Si23  1  0.341576  0.042431  0.950183  1
  Si  Si24  1  0.841928  0.457718  0.545854  1
  Mo  Mo25  1  0.664703  0.999898  0.250000  1
  Mo  Mo26  1  0.165718  0.497840  0.250000  1
  Mo  Mo27  1  0.833630  0.501442  0.750000  1
  Mo  Mo28  1  0.830606  0.665799  0.125271  1
  Mo  Mo29  1  0.332889  0.834513  0.375497  1
  Mo  Mo30  1  0.668657  0.166933  0.874030  1
  Mo  Mo31  1  0.167391  0.335084  0.625866  1
  Mo  Mo32  1  0.167391  0.335084  0.874134  1
  Mo  Mo33  1  0.668657  0.166933  0.625970  1
  Mo  Mo34  1  0.332889  0.834513  0.124503  1
  Mo  Mo35  1  0.830606  0.665799  0.374729  1
