# generated using pymatgen
data_Li3In(Rh3W)2
_symmetry_space_group_name_H-M   'P 1'
_cell_length_a   4.35515900
_cell_length_b   6.12598400
_cell_length_c   12.97222400
_cell_angle_alpha   90.00000000
_cell_angle_beta   90.00000000
_cell_angle_gamma   90.00000000
_symmetry_Int_Tables_number   1
_chemical_formula_structural   Li3In(Rh3W)2
_chemical_formula_sum   'Li6 In2 Rh12 W4'
_cell_volume   346.09419305
_cell_formula_units_Z   2
loop_
 _symmetry_equiv_pos_site_id
 _symmetry_equiv_pos_as_xyz
  1  'x, y, z'
loop_
 _atom_site_type_symbol
 _atom_site_label
 _atom_site_symmetry_multiplicity
 _atom_site_fract_x
 _atom_site_fract_y
 _atom_site_fract_z
 _atom_site_occupancy
  Li  Li0  1  0.000005  0.500000  0.002403  1
  Li  Li1  1  0.499882  0.000000  0.168348  1
  Li  Li2  1  0.999882  0.500000  0.331652  1
  Li  Li3  1  0.500005  0.000000  0.497597  1
  Li  Li4  1  0.000092  0.500000  0.667681  1
  Li  Li5  1  0.500092  0.000000  0.832319  1
  In  In6  1  0.000090  0.000000  0.668271  1
  In  In7  1  0.500090  0.500000  0.831729  1
  Rh  Rh8  1  0.500011  0.246479  0.009656  1
  Rh  Rh9  1  0.500011  0.753522  0.009656  1
  Rh  Rh10  1  0.999902  0.250255  0.169721  1
  Rh  Rh11  1  0.999902  0.749745  0.169721  1
  Rh  Rh12  1  0.499902  0.249745  0.330279  1
  Rh  Rh13  1  0.499902  0.750254  0.330279  1
  Rh  Rh14  1  0.000011  0.253522  0.490344  1
  Rh  Rh15  1  0.000011  0.746479  0.490344  1
  Rh  Rh16  1  0.500094  0.259183  0.653854  1
  Rh  Rh17  1  0.500094  0.740816  0.653854  1
  Rh  Rh18  1  0.000094  0.240817  0.846146  1
  Rh  Rh19  1  0.000094  0.759183  0.846146  1
  W  W20  1  0.000026  0.000000  0.001160  1
  W  W21  1  0.499890  0.500000  0.167309  1
  W  W22  1  0.999890  0.000000  0.332690  1
  W  W23  1  0.500026  0.500000  0.498840  1
