# generated using pymatgen
data_La2Y5Ho13Si15Pd
_symmetry_space_group_name_H-M   'P 1'
_cell_length_a   7.42548679
_cell_length_b   7.76470695
_cell_length_c   14.66229356
_cell_angle_alpha   89.58898372
_cell_angle_beta   89.96336677
_cell_angle_gamma   89.90332512
_symmetry_Int_Tables_number   1
_chemical_formula_structural   La2Y5Ho13Si15Pd
_chemical_formula_sum   'La2 Y5 Ho13 Si15 Pd1'
_cell_volume   845.35676370
_cell_formula_units_Z   1
loop_
 _symmetry_equiv_pos_site_id
 _symmetry_equiv_pos_as_xyz
  1  'x, y, z'
loop_
 _atom_site_type_symbol
 _atom_site_label
 _atom_site_symmetry_multiplicity
 _atom_site_fract_x
 _atom_site_fract_y
 _atom_site_fract_z
 _atom_site_occupancy
  La  La0  1  0.522756  0.571150  0.342111  1
  La  La1  1  0.023064  0.428583  0.657061  1
  Y  Y2  1  0.973461  0.066521  0.152519  1
  Y  Y3  1  0.473011  0.934842  0.153400  1
  Y  Y4  1  0.971912  0.066962  0.848625  1
  Y  Y5  1  0.527158  0.566483  0.652330  1
  Y  Y6  1  0.027671  0.434004  0.347729  1
  Ho  Ho7  1  0.811035  0.576322  0.875052  1
  Ho  Ho8  1  0.315827  0.423696  0.125504  1
  Ho  Ho9  1  0.182293  0.928146  0.373372  1
  Ho  Ho10  1  0.682172  0.069749  0.626928  1
  Ho  Ho11  1  0.182742  0.927949  0.628271  1
  Ho  Ho12  1  0.682722  0.070872  0.371560  1
  Ho  Ho13  1  0.816085  0.571976  0.126010  1
  Ho  Ho14  1  0.319303  0.428021  0.873361  1
  Ho  Ho15  1  0.644124  0.232426  0.999212  1
  Ho  Ho16  1  0.155938  0.758657  0.000674  1
  Ho  Ho17  1  0.351318  0.263069  0.500048  1
  Ho  Ho18  1  0.850212  0.736138  0.499902  1
  Ho  Ho19  1  0.474786  0.933764  0.845921  1
  Si  Si20  1  0.018627  0.352485  0.000000  1
  Si  Si21  1  0.477000  0.859814  0.501177  1
  Si  Si22  1  0.977743  0.139785  0.499006  1
  Si  Si23  1  0.649907  0.277164  0.790865  1
  Si  Si24  1  0.151703  0.721327  0.208988  1
  Si  Si25  1  0.351284  0.215862  0.288242  1
  Si  Si26  1  0.851320  0.783961  0.712536  1
  Si  Si27  1  0.361055  0.219388  0.710325  1
  Si  Si28  1  0.860508  0.780685  0.289029  1
  Si  Si29  1  0.645757  0.270518  0.206176  1
  Si  Si30  1  0.147628  0.727827  0.793517  1
  Si  Si31  1  0.772921  0.880561  0.000769  1
  Si  Si32  1  0.260378  0.124552  0.999277  1
  Si  Si33  1  0.234022  0.627681  0.501826  1
  Si  Si34  1  0.733092  0.373127  0.498454  1
  Pd  Pd35  1  0.519463  0.655931  0.000224  1
