# generated using pymatgen
data_ErNbFe4P3
_symmetry_space_group_name_H-M   'P 1'
_cell_length_a   3.67647300
_cell_length_b   10.49940100
_cell_length_c   12.27693400
_cell_angle_alpha   90.00000000
_cell_angle_beta   90.00000000
_cell_angle_gamma   90.00000000
_symmetry_Int_Tables_number   1
_chemical_formula_structural   ErNbFe4P3
_chemical_formula_sum   'Er4 Nb4 Fe16 P12'
_cell_volume   473.89903557
_cell_formula_units_Z   4
loop_
 _symmetry_equiv_pos_site_id
 _symmetry_equiv_pos_as_xyz
  1  'x, y, z'
loop_
 _atom_site_type_symbol
 _atom_site_label
 _atom_site_symmetry_multiplicity
 _atom_site_fract_x
 _atom_site_fract_y
 _atom_site_fract_z
 _atom_site_occupancy
  Er  Er0  1  0.250000  0.584480  0.712780  1
  Er  Er1  1  0.250000  0.915520  0.212780  1
  Er  Er2  1  0.750000  0.415520  0.287220  1
  Er  Er3  1  0.750000  0.084480  0.787220  1
  Nb  Nb4  1  0.250000  0.704814  0.990836  1
  Nb  Nb5  1  0.250000  0.795186  0.490836  1
  Nb  Nb6  1  0.750000  0.295186  0.009164  1
  Nb  Nb7  1  0.750000  0.204814  0.509164  1
  Fe  Fe8  1  0.250000  0.416097  0.492480  1
  Fe  Fe9  1  0.250000  0.083904  0.992480  1
  Fe  Fe10  1  0.750000  0.583903  0.507520  1
  Fe  Fe11  1  0.750000  0.916097  0.007520  1
  Fe  Fe12  1  0.250000  0.216799  0.173366  1
  Fe  Fe13  1  0.250000  0.283201  0.673366  1
  Fe  Fe14  1  0.750000  0.783201  0.826634  1
  Fe  Fe15  1  0.750000  0.716799  0.326634  1
  Fe  Fe16  1  0.250000  0.878794  0.699815  1
  Fe  Fe17  1  0.250000  0.621206  0.199815  1
  Fe  Fe18  1  0.750000  0.121206  0.300185  1
  Fe  Fe19  1  0.750000  0.378794  0.800185  1
  Fe  Fe20  1  0.250000  0.463687  0.933030  1
  Fe  Fe21  1  0.250000  0.036313  0.433030  1
  Fe  Fe22  1  0.750000  0.536313  0.066970  1
  Fe  Fe23  1  0.750000  0.963687  0.566970  1
  P  P24  1  0.250000  0.427702  0.113221  1
  P  P25  1  0.250000  0.072298  0.613221  1
  P  P26  1  0.750000  0.572298  0.886779  1
  P  P27  1  0.750000  0.927702  0.386779  1
  P  P28  1  0.250000  0.271470  0.857274  1
  P  P29  1  0.250000  0.228530  0.357274  1
  P  P30  1  0.750000  0.728530  0.142726  1
  P  P31  1  0.750000  0.771470  0.642726  1
  P  P32  1  0.250000  0.593205  0.378457  1
  P  P33  1  0.250000  0.906795  0.878457  1
  P  P34  1  0.750000  0.406795  0.621543  1
  P  P35  1  0.750000  0.093205  0.121543  1
