# generated using pymatgen
data_Ho16Sc4(SiSb3)3
_symmetry_space_group_name_H-M   'P 1'
_cell_length_a   7.81045069
_cell_length_b   8.93588200
_cell_length_c   11.57688000
_cell_angle_alpha   90.00000000
_cell_angle_beta   89.87466069
_cell_angle_gamma   90.00000000
_symmetry_Int_Tables_number   1
_chemical_formula_structural   Ho16Sc4(SiSb3)3
_chemical_formula_sum   'Ho16 Sc4 Si3 Sb9'
_cell_volume   807.98632872
_cell_formula_units_Z   1
loop_
 _symmetry_equiv_pos_site_id
 _symmetry_equiv_pos_as_xyz
  1  'x, y, z'
loop_
 _atom_site_type_symbol
 _atom_site_label
 _atom_site_symmetry_multiplicity
 _atom_site_fract_x
 _atom_site_fract_y
 _atom_site_fract_z
 _atom_site_occupancy
  Ho  Ho0  1  0.812362  0.947157  0.063264  1
  Ho  Ho1  1  0.307373  0.044214  0.432317  1
  Ho  Ho2  1  0.184340  0.448450  0.938338  1
  Ho  Ho3  1  0.690550  0.564033  0.565340  1
  Ho  Ho4  1  0.184340  0.051550  0.938338  1
  Ho  Ho5  1  0.690550  0.935967  0.565340  1
  Ho  Ho6  1  0.812362  0.552843  0.063264  1
  Ho  Ho7  1  0.307373  0.455786  0.432317  1
  Ho  Ho8  1  0.168809  0.750000  0.215591  1
  Ho  Ho9  1  0.677612  0.250000  0.270562  1
  Ho  Ho10  1  0.832976  0.250000  0.784740  1
  Ho  Ho11  1  0.331887  0.750000  0.718092  1
  Ho  Ho12  1  0.640340  0.750000  0.292357  1
  Ho  Ho13  1  0.141424  0.250000  0.208449  1
  Ho  Ho14  1  0.346159  0.250000  0.714312  1
  Ho  Ho15  1  0.858739  0.750000  0.794153  1
  Sc  Sc16  1  0.537637  0.250000  0.996454  1
  Sc  Sc17  1  0.042573  0.750000  0.502354  1
  Sc  Sc18  1  0.459690  0.750000  0.001629  1
  Sc  Sc19  1  0.973161  0.250000  0.497570  1
  Si  Si20  1  0.904493  0.250000  0.025554  1
  Si  Si21  1  0.411565  0.750000  0.479712  1
  Si  Si22  1  0.092322  0.750000  0.977505  1
  Sb  Sb23  1  0.932886  0.987866  0.331376  1
  Sb  Sb24  1  0.433376  0.010630  0.167648  1
  Sb  Sb25  1  0.066167  0.490991  0.669114  1
  Sb  Sb26  1  0.565725  0.510199  0.831240  1
  Sb  Sb27  1  0.066167  0.009009  0.669114  1
  Sb  Sb28  1  0.565725  0.989801  0.831240  1
  Sb  Sb29  1  0.932886  0.512134  0.331376  1
  Sb  Sb30  1  0.433376  0.489370  0.167648  1
  Sb  Sb31  1  0.595050  0.250000  0.523689  1
