# generated using pymatgen
data_TmMn2NbFe10P7
_symmetry_space_group_name_H-M   'P 1'
_cell_length_a   8.92071726
_cell_length_b   8.90546181
_cell_length_c   3.57548400
_cell_angle_alpha   90.00000000
_cell_angle_beta   90.00000000
_cell_angle_gamma   119.93212886
_symmetry_Int_Tables_number   1
_chemical_formula_structural   TmMn2NbFe10P7
_chemical_formula_sum   'Tm1 Mn2 Nb1 Fe10 P7'
_cell_volume   246.16046596
_cell_formula_units_Z   1
loop_
 _symmetry_equiv_pos_site_id
 _symmetry_equiv_pos_as_xyz
  1  'x, y, z'
loop_
 _atom_site_type_symbol
 _atom_site_label
 _atom_site_symmetry_multiplicity
 _atom_site_fract_x
 _atom_site_fract_y
 _atom_site_fract_z
 _atom_site_occupancy
  Tm  Tm0  1  0.666753  0.334267  0.500000  1
  Mn  Mn1  1  0.439497  0.890163  0.500000  1
  Mn  Mn2  1  0.110880  0.546641  0.500000  1
  Nb  Nb3  1  0.998311  0.997048  0.000000  1
  Fe  Fe4  1  0.704859  0.611198  0.000000  1
  Fe  Fe5  1  0.389241  0.096067  0.000000  1
  Fe  Fe6  1  0.905939  0.294004  0.000000  1
  Fe  Fe7  1  0.213047  0.390408  0.000000  1
  Fe  Fe8  1  0.610608  0.823509  0.000000  1
  Fe  Fe9  1  0.177276  0.787438  0.000000  1
  Fe  Fe10  1  0.273377  0.225979  0.500000  1
  Fe  Fe11  1  0.774590  0.045894  0.500000  1
  Fe  Fe12  1  0.951449  0.726979  0.500000  1
  Fe  Fe13  1  0.453512  0.566584  0.500000  1
  P  P14  1  0.447563  0.369645  0.000000  1
  P  P15  1  0.633635  0.081487  0.000000  1
  P  P16  1  0.919264  0.553181  0.000000  1
  P  P17  1  0.041366  0.253353  0.500000  1
  P  P18  1  0.738307  0.780714  0.500000  1
  P  P19  1  0.214845  0.958391  0.500000  1
  P  P20  1  0.335678  0.667050  0.000000  1
