# generated using pymatgen
data_LuMnBPt6
_symmetry_space_group_name_H-M   'P 1'
_cell_length_a   5.82578765
_cell_length_b   5.82578716
_cell_length_c   5.82578700
_cell_angle_alpha   59.99999522
_cell_angle_beta   59.99999801
_cell_angle_gamma   59.99999588
_symmetry_Int_Tables_number   1
_chemical_formula_structural   LuMnBPt6
_chemical_formula_sum   'Lu1 Mn1 B1 Pt6'
_cell_volume   139.81341153
_cell_formula_units_Z   1
loop_
 _symmetry_equiv_pos_site_id
 _symmetry_equiv_pos_as_xyz
  1  'x, y, z'
loop_
 _atom_site_type_symbol
 _atom_site_label
 _atom_site_symmetry_multiplicity
 _atom_site_fract_x
 _atom_site_fract_y
 _atom_site_fract_z
 _atom_site_occupancy
  Lu  Lu0  1  0.250001  0.250001  0.250001  1
  Mn  Mn1  1  0.750000  0.750000  0.750000  1
  B  B2  1  0.500000  0.500000  0.500000  1
  Pt  Pt3  1  0.756730  0.756730  0.243270  1
  Pt  Pt4  1  0.243270  0.756730  0.243270  1
  Pt  Pt5  1  0.756730  0.243270  0.243270  1
  Pt  Pt6  1  0.243270  0.243270  0.756730  1
  Pt  Pt7  1  0.756730  0.243270  0.756730  1
  Pt  Pt8  1  0.243270  0.756730  0.756730  1
