# generated using pymatgen
data_Zn5GaB5Ir11
_symmetry_space_group_name_H-M   'P 1'
_cell_length_a   2.88657700
_cell_length_b   8.52726900
_cell_length_c   11.43492700
_cell_angle_alpha   90.00000000
_cell_angle_beta   90.00000000
_cell_angle_gamma   90.00000000
_symmetry_Int_Tables_number   1
_chemical_formula_structural   Zn5GaB5Ir11
_chemical_formula_sum   'Zn5 Ga1 B5 Ir11'
_cell_volume   281.46636646
_cell_formula_units_Z   1
loop_
 _symmetry_equiv_pos_site_id
 _symmetry_equiv_pos_as_xyz
  1  'x, y, z'
loop_
 _atom_site_type_symbol
 _atom_site_label
 _atom_site_symmetry_multiplicity
 _atom_site_fract_x
 _atom_site_fract_y
 _atom_site_fract_z
 _atom_site_occupancy
  Zn  Zn0  1  0.500000  0.342965  0.500000  1
  Zn  Zn1  1  0.500000  0.643341  0.500000  1
  Zn  Zn2  1  0.500000  0.001553  0.500000  1
  Zn  Zn3  1  0.500000  0.989365  0.199589  1
  Zn  Zn4  1  0.500000  0.989365  0.800411  1
  Ga  Ga5  1  0.500000  0.517088  0.000000  1
  B  B6  1  0.500000  0.316967  0.265752  1
  B  B7  1  0.500000  0.683259  0.258836  1
  B  B8  1  0.500000  0.683259  0.741164  1
  B  B9  1  0.500000  0.316967  0.734248  1
  B  B10  1  0.500000  0.178721  0.000000  1
  Ir  Ir11  1  0.000000  0.499551  0.317301  1
  Ir  Ir12  1  0.000000  0.499551  0.682699  1
  Ir  Ir13  1  0.000000  0.166928  0.347638  1
  Ir  Ir14  1  0.000000  0.824620  0.356482  1
  Ir  Ir15  1  0.000000  0.824620  0.643518  1
  Ir  Ir16  1  0.000000  0.166928  0.652362  1
  Ir  Ir17  1  0.000000  0.300806  0.119225  1
  Ir  Ir18  1  0.000000  0.723399  0.120051  1
  Ir  Ir19  1  0.000000  0.723399  0.879949  1
  Ir  Ir20  1  0.000000  0.300806  0.880775  1
  Ir  Ir21  1  0.000000  0.998540  0.000000  1
