# generated using pymatgen
data_Sc2FeB2Ru5
_symmetry_space_group_name_H-M   'P 1'
_cell_length_a   9.32022700
_cell_length_b   9.32022700
_cell_length_c   3.02486200
_cell_angle_alpha   90.00000000
_cell_angle_beta   90.00000000
_cell_angle_gamma   90.00000000
_symmetry_Int_Tables_number   1
_chemical_formula_structural   Sc2FeB2Ru5
_chemical_formula_sum   'Sc4 Fe2 B4 Ru10'
_cell_volume   262.75957218
_cell_formula_units_Z   2
loop_
 _symmetry_equiv_pos_site_id
 _symmetry_equiv_pos_as_xyz
  1  'x, y, z'
loop_
 _atom_site_type_symbol
 _atom_site_label
 _atom_site_symmetry_multiplicity
 _atom_site_fract_x
 _atom_site_fract_y
 _atom_site_fract_z
 _atom_site_occupancy
  Sc  Sc0  1  0.674956  0.174956  0.000000  1
  Sc  Sc1  1  0.325044  0.825044  0.000000  1
  Sc  Sc2  1  0.174956  0.325044  0.000000  1
  Sc  Sc3  1  0.825044  0.674956  0.000000  1
  Fe  Fe4  1  0.000000  0.000000  0.000000  1
  Fe  Fe5  1  0.500000  0.500000  0.000000  1
  B  B6  1  0.124032  0.624032  0.000000  1
  B  B7  1  0.875968  0.375968  0.000000  1
  B  B8  1  0.624032  0.875968  0.000000  1
  B  B9  1  0.375968  0.124032  0.000000  1
  Ru  Ru10  1  0.212461  0.070366  0.500000  1
  Ru  Ru11  1  0.787539  0.929634  0.500000  1
  Ru  Ru12  1  0.070366  0.787539  0.500000  1
  Ru  Ru13  1  0.712461  0.429634  0.500000  1
  Ru  Ru14  1  0.929634  0.212461  0.500000  1
  Ru  Ru15  1  0.287539  0.570366  0.500000  1
  Ru  Ru16  1  0.570366  0.712461  0.500000  1
  Ru  Ru17  1  0.429634  0.287539  0.500000  1
  Ru  Ru18  1  0.500000  0.000000  0.500000  1
  Ru  Ru19  1  0.000000  0.500000  0.500000  1
