# generated using pymatgen
data_KTh2Te5Se
_symmetry_space_group_name_H-M   'P 1'
_cell_length_a   12.32342772
_cell_length_b   12.32342782
_cell_length_c   12.32342778
_cell_angle_alpha   159.40407749
_cell_angle_beta   150.76250281
_cell_angle_gamma   36.03213412
_symmetry_Int_Tables_number   1
_chemical_formula_structural   KTh2Te5Se
_chemical_formula_sum   'K1 Th2 Te5 Se1'
_cell_volume   321.19917204
_cell_formula_units_Z   1
loop_
 _symmetry_equiv_pos_site_id
 _symmetry_equiv_pos_as_xyz
  1  'x, y, z'
loop_
 _atom_site_type_symbol
 _atom_site_label
 _atom_site_symmetry_multiplicity
 _atom_site_fract_x
 _atom_site_fract_y
 _atom_site_fract_z
 _atom_site_occupancy
  K  K0  1  0.999833  0.999833  0.000000  1
  Th  Th1  1  0.321549  0.821549  0.500000  1
  Th  Th2  1  0.684882  0.184882  0.500000  1
  Te  Te3  1  0.224595  0.224595  0.000000  1
  Te  Te4  1  0.366380  0.604564  0.761818  1
  Te  Te5  1  0.643847  0.394918  0.248928  1
  Te  Te6  1  0.145990  0.394918  0.751072  1
  Te  Te7  1  0.842746  0.604564  0.238182  1
  Se  Se8  1  0.770179  0.770179  0.000000  1
