# generated using pymatgen
data_Zr5Mn11Co5(P4W)3
_symmetry_space_group_name_H-M   'P 1'
_cell_length_a   12.12043216
_cell_length_b   12.22955548
_cell_length_c   3.63880900
_cell_angle_alpha   90.00000000
_cell_angle_beta   90.00000000
_cell_angle_gamma   120.10768177
_symmetry_Int_Tables_number   1
_chemical_formula_structural   Zr5Mn11Co5(P4W)3
_chemical_formula_sum   'Zr5 Mn11 Co5 P12 W3'
_cell_volume   466.60179344
_cell_formula_units_Z   1
loop_
 _symmetry_equiv_pos_site_id
 _symmetry_equiv_pos_as_xyz
  1  'x, y, z'
loop_
 _atom_site_type_symbol
 _atom_site_label
 _atom_site_symmetry_multiplicity
 _atom_site_fract_x
 _atom_site_fract_y
 _atom_site_fract_z
 _atom_site_occupancy
  Zr  Zr0  1  0.666697  0.331574  0.000000  1
  Zr  Zr1  1  0.334717  0.666060  0.000000  1
  Zr  Zr2  1  0.820735  0.825844  0.500000  1
  Zr  Zr3  1  0.178133  0.002723  0.500000  1
  Zr  Zr4  1  0.996937  0.176425  0.500000  1
  Mn  Mn5  1  0.200220  0.375475  0.000000  1
  Mn  Mn6  1  0.176146  0.802292  0.000000  1
  Mn  Mn7  1  0.824657  0.626355  0.000000  1
  Mn  Mn8  1  0.122813  0.470564  0.500000  1
  Mn  Mn9  1  0.349798  0.875859  0.500000  1
  Mn  Mn10  1  0.523502  0.646736  0.500000  1
  Mn  Mn11  1  0.650527  0.526298  0.500000  1
  Mn  Mn12  1  0.876025  0.349875  0.500000  1
  Mn  Mn13  1  0.477496  0.126639  0.500000  1
  Mn  Mn14  1  0.716221  0.999993  0.500000  1
  Mn  Mn15  1  0.000358  0.719858  0.500000  1
  Co  Co16  1  0.801881  0.176820  0.000000  1
  Co  Co17  1  0.372339  0.197967  0.000000  1
  Co  Co18  1  0.000350  0.004341  0.000000  1
  Co  Co19  1  0.625659  0.822735  0.000000  1
  Co  Co20  1  0.282898  0.280371  0.500000  1
  P  P21  1  0.650273  0.653434  0.000000  1
  P  P22  1  0.350301  0.004502  0.000000  1
  P  P23  1  0.998312  0.344889  0.000000  1
  P  P24  1  0.484305  0.316828  0.500000  1
  P  P25  1  0.683837  0.165058  0.500000  1
  P  P26  1  0.833413  0.512108  0.500000  1
  P  P27  1  0.518038  0.832353  0.500000  1
  P  P28  1  0.166941  0.677405  0.500000  1
  P  P29  1  0.821277  0.000842  0.000000  1
  P  P30  1  0.999606  0.830856  0.000000  1
  P  P31  1  0.318476  0.482949  0.500000  1
  P  P32  1  0.176550  0.179058  0.000000  1
  W  W33  1  0.449984  0.449118  0.000000  1
  W  W34  1  0.550825  0.998337  0.000000  1
  W  W35  1  0.999756  0.547461  0.000000  1
