# generated using pymatgen
data_NdScB6W
_symmetry_space_group_name_H-M   'P 1'
_cell_length_a   3.57713400
_cell_length_b   9.24503000
_cell_length_c   11.71451100
_cell_angle_alpha   90.00000000
_cell_angle_beta   90.00000000
_cell_angle_gamma   90.00000000
_symmetry_Int_Tables_number   1
_chemical_formula_structural   NdScB6W
_chemical_formula_sum   'Nd4 Sc4 B24 W4'
_cell_volume   387.40720947
_cell_formula_units_Z   4
loop_
 _symmetry_equiv_pos_site_id
 _symmetry_equiv_pos_as_xyz
  1  'x, y, z'
loop_
 _atom_site_type_symbol
 _atom_site_label
 _atom_site_symmetry_multiplicity
 _atom_site_fract_x
 _atom_site_fract_y
 _atom_site_fract_z
 _atom_site_occupancy
  Nd  Nd0  1  0.000000  0.320081  0.414894  1
  Nd  Nd1  1  0.000000  0.679919  0.585106  1
  Nd  Nd2  1  0.000000  0.820081  0.085106  1
  Nd  Nd3  1  0.000000  0.179919  0.914894  1
  Sc  Sc4  1  0.000000  0.945167  0.371747  1
  Sc  Sc5  1  0.000000  0.054833  0.628253  1
  Sc  Sc6  1  0.000000  0.445167  0.128253  1
  Sc  Sc7  1  0.000000  0.554833  0.871747  1
  B  B8  1  0.500000  0.554027  0.431823  1
  B  B9  1  0.500000  0.445973  0.568177  1
  B  B10  1  0.500000  0.054027  0.068177  1
  B  B11  1  0.500000  0.945973  0.931823  1
  B  B12  1  0.500000  0.757594  0.417681  1
  B  B13  1  0.500000  0.242406  0.582319  1
  B  B14  1  0.500000  0.257594  0.082319  1
  B  B15  1  0.500000  0.742406  0.917681  1
  B  B16  1  0.500000  0.797504  0.265313  1
  B  B17  1  0.500000  0.202496  0.734687  1
  B  B18  1  0.500000  0.297504  0.234687  1
  B  B19  1  0.500000  0.702496  0.765313  1
  B  B20  1  0.500000  0.627214  0.181643  1
  B  B21  1  0.500000  0.372786  0.818357  1
  B  B22  1  0.500000  0.127214  0.318357  1
  B  B23  1  0.500000  0.872786  0.681643  1
  B  B24  1  0.500000  0.980179  0.216090  1
  B  B25  1  0.500000  0.019821  0.783910  1
  B  B26  1  0.500000  0.480179  0.283910  1
  B  B27  1  0.500000  0.519821  0.716090  1
  B  B28  1  0.500000  0.592732  0.025234  1
  B  B29  1  0.500000  0.407268  0.974766  1
  B  B30  1  0.500000  0.092732  0.474766  1
  B  B31  1  0.500000  0.907268  0.525234  1
  W  W32  1  0.000000  0.642051  0.317485  1
  W  W33  1  0.000000  0.357949  0.682515  1
  W  W34  1  0.000000  0.142051  0.182515  1
  W  W35  1  0.000000  0.857949  0.817485  1
