# generated using pymatgen
data_Nd3Tl3Ag2Pt
_symmetry_space_group_name_H-M   'P 1'
_cell_length_a   8.05981519
_cell_length_b   8.06520523
_cell_length_c   4.06112300
_cell_angle_alpha   90.00000000
_cell_angle_beta   90.00000000
_cell_angle_gamma   119.99554229
_symmetry_Int_Tables_number   1
_chemical_formula_structural   Nd3Tl3Ag2Pt
_chemical_formula_sum   'Nd3 Tl3 Ag2 Pt1'
_cell_volume   228.63188004
_cell_formula_units_Z   1
loop_
 _symmetry_equiv_pos_site_id
 _symmetry_equiv_pos_as_xyz
  1  'x, y, z'
loop_
 _atom_site_type_symbol
 _atom_site_label
 _atom_site_symmetry_multiplicity
 _atom_site_fract_x
 _atom_site_fract_y
 _atom_site_fract_z
 _atom_site_occupancy
  Nd  Nd0  1  0.021934  0.599306  0.500000  1
  Nd  Nd1  1  0.578303  0.978867  0.500000  1
  Nd  Nd2  1  0.399954  0.422482  0.500000  1
  Tl  Tl3  1  0.990457  0.255612  0.000000  1
  Tl  Tl4  1  0.265476  0.009076  0.000000  1
  Tl  Tl5  1  0.743775  0.734448  0.000000  1
  Ag  Ag6  1  0.000096  0.999684  0.500000  1
  Ag  Ag7  1  0.666675  0.333603  0.000000  1
  Pt  Pt8  1  0.333332  0.666920  0.000000  1
