# generated using pymatgen
data_TbErMg(Si3Pd10)2
_symmetry_space_group_name_H-M   'P 1'
_cell_length_a   8.68603031
_cell_length_b   8.68602991
_cell_length_c   8.68603100
_cell_angle_alpha   59.99999967
_cell_angle_beta   60.00000119
_cell_angle_gamma   60.00000586
_symmetry_Int_Tables_number   1
_chemical_formula_structural   TbErMg(Si3Pd10)2
_chemical_formula_sum   'Tb1 Er1 Mg1 Si6 Pd20'
_cell_volume   463.39256408
_cell_formula_units_Z   1
loop_
 _symmetry_equiv_pos_site_id
 _symmetry_equiv_pos_as_xyz
  1  'x, y, z'
loop_
 _atom_site_type_symbol
 _atom_site_label
 _atom_site_symmetry_multiplicity
 _atom_site_fract_x
 _atom_site_fract_y
 _atom_site_fract_z
 _atom_site_occupancy
  Tb  Tb0  1  0.250000  0.250000  0.250000  1
  Er  Er1  1  0.750000  0.750000  0.750000  1
  Mg  Mg2  1  0.000000  0.000000  0.000000  1
  Si  Si3  1  0.733126  0.266874  0.266874  1
  Si  Si4  1  0.266874  0.733126  0.733126  1
  Si  Si5  1  0.266874  0.733126  0.266874  1
  Si  Si6  1  0.733126  0.266874  0.733126  1
  Si  Si7  1  0.266874  0.266874  0.733126  1
  Si  Si8  1  0.733126  0.733126  0.266874  1
  Pd  Pd9  1  0.343778  0.999887  0.999887  1
  Pd  Pd10  1  0.656448  0.999887  0.999887  1
  Pd  Pd11  1  0.999887  0.343778  0.656448  1
  Pd  Pd12  1  0.999887  0.656448  0.343778  1
  Pd  Pd13  1  0.999887  0.343778  0.999887  1
  Pd  Pd14  1  0.656448  0.999887  0.343778  1
  Pd  Pd15  1  0.999887  0.656448  0.999887  1
  Pd  Pd16  1  0.343778  0.999887  0.656448  1
  Pd  Pd17  1  0.999887  0.999887  0.343778  1
  Pd  Pd18  1  0.999887  0.999887  0.656448  1
  Pd  Pd19  1  0.656448  0.343778  0.999887  1
  Pd  Pd20  1  0.343778  0.656448  0.999887  1
  Pd  Pd21  1  0.383457  0.383457  0.383457  1
  Pd  Pd22  1  0.617021  0.617021  0.617021  1
  Pd  Pd23  1  0.383457  0.383457  0.849630  1
  Pd  Pd24  1  0.383457  0.849630  0.383457  1
  Pd  Pd25  1  0.617021  0.617021  0.148936  1
  Pd  Pd26  1  0.617021  0.148936  0.617021  1
  Pd  Pd27  1  0.849630  0.383457  0.383457  1
  Pd  Pd28  1  0.148936  0.617021  0.617021  1
