# generated using pymatgen
data_Y3Er3Si11GePt8
_symmetry_space_group_name_H-M   'P 1'
_cell_length_a   4.26133600
_cell_length_b   8.56140853
_cell_length_c   12.93819475
_cell_angle_alpha   80.32814865
_cell_angle_beta   90.00000000
_cell_angle_gamma   90.00000000
_symmetry_Int_Tables_number   1
_chemical_formula_structural   Y3Er3Si11GePt8
_chemical_formula_sum   'Y3 Er3 Si11 Ge1 Pt8'
_cell_volume   465.31535696
_cell_formula_units_Z   1
loop_
 _symmetry_equiv_pos_site_id
 _symmetry_equiv_pos_as_xyz
  1  'x, y, z'
loop_
 _atom_site_type_symbol
 _atom_site_label
 _atom_site_symmetry_multiplicity
 _atom_site_fract_x
 _atom_site_fract_y
 _atom_site_fract_z
 _atom_site_occupancy
  Y  Y0  1  0.250000  0.584401  0.184195  1
  Y  Y1  1  0.750000  0.926953  0.816080  1
  Y  Y2  1  0.250000  0.075106  0.183958  1
  Er  Er3  1  0.250000  0.763549  0.439752  1
  Er  Er4  1  0.750000  0.234371  0.561752  1
  Er  Er5  1  0.750000  0.416003  0.814620  1
  Si  Si6  1  0.750000  0.587792  0.572499  1
  Si  Si7  1  0.750000  0.128019  0.003377  1
  Si  Si8  1  0.750000  0.871836  0.575142  1
  Si  Si9  1  0.250000  0.698456  0.714428  1
  Si  Si10  1  0.750000  0.305396  0.284882  1
  Si  Si11  1  0.750000  0.807977  0.276082  1
  Si  Si12  1  0.250000  0.873601  0.995183  1
  Si  Si13  1  0.250000  0.194653  0.723166  1
  Si  Si14  1  0.250000  0.378681  0.001158  1
  Si  Si15  1  0.250000  0.114898  0.430786  1
  Si  Si16  1  0.750000  0.622028  0.997677  1
  Ge  Ge17  1  0.250000  0.404399  0.426192  1
  Pt  Pt18  1  0.750000  0.352464  0.097817  1
  Pt  Pt19  1  0.250000  0.972377  0.623499  1
  Pt  Pt20  1  0.750000  0.850909  0.087687  1
  Pt  Pt21  1  0.750000  0.029364  0.375912  1
  Pt  Pt22  1  0.250000  0.647681  0.901200  1
  Pt  Pt23  1  0.250000  0.151423  0.910956  1
  Pt  Pt24  1  0.750000  0.539497  0.374277  1
  Pt  Pt25  1  0.250000  0.468164  0.627724  1
