# generated using pymatgen
data_Y3Mg3Ge2Rh
_symmetry_space_group_name_H-M   'P 1'
_cell_length_a   7.24540700
_cell_length_b   7.24540803
_cell_length_c   4.30193100
_cell_angle_alpha   90.00000000
_cell_angle_beta   90.00000000
_cell_angle_gamma   119.99999073
_symmetry_Int_Tables_number   1
_chemical_formula_structural   Y3Mg3Ge2Rh
_chemical_formula_sum   'Y3 Mg3 Ge2 Rh1'
_cell_volume   195.57788574
_cell_formula_units_Z   1
loop_
 _symmetry_equiv_pos_site_id
 _symmetry_equiv_pos_as_xyz
  1  'x, y, z'
loop_
 _atom_site_type_symbol
 _atom_site_label
 _atom_site_symmetry_multiplicity
 _atom_site_fract_x
 _atom_site_fract_y
 _atom_site_fract_z
 _atom_site_occupancy
  Y  Y0  1  0.000000  0.589891  0.000000  1
  Y  Y1  1  0.410109  0.410109  0.000000  1
  Y  Y2  1  0.589891  0.000000  0.000000  1
  Mg  Mg3  1  0.238307  0.000000  0.500000  1
  Mg  Mg4  1  0.761693  0.761693  0.500000  1
  Mg  Mg5  1  0.000000  0.238307  0.500000  1
  Ge  Ge6  1  0.666667  0.333333  0.500000  1
  Ge  Ge7  1  0.333333  0.666667  0.500000  1
  Rh  Rh8  1  0.000000  0.000000  0.000000  1
