# generated using pymatgen
data_TaZnOsF12
_symmetry_space_group_name_H-M   'P 1'
_cell_length_a   5.51892788
_cell_length_b   11.28653311
_cell_length_c   5.57898400
_cell_angle_alpha   57.86621737
_cell_angle_beta   57.98649872
_cell_angle_gamma   59.01497114
_symmetry_Int_Tables_number   1
_chemical_formula_structural   TaZnOsF12
_chemical_formula_sum   'Ta1 Zn1 Os1 F12'
_cell_volume   236.03958408
_cell_formula_units_Z   1
loop_
 _symmetry_equiv_pos_site_id
 _symmetry_equiv_pos_as_xyz
  1  'x, y, z'
loop_
 _atom_site_type_symbol
 _atom_site_label
 _atom_site_symmetry_multiplicity
 _atom_site_fract_x
 _atom_site_fract_y
 _atom_site_fract_z
 _atom_site_occupancy
  Ta  Ta0  1  0.989096  0.490862  0.022649  1
  Zn  Zn1  1  0.505224  0.751201  0.494018  1
  Os  Os2  1  0.016958  0.000813  0.982814  1
  F  F3  1  0.360978  0.058943  0.760493  1
  F  F4  1  0.314545  0.583203  0.766948  1
  F  F5  1  0.107835  0.388479  0.357679  1
  F  F6  1  0.147911  0.876031  0.336518  1
  F  F7  1  0.227375  0.338275  0.869953  1
  F  F8  1  0.248345  0.828455  0.852001  1
  F  F9  1  0.891269  0.110791  0.650028  1
  F  F10  1  0.843587  0.626284  0.671195  1
  F  F11  1  0.633982  0.442933  0.230829  1
  F  F12  1  0.667304  0.928172  0.226244  1
  F  F13  1  0.790750  0.158144  0.123736  1
  F  F14  1  0.754843  0.667415  0.154897  1
