# generated using pymatgen
data_LaYb10Er9Sn16
_symmetry_space_group_name_H-M   'P 1'
_cell_length_a   7.84497865
_cell_length_b   8.43501355
_cell_length_c   15.91516600
_cell_angle_alpha   89.99667841
_cell_angle_beta   90.15751472
_cell_angle_gamma   89.66575762
_symmetry_Int_Tables_number   1
_chemical_formula_structural   LaYb10Er9Sn16
_chemical_formula_sum   'La1 Yb10 Er9 Sn16'
_cell_volume   1053.12443833
_cell_formula_units_Z   1
loop_
 _symmetry_equiv_pos_site_id
 _symmetry_equiv_pos_as_xyz
  1  'x, y, z'
loop_
 _atom_site_type_symbol
 _atom_site_label
 _atom_site_symmetry_multiplicity
 _atom_site_fract_x
 _atom_site_fract_y
 _atom_site_fract_z
 _atom_site_occupancy
  La  La0  1  0.505970  0.685519  0.594834  1
  Yb  Yb1  1  0.003622  0.815690  0.908328  1
  Yb  Yb2  1  0.494322  0.311736  0.092243  1
  Yb  Yb3  1  0.996311  0.187170  0.407937  1
  Yb  Yb4  1  0.494029  0.312710  0.407411  1
  Yb  Yb5  1  0.995457  0.187228  0.091880  1
  Yb  Yb6  1  0.503975  0.687585  0.905422  1
  Yb  Yb7  1  0.004279  0.816115  0.591717  1
  Yb  Yb8  1  0.335566  0.990642  0.750685  1
  Yb  Yb9  1  0.163518  0.488202  0.249901  1
  Yb  Yb10  1  0.663080  0.009659  0.249838  1
  Er  Er11  1  0.674269  0.164279  0.622872  1
  Er  Er12  1  0.175055  0.334333  0.876625  1
  Er  Er13  1  0.325408  0.833031  0.122205  1
  Er  Er14  1  0.826535  0.664244  0.377919  1
  Er  Er15  1  0.325357  0.832750  0.377058  1
  Er  Er16  1  0.826063  0.663774  0.121688  1
  Er  Er17  1  0.675804  0.163105  0.877377  1
  Er  Er18  1  0.174368  0.333380  0.623511  1
  Er  Er19  1  0.838129  0.509667  0.751083  1
  Sn  Sn20  1  0.671963  0.963091  0.459835  1
  Sn  Sn21  1  0.171790  0.536902  0.040026  1
  Sn  Sn22  1  0.329429  0.036784  0.959081  1
  Sn  Sn23  1  0.829676  0.463896  0.543460  1
  Sn  Sn24  1  0.328868  0.037257  0.540710  1
  Sn  Sn25  1  0.828313  0.465743  0.956025  1
  Sn  Sn26  1  0.671730  0.963007  0.040698  1
  Sn  Sn27  1  0.173102  0.537828  0.460262  1
  Sn  Sn28  1  0.476227  0.380795  0.749751  1
  Sn  Sn29  1  0.971607  0.135343  0.749689  1
  Sn  Sn30  1  0.527523  0.625015  0.249802  1
  Sn  Sn31  1  0.026633  0.872692  0.249775  1
  Sn  Sn32  1  0.720463  0.862730  0.750404  1
  Sn  Sn33  1  0.209195  0.630883  0.749797  1
  Sn  Sn34  1  0.280784  0.126296  0.250061  1
  Sn  Sn35  1  0.781583  0.370923  0.250089  1
