# generated using pymatgen
data_Dy5(Er5Rh4)3
_symmetry_space_group_name_H-M   'P 1'
_cell_length_a   10.89487342
_cell_length_b   10.89200415
_cell_length_c   6.36476300
_cell_angle_alpha   90.00325616
_cell_angle_beta   89.96179360
_cell_angle_gamma   90.00881326
_symmetry_Int_Tables_number   1
_chemical_formula_structural   Dy5(Er5Rh4)3
_chemical_formula_sum   'Dy5 Er15 Rh12'
_cell_volume   755.28719415
_cell_formula_units_Z   1
loop_
 _symmetry_equiv_pos_site_id
 _symmetry_equiv_pos_as_xyz
  1  'x, y, z'
loop_
 _atom_site_type_symbol
 _atom_site_label
 _atom_site_symmetry_multiplicity
 _atom_site_fract_x
 _atom_site_fract_y
 _atom_site_fract_z
 _atom_site_occupancy
  Dy  Dy0  1  0.089504  0.291690  0.117540  1
  Dy  Dy1  1  0.999980  0.999693  0.000386  1
  Dy  Dy2  1  0.500227  0.499965  0.000200  1
  Dy  Dy3  1  0.499838  0.499967  0.500226  1
  Dy  Dy4  1  0.999846  0.999754  0.500617  1
  Er  Er5  1  0.791810  0.410473  0.117263  1
  Er  Er6  1  0.208184  0.589890  0.117294  1
  Er  Er7  1  0.910576  0.707882  0.117250  1
  Er  Er8  1  0.410096  0.792393  0.382655  1
  Er  Er9  1  0.589716  0.207726  0.382543  1
  Er  Er10  1  0.291882  0.089870  0.382898  1
  Er  Er11  1  0.707828  0.910229  0.382544  1
  Er  Er12  1  0.410275  0.207736  0.882554  1
  Er  Er13  1  0.707778  0.089736  0.882824  1
  Er  Er14  1  0.292190  0.910163  0.882325  1
  Er  Er15  1  0.589784  0.792234  0.882468  1
  Er  Er16  1  0.089852  0.707494  0.617136  1
  Er  Er17  1  0.910241  0.291996  0.617514  1
  Er  Er18  1  0.207997  0.410352  0.617425  1
  Er  Er19  1  0.792238  0.589418  0.617206  1
  Rh  Rh20  1  0.154547  0.845664  0.250207  1
  Rh  Rh21  1  0.345483  0.345788  0.249936  1
  Rh  Rh22  1  0.654463  0.654577  0.250402  1
  Rh  Rh23  1  0.845654  0.154765  0.249731  1
  Rh  Rh24  1  0.345610  0.654518  0.750188  1
  Rh  Rh25  1  0.154716  0.154339  0.749248  1
  Rh  Rh26  1  0.845599  0.845464  0.750267  1
  Rh  Rh27  1  0.654549  0.345409  0.749849  1
  Rh  Rh28  1  0.999888  0.500275  0.372659  1
  Rh  Rh29  1  0.499900  0.000023  0.127497  1
  Rh  Rh30  1  0.499872  0.000077  0.627026  1
  Rh  Rh31  1  0.999873  0.500439  0.872123  1
