# generated using pymatgen
data_Tb5Ti2P12Ir17
_symmetry_space_group_name_H-M   'P 1'
_cell_length_a   12.62620200
_cell_length_b   12.81203770
_cell_length_c   3.97581600
_cell_angle_alpha   90.00000000
_cell_angle_beta   90.00000000
_cell_angle_gamma   119.52133478
_symmetry_Int_Tables_number   1
_chemical_formula_structural   Tb5Ti2P12Ir17
_chemical_formula_sum   'Tb5 Ti2 P12 Ir17'
_cell_volume   559.65767035
_cell_formula_units_Z   1
loop_
 _symmetry_equiv_pos_site_id
 _symmetry_equiv_pos_as_xyz
  1  'x, y, z'
loop_
 _atom_site_type_symbol
 _atom_site_label
 _atom_site_symmetry_multiplicity
 _atom_site_fract_x
 _atom_site_fract_y
 _atom_site_fract_z
 _atom_site_occupancy
  Tb  Tb0  1  0.330149  0.660510  0.500000  1
  Tb  Tb1  1  0.669640  0.339490  0.500000  1
  Tb  Tb2  1  0.999444  0.811849  0.000000  1
  Tb  Tb3  1  0.187595  0.188151  0.000000  1
  Tb  Tb4  1  0.812884  0.000000  0.000000  1
  Ti  Ti5  1  0.998637  0.446932  0.500000  1
  Ti  Ti6  1  0.551704  0.553068  0.500000  1
  P  P7  1  0.001615  0.639189  0.500000  1
  P  P8  1  0.362427  0.360811  0.500000  1
  P  P9  1  0.644392  0.000000  0.500000  1
  P  P10  1  0.514502  0.682414  0.000000  1
  P  P11  1  0.308769  0.823961  0.000000  1
  P  P12  1  0.162703  0.480328  0.000000  1
  P  P13  1  0.484807  0.176039  0.000000  1
  P  P14  1  0.682374  0.519672  0.000000  1
  P  P15  1  0.832087  0.317586  0.000000  1
  P  P16  1  0.999728  0.175725  0.500000  1
  P  P17  1  0.824002  0.824275  0.500000  1
  P  P18  1  0.181029  0.000000  0.500000  1
  Ir  Ir19  1  0.504994  0.864006  0.000000  1
  Ir  Ir20  1  0.126958  0.640760  0.000000  1
  Ir  Ir21  1  0.355335  0.491899  0.000000  1
  Ir  Ir22  1  0.486198  0.359240  0.000000  1
  Ir  Ir23  1  0.863438  0.508101  0.000000  1
  Ir  Ir24  1  0.640990  0.135994  0.000000  1
  Ir  Ir25  1  0.463360  0.000000  0.500000  1
  Ir  Ir26  1  0.996978  0.281775  0.000000  1
  Ir  Ir27  1  0.715205  0.718225  0.000000  1
  Ir  Ir28  1  0.290210  0.000000  0.000000  1
  Ir  Ir29  1  0.622505  0.805284  0.500000  1
  Ir  Ir30  1  0.202184  0.823490  0.500000  1
  Ir  Ir31  1  0.176789  0.368936  0.500000  1
  Ir  Ir32  1  0.378695  0.176510  0.500000  1
  Ir  Ir33  1  0.807853  0.631064  0.500000  1
  Ir  Ir34  1  0.817221  0.194716  0.500000  1
  Ir  Ir35  1  0.002596  0.000000  0.500000  1
