# generated using pymatgen
data_U2Br5O2
_symmetry_space_group_name_H-M   'P 1'
_cell_length_a   4.13267600
_cell_length_b   8.71777770
_cell_length_c   8.71777792
_cell_angle_alpha   118.36511951
_cell_angle_beta   90.00000000
_cell_angle_gamma   90.00000000
_symmetry_Int_Tables_number   1
_chemical_formula_structural   U2Br5O2
_chemical_formula_sum   'U2 Br5 O2'
_cell_volume   276.37261219
_cell_formula_units_Z   1
loop_
 _symmetry_equiv_pos_site_id
 _symmetry_equiv_pos_as_xyz
  1  'x, y, z'
loop_
 _atom_site_type_symbol
 _atom_site_label
 _atom_site_symmetry_multiplicity
 _atom_site_fract_x
 _atom_site_fract_y
 _atom_site_fract_z
 _atom_site_occupancy
  U  U0  1  0.000000  0.802864  0.197136  1
  U  U1  1  0.000000  0.197136  0.802864  1
  Br  Br2  1  0.000000  0.547562  0.830191  1
  Br  Br3  1  0.000000  0.452438  0.169809  1
  Br  Br4  1  0.000000  0.000000  0.000000  1
  Br  Br5  1  0.000000  0.830191  0.547562  1
  Br  Br6  1  0.000000  0.169809  0.452438  1
  O  O7  1  0.500000  0.802496  0.197504  1
  O  O8  1  0.500000  0.197504  0.802496  1
