# generated using pymatgen
data_Hf7Sc2Re3MoP
_symmetry_space_group_name_H-M   'P 1'
_cell_length_a   8.62147440
_cell_length_b   8.62147323
_cell_length_c   8.57156900
_cell_angle_alpha   90.00000000
_cell_angle_beta   90.00000000
_cell_angle_gamma   119.88665569
_symmetry_Int_Tables_number   1
_chemical_formula_structural   Hf7Sc2Re3MoP
_chemical_formula_sum   'Hf14 Sc4 Re6 Mo2 P2'
_cell_volume   552.39389933
_cell_formula_units_Z   2
loop_
 _symmetry_equiv_pos_site_id
 _symmetry_equiv_pos_as_xyz
  1  'x, y, z'
loop_
 _atom_site_type_symbol
 _atom_site_label
 _atom_site_symmetry_multiplicity
 _atom_site_fract_x
 _atom_site_fract_y
 _atom_site_fract_z
 _atom_site_occupancy
  Hf  Hf0  1  0.196056  0.803944  0.451447  1
  Hf  Hf1  1  0.195738  0.390748  0.451858  1
  Hf  Hf2  1  0.609252  0.804262  0.451858  1
  Hf  Hf3  1  0.804388  0.195612  0.549468  1
  Hf  Hf4  1  0.803802  0.608663  0.547984  1
  Hf  Hf5  1  0.391337  0.196198  0.547984  1
  Hf  Hf6  1  0.804388  0.195612  0.950532  1
  Hf  Hf7  1  0.803802  0.608663  0.952016  1
  Hf  Hf8  1  0.391337  0.196198  0.952016  1
  Hf  Hf9  1  0.196056  0.803944  0.048553  1
  Hf  Hf10  1  0.195738  0.390748  0.048142  1
  Hf  Hf11  1  0.609252  0.804262  0.048142  1
  Hf  Hf12  1  0.460660  0.920528  0.750000  1
  Hf  Hf13  1  0.079472  0.539340  0.750000  1
  Sc  Sc14  1  0.540684  0.459316  0.250000  1
  Sc  Sc15  1  0.538800  0.080046  0.250000  1
  Sc  Sc16  1  0.919954  0.461200  0.250000  1
  Sc  Sc17  1  0.457995  0.542005  0.750000  1
  Re  Re18  1  0.890298  0.779793  0.250000  1
  Re  Re19  1  0.220207  0.109702  0.250000  1
  Re  Re20  1  0.109536  0.219975  0.750000  1
  Re  Re21  1  0.780025  0.890464  0.750000  1
  Re  Re22  1  0.999975  0.000025  0.499293  1
  Re  Re23  1  0.999975  0.000025  0.000707  1
  Mo  Mo24  1  0.891424  0.108576  0.250000  1
  Mo  Mo25  1  0.108305  0.891695  0.750000  1
  P  P26  1  0.333630  0.666370  0.250000  1
  P  P27  1  0.667911  0.332089  0.750000  1
