# generated using pymatgen
data_Na6Be2O5
_symmetry_space_group_name_H-M   'P 1'
_cell_length_a   5.71070300
_cell_length_b   5.71070300
_cell_length_c   10.29761100
_cell_angle_alpha   90.00000000
_cell_angle_beta   90.00000000
_cell_angle_gamma   90.00000000
_symmetry_Int_Tables_number   1
_chemical_formula_structural   Na6Be2O5
_chemical_formula_sum   'Na12 Be4 O10'
_cell_volume   335.82701579
_cell_formula_units_Z   2
loop_
 _symmetry_equiv_pos_site_id
 _symmetry_equiv_pos_as_xyz
  1  'x, y, z'
loop_
 _atom_site_type_symbol
 _atom_site_label
 _atom_site_symmetry_multiplicity
 _atom_site_fract_x
 _atom_site_fract_y
 _atom_site_fract_z
 _atom_site_occupancy
  Na  Na0  1  0.334629  0.334629  0.000000  1
  Na  Na1  1  0.165371  0.834629  0.500000  1
  Na  Na2  1  0.834629  0.165371  0.500000  1
  Na  Na3  1  0.665371  0.665371  0.000000  1
  Na  Na4  1  0.500000  0.000000  0.750000  1
  Na  Na5  1  0.500000  0.000000  0.250000  1
  Na  Na6  1  0.000000  0.500000  0.750000  1
  Na  Na7  1  0.000000  0.500000  0.250000  1
  Na  Na8  1  0.000000  0.000000  0.222299  1
  Na  Na9  1  0.500000  0.500000  0.722299  1
  Na  Na10  1  0.500000  0.500000  0.277701  1
  Na  Na11  1  0.000000  0.000000  0.777701  1
  Be  Be12  1  0.694732  0.694732  0.500000  1
  Be  Be13  1  0.305268  0.305268  0.500000  1
  Be  Be14  1  0.805268  0.194732  0.000000  1
  Be  Be15  1  0.194732  0.805268  0.000000  1
  O  O16  1  0.212040  0.212040  0.368096  1
  O  O17  1  0.287960  0.712040  0.868096  1
  O  O18  1  0.787960  0.787960  0.631904  1
  O  O19  1  0.712040  0.287960  0.131904  1
  O  O20  1  0.287960  0.712040  0.131904  1
  O  O21  1  0.212040  0.212040  0.631904  1
  O  O22  1  0.787960  0.787960  0.368096  1
  O  O23  1  0.000000  0.000000  0.000000  1
  O  O24  1  0.712040  0.287960  0.868096  1
  O  O25  1  0.500000  0.500000  0.500000  1
