# generated using pymatgen
data_TbTm2Cd3Ga2Ag
_symmetry_space_group_name_H-M   'P 1'
_cell_length_a   7.35179907
_cell_length_b   7.34856272
_cell_length_c   4.32264800
_cell_angle_alpha   90.00000000
_cell_angle_beta   90.00000000
_cell_angle_gamma   119.98543835
_symmetry_Int_Tables_number   1
_chemical_formula_structural   TbTm2Cd3Ga2Ag
_chemical_formula_sum   'Tb1 Tm2 Cd3 Ga2 Ag1'
_cell_volume   202.27408462
_cell_formula_units_Z   1
loop_
 _symmetry_equiv_pos_site_id
 _symmetry_equiv_pos_as_xyz
  1  'x, y, z'
loop_
 _atom_site_type_symbol
 _atom_site_label
 _atom_site_symmetry_multiplicity
 _atom_site_fract_x
 _atom_site_fract_y
 _atom_site_fract_z
 _atom_site_occupancy
  Tb  Tb0  1  0.000000  0.578746  0.500000  1
  Tm  Tm1  1  0.420760  0.420471  0.500000  1
  Tm  Tm2  1  0.579240  0.999710  0.500000  1
  Cd  Cd3  1  0.746760  0.747153  0.000000  1
  Cd  Cd4  1  0.253240  0.000392  0.000000  1
  Cd  Cd5  1  0.000000  0.252127  0.000000  1
  Ga  Ga6  1  0.664939  0.332258  0.000000  1
  Ga  Ga7  1  0.335061  0.667321  0.000000  1
  Ag  Ag8  1  0.000000  0.001822  0.500000  1
