# generated using pymatgen
data_Nd2HoCd3(IrO7)2
_symmetry_space_group_name_H-M   'P 1'
_cell_length_a   6.45513218
_cell_length_b   6.60024521
_cell_length_c   7.61907800
_cell_angle_alpha   90.00000000
_cell_angle_beta   90.00000000
_cell_angle_gamma   112.30697756
_symmetry_Int_Tables_number   1
_chemical_formula_structural   Nd2HoCd3(IrO7)2
_chemical_formula_sum   'Nd2 Ho1 Cd3 Ir2 O14'
_cell_volume   300.32128959
_cell_formula_units_Z   1
loop_
 _symmetry_equiv_pos_site_id
 _symmetry_equiv_pos_as_xyz
  1  'x, y, z'
loop_
 _atom_site_type_symbol
 _atom_site_label
 _atom_site_symmetry_multiplicity
 _atom_site_fract_x
 _atom_site_fract_y
 _atom_site_fract_z
 _atom_site_occupancy
  Nd  Nd0  1  0.997854  0.000050  0.999792  1
  Nd  Nd1  1  0.997854  0.000050  0.500208  1
  Ho  Ho2  1  0.052256  0.510413  0.250000  1
  Cd  Cd3  1  0.486811  0.988939  0.750000  1
  Cd  Cd4  1  0.513583  0.020207  0.250000  1
  Cd  Cd5  1  0.971733  0.492556  0.750000  1
  Ir  Ir6  1  0.501956  0.499890  0.999032  1
  Ir  Ir7  1  0.501956  0.499890  0.500968  1
  O  O8  1  0.588898  0.511321  0.750000  1
  O  O9  1  0.408436  0.488624  0.250000  1
  O  O10  1  0.850170  0.131437  0.750000  1
  O  O11  1  0.153207  0.872978  0.250000  1
  O  O12  1  0.119205  0.851900  0.750000  1
  O  O13  1  0.874627  0.147661  0.250000  1
  O  O14  1  0.427608  0.190225  0.998669  1
  O  O15  1  0.569312  0.808542  0.501417  1
  O  O16  1  0.180535  0.427032  0.976312  1
  O  O17  1  0.813271  0.566243  0.451997  1
  O  O18  1  0.427608  0.190225  0.501331  1
  O  O19  1  0.569312  0.808542  0.998583  1
  O  O20  1  0.813271  0.566243  0.048003  1
  O  O21  1  0.180535  0.427032  0.523688  1
