# generated using pymatgen
data_La8TbNd11Si16
_symmetry_space_group_name_H-M   'P 1'
_cell_length_a   7.92816414
_cell_length_b   7.92816414
_cell_length_c   15.33589439
_cell_angle_alpha   89.98180290
_cell_angle_beta   90.01819710
_cell_angle_gamma   90.01175233
_symmetry_Int_Tables_number   1
_chemical_formula_structural   La8TbNd11Si16
_chemical_formula_sum   'La8 Tb1 Nd11 Si16'
_cell_volume   963.94958827
_cell_formula_units_Z   1
loop_
 _symmetry_equiv_pos_site_id
 _symmetry_equiv_pos_as_xyz
  1  'x, y, z'
loop_
 _atom_site_type_symbol
 _atom_site_label
 _atom_site_symmetry_multiplicity
 _atom_site_fract_x
 _atom_site_fract_y
 _atom_site_fract_z
 _atom_site_occupancy
  La  La0  1  0.986553  0.622735  0.052097  1
  La  La1  1  0.013565  0.377269  0.552204  1
  La  La2  1  0.622735  0.986553  0.947903  1
  La  La3  1  0.122694  0.513201  0.802141  1
  La  La4  1  0.877272  0.487210  0.302492  1
  La  La5  1  0.513201  0.122694  0.197859  1
  La  La6  1  0.487210  0.877272  0.697508  1
  La  La7  1  0.377269  0.013565  0.447796  1
  Tb  Tb8  1  0.690370  0.690370  0.500000  1
  Nd  Nd9  1  0.372903  0.481359  0.373564  1
  Nd  Nd10  1  0.873058  0.018961  0.376948  1
  Nd  Nd11  1  0.981080  0.126727  0.123345  1
  Nd  Nd12  1  0.018961  0.873058  0.623052  1
  Nd  Nd13  1  0.626623  0.519158  0.873073  1
  Nd  Nd14  1  0.481359  0.372903  0.626436  1
  Nd  Nd15  1  0.519158  0.626623  0.126927  1
  Nd  Nd16  1  0.126727  0.981080  0.876655  1
  Nd  Nd17  1  0.808286  0.191370  0.749999  1
  Nd  Nd18  1  0.191370  0.808286  0.250001  1
  Nd  Nd19  1  0.308182  0.308182  0.000000  1
  Si  Si20  1  0.077173  0.713473  0.439885  1
  Si  Si21  1  0.920486  0.286295  0.939413  1
  Si  Si22  1  0.713473  0.077173  0.560115  1
  Si  Si23  1  0.213935  0.420651  0.189605  1
  Si  Si24  1  0.785449  0.580783  0.687494  1
  Si  Si25  1  0.420651  0.213935  0.810395  1
  Si  Si26  1  0.580783  0.785449  0.312506  1
  Si  Si27  1  0.286295  0.920486  0.060587  1
  Si  Si28  1  0.830687  0.805941  0.795849  1
  Si  Si29  1  0.169365  0.194098  0.296289  1
  Si  Si30  1  0.805941  0.830687  0.204151  1
  Si  Si31  1  0.308169  0.669867  0.545773  1
  Si  Si32  1  0.694114  0.330939  0.046315  1
  Si  Si33  1  0.669867  0.308169  0.454227  1
  Si  Si34  1  0.330939  0.694114  0.953685  1
  Si  Si35  1  0.194098  0.169365  0.703711  1
