# generated using pymatgen
data_Y5Ti3(Co4P3)4
_symmetry_space_group_name_H-M   'P 1'
_cell_length_a   12.14601800
_cell_length_b   12.14601751
_cell_length_c   3.67548200
_cell_angle_alpha   90.00000000
_cell_angle_beta   90.00000000
_cell_angle_gamma   120.00000678
_symmetry_Int_Tables_number   1
_chemical_formula_structural   Y5Ti3(Co4P3)4
_chemical_formula_sum   'Y5 Ti3 Co16 P12'
_cell_volume   469.58338868
_cell_formula_units_Z   1
loop_
 _symmetry_equiv_pos_site_id
 _symmetry_equiv_pos_as_xyz
  1  'x, y, z'
loop_
 _atom_site_type_symbol
 _atom_site_label
 _atom_site_symmetry_multiplicity
 _atom_site_fract_x
 _atom_site_fract_y
 _atom_site_fract_z
 _atom_site_occupancy
  Y  Y0  1  0.185247  0.185247  0.500000  1
  Y  Y1  1  0.814753  0.000000  0.500000  1
  Y  Y2  1  0.000000  0.814753  0.500000  1
  Y  Y3  1  0.333333  0.666667  0.000000  1
  Y  Y4  1  0.666667  0.333333  0.000000  1
  Ti  Ti5  1  0.560808  0.560808  0.000000  1
  Ti  Ti6  1  0.439192  0.000000  0.000000  1
  Ti  Ti7  1  0.000000  0.439192  0.000000  1
  Co  Co8  1  0.718454  0.718454  0.500000  1
  Co  Co9  1  0.281546  0.000000  0.500000  1
  Co  Co10  1  0.000000  0.281546  0.500000  1
  Co  Co11  1  0.177649  0.375786  0.000000  1
  Co  Co12  1  0.624214  0.801862  0.000000  1
  Co  Co13  1  0.198138  0.822351  0.000000  1
  Co  Co14  1  0.801862  0.624214  0.000000  1
  Co  Co15  1  0.822351  0.198138  0.000000  1
  Co  Co16  1  0.375786  0.177649  0.000000  1
  Co  Co17  1  0.356417  0.481155  0.500000  1
  Co  Co18  1  0.518845  0.875263  0.500000  1
  Co  Co19  1  0.124737  0.643583  0.500000  1
  Co  Co20  1  0.875263  0.518845  0.500000  1
  Co  Co21  1  0.643583  0.124737  0.500000  1
  Co  Co22  1  0.481155  0.356417  0.500000  1
  Co  Co23  1  0.000000  0.000000  0.000000  1
  P  P24  1  0.820481  0.820481  0.000000  1
  P  P25  1  0.179519  0.000000  0.000000  1
  P  P26  1  0.000000  0.179519  0.000000  1
  P  P27  1  0.167448  0.479693  0.500000  1
  P  P28  1  0.520307  0.687757  0.500000  1
  P  P29  1  0.312243  0.832552  0.500000  1
  P  P30  1  0.687757  0.520307  0.500000  1
  P  P31  1  0.832552  0.312243  0.500000  1
  P  P32  1  0.479693  0.167448  0.500000  1
  P  P33  1  0.359513  0.359513  0.000000  1
  P  P34  1  0.640487  0.000000  0.000000  1
  P  P35  1  0.000000  0.640487  0.000000  1
