# generated using pymatgen
data_La8Nd9Tm3Si16
_symmetry_space_group_name_H-M   'P 1'
_cell_length_a   7.87544490
_cell_length_b   7.87544490
_cell_length_c   15.22249278
_cell_angle_alpha   89.97416998
_cell_angle_beta   90.02583002
_cell_angle_gamma   89.95153523
_symmetry_Int_Tables_number   1
_chemical_formula_structural   La8Nd9Tm3Si16
_chemical_formula_sum   'La8 Nd9 Tm3 Si16'
_cell_volume   944.13854440
_cell_formula_units_Z   1
loop_
 _symmetry_equiv_pos_site_id
 _symmetry_equiv_pos_as_xyz
  1  'x, y, z'
loop_
 _atom_site_type_symbol
 _atom_site_label
 _atom_site_symmetry_multiplicity
 _atom_site_fract_x
 _atom_site_fract_y
 _atom_site_fract_z
 _atom_site_occupancy
  La  La0  1  0.987757  0.623591  0.052572  1
  La  La1  1  0.012815  0.376325  0.552555  1
  La  La2  1  0.623591  0.987757  0.947428  1
  La  La3  1  0.123528  0.513855  0.801839  1
  La  La4  1  0.876441  0.486974  0.302624  1
  La  La5  1  0.513855  0.123528  0.198161  1
  La  La6  1  0.486974  0.876441  0.697376  1
  La  La7  1  0.376325  0.012815  0.447445  1
  Nd  Nd8  1  0.372694  0.480751  0.373111  1
  Nd  Nd9  1  0.872968  0.019564  0.377455  1
  Nd  Nd10  1  0.980652  0.126896  0.123182  1
  Nd  Nd11  1  0.019564  0.872968  0.622545  1
  Nd  Nd12  1  0.626467  0.519961  0.872108  1
  Nd  Nd13  1  0.480751  0.372694  0.626889  1
  Nd  Nd14  1  0.519961  0.626467  0.127892  1
  Nd  Nd15  1  0.126896  0.980652  0.876818  1
  Nd  Nd16  1  0.307992  0.307992  0.000000  1
  Tm  Tm17  1  0.689258  0.689258  0.500000  1
  Tm  Tm18  1  0.809557  0.188949  0.749885  1
  Tm  Tm19  1  0.188949  0.809557  0.250115  1
  Si  Si20  1  0.078240  0.714617  0.436730  1
  Si  Si21  1  0.918385  0.284764  0.935888  1
  Si  Si22  1  0.714617  0.078240  0.563270  1
  Si  Si23  1  0.213351  0.424244  0.189967  1
  Si  Si24  1  0.785756  0.578613  0.686493  1
  Si  Si25  1  0.424244  0.213351  0.810033  1
  Si  Si26  1  0.578613  0.785756  0.313507  1
  Si  Si27  1  0.284764  0.918385  0.064112  1
  Si  Si28  1  0.829579  0.809721  0.795010  1
  Si  Si29  1  0.170360  0.190359  0.295858  1
  Si  Si30  1  0.809721  0.829579  0.204990  1
  Si  Si31  1  0.309579  0.670877  0.544826  1
  Si  Si32  1  0.694014  0.330546  0.045714  1
  Si  Si33  1  0.670877  0.309579  0.455174  1
  Si  Si34  1  0.330546  0.694014  0.954286  1
  Si  Si35  1  0.190359  0.170360  0.704142  1
