# generated using pymatgen
data_Tb2IrRu3
_symmetry_space_group_name_H-M   'P 1'
_cell_length_a   5.28726100
_cell_length_b   5.28726045
_cell_length_c   8.99352300
_cell_angle_alpha   90.00000000
_cell_angle_beta   90.00000000
_cell_angle_gamma   119.99999716
_symmetry_Int_Tables_number   1
_chemical_formula_structural   Tb2IrRu3
_chemical_formula_sum   'Tb4 Ir2 Ru6'
_cell_volume   217.73184251
_cell_formula_units_Z   2
loop_
 _symmetry_equiv_pos_site_id
 _symmetry_equiv_pos_as_xyz
  1  'x, y, z'
loop_
 _atom_site_type_symbol
 _atom_site_label
 _atom_site_symmetry_multiplicity
 _atom_site_fract_x
 _atom_site_fract_y
 _atom_site_fract_z
 _atom_site_occupancy
  Tb  Tb0  1  0.666667  0.333334  0.066874  1
  Tb  Tb1  1  0.666667  0.333334  0.433126  1
  Tb  Tb2  1  0.333333  0.666667  0.566873  1
  Tb  Tb3  1  0.333333  0.666667  0.933127  1
  Ir  Ir4  1  0.000000  0.000000  0.000000  1
  Ir  Ir5  1  0.000000  0.000000  0.500000  1
  Ru  Ru6  1  0.171203  0.342407  0.250000  1
  Ru  Ru7  1  0.171204  0.828797  0.250000  1
  Ru  Ru8  1  0.657594  0.828797  0.250000  1
  Ru  Ru9  1  0.342406  0.171203  0.750000  1
  Ru  Ru10  1  0.828796  0.171203  0.750000  1
  Ru  Ru11  1  0.828797  0.657594  0.750000  1
