# generated using pymatgen
data_Y3Tm4CoBr12
_symmetry_space_group_name_H-M   'P 1'
_cell_length_a   9.15261451
_cell_length_b   9.15261410
_cell_length_c   9.15261300
_cell_angle_alpha   106.83666524
_cell_angle_beta   106.83665792
_cell_angle_gamma   106.83665749
_symmetry_Int_Tables_number   1
_chemical_formula_structural   Y3Tm4CoBr12
_chemical_formula_sum   'Y3 Tm4 Co1 Br12'
_cell_volume   641.35358338
_cell_formula_units_Z   1
loop_
 _symmetry_equiv_pos_site_id
 _symmetry_equiv_pos_as_xyz
  1  'x, y, z'
loop_
 _atom_site_type_symbol
 _atom_site_label
 _atom_site_symmetry_multiplicity
 _atom_site_fract_x
 _atom_site_fract_y
 _atom_site_fract_z
 _atom_site_occupancy
  Y  Y0  1  0.302836  0.096159  0.021362  1
  Y  Y1  1  0.021362  0.302836  0.096159  1
  Y  Y2  1  0.096159  0.021362  0.302836  1
  Tm  Tm3  1  0.499657  0.499657  0.499657  1
  Tm  Tm4  1  0.701947  0.903867  0.977418  1
  Tm  Tm5  1  0.977418  0.701947  0.903867  1
  Tm  Tm6  1  0.903867  0.977418  0.701947  1
  Co  Co7  1  0.999647  0.999647  0.999647  1
  Br  Br8  1  0.463995  0.170143  0.389434  1
  Br  Br9  1  0.389434  0.463995  0.170143  1
  Br  Br10  1  0.170143  0.389434  0.463995  1
  Br  Br11  1  0.537954  0.830132  0.611884  1
  Br  Br12  1  0.611884  0.537954  0.830132  1
  Br  Br13  1  0.830132  0.611884  0.537954  1
  Br  Br14  1  0.323432  0.775927  0.929663  1
  Br  Br15  1  0.929663  0.323432  0.775927  1
  Br  Br16  1  0.775927  0.929663  0.323432  1
  Br  Br17  1  0.675446  0.219640  0.069456  1
  Br  Br18  1  0.069456  0.675446  0.219640  1
  Br  Br19  1  0.219640  0.069456  0.675446  1
