# generated using pymatgen
data_Mn5FeIr2
_symmetry_space_group_name_H-M   'P 1'
_cell_length_a   5.16330400
_cell_length_b   5.18294398
_cell_length_c   4.08604500
_cell_angle_alpha   90.00000000
_cell_angle_beta   90.00000000
_cell_angle_gamma   119.87471557
_symmetry_Int_Tables_number   1
_chemical_formula_structural   Mn5FeIr2
_chemical_formula_sum   'Mn5 Fe1 Ir2'
_cell_volume   94.81670942
_cell_formula_units_Z   1
loop_
 _symmetry_equiv_pos_site_id
 _symmetry_equiv_pos_as_xyz
  1  'x, y, z'
loop_
 _atom_site_type_symbol
 _atom_site_label
 _atom_site_symmetry_multiplicity
 _atom_site_fract_x
 _atom_site_fract_y
 _atom_site_fract_z
 _atom_site_occupancy
  Mn  Mn0  1  0.680873  0.842119  0.250000  1
  Mn  Mn1  1  0.161246  0.842119  0.250000  1
  Mn  Mn2  1  0.841062  0.682124  0.750000  1
  Mn  Mn3  1  0.319737  0.159817  0.750000  1
  Mn  Mn4  1  0.840080  0.159817  0.750000  1
  Fe  Fe5  1  0.158940  0.317880  0.250000  1
  Ir  Ir6  1  0.664806  0.329611  0.250000  1
  Ir  Ir7  1  0.333256  0.666513  0.750000  1
