# generated using pymatgen
data_DyCu4Rh
_symmetry_space_group_name_H-M   'P 1'
_cell_length_a   5.01501200
_cell_length_b   5.01501268
_cell_length_c   4.24520400
_cell_angle_alpha   90.00000000
_cell_angle_beta   90.00000000
_cell_angle_gamma   120.00000871
_symmetry_Int_Tables_number   1
_chemical_formula_structural   DyCu4Rh
_chemical_formula_sum   'Dy1 Cu4 Rh1'
_cell_volume   92.46410501
_cell_formula_units_Z   1
loop_
 _symmetry_equiv_pos_site_id
 _symmetry_equiv_pos_as_xyz
  1  'x, y, z'
loop_
 _atom_site_type_symbol
 _atom_site_label
 _atom_site_symmetry_multiplicity
 _atom_site_fract_x
 _atom_site_fract_y
 _atom_site_fract_z
 _atom_site_occupancy
  Dy  Dy0  1  0.000000  0.000000  0.000000  1
  Cu  Cu1  1  0.333333  0.666667  0.000000  1
  Cu  Cu2  1  0.497906  0.502094  0.500000  1
  Cu  Cu3  1  0.497906  0.995813  0.500000  1
  Cu  Cu4  1  0.004187  0.502094  0.500000  1
  Rh  Rh5  1  0.666667  0.333333  0.000000  1
