# generated using pymatgen
data_LiMgP7Ru12
_symmetry_space_group_name_H-M   'P 1'
_cell_length_a   9.39256900
_cell_length_b   9.39256880
_cell_length_c   3.90222200
_cell_angle_alpha   90.00000000
_cell_angle_beta   90.00000000
_cell_angle_gamma   120.00000233
_symmetry_Int_Tables_number   1
_chemical_formula_structural   LiMgP7Ru12
_chemical_formula_sum   'Li1 Mg1 P7 Ru12'
_cell_volume   298.13390862
_cell_formula_units_Z   1
loop_
 _symmetry_equiv_pos_site_id
 _symmetry_equiv_pos_as_xyz
  1  'x, y, z'
loop_
 _atom_site_type_symbol
 _atom_site_label
 _atom_site_symmetry_multiplicity
 _atom_site_fract_x
 _atom_site_fract_y
 _atom_site_fract_z
 _atom_site_occupancy
  Li  Li0  1  0.000000  0.000000  0.000000  1
  Mg  Mg1  1  0.333333  0.666667  0.500000  1
  P  P2  1  0.666667  0.333333  0.000000  1
  P  P3  1  0.078304  0.644705  0.000000  1
  P  P4  1  0.566402  0.921696  0.000000  1
  P  P5  1  0.355295  0.433598  0.000000  1
  P  P6  1  0.782345  0.733804  0.500000  1
  P  P7  1  0.951459  0.217655  0.500000  1
  P  P8  1  0.266196  0.048541  0.500000  1
  Ru  Ru9  1  0.103174  0.416568  0.000000  1
  Ru  Ru10  1  0.313393  0.896826  0.000000  1
  Ru  Ru11  1  0.583432  0.686607  0.000000  1
  Ru  Ru12  1  0.818732  0.608828  0.000000  1
  Ru  Ru13  1  0.790097  0.181268  0.000000  1
  Ru  Ru14  1  0.391172  0.209903  0.000000  1
  Ru  Ru15  1  0.060494  0.778706  0.500000  1
  Ru  Ru16  1  0.718212  0.939506  0.500000  1
  Ru  Ru17  1  0.221294  0.281788  0.500000  1
  Ru  Ru18  1  0.872990  0.421063  0.500000  1
  Ru  Ru19  1  0.548073  0.127010  0.500000  1
  Ru  Ru20  1  0.578937  0.451927  0.500000  1
