# generated using pymatgen
data_TiF18
_symmetry_space_group_name_H-M   'P 1'
_cell_length_a   6.14669827
_cell_length_b   9.14718125
_cell_length_c   13.07490200
_cell_angle_alpha   100.12976304
_cell_angle_beta   90.55874237
_cell_angle_gamma   105.19979738
_symmetry_Int_Tables_number   1
_chemical_formula_structural   TiF18
_chemical_formula_sum   'Ti2 F36'
_cell_volume   697.15190396
_cell_formula_units_Z   2
loop_
 _symmetry_equiv_pos_site_id
 _symmetry_equiv_pos_as_xyz
  1  'x, y, z'
loop_
 _atom_site_type_symbol
 _atom_site_label
 _atom_site_symmetry_multiplicity
 _atom_site_fract_x
 _atom_site_fract_y
 _atom_site_fract_z
 _atom_site_occupancy
  Ti  Ti0  1  0.074698  0.951053  0.311330  1
  Ti  Ti1  1  0.925302  0.048947  0.688670  1
  F  F2  1  0.661893  0.612779  0.382104  1
  F  F3  1  0.338107  0.387221  0.617896  1
  F  F4  1  0.065197  0.357237  0.364472  1
  F  F5  1  0.934803  0.642763  0.635528  1
  F  F6  1  0.166503  0.904387  0.943976  1
  F  F7  1  0.833497  0.095613  0.056024  1
  F  F8  1  0.826418  0.913968  0.381027  1
  F  F9  1  0.173582  0.086032  0.618973  1
  F  F10  1  0.126672  0.771070  0.262946  1
  F  F11  1  0.873328  0.228930  0.737054  1
  F  F12  1  0.577003  0.454504  0.389873  1
  F  F13  1  0.422997  0.545496  0.610127  1
  F  F14  1  0.027688  0.038191  0.205745  1
  F  F15  1  0.972312  0.961809  0.794255  1
  F  F16  1  0.291923  0.087642  0.394526  1
  F  F17  1  0.708077  0.912358  0.605474  1
  F  F18  1  0.045502  0.435267  0.281073  1
  F  F19  1  0.954498  0.564733  0.718927  1
  F  F20  1  0.788587  0.710909  0.047485  1
  F  F21  1  0.211413  0.289091  0.952515  1
  F  F22  1  0.831979  0.563318  0.024049  1
  F  F23  1  0.168021  0.436682  0.975951  1
  F  F24  1  0.552908  0.588437  0.834278  1
  F  F25  1  0.447092  0.411563  0.165722  1
  F  F26  1  0.530546  0.992083  0.223620  1
  F  F27  1  0.469454  0.007917  0.776380  1
  F  F28  1  0.296104  0.844776  0.480710  1
  F  F29  1  0.703896  0.155224  0.519290  1
  F  F30  1  0.279909  0.865327  0.026888  1
  F  F31  1  0.720091  0.134673  0.973112  1
  F  F32  1  0.553524  0.845018  0.174467  1
  F  F33  1  0.446476  0.154982  0.825533  1
  F  F34  1  0.597657  0.315708  0.156594  1
  F  F35  1  0.402343  0.684292  0.843406  1
  F  F36  1  0.255815  0.682433  0.474392  1
  F  F37  1  0.744185  0.317567  0.525608  1
