# generated using pymatgen
data_Cd3GeP7N12
_symmetry_space_group_name_H-M   'P 1'
_cell_length_a   7.35984345
_cell_length_b   7.39370761
_cell_length_c   7.39370769
_cell_angle_alpha   109.56381038
_cell_angle_beta   109.37846844
_cell_angle_gamma   109.37847507
_symmetry_Int_Tables_number   1
_chemical_formula_structural   Cd3GeP7N12
_chemical_formula_sum   'Cd3 Ge1 P7 N12'
_cell_volume   310.07522391
_cell_formula_units_Z   1
loop_
 _symmetry_equiv_pos_site_id
 _symmetry_equiv_pos_as_xyz
  1  'x, y, z'
loop_
 _atom_site_type_symbol
 _atom_site_label
 _atom_site_symmetry_multiplicity
 _atom_site_fract_x
 _atom_site_fract_y
 _atom_site_fract_z
 _atom_site_occupancy
  Cd  Cd0  1  0.999955  0.000000  0.677300  1
  Cd  Cd1  1  0.999955  0.677300  0.000000  1
  Cd  Cd2  1  0.322655  0.322700  0.322700  1
  Ge  Ge3  1  0.640510  0.000000  0.000000  1
  P  P4  1  0.252429  0.748213  0.500038  1
  P  P5  1  0.752391  0.248175  0.499962  1
  P  P6  1  0.752391  0.499962  0.248175  1
  P  P7  1  0.252429  0.500038  0.748213  1
  P  P8  1  0.504215  0.751825  0.251787  1
  P  P9  1  0.504215  0.251787  0.751825  1
  P  P10  1  0.977026  0.000000  0.000000  1
  N  N11  1  0.706732  0.277793  0.277793  1
  N  N12  1  0.289875  0.716587  0.287860  1
  N  N13  1  0.303105  0.581225  0.581225  1
  N  N14  1  0.573287  0.571272  0.283413  1
  N  N15  1  0.428939  0.722207  0.000000  1
  N  N16  1  0.002015  0.712140  0.428728  1
  N  N17  1  0.573287  0.283413  0.571272  1
  N  N18  1  0.721880  0.000000  0.418775  1
  N  N19  1  0.428939  0.000000  0.722207  1
  N  N20  1  0.721880  0.418775  0.000000  1
  N  N21  1  0.289875  0.287860  0.716587  1
  N  N22  1  0.002015  0.428728  0.712140  1
