# generated using pymatgen
data_CaYbP2O7
_symmetry_space_group_name_H-M   'P 1'
_cell_length_a   6.69602012
_cell_length_b   6.85069760
_cell_length_c   6.76759781
_cell_angle_alpha   65.11543524
_cell_angle_beta   84.03397967
_cell_angle_gamma   87.04227043
_symmetry_Int_Tables_number   1
_chemical_formula_structural   CaYbP2O7
_chemical_formula_sum   'Ca2 Yb2 P4 O14'
_cell_volume   280.08741182
_cell_formula_units_Z   2
loop_
 _symmetry_equiv_pos_site_id
 _symmetry_equiv_pos_as_xyz
  1  'x, y, z'
loop_
 _atom_site_type_symbol
 _atom_site_label
 _atom_site_symmetry_multiplicity
 _atom_site_fract_x
 _atom_site_fract_y
 _atom_site_fract_z
 _atom_site_occupancy
  Ca  Ca0  1  0.873517  0.673667  0.262769  1
  Ca  Ca1  1  0.126483  0.326333  0.737231  1
  Yb  Yb2  1  0.351885  0.751026  0.879539  1
  Yb  Yb3  1  0.648115  0.248974  0.120461  1
  P  P4  1  0.845958  0.761897  0.761810  1
  P  P5  1  0.154042  0.238103  0.238190  1
  P  P6  1  0.366110  0.809411  0.358649  1
  P  P7  1  0.633890  0.190589  0.641351  1
  O  O8  1  0.009623  0.819052  0.871220  1
  O  O9  1  0.990377  0.180948  0.128780  1
  O  O10  1  0.731275  0.977993  0.607505  1
  O  O11  1  0.268725  0.022007  0.392495  1
  O  O12  1  0.579367  0.882050  0.250773  1
  O  O13  1  0.420633  0.117950  0.749227  1
  O  O14  1  0.924951  0.657901  0.609590  1
  O  O15  1  0.075049  0.342099  0.390410  1
  O  O16  1  0.686079  0.626822  0.944585  1
  O  O17  1  0.313921  0.373178  0.055415  1
  O  O18  1  0.762367  0.235174  0.790118  1
  O  O19  1  0.237633  0.764826  0.209882  1
  O  O20  1  0.359487  0.639232  0.594351  1
  O  O21  1  0.640513  0.360768  0.405649  1
