# generated using pymatgen
data_Lu7(ScPt6)3
_symmetry_space_group_name_H-M   'P 1'
_cell_length_a   9.54736192
_cell_length_b   9.57765390
_cell_length_c   5.68143000
_cell_angle_alpha   90.00000000
_cell_angle_beta   90.00000000
_cell_angle_gamma   89.88382038
_symmetry_Int_Tables_number   1
_chemical_formula_structural   Lu7(ScPt6)3
_chemical_formula_sum   'Lu7 Sc3 Pt18'
_cell_volume   519.51643734
_cell_formula_units_Z   1
loop_
 _symmetry_equiv_pos_site_id
 _symmetry_equiv_pos_as_xyz
  1  'x, y, z'
loop_
 _atom_site_type_symbol
 _atom_site_label
 _atom_site_symmetry_multiplicity
 _atom_site_fract_x
 _atom_site_fract_y
 _atom_site_fract_z
 _atom_site_occupancy
  Lu  Lu0  1  0.547741  0.189236  0.000000  1
  Lu  Lu1  1  0.190709  0.548492  0.000000  1
  Lu  Lu2  1  0.809827  0.452247  0.000000  1
  Lu  Lu3  1  0.310447  0.047538  0.500000  1
  Lu  Lu4  1  0.689303  0.952041  0.500000  1
  Lu  Lu5  1  0.952187  0.690081  0.500000  1
  Lu  Lu6  1  0.047871  0.310283  0.500000  1
  Sc  Sc7  1  0.451842  0.809873  0.000000  1
  Sc  Sc8  1  0.499936  0.500268  0.500000  1
  Sc  Sc9  1  0.000024  0.999917  0.000000  1
  Pt  Pt10  1  0.192642  0.810288  0.248683  1
  Pt  Pt11  1  0.810378  0.189523  0.749861  1
  Pt  Pt12  1  0.810378  0.189523  0.250139  1
  Pt  Pt13  1  0.192642  0.810288  0.751317  1
  Pt  Pt14  1  0.441550  0.778505  0.500000  1
  Pt  Pt15  1  0.558855  0.222112  0.500000  1
  Pt  Pt16  1  0.221690  0.559077  0.500000  1
  Pt  Pt17  1  0.778118  0.441685  0.500000  1
  Pt  Pt18  1  0.310287  0.309918  0.249575  1
  Pt  Pt19  1  0.687202  0.690400  0.751471  1
  Pt  Pt20  1  0.687202  0.690400  0.248529  1
  Pt  Pt21  1  0.310287  0.309918  0.750425  1
  Pt  Pt22  1  0.280052  0.056763  0.000000  1
  Pt  Pt23  1  0.719099  0.940759  0.000000  1
  Pt  Pt24  1  0.940949  0.722144  0.000000  1
  Pt  Pt25  1  0.059152  0.277772  0.000000  1
  Pt  Pt26  1  0.000243  0.999202  0.500000  1
  Pt  Pt27  1  0.499385  0.501747  0.000000  1
