# generated using pymatgen
data_Tm2Ga2CuRu
_symmetry_space_group_name_H-M   'P 1'
_cell_length_a   4.27355500
_cell_length_b   6.76778000
_cell_length_c   7.61664500
_cell_angle_alpha   90.00000000
_cell_angle_beta   90.00000000
_cell_angle_gamma   90.00000000
_symmetry_Int_Tables_number   1
_chemical_formula_structural   Tm2Ga2CuRu
_chemical_formula_sum   'Tm4 Ga4 Cu2 Ru2'
_cell_volume   220.29226312
_cell_formula_units_Z   2
loop_
 _symmetry_equiv_pos_site_id
 _symmetry_equiv_pos_as_xyz
  1  'x, y, z'
loop_
 _atom_site_type_symbol
 _atom_site_label
 _atom_site_symmetry_multiplicity
 _atom_site_fract_x
 _atom_site_fract_y
 _atom_site_fract_z
 _atom_site_occupancy
  Tm  Tm0  1  0.250000  0.024508  0.816170  1
  Tm  Tm1  1  0.250000  0.524508  0.683830  1
  Tm  Tm2  1  0.750000  0.985576  0.195661  1
  Tm  Tm3  1  0.750000  0.485576  0.304339  1
  Ga  Ga4  1  0.250000  0.164732  0.436992  1
  Ga  Ga5  1  0.250000  0.664732  0.063008  1
  Ga  Ga6  1  0.750000  0.833447  0.573490  1
  Ga  Ga7  1  0.750000  0.333447  0.926510  1
  Cu  Cu8  1  0.750000  0.219100  0.611635  1
  Cu  Cu9  1  0.750000  0.719100  0.888365  1
  Ru  Ru10  1  0.250000  0.772636  0.390367  1
  Ru  Ru11  1  0.250000  0.272636  0.109633  1
