# generated using pymatgen
data_Zn(TcO4)2
_symmetry_space_group_name_H-M   'P 1'
_cell_length_a   5.78168300
_cell_length_b   5.78168294
_cell_length_c   6.67208100
_cell_angle_alpha   90.00000000
_cell_angle_beta   90.00000000
_cell_angle_gamma   120.00000605
_symmetry_Int_Tables_number   1
_chemical_formula_structural   Zn(TcO4)2
_chemical_formula_sum   'Zn1 Tc2 O8'
_cell_volume   193.15255783
_cell_formula_units_Z   1
loop_
 _symmetry_equiv_pos_site_id
 _symmetry_equiv_pos_as_xyz
  1  'x, y, z'
loop_
 _atom_site_type_symbol
 _atom_site_label
 _atom_site_symmetry_multiplicity
 _atom_site_fract_x
 _atom_site_fract_y
 _atom_site_fract_z
 _atom_site_occupancy
  Zn  Zn0  1  0.000000  0.000000  0.000000  1
  Tc  Tc1  1  0.333333  0.666667  0.268438  1
  Tc  Tc2  1  0.666667  0.333333  0.731562  1
  O  O3  1  0.666667  0.333333  0.474287  1
  O  O4  1  0.333333  0.666667  0.525713  1
  O  O5  1  0.815128  0.153149  0.818749  1
  O  O6  1  0.153149  0.338022  0.181251  1
  O  O7  1  0.661978  0.815128  0.181251  1
  O  O8  1  0.184872  0.846851  0.181251  1
  O  O9  1  0.846851  0.661978  0.818749  1
  O  O10  1  0.338022  0.184872  0.818749  1
