# generated using pymatgen
data_SmY2(Si3Pd10)2
_symmetry_space_group_name_H-M   'P 1'
_cell_length_a   8.73934097
_cell_length_b   8.73934190
_cell_length_c   8.73934100
_cell_angle_alpha   59.99999963
_cell_angle_beta   59.99999612
_cell_angle_gamma   60.00000311
_symmetry_Int_Tables_number   1
_chemical_formula_structural   SmY2(Si3Pd10)2
_chemical_formula_sum   'Sm1 Y2 Si6 Pd20'
_cell_volume   471.97728548
_cell_formula_units_Z   1
loop_
 _symmetry_equiv_pos_site_id
 _symmetry_equiv_pos_as_xyz
  1  'x, y, z'
loop_
 _atom_site_type_symbol
 _atom_site_label
 _atom_site_symmetry_multiplicity
 _atom_site_fract_x
 _atom_site_fract_y
 _atom_site_fract_z
 _atom_site_occupancy
  Sm  Sm0  1  0.250000  0.250000  0.250000  1
  Y  Y1  1  0.750000  0.750000  0.750000  1
  Y  Y2  1  0.000000  0.000000  0.000000  1
  Si  Si3  1  0.732656  0.267344  0.267344  1
  Si  Si4  1  0.267344  0.732656  0.732656  1
  Si  Si5  1  0.267344  0.732656  0.267344  1
  Si  Si6  1  0.732656  0.267344  0.732656  1
  Si  Si7  1  0.267344  0.267344  0.732656  1
  Si  Si8  1  0.732656  0.732656  0.267344  1
  Pd  Pd9  1  0.384608  0.384608  0.384608  1
  Pd  Pd10  1  0.616642  0.616642  0.616642  1
  Pd  Pd11  1  0.384608  0.384608  0.846178  1
  Pd  Pd12  1  0.384608  0.846178  0.384608  1
  Pd  Pd13  1  0.616642  0.616642  0.150075  1
  Pd  Pd14  1  0.616642  0.150075  0.616642  1
  Pd  Pd15  1  0.846178  0.384608  0.384608  1
  Pd  Pd16  1  0.150075  0.616642  0.616642  1
  Pd  Pd17  1  0.345824  0.999607  0.999607  1
  Pd  Pd18  1  0.654961  0.999607  0.999607  1
  Pd  Pd19  1  0.999607  0.345824  0.654961  1
  Pd  Pd20  1  0.999607  0.654961  0.345824  1
  Pd  Pd21  1  0.999607  0.345824  0.999607  1
  Pd  Pd22  1  0.654961  0.999607  0.345824  1
  Pd  Pd23  1  0.999607  0.654961  0.999607  1
  Pd  Pd24  1  0.345824  0.999607  0.654961  1
  Pd  Pd25  1  0.999607  0.999607  0.345824  1
  Pd  Pd26  1  0.999607  0.999607  0.654961  1
  Pd  Pd27  1  0.654961  0.345824  0.999607  1
  Pd  Pd28  1  0.345824  0.654961  0.999607  1
