# generated using pymatgen
data_Lu5TcWC7
_symmetry_space_group_name_H-M   'P 1'
_cell_length_a   8.19379841
_cell_length_b   8.19379877
_cell_length_c   3.35414800
_cell_angle_alpha   90.00000000
_cell_angle_beta   90.00000000
_cell_angle_gamma   121.57964530
_symmetry_Int_Tables_number   1
_chemical_formula_structural   Lu5TcWC7
_chemical_formula_sum   'Lu5 Tc1 W1 C7'
_cell_volume   191.84392518
_cell_formula_units_Z   1
loop_
 _symmetry_equiv_pos_site_id
 _symmetry_equiv_pos_as_xyz
  1  'x, y, z'
loop_
 _atom_site_type_symbol
 _atom_site_label
 _atom_site_symmetry_multiplicity
 _atom_site_fract_x
 _atom_site_fract_y
 _atom_site_fract_z
 _atom_site_occupancy
  Lu  Lu0  1  0.501472  0.498528  0.000000  1
  Lu  Lu1  1  0.076608  0.335029  0.500000  1
  Lu  Lu2  1  0.919945  0.661112  0.500000  1
  Lu  Lu3  1  0.664971  0.923392  0.500000  1
  Lu  Lu4  1  0.338888  0.080055  0.500000  1
  Tc  Tc5  1  0.713803  0.286197  0.000000  1
  W  W6  1  0.285517  0.714483  0.000000  1
  C  C7  1  0.622797  0.377203  0.500000  1
  C  C8  1  0.378519  0.621481  0.500000  1
  C  C9  1  0.999789  0.000211  0.000000  1
  C  C10  1  0.169138  0.170229  0.000000  1
  C  C11  1  0.829771  0.830862  0.000000  1
  C  C12  1  0.999830  0.501050  0.000000  1
  C  C13  1  0.498950  0.000170  0.000000  1
