# generated using pymatgen
data_K4Si21Au2
_symmetry_space_group_name_H-M   'P 1'
_cell_length_a   10.49770200
_cell_length_b   10.49770207
_cell_length_c   10.43827800
_cell_angle_alpha   90.00000000
_cell_angle_beta   90.00000000
_cell_angle_gamma   90.03595142
_symmetry_Int_Tables_number   1
_chemical_formula_structural   K4Si21Au2
_chemical_formula_sum   'K8 Si42 Au4'
_cell_volume   1150.31625505
_cell_formula_units_Z   2
loop_
 _symmetry_equiv_pos_site_id
 _symmetry_equiv_pos_as_xyz
  1  'x, y, z'
loop_
 _atom_site_type_symbol
 _atom_site_label
 _atom_site_symmetry_multiplicity
 _atom_site_fract_x
 _atom_site_fract_y
 _atom_site_fract_z
 _atom_site_occupancy
  K  K0  1  0.499762  0.999883  0.250000  1
  K  K1  1  0.999883  0.499762  0.750000  1
  K  K2  1  0.758029  0.010128  0.750000  1
  K  K3  1  0.010128  0.758029  0.250000  1
  K  K4  1  0.489536  0.489536  0.500000  1
  K  K5  1  0.241389  0.010739  0.750000  1
  K  K6  1  0.010739  0.241389  0.250000  1
  K  K7  1  0.489536  0.489536  0.000000  1
  Si  Si8  1  0.685021  0.815188  0.433888  1
  Si  Si9  1  0.317944  0.182671  0.066038  1
  Si  Si10  1  0.317944  0.182671  0.433962  1
  Si  Si11  1  0.685021  0.815188  0.066112  1
  Si  Si12  1  0.685424  0.182231  0.065315  1
  Si  Si13  1  0.317539  0.815020  0.433260  1
  Si  Si14  1  0.317539  0.815020  0.066740  1
  Si  Si15  1  0.685424  0.182231  0.434685  1
  Si  Si16  1  0.815188  0.685021  0.933888  1
  Si  Si17  1  0.182671  0.317944  0.566038  1
  Si  Si18  1  0.182671  0.317944  0.933962  1
  Si  Si19  1  0.815188  0.685021  0.566112  1
  Si  Si20  1  0.182231  0.685424  0.565315  1
  Si  Si21  1  0.815020  0.317539  0.933260  1
  Si  Si22  1  0.815020  0.317539  0.566740  1
  Si  Si23  1  0.182231  0.685424  0.934685  1
  Si  Si24  1  0.500852  0.880625  0.554869  1
  Si  Si25  1  0.802956  0.998198  0.364786  1
  Si  Si26  1  0.618165  0.694532  0.250000  1
  Si  Si27  1  0.500770  0.115187  0.942865  1
  Si  Si28  1  0.198302  0.999374  0.134275  1
  Si  Si29  1  0.384631  0.305372  0.250000  1
  Si  Si30  1  0.500770  0.115187  0.557135  1
  Si  Si31  1  0.198302  0.999374  0.365725  1
  Si  Si32  1  0.500852  0.880625  0.945131  1
  Si  Si33  1  0.802956  0.998198  0.135214  1
  Si  Si34  1  0.619714  0.304037  0.250000  1
  Si  Si35  1  0.385203  0.692845  0.250000  1
  Si  Si36  1  0.880625  0.500852  0.054869  1
  Si  Si37  1  0.998198  0.802956  0.864786  1
  Si  Si38  1  0.694532  0.618165  0.750000  1
  Si  Si39  1  0.115187  0.500770  0.442865  1
  Si  Si40  1  0.999374  0.198302  0.634275  1
  Si  Si41  1  0.305372  0.384631  0.750000  1
  Si  Si42  1  0.115187  0.500770  0.057135  1
  Si  Si43  1  0.999374  0.198302  0.865725  1
  Si  Si44  1  0.880625  0.500852  0.445131  1
  Si  Si45  1  0.998198  0.802956  0.635214  1
  Si  Si46  1  0.304037  0.619714  0.750000  1
  Si  Si47  1  0.692845  0.385203  0.750000  1
  Si  Si48  1  0.749486  0.500341  0.250000  1
  Si  Si49  1  0.500341  0.749486  0.750000  1
  Au  Au50  1  0.000412  0.000412  0.500000  1
  Au  Au51  1  0.251207  0.500038  0.250000  1
  Au  Au52  1  0.500038  0.251207  0.750000  1
  Au  Au53  1  0.000412  0.000412  0.000000  1
