# generated using pymatgen
data_TbSm(Tm2Rh9)2
_symmetry_space_group_name_H-M   'P 1'
_cell_length_a   5.25971700
_cell_length_b   5.25971715
_cell_length_c   17.49054900
_cell_angle_alpha   90.00000000
_cell_angle_beta   90.00000000
_cell_angle_gamma   119.99999277
_symmetry_Int_Tables_number   1
_chemical_formula_structural   TbSm(Tm2Rh9)2
_chemical_formula_sum   'Tb1 Sm1 Tm4 Rh18'
_cell_volume   419.04327197
_cell_formula_units_Z   1
loop_
 _symmetry_equiv_pos_site_id
 _symmetry_equiv_pos_as_xyz
  1  'x, y, z'
loop_
 _atom_site_type_symbol
 _atom_site_label
 _atom_site_symmetry_multiplicity
 _atom_site_fract_x
 _atom_site_fract_y
 _atom_site_fract_z
 _atom_site_occupancy
  Tb  Tb0  1  0.333333  0.666667  0.750000  1
  Sm  Sm1  1  0.666667  0.333333  0.250000  1
  Tm  Tm2  1  0.333333  0.666667  0.958193  1
  Tm  Tm3  1  0.666667  0.333333  0.041230  1
  Tm  Tm4  1  0.666667  0.333333  0.458770  1
  Tm  Tm5  1  0.333333  0.666667  0.541807  1
  Rh  Rh6  1  0.167505  0.832495  0.375388  1
  Rh  Rh7  1  0.167505  0.335012  0.375388  1
  Rh  Rh8  1  0.664988  0.832495  0.375388  1
  Rh  Rh9  1  0.832486  0.167514  0.625098  1
  Rh  Rh10  1  0.832486  0.664972  0.625098  1
  Rh  Rh11  1  0.335028  0.167514  0.625098  1
  Rh  Rh12  1  0.832486  0.167514  0.874902  1
  Rh  Rh13  1  0.832486  0.664972  0.874902  1
  Rh  Rh14  1  0.335028  0.167514  0.874902  1
  Rh  Rh15  1  0.167505  0.832495  0.124612  1
  Rh  Rh16  1  0.167505  0.335012  0.124612  1
  Rh  Rh17  1  0.664988  0.832495  0.124612  1
  Rh  Rh18  1  0.333333  0.666667  0.250000  1
  Rh  Rh19  1  0.666667  0.333333  0.750000  1
  Rh  Rh20  1  0.000000  0.000000  0.250000  1
  Rh  Rh21  1  0.000000  0.000000  0.750000  1
  Rh  Rh22  1  0.000000  0.000000  0.500219  1
  Rh  Rh23  1  0.000000  0.000000  0.999781  1
