# generated using pymatgen
data_Tm4HgAs5Rh7
_symmetry_space_group_name_H-M   'P 1'
_cell_length_a   7.28571986
_cell_length_b   7.28571909
_cell_length_c   7.28571919
_cell_angle_alpha   110.26674631
_cell_angle_beta   107.89161365
_cell_angle_gamma   110.26674769
_symmetry_Int_Tables_number   1
_chemical_formula_structural   Tm4HgAs5Rh7
_chemical_formula_sum   'Tm4 Hg1 As5 Rh7'
_cell_volume   297.54226986
_cell_formula_units_Z   1
loop_
 _symmetry_equiv_pos_site_id
 _symmetry_equiv_pos_as_xyz
  1  'x, y, z'
loop_
 _atom_site_type_symbol
 _atom_site_label
 _atom_site_symmetry_multiplicity
 _atom_site_fract_x
 _atom_site_fract_y
 _atom_site_fract_z
 _atom_site_occupancy
  Tm  Tm0  1  0.478883  0.481031  0.478883  1
  Tm  Tm1  1  0.997853  0.518969  0.997853  1
  Tm  Tm2  1  0.478883  0.000000  0.997853  1
  Tm  Tm3  1  0.997853  0.000000  0.478883  1
  Hg  Hg4  1  0.718537  0.000000  0.718537  1
  As  As5  1  0.677183  0.684606  0.992577  1
  As  As6  1  0.307971  0.315394  0.992577  1
  As  As7  1  0.992577  0.684606  0.677183  1
  As  As8  1  0.992577  0.315394  0.307971  1
  As  As9  1  0.341447  0.000000  0.341447  1
  Rh  Rh10  1  0.495790  0.744513  0.240304  1
  Rh  Rh11  1  0.751277  0.255487  0.495790  1
  Rh  Rh12  1  0.240304  0.744513  0.495790  1
  Rh  Rh13  1  0.244630  0.500000  0.744630  1
  Rh  Rh14  1  0.043814  0.000000  0.043814  1
  Rh  Rh15  1  0.495790  0.255487  0.751277  1
  Rh  Rh16  1  0.744630  0.500000  0.244630  1
