# generated using pymatgen
data_Sc8TiNb10Si16Mo
_symmetry_space_group_name_H-M   'P 1'
_cell_length_a   6.69682614
_cell_length_b   6.88285031
_cell_length_c   13.12430868
_cell_angle_alpha   90.03391767
_cell_angle_beta   90.01428583
_cell_angle_gamma   90.04235281
_symmetry_Int_Tables_number   1
_chemical_formula_structural   Sc8TiNb10Si16Mo
_chemical_formula_sum   'Sc8 Ti1 Nb10 Si16 Mo1'
_cell_volume   604.94177577
_cell_formula_units_Z   1
loop_
 _symmetry_equiv_pos_site_id
 _symmetry_equiv_pos_as_xyz
  1  'x, y, z'
loop_
 _atom_site_type_symbol
 _atom_site_label
 _atom_site_symmetry_multiplicity
 _atom_site_fract_x
 _atom_site_fract_y
 _atom_site_fract_z
 _atom_site_occupancy
  Sc  Sc0  1  0.499536  0.673574  0.595069  1
  Sc  Sc1  1  0.000320  0.825482  0.904843  1
  Sc  Sc2  1  0.500115  0.324885  0.094404  1
  Sc  Sc3  1  0.998805  0.174191  0.404967  1
  Sc  Sc4  1  0.499504  0.325685  0.405103  1
  Sc  Sc5  1  0.998761  0.173637  0.095176  1
  Sc  Sc6  1  0.499395  0.674167  0.905002  1
  Sc  Sc7  1  0.001112  0.824719  0.594935  1
  Ti  Ti8  1  0.662243  0.174848  0.625978  1
  Nb  Nb9  1  0.163276  0.326855  0.874423  1
  Nb  Nb10  1  0.337088  0.824664  0.124417  1
  Nb  Nb11  1  0.837604  0.674957  0.376161  1
  Nb  Nb12  1  0.337280  0.824990  0.375390  1
  Nb  Nb13  1  0.837819  0.674528  0.124486  1
  Nb  Nb14  1  0.662154  0.175079  0.874209  1
  Nb  Nb15  1  0.164948  0.326892  0.625530  1
  Nb  Nb16  1  0.336020  0.005335  0.749846  1
  Nb  Nb17  1  0.163740  0.506275  0.249926  1
  Nb  Nb18  1  0.663824  0.994845  0.250198  1
  Si  Si19  1  0.668627  0.969468  0.462345  1
  Si  Si20  1  0.169387  0.532632  0.038548  1
  Si  Si21  1  0.330772  0.032850  0.960435  1
  Si  Si22  1  0.830688  0.464391  0.541737  1
  Si  Si23  1  0.332466  0.033370  0.539785  1
  Si  Si24  1  0.831301  0.466682  0.959229  1
  Si  Si25  1  0.668736  0.967204  0.039020  1
  Si  Si26  1  0.168793  0.533159  0.461450  1
  Si  Si27  1  0.463970  0.387806  0.749092  1
  Si  Si28  1  0.956957  0.114666  0.748700  1
  Si  Si29  1  0.542151  0.614123  0.250128  1
  Si  Si30  1  0.040529  0.887401  0.250200  1
  Si  Si31  1  0.704998  0.859410  0.749229  1
  Si  Si32  1  0.199985  0.636850  0.750085  1
  Si  Si33  1  0.295226  0.137797  0.250207  1
  Si  Si34  1  0.795704  0.363236  0.249878  1
  Mo  Mo35  1  0.836163  0.493344  0.749870  1
