# generated using pymatgen
data_Pr7Nd(As7Ir8)2
_symmetry_space_group_name_H-M   'P 1'
_cell_length_a   4.14627800
_cell_length_b   13.25338573
_cell_length_c   13.68040500
_cell_angle_alpha   81.76521495
_cell_angle_beta   90.00000000
_cell_angle_gamma   90.00000000
_symmetry_Int_Tables_number   1
_chemical_formula_structural   Pr7Nd(As7Ir8)2
_chemical_formula_sum   'Pr7 Nd1 As14 Ir16'
_cell_volume   744.01750495
_cell_formula_units_Z   1
loop_
 _symmetry_equiv_pos_site_id
 _symmetry_equiv_pos_as_xyz
  1  'x, y, z'
loop_
 _atom_site_type_symbol
 _atom_site_label
 _atom_site_symmetry_multiplicity
 _atom_site_fract_x
 _atom_site_fract_y
 _atom_site_fract_z
 _atom_site_occupancy
  Pr  Pr0  1  0.250000  0.098433  0.793954  1
  Pr  Pr1  1  0.750000  0.901513  0.205991  1
  Pr  Pr2  1  0.250000  0.287204  0.102595  1
  Pr  Pr3  1  0.750000  0.712815  0.897367  1
  Pr  Pr4  1  0.250000  0.519274  0.293548  1
  Pr  Pr5  1  0.750000  0.480881  0.706416  1
  Pr  Pr6  1  0.250000  0.208169  0.438080  1
  Nd  Nd7  1  0.750000  0.792125  0.561768  1
  As  As8  1  0.250000  0.057436  0.099458  1
  As  As9  1  0.750000  0.942545  0.900413  1
  As  As10  1  0.250000  0.310511  0.688296  1
  As  As11  1  0.750000  0.689617  0.311806  1
  As  As12  1  0.250000  0.607652  0.566424  1
  As  As13  1  0.750000  0.392951  0.433658  1
  As  As14  1  0.250000  0.847661  0.719297  1
  As  As15  1  0.750000  0.151960  0.280301  1
  As  As16  1  0.750000  0.256580  0.917756  1
  As  As17  1  0.250000  0.743440  0.082226  1
  As  As18  1  0.750000  0.095547  0.586977  1
  As  As19  1  0.250000  0.904110  0.413521  1
  As  As20  1  0.750000  0.472001  0.128652  1
  As  As21  1  0.250000  0.528123  0.871252  1
  Ir  Ir22  1  0.250000  0.989481  0.574323  1
  Ir  Ir23  1  0.750000  0.009819  0.425739  1
  Ir  Ir24  1  0.250000  0.665470  0.733079  1
  Ir  Ir25  1  0.750000  0.334555  0.266602  1
  Ir  Ir26  1  0.250000  0.555781  0.045051  1
  Ir  Ir27  1  0.750000  0.444214  0.954910  1
  Ir  Ir28  1  0.250000  0.053495  0.278010  1
  Ir  Ir29  1  0.750000  0.945991  0.721884  1
  Ir  Ir30  1  0.250000  0.425029  0.526446  1
  Ir  Ir31  1  0.750000  0.575426  0.473794  1
  Ir  Ir32  1  0.250000  0.918468  0.997589  1
  Ir  Ir33  1  0.750000  0.081535  0.002315  1
  Ir  Ir34  1  0.250000  0.721904  0.400630  1
  Ir  Ir35  1  0.750000  0.278226  0.599829  1
  Ir  Ir36  1  0.250000  0.343411  0.860300  1
  Ir  Ir37  1  0.750000  0.656645  0.139744  1
