# generated using pymatgen
data_Pr6Si2HgSe14
_symmetry_space_group_name_H-M   'P 1'
_cell_length_a   10.78152700
_cell_length_b   10.78152788
_cell_length_c   6.06662700
_cell_angle_alpha   90.00000000
_cell_angle_beta   90.00000000
_cell_angle_gamma   120.00000037
_symmetry_Int_Tables_number   1
_chemical_formula_structural   Pr6Si2HgSe14
_chemical_formula_sum   'Pr6 Si2 Hg1 Se14'
_cell_volume   610.71489002
_cell_formula_units_Z   1
loop_
 _symmetry_equiv_pos_site_id
 _symmetry_equiv_pos_as_xyz
  1  'x, y, z'
loop_
 _atom_site_type_symbol
 _atom_site_label
 _atom_site_symmetry_multiplicity
 _atom_site_fract_x
 _atom_site_fract_y
 _atom_site_fract_z
 _atom_site_occupancy
  Pr  Pr0  1  0.977401  0.434950  0.750215  1
  Pr  Pr1  1  0.457549  0.022599  0.750215  1
  Pr  Pr2  1  0.565050  0.542451  0.750215  1
  Pr  Pr3  1  0.689906  0.899127  0.251017  1
  Pr  Pr4  1  0.209221  0.310094  0.251017  1
  Pr  Pr5  1  0.100873  0.790779  0.251017  1
  Si  Si6  1  0.666667  0.333333  0.165912  1
  Si  Si7  1  0.000000  0.000000  0.660801  1
  Hg  Hg8  1  0.333333  0.666667  0.508313  1
  Se  Se9  1  0.666667  0.333333  0.539046  1
  Se  Se10  1  0.000000  0.000000  0.034708  1
  Se  Se11  1  0.072623  0.497110  0.269711  1
  Se  Se12  1  0.424486  0.927377  0.269711  1
  Se  Se13  1  0.502890  0.575514  0.269711  1
  Se  Se14  1  0.594066  0.838353  0.761768  1
  Se  Se15  1  0.244286  0.405934  0.761768  1
  Se  Se16  1  0.161647  0.755714  0.761768  1
  Se  Se17  1  0.812190  0.557259  0.014742  1
  Se  Se18  1  0.745068  0.187810  0.014742  1
  Se  Se19  1  0.442741  0.254932  0.014742  1
  Se  Se20  1  0.854014  0.775940  0.510966  1
  Se  Se21  1  0.921926  0.145986  0.510966  1
  Se  Se22  1  0.224060  0.078074  0.510966  1
