# generated using pymatgen
data_Np3U7O20
_symmetry_space_group_name_H-M   'P 1'
_cell_length_a   10.14095867
_cell_length_b   10.14095892
_cell_length_c   6.63125817
_cell_angle_alpha   83.74896112
_cell_angle_beta   83.74895837
_cell_angle_gamma   141.85679126
_symmetry_Int_Tables_number   1
_chemical_formula_structural   Np3U7O20
_chemical_formula_sum   'Np3 U7 O20'
_cell_volume   397.11952699
_cell_formula_units_Z   1
loop_
 _symmetry_equiv_pos_site_id
 _symmetry_equiv_pos_as_xyz
  1  'x, y, z'
loop_
 _atom_site_type_symbol
 _atom_site_label
 _atom_site_symmetry_multiplicity
 _atom_site_fract_x
 _atom_site_fract_y
 _atom_site_fract_z
 _atom_site_occupancy
  Np  Np0  1  0.500000  0.500000  0.000000  1
  Np  Np1  1  0.200138  0.799862  0.500000  1
  Np  Np2  1  0.799862  0.200138  0.500000  1
  U  U3  1  0.900298  0.099702  0.000000  1
  U  U4  1  0.399637  0.600363  0.500000  1
  U  U5  1  0.099702  0.900298  0.000000  1
  U  U6  1  0.000000  0.000000  0.500000  1
  U  U7  1  0.700121  0.299879  0.000000  1
  U  U8  1  0.600363  0.399637  0.500000  1
  U  U9  1  0.299879  0.700121  0.000000  1
  O  O10  1  0.272266  0.472900  0.874766  1
  O  O11  1  0.879524  0.879524  0.873133  1
  O  O12  1  0.775362  0.974024  0.373192  1
  O  O13  1  0.025976  0.224638  0.626808  1
  O  O14  1  0.472900  0.272266  0.874766  1
  O  O15  1  0.373313  0.373313  0.379340  1
  O  O16  1  0.626687  0.626687  0.620660  1
  O  O17  1  0.074012  0.674025  0.879767  1
  O  O18  1  0.527100  0.727734  0.125234  1
  O  O19  1  0.974024  0.775362  0.373192  1
  O  O20  1  0.224638  0.025976  0.626808  1
  O  O21  1  0.674025  0.074012  0.879767  1
  O  O22  1  0.120476  0.120476  0.126867  1
  O  O23  1  0.576892  0.179512  0.370809  1
  O  O24  1  0.820488  0.423108  0.629191  1
  O  O25  1  0.423108  0.820488  0.629191  1
  O  O26  1  0.727734  0.527100  0.125234  1
  O  O27  1  0.179512  0.576892  0.370809  1
  O  O28  1  0.325975  0.925988  0.120233  1
  O  O29  1  0.925988  0.325975  0.120233  1
