# generated using pymatgen
data_NaNd2As3P3Pd20
_symmetry_space_group_name_H-M   'P 1'
_cell_length_a   8.76107775
_cell_length_b   8.81598424
_cell_length_c   8.84505439
_cell_angle_alpha   59.48013168
_cell_angle_beta   60.09486424
_cell_angle_gamma   60.42500491
_symmetry_Int_Tables_number   1
_chemical_formula_structural   NaNd2As3P3Pd20
_chemical_formula_sum   'Na1 Nd2 As3 P3 Pd20'
_cell_volume   483.00671917
_cell_formula_units_Z   1
loop_
 _symmetry_equiv_pos_site_id
 _symmetry_equiv_pos_as_xyz
  1  'x, y, z'
loop_
 _atom_site_type_symbol
 _atom_site_label
 _atom_site_symmetry_multiplicity
 _atom_site_fract_x
 _atom_site_fract_y
 _atom_site_fract_z
 _atom_site_occupancy
  Na  Na0  1  0.000393  0.999607  0.000393  1
  Nd  Nd1  1  0.249285  0.250715  0.249285  1
  Nd  Nd2  1  0.749285  0.750715  0.749285  1
  As  As3  1  0.738861  0.261139  0.258476  1
  As  As4  1  0.258476  0.741524  0.738861  1
  As  As5  1  0.259953  0.740047  0.259953  1
  P  P6  1  0.738445  0.261555  0.738445  1
  P  P7  1  0.260392  0.262351  0.737649  1
  P  P8  1  0.737649  0.739608  0.260392  1
  Pd  Pd9  1  0.382473  0.381784  0.392482  1
  Pd  Pd10  1  0.620384  0.609595  0.612132  1
  Pd  Pd11  1  0.390405  0.379616  0.842113  1
  Pd  Pd12  1  0.392482  0.843262  0.382473  1
  Pd  Pd13  1  0.618216  0.617527  0.156738  1
  Pd  Pd14  1  0.612132  0.157887  0.620384  1
  Pd  Pd15  1  0.842113  0.387868  0.390405  1
  Pd  Pd16  1  0.156738  0.607518  0.618216  1
  Pd  Pd17  1  0.349451  0.008991  0.991009  1
  Pd  Pd18  1  0.654772  0.999127  0.000873  1
  Pd  Pd19  1  0.000873  0.345228  0.654772  1
  Pd  Pd20  1  0.991009  0.650549  0.349451  1
  Pd  Pd21  1  0.010148  0.348906  0.989597  1
  Pd  Pd22  1  0.651094  0.989852  0.348651  1
  Pd  Pd23  1  0.989597  0.651349  0.010148  1
  Pd  Pd24  1  0.348651  0.010403  0.651094  1
  Pd  Pd25  1  0.000929  0.999071  0.352970  1
  Pd  Pd26  1  0.989600  0.010400  0.653223  1
  Pd  Pd27  1  0.653223  0.346777  0.989600  1
  Pd  Pd28  1  0.352970  0.647030  0.000929  1
