# generated using pymatgen
data_Hf6MgAl15OsPt6
_symmetry_space_group_name_H-M   'P 1'
_cell_length_a   8.77962167
_cell_length_b   8.77961740
_cell_length_c   8.77584635
_cell_angle_alpha   60.04062850
_cell_angle_beta   60.04060352
_cell_angle_gamma   60.01260870
_symmetry_Int_Tables_number   1
_chemical_formula_structural   Hf6MgAl15OsPt6
_chemical_formula_sum   'Hf6 Mg1 Al15 Os1 Pt6'
_cell_volume   478.66664830
_cell_formula_units_Z   1
loop_
 _symmetry_equiv_pos_site_id
 _symmetry_equiv_pos_as_xyz
  1  'x, y, z'
loop_
 _atom_site_type_symbol
 _atom_site_label
 _atom_site_symmetry_multiplicity
 _atom_site_fract_x
 _atom_site_fract_y
 _atom_site_fract_z
 _atom_site_occupancy
  Hf  Hf0  1  0.681533  0.681533  0.317753  1
  Hf  Hf1  1  0.324139  0.676242  0.318962  1
  Hf  Hf2  1  0.676242  0.324140  0.318963  1
  Hf  Hf3  1  0.316424  0.316424  0.683480  1
  Hf  Hf4  1  0.678148  0.321851  0.682619  1
  Hf  Hf5  1  0.321851  0.678148  0.682619  1
  Mg  Mg6  1  0.880937  0.880937  0.355898  1
  Al  Al7  1  0.869560  0.362452  0.884180  1
  Al  Al8  1  0.362452  0.869559  0.884180  1
  Al  Al9  1  0.879189  0.879189  0.881635  1
  Al  Al10  1  0.121503  0.121503  0.637458  1
  Al  Al11  1  0.129460  0.638336  0.116671  1
  Al  Al12  1  0.638337  0.129459  0.116671  1
  Al  Al13  1  0.120054  0.120054  0.119447  1
  Al  Al14  1  0.661565  0.661565  0.011592  1
  Al  Al15  1  0.662122  0.013778  0.661417  1
  Al  Al16  1  0.013778  0.662122  0.661417  1
  Al  Al17  1  0.662508  0.662508  0.664370  1
  Al  Al18  1  0.338094  0.338094  0.988629  1
  Al  Al19  1  0.338899  0.985181  0.337444  1
  Al  Al20  1  0.985181  0.338899  0.337444  1
  Al  Al21  1  0.338724  0.338724  0.334704  1
  Os  Os22  1  0.500146  0.500146  0.999315  1
  Pt  Pt23  1  0.004115  0.004115  0.988170  1
  Pt  Pt24  1  0.001266  0.001266  0.505930  1
  Pt  Pt25  1  0.492206  0.001188  0.505208  1
  Pt  Pt26  1  0.001188  0.492206  0.505208  1
  Pt  Pt27  1  0.000000  0.500381  0.999308  1
  Pt  Pt28  1  0.500381  0.000000  0.999308  1
