# generated using pymatgen
data_NaMnInF6
_symmetry_space_group_name_H-M   'P 1'
_cell_length_a   5.07485500
_cell_length_b   5.07485500
_cell_length_c   10.15253800
_cell_angle_alpha   90.00000000
_cell_angle_beta   90.00000000
_cell_angle_gamma   90.00000000
_symmetry_Int_Tables_number   1
_chemical_formula_structural   NaMnInF6
_chemical_formula_sum   'Na2 Mn2 In2 F12'
_cell_volume   261.47001974
_cell_formula_units_Z   2
loop_
 _symmetry_equiv_pos_site_id
 _symmetry_equiv_pos_as_xyz
  1  'x, y, z'
loop_
 _atom_site_type_symbol
 _atom_site_label
 _atom_site_symmetry_multiplicity
 _atom_site_fract_x
 _atom_site_fract_y
 _atom_site_fract_z
 _atom_site_occupancy
  Na  Na0  1  0.500000  0.500000  0.832340  1
  Na  Na1  1  0.000000  0.000000  0.332340  1
  Mn  Mn2  1  0.500000  0.500000  0.500994  1
  Mn  Mn3  1  0.000000  0.000000  0.000994  1
  In  In4  1  0.500000  0.500000  0.165450  1
  In  In5  1  0.000000  0.000000  0.665450  1
  F  F6  1  0.201023  0.798977  0.512765  1
  F  F7  1  0.798977  0.201023  0.512765  1
  F  F8  1  0.701023  0.701023  0.012765  1
  F  F9  1  0.298977  0.298977  0.012765  1
  F  F10  1  0.182823  0.817177  0.829649  1
  F  F11  1  0.817177  0.182823  0.829649  1
  F  F12  1  0.682823  0.682823  0.329649  1
  F  F13  1  0.317177  0.317177  0.329649  1
  F  F14  1  0.794581  0.205419  0.156244  1
  F  F15  1  0.205419  0.794581  0.156244  1
  F  F16  1  0.294581  0.294581  0.656244  1
  F  F17  1  0.705419  0.705419  0.656244  1
