# generated using pymatgen
data_Er20Ir7Pd4Pt
_symmetry_space_group_name_H-M   'P 1'
_cell_length_a   10.95521718
_cell_length_b   10.95218518
_cell_length_c   6.30260995
_cell_angle_alpha   89.96442360
_cell_angle_beta   89.88946607
_cell_angle_gamma   89.69230437
_symmetry_Int_Tables_number   1
_chemical_formula_structural   Er20Ir7Pd4Pt
_chemical_formula_sum   'Er20 Ir7 Pd4 Pt1'
_cell_volume   756.19717199
_cell_formula_units_Z   1
loop_
 _symmetry_equiv_pos_site_id
 _symmetry_equiv_pos_as_xyz
  1  'x, y, z'
loop_
 _atom_site_type_symbol
 _atom_site_label
 _atom_site_symmetry_multiplicity
 _atom_site_fract_x
 _atom_site_fract_y
 _atom_site_fract_z
 _atom_site_occupancy
  Er  Er0  1  0.295739  0.091327  0.375331  1
  Er  Er1  1  0.296202  0.909935  0.870397  1
  Er  Er2  1  0.701765  0.084803  0.868594  1
  Er  Er3  1  0.701616  0.907374  0.370261  1
  Er  Er4  1  0.582120  0.789060  0.879129  1
  Er  Er5  1  0.580435  0.205715  0.370148  1
  Er  Er6  1  0.415557  0.791119  0.377660  1
  Er  Er7  1  0.408067  0.206116  0.879941  1
  Er  Er8  1  0.210830  0.415119  0.620289  1
  Er  Er9  1  0.209181  0.583859  0.121962  1
  Er  Er10  1  0.794573  0.418776  0.129947  1
  Er  Er11  1  0.793888  0.589192  0.620272  1
  Er  Er12  1  0.909383  0.703175  0.127941  1
  Er  Er13  1  0.918065  0.297117  0.631135  1
  Er  Er14  1  0.092660  0.702735  0.629827  1
  Er  Er15  1  0.093201  0.297300  0.126637  1
  Er  Er16  1  0.999642  0.000446  0.499569  1
  Er  Er17  1  0.000114  0.001366  0.000762  1
  Er  Er18  1  0.498063  0.500182  0.000401  1
  Er  Er19  1  0.499287  0.502076  0.499487  1
  Ir  Ir20  1  0.654344  0.651802  0.249710  1
  Ir  Ir21  1  0.348332  0.346002  0.249999  1
  Ir  Ir22  1  0.345829  0.655219  0.750463  1
  Ir  Ir23  1  0.499894  0.000008  0.118889  1
  Ir  Ir24  1  0.500097  0.000601  0.620497  1
  Ir  Ir25  1  0.999373  0.500912  0.879521  1
  Ir  Ir26  1  0.000228  0.500484  0.380958  1
  Pd  Pd27  1  0.843551  0.156140  0.250165  1
  Pd  Pd28  1  0.846335  0.848039  0.750631  1
  Pd  Pd29  1  0.154369  0.846262  0.250578  1
  Pd  Pd30  1  0.656364  0.344178  0.749813  1
  Pt  Pt31  1  0.150896  0.153561  0.749086  1
