# generated using pymatgen
data_NaTl(IO3)4
_symmetry_space_group_name_H-M   'P 1'
_cell_length_a   5.20920600
_cell_length_b   7.32503260
_cell_length_c   16.10123400
_cell_angle_alpha   78.69535677
_cell_angle_beta   90.00000000
_cell_angle_gamma   90.00000000
_symmetry_Int_Tables_number   1
_chemical_formula_structural   NaTl(IO3)4
_chemical_formula_sum   'Na2 Tl2 I8 O24'
_cell_volume   602.46469559
_cell_formula_units_Z   2
loop_
 _symmetry_equiv_pos_site_id
 _symmetry_equiv_pos_as_xyz
  1  'x, y, z'
loop_
 _atom_site_type_symbol
 _atom_site_label
 _atom_site_symmetry_multiplicity
 _atom_site_fract_x
 _atom_site_fract_y
 _atom_site_fract_z
 _atom_site_occupancy
  Na  Na0  1  0.500000  0.500000  0.000000  1
  Na  Na1  1  0.000000  0.500000  0.500000  1
  Tl  Tl2  1  0.500000  0.000000  0.000000  1
  Tl  Tl3  1  0.000000  0.000000  0.500000  1
  I  I4  1  0.902785  0.665287  0.165380  1
  I  I5  1  0.402785  0.334713  0.334620  1
  I  I6  1  0.097215  0.334713  0.834620  1
  I  I7  1  0.597215  0.665287  0.665380  1
  I  I8  1  0.987153  0.184371  0.139042  1
  I  I9  1  0.487153  0.815629  0.360958  1
  I  I10  1  0.012847  0.815629  0.860958  1
  I  I11  1  0.512847  0.184371  0.639042  1
  O  O12  1  0.675556  0.730659  0.074189  1
  O  O13  1  0.175556  0.269341  0.425811  1
  O  O14  1  0.324444  0.269341  0.925811  1
  O  O15  1  0.824444  0.730659  0.574189  1
  O  O16  1  0.789950  0.828714  0.230320  1
  O  O17  1  0.289950  0.171286  0.269680  1
  O  O18  1  0.210050  0.171286  0.769680  1
  O  O19  1  0.710050  0.828714  0.730320  1
  O  O20  1  0.738216  0.446655  0.210483  1
  O  O21  1  0.238216  0.553345  0.289517  1
  O  O22  1  0.261784  0.553345  0.789517  1
  O  O23  1  0.761784  0.446655  0.710483  1
  O  O24  1  0.737323  0.209009  0.053118  1
  O  O25  1  0.237323  0.790991  0.446882  1
  O  O26  1  0.262677  0.790991  0.946882  1
  O  O27  1  0.762677  0.209009  0.553118  1
  O  O28  1  0.191926  0.002452  0.106067  1
  O  O29  1  0.691926  0.997548  0.393933  1
  O  O30  1  0.808074  0.997548  0.893933  1
  O  O31  1  0.308074  0.002452  0.606067  1
  O  O32  1  0.152933  0.397852  0.094483  1
  O  O33  1  0.652933  0.602148  0.405517  1
  O  O34  1  0.847067  0.602148  0.905517  1
  O  O35  1  0.347067  0.397852  0.594483  1
