# generated using pymatgen
data_Li3Pr8Si12Ag
_symmetry_space_group_name_H-M   'P 1'
_cell_length_a   11.13899024
_cell_length_b   9.43478465
_cell_length_c   8.37093041
_cell_angle_alpha   77.20139216
_cell_angle_beta   55.64782623
_cell_angle_gamma   47.10592870
_symmetry_Int_Tables_number   1
_chemical_formula_structural   Li3Pr8Si12Ag
_chemical_formula_sum   'Li3 Pr8 Si12 Ag1'
_cell_volume   512.51812167
_cell_formula_units_Z   1
loop_
 _symmetry_equiv_pos_site_id
 _symmetry_equiv_pos_as_xyz
  1  'x, y, z'
loop_
 _atom_site_type_symbol
 _atom_site_label
 _atom_site_symmetry_multiplicity
 _atom_site_fract_x
 _atom_site_fract_y
 _atom_site_fract_z
 _atom_site_occupancy
  Li  Li0  1  0.832935  0.167155  0.832962  1
  Li  Li1  1  0.166726  0.833081  0.167260  1
  Li  Li2  1  0.416903  0.083032  0.417233  1
  Pr  Pr3  1  0.378212  0.377938  0.620668  1
  Pr  Pr4  1  0.620803  0.622862  0.378597  1
  Pr  Pr5  1  0.872999  0.873427  0.626934  1
  Pr  Pr6  1  0.627058  0.626614  0.872870  1
  Pr  Pr7  1  0.876183  0.876998  0.124426  1
  Pr  Pr8  1  0.124899  0.121805  0.875482  1
  Pr  Pr9  1  0.375064  0.376046  0.125881  1
  Pr  Pr10  1  0.125612  0.123831  0.375195  1
  Si  Si11  1  0.665762  0.334234  0.665269  1
  Si  Si12  1  0.334473  0.665900  0.334012  1
  Si  Si13  1  0.583255  0.917069  0.583217  1
  Si  Si14  1  0.912393  0.587265  0.912633  1
  Si  Si15  1  0.331442  0.663149  0.833819  1
  Si  Si16  1  0.172065  0.833459  0.662761  1
  Si  Si17  1  0.833905  0.171263  0.331759  1
  Si  Si18  1  0.662175  0.332012  0.172482  1
  Si  Si19  1  0.916688  0.592380  0.421015  1
  Si  Si20  1  0.078679  0.413018  0.587707  1
  Si  Si21  1  0.420772  0.069968  0.916675  1
  Si  Si22  1  0.588133  0.920262  0.078281  1
  Ag  Ag23  1  0.082863  0.417232  0.082863  1
