# generated using pymatgen
data_Tb5NdScCo17P12
_symmetry_space_group_name_H-M   'P 1'
_cell_length_a   3.71591300
_cell_length_b   10.59660200
_cell_length_c   12.30046800
_cell_angle_alpha   90.00000000
_cell_angle_beta   90.00000000
_cell_angle_gamma   90.00000000
_symmetry_Int_Tables_number   1
_chemical_formula_structural   Tb5NdScCo17P12
_chemical_formula_sum   'Tb5 Nd1 Sc1 Co17 P12'
_cell_volume   484.34385686
_cell_formula_units_Z   1
loop_
 _symmetry_equiv_pos_site_id
 _symmetry_equiv_pos_as_xyz
  1  'x, y, z'
loop_
 _atom_site_type_symbol
 _atom_site_label
 _atom_site_symmetry_multiplicity
 _atom_site_fract_x
 _atom_site_fract_y
 _atom_site_fract_z
 _atom_site_occupancy
  Tb  Tb0  1  0.000000  0.500000  0.527702  1
  Tb  Tb1  1  0.500000  0.820988  0.207028  1
  Tb  Tb2  1  0.500000  0.179012  0.207028  1
  Tb  Tb3  1  0.000000  0.682483  0.795628  1
  Tb  Tb4  1  0.000000  0.317517  0.795628  1
  Nd  Nd5  1  0.500000  0.000000  0.477225  1
  Sc  Sc6  1  0.500000  0.500000  0.152438  1
  Co  Co7  1  0.000000  0.000000  0.838479  1
  Co  Co8  1  0.500000  0.500000  0.704077  1
  Co  Co9  1  0.000000  0.000000  0.293351  1
  Co  Co10  1  0.000000  0.500000  0.984609  1
  Co  Co11  1  0.500000  0.000000  0.012632  1
  Co  Co12  1  0.500000  0.326738  0.990122  1
  Co  Co13  1  0.500000  0.673262  0.990122  1
  Co  Co14  1  0.000000  0.162257  0.001237  1
  Co  Co15  1  0.000000  0.837743  0.001237  1
  Co  Co16  1  0.500000  0.296405  0.433842  1
  Co  Co17  1  0.500000  0.703595  0.433842  1
  Co  Co18  1  0.000000  0.203997  0.571266  1
  Co  Co19  1  0.000000  0.796003  0.571266  1
  Co  Co20  1  0.500000  0.880325  0.709041  1
  Co  Co21  1  0.500000  0.119675  0.709041  1
  Co  Co22  1  0.000000  0.621527  0.296120  1
  Co  Co23  1  0.000000  0.378473  0.296120  1
  P  P24  1  0.500000  0.500000  0.883693  1
  P  P25  1  0.000000  0.000000  0.114780  1
  P  P26  1  0.500000  0.500000  0.357434  1
  P  P27  1  0.000000  0.000000  0.657967  1
  P  P28  1  0.500000  0.308782  0.617749  1
  P  P29  1  0.500000  0.691218  0.617749  1
  P  P30  1  0.000000  0.192290  0.385647  1
  P  P31  1  0.000000  0.807710  0.385647  1
  P  P32  1  0.500000  0.851533  0.889463  1
  P  P33  1  0.500000  0.148467  0.889463  1
  P  P34  1  0.000000  0.663015  0.100664  1
  P  P35  1  0.000000  0.336985  0.100664  1
