# generated using pymatgen
data_Y4Mg3ZrIr4
_symmetry_space_group_name_H-M   'P 1'
_cell_length_a   4.20089500
_cell_length_b   7.12739890
_cell_length_c   8.56220995
_cell_angle_alpha   91.66400245
_cell_angle_beta   90.00000000
_cell_angle_gamma   90.00000000
_symmetry_Int_Tables_number   1
_chemical_formula_structural   Y4Mg3ZrIr4
_chemical_formula_sum   'Y4 Mg3 Zr1 Ir4'
_cell_volume   256.25690999
_cell_formula_units_Z   1
loop_
 _symmetry_equiv_pos_site_id
 _symmetry_equiv_pos_as_xyz
  1  'x, y, z'
loop_
 _atom_site_type_symbol
 _atom_site_label
 _atom_site_symmetry_multiplicity
 _atom_site_fract_x
 _atom_site_fract_y
 _atom_site_fract_z
 _atom_site_occupancy
  Y  Y0  1  0.250000  0.958602  0.321782  1
  Y  Y1  1  0.250000  0.476961  0.169193  1
  Y  Y2  1  0.750000  0.022662  0.682279  1
  Y  Y3  1  0.750000  0.540198  0.831114  1
  Mg  Mg4  1  0.250000  0.866041  0.939987  1
  Mg  Mg5  1  0.750000  0.642002  0.432767  1
  Mg  Mg6  1  0.750000  0.141106  0.060868  1
  Zr  Zr7  1  0.250000  0.365290  0.559414  1
  Ir  Ir8  1  0.250000  0.247040  0.863792  1
  Ir  Ir9  1  0.250000  0.735090  0.623794  1
  Ir  Ir10  1  0.750000  0.759367  0.126423  1
  Ir  Ir11  1  0.750000  0.245639  0.388586  1
