# generated using pymatgen
data_Pr8Ag7As16Au
_symmetry_space_group_name_H-M   'P 1'
_cell_length_a   5.80378101
_cell_length_b   5.86336600
_cell_length_c   21.15531404
_cell_angle_alpha   90.00000000
_cell_angle_beta   90.00709560
_cell_angle_gamma   90.00000000
_symmetry_Int_Tables_number   1
_chemical_formula_structural   Pr8Ag7As16Au
_chemical_formula_sum   'Pr8 Ag7 As16 Au1'
_cell_volume   719.90882078
_cell_formula_units_Z   1
loop_
 _symmetry_equiv_pos_site_id
 _symmetry_equiv_pos_as_xyz
  1  'x, y, z'
loop_
 _atom_site_type_symbol
 _atom_site_label
 _atom_site_symmetry_multiplicity
 _atom_site_fract_x
 _atom_site_fract_y
 _atom_site_fract_z
 _atom_site_occupancy
  Pr  Pr0  1  0.248436  0.986823  0.618470  1
  Pr  Pr1  1  0.750006  0.014697  0.382015  1
  Pr  Pr2  1  0.751564  0.986823  0.881530  1
  Pr  Pr3  1  0.249994  0.014697  0.117985  1
  Pr  Pr4  1  0.751496  0.484636  0.614430  1
  Pr  Pr5  1  0.250057  0.513882  0.386049  1
  Pr  Pr6  1  0.248504  0.484636  0.885570  1
  Pr  Pr7  1  0.749943  0.513882  0.113951  1
  Ag  Ag8  1  0.500000  0.731627  0.750000  1
  Ag  Ag9  1  0.000000  0.268413  0.250000  1
  Ag  Ag10  1  0.500000  0.268408  0.250000  1
  Ag  Ag11  1  0.000000  0.731079  0.750000  1
  Ag  Ag12  1  0.500000  0.234788  0.750000  1
  Ag  Ag13  1  0.000000  0.765398  0.250000  1
  Ag  Ag14  1  0.500000  0.765391  0.250000  1
  As  As15  1  0.750078  0.986061  0.661794  1
  As  As16  1  0.250057  0.014249  0.337942  1
  As  As17  1  0.249922  0.986061  0.838206  1
  As  As18  1  0.749943  0.014249  0.162058  1
  As  As19  1  0.249960  0.485712  0.660476  1
  As  As20  1  0.749953  0.514534  0.339286  1
  As  As21  1  0.750040  0.485712  0.839524  1
  As  As22  1  0.250047  0.514534  0.160714  1
  As  As23  1  0.027705  0.221507  0.500890  1
  As  As24  1  0.527571  0.778698  0.499452  1
  As  As25  1  0.972295  0.221507  0.999110  1
  As  As26  1  0.472429  0.778698  0.000548  1
  As  As27  1  0.972453  0.778498  0.499313  1
  As  As28  1  0.472430  0.221400  0.500978  1
  As  As29  1  0.027547  0.778498  0.000687  1
  As  As30  1  0.527570  0.221400  0.999022  1
  Au  Au31  1  0.000000  0.233502  0.750000  1
