# generated using pymatgen
data_SmY5(GaRh2)6
_symmetry_space_group_name_H-M   'P 1'
_cell_length_a   5.60013400
_cell_length_b   5.60013410
_cell_length_c   15.67596200
_cell_angle_alpha   90.00000000
_cell_angle_beta   90.00000000
_cell_angle_gamma   119.99998760
_symmetry_Int_Tables_number   1
_chemical_formula_structural   SmY5(GaRh2)6
_chemical_formula_sum   'Sm1 Y5 Ga6 Rh12'
_cell_volume   425.75693769
_cell_formula_units_Z   1
loop_
 _symmetry_equiv_pos_site_id
 _symmetry_equiv_pos_as_xyz
  1  'x, y, z'
loop_
 _atom_site_type_symbol
 _atom_site_label
 _atom_site_symmetry_multiplicity
 _atom_site_fract_x
 _atom_site_fract_y
 _atom_site_fract_z
 _atom_site_occupancy
  Sm  Sm0  1  0.666667  0.333333  0.750000  1
  Y  Y1  1  0.666667  0.333333  0.961484  1
  Y  Y2  1  0.666667  0.333333  0.538516  1
  Y  Y3  1  0.333333  0.666667  0.039816  1
  Y  Y4  1  0.333333  0.666667  0.460184  1
  Y  Y5  1  0.333333  0.666667  0.250000  1
  Ga  Ga6  1  0.666667  0.333333  0.250000  1
  Ga  Ga7  1  0.000000  0.000000  0.499914  1
  Ga  Ga8  1  0.000000  0.000000  0.250000  1
  Ga  Ga9  1  0.000000  0.000000  0.750000  1
  Ga  Ga10  1  0.333333  0.666667  0.750000  1
  Ga  Ga11  1  0.000000  0.000000  0.000086  1
  Rh  Rh12  1  0.168599  0.337200  0.874603  1
  Rh  Rh13  1  0.168599  0.337200  0.625397  1
  Rh  Rh14  1  0.662800  0.831401  0.874603  1
  Rh  Rh15  1  0.337233  0.168617  0.374444  1
  Rh  Rh16  1  0.831383  0.662767  0.374444  1
  Rh  Rh17  1  0.831383  0.168617  0.374444  1
  Rh  Rh18  1  0.831383  0.168617  0.125556  1
  Rh  Rh19  1  0.337233  0.168617  0.125556  1
  Rh  Rh20  1  0.662800  0.831401  0.625397  1
  Rh  Rh21  1  0.168599  0.831401  0.625397  1
  Rh  Rh22  1  0.831383  0.662767  0.125556  1
  Rh  Rh23  1  0.168599  0.831401  0.874603  1
