# generated using pymatgen
data_K2SnBi3
_symmetry_space_group_name_H-M   'P 1'
_cell_length_a   6.60059634
_cell_length_b   6.60059686
_cell_length_c   6.60059676
_cell_angle_alpha   62.29636202
_cell_angle_beta   62.29635811
_cell_angle_gamma   62.29635478
_symmetry_Int_Tables_number   1
_chemical_formula_structural   K2SnBi3
_chemical_formula_sum   'K2 Sn1 Bi3'
_cell_volume   213.76749703
_cell_formula_units_Z   1
loop_
 _symmetry_equiv_pos_site_id
 _symmetry_equiv_pos_as_xyz
  1  'x, y, z'
loop_
 _atom_site_type_symbol
 _atom_site_label
 _atom_site_symmetry_multiplicity
 _atom_site_fract_x
 _atom_site_fract_y
 _atom_site_fract_z
 _atom_site_occupancy
  K  K0  1  0.500287  0.500287  0.500287  1
  K  K1  1  0.749713  0.749713  0.749713  1
  Sn  Sn2  1  0.125000  0.125000  0.125000  1
  Bi  Bi3  1  0.625000  0.125000  0.125000  1
  Bi  Bi4  1  0.125000  0.125000  0.625000  1
  Bi  Bi5  1  0.125000  0.625000  0.125000  1
