# generated using pymatgen
data_Lu8Sc4InCo4Ru
_symmetry_space_group_name_H-M   'P 1'
_cell_length_a   7.97271758
_cell_length_b   7.97271749
_cell_length_c   7.97271827
_cell_angle_alpha   110.79476558
_cell_angle_beta   111.89089167
_cell_angle_gamma   105.79154309
_symmetry_Int_Tables_number   1
_chemical_formula_structural   Lu8Sc4InCo4Ru
_chemical_formula_sum   'Lu8 Sc4 In1 Co4 Ru1'
_cell_volume   388.88420810
_cell_formula_units_Z   1
loop_
 _symmetry_equiv_pos_site_id
 _symmetry_equiv_pos_as_xyz
  1  'x, y, z'
loop_
 _atom_site_type_symbol
 _atom_site_label
 _atom_site_symmetry_multiplicity
 _atom_site_fract_x
 _atom_site_fract_y
 _atom_site_fract_z
 _atom_site_occupancy
  Lu  Lu0  1  0.186840  0.279227  0.466067  1
  Lu  Lu1  1  0.813160  0.720773  0.533933  1
  Lu  Lu2  1  0.186840  0.720773  0.907615  1
  Lu  Lu3  1  0.813160  0.279227  0.092385  1
  Lu  Lu4  1  0.312305  0.615079  0.302773  1
  Lu  Lu5  1  0.687695  0.384921  0.697227  1
  Lu  Lu6  1  0.312305  0.009532  0.697227  1
  Lu  Lu7  1  0.687695  0.990468  0.302773  1
  Sc  Sc8  1  0.413407  0.219748  0.193659  1
  Sc  Sc9  1  0.586593  0.780252  0.806341  1
  Sc  Sc10  1  0.026088  0.219748  0.806341  1
  Sc  Sc11  1  0.973912  0.780252  0.193659  1
  In  In12  1  0.500000  0.500000  0.000000  1
  Co  Co13  1  0.368610  0.000000  0.368610  1
  Co  Co14  1  0.631390  0.000000  0.631390  1
  Co  Co15  1  0.113604  0.613604  0.500000  1
  Co  Co16  1  0.886396  0.386396  0.500000  1
  Ru  Ru17  1  0.000000  0.000000  0.000000  1
