# generated using pymatgen
data_NdCu2AgPd2
_symmetry_space_group_name_H-M   'P 1'
_cell_length_a   5.12336950
_cell_length_b   5.24865432
_cell_length_c   5.24865379
_cell_angle_alpha   63.30239147
_cell_angle_beta   60.78651282
_cell_angle_gamma   60.78652035
_symmetry_Int_Tables_number   1
_chemical_formula_structural   NdCu2AgPd2
_chemical_formula_sum   'Nd1 Cu2 Ag1 Pd2'
_cell_volume   103.31014997
_cell_formula_units_Z   1
loop_
 _symmetry_equiv_pos_site_id
 _symmetry_equiv_pos_as_xyz
  1  'x, y, z'
loop_
 _atom_site_type_symbol
 _atom_site_label
 _atom_site_symmetry_multiplicity
 _atom_site_fract_x
 _atom_site_fract_y
 _atom_site_fract_z
 _atom_site_occupancy
  Nd  Nd0  1  0.998694  0.001306  0.001306  1
  Cu  Cu1  1  0.128130  0.620673  0.620673  1
  Cu  Cu2  1  0.630523  0.620673  0.620673  1
  Ag  Ag3  1  0.241840  0.258160  0.258160  1
  Pd  Pd4  1  0.625406  0.623257  0.125931  1
  Pd  Pd5  1  0.625406  0.125931  0.623257  1
