# generated using pymatgen
data_Sr2LiTmO4
_symmetry_space_group_name_H-M   'P 1'
_cell_length_a   11.51874000
_cell_length_b   3.43436200
_cell_length_c   11.48668100
_cell_angle_alpha   90.00000000
_cell_angle_beta   90.00000000
_cell_angle_gamma   90.00000000
_symmetry_Int_Tables_number   1
_chemical_formula_structural   Sr2LiTmO4
_chemical_formula_sum   'Sr8 Li4 Tm4 O16'
_cell_volume   454.40762057
_cell_formula_units_Z   4
loop_
 _symmetry_equiv_pos_site_id
 _symmetry_equiv_pos_as_xyz
  1  'x, y, z'
loop_
 _atom_site_type_symbol
 _atom_site_label
 _atom_site_symmetry_multiplicity
 _atom_site_fract_x
 _atom_site_fract_y
 _atom_site_fract_z
 _atom_site_occupancy
  Sr  Sr0  1  0.636002  0.499999  0.071465  1
  Sr  Sr1  1  0.098090  0.000000  0.117694  1
  Sr  Sr2  1  0.598090  0.000000  0.382306  1
  Sr  Sr3  1  0.136003  0.499999  0.428535  1
  Sr  Sr4  1  0.863997  0.000000  0.571465  1
  Sr  Sr5  1  0.401909  0.499999  0.617693  1
  Sr  Sr6  1  0.901909  0.499999  0.882306  1
  Sr  Sr7  1  0.363996  0.000000  0.928534  1
  Li  Li8  1  0.847825  0.000000  0.090241  1
  Li  Li9  1  0.347825  0.000000  0.409759  1
  Li  Li10  1  0.652175  0.499999  0.590240  1
  Li  Li11  1  0.152174  0.499999  0.909759  1
  Tm  Tm12  1  0.357729  0.499999  0.206608  1
  Tm  Tm13  1  0.857730  0.499999  0.293391  1
  Tm  Tm14  1  0.142270  0.000000  0.706609  1
  Tm  Tm15  1  0.642270  0.000000  0.793390  1
  O  O16  1  0.247026  0.499999  0.048439  1
  O  O17  1  0.936275  0.499999  0.113148  1
  O  O18  1  0.470150  0.000000  0.135401  1
  O  O19  1  0.745240  0.000000  0.221024  1
  O  O20  1  0.245240  0.000000  0.278975  1
  O  O21  1  0.970150  0.000000  0.364598  1
  O  O22  1  0.436274  0.499999  0.386851  1
  O  O23  1  0.747026  0.499999  0.451560  1
  O  O24  1  0.252973  0.000000  0.548439  1
  O  O25  1  0.563725  0.000000  0.613149  1
  O  O26  1  0.029849  0.499999  0.635401  1
  O  O27  1  0.754759  0.499999  0.721025  1
  O  O28  1  0.254760  0.499999  0.778975  1
  O  O29  1  0.529848  0.499999  0.864598  1
  O  O30  1  0.063725  0.000000  0.886851  1
  O  O31  1  0.752973  0.000000  0.951560  1
