# generated using pymatgen
data_BeNb2SiBRu5
_symmetry_space_group_name_H-M   'P 1'
_cell_length_a   9.29818045
_cell_length_b   9.29818045
_cell_length_c   3.00558800
_cell_angle_alpha   90.00000000
_cell_angle_beta   90.00000000
_cell_angle_gamma   90.27333612
_symmetry_Int_Tables_number   1
_chemical_formula_structural   BeNb2SiBRu5
_chemical_formula_sum   'Be2 Nb4 Si2 B2 Ru10'
_cell_volume   259.84863922
_cell_formula_units_Z   2
loop_
 _symmetry_equiv_pos_site_id
 _symmetry_equiv_pos_as_xyz
  1  'x, y, z'
loop_
 _atom_site_type_symbol
 _atom_site_label
 _atom_site_symmetry_multiplicity
 _atom_site_fract_x
 _atom_site_fract_y
 _atom_site_fract_z
 _atom_site_occupancy
  Be  Be0  1  0.624423  0.875577  0.000000  1
  Be  Be1  1  0.375577  0.124423  0.000000  1
  Nb  Nb2  1  0.823819  0.676181  0.000000  1
  Nb  Nb3  1  0.176181  0.323819  0.000000  1
  Nb  Nb4  1  0.325776  0.825776  0.000000  1
  Nb  Nb5  1  0.674224  0.174224  0.000000  1
  Si  Si6  1  0.500000  0.500000  0.000000  1
  Si  Si7  1  0.000000  0.000000  0.000000  1
  B  B8  1  0.125022  0.625022  0.000000  1
  B  B9  1  0.874978  0.374978  0.000000  1
  Ru  Ru10  1  0.564125  0.702670  0.500000  1
  Ru  Ru11  1  0.435875  0.297330  0.500000  1
  Ru  Ru12  1  0.067196  0.787311  0.500000  1
  Ru  Ru13  1  0.932804  0.212689  0.500000  1
  Ru  Ru14  1  0.287311  0.567196  0.500000  1
  Ru  Ru15  1  0.712689  0.432804  0.500000  1
  Ru  Ru16  1  0.202670  0.064125  0.500000  1
  Ru  Ru17  1  0.797330  0.935875  0.500000  1
  Ru  Ru18  1  0.500000  0.000000  0.500000  1
  Ru  Ru19  1  0.000000  0.500000  0.500000  1
