# generated using pymatgen
data_Ta2Ti5As4
_symmetry_space_group_name_H-M   'P 1'
_cell_length_a   7.83046689
_cell_length_b   7.83046743
_cell_length_c   14.07105866
_cell_angle_alpha   75.88691727
_cell_angle_beta   75.88691631
_cell_angle_gamma   25.79837406
_symmetry_Int_Tables_number   1
_chemical_formula_structural   Ta2Ti5As4
_chemical_formula_sum   'Ta4 Ti10 As8'
_cell_volume   363.55063182
_cell_formula_units_Z   2
loop_
 _symmetry_equiv_pos_site_id
 _symmetry_equiv_pos_as_xyz
  1  'x, y, z'
loop_
 _atom_site_type_symbol
 _atom_site_label
 _atom_site_symmetry_multiplicity
 _atom_site_fract_x
 _atom_site_fract_y
 _atom_site_fract_z
 _atom_site_occupancy
  Ta  Ta0  1  0.000000  0.000000  0.000000  1
  Ta  Ta1  1  0.500000  0.500000  0.500000  1
  Ta  Ta2  1  0.427185  0.427185  0.170827  1
  Ta  Ta3  1  0.572815  0.572815  0.829173  1
  Ti  Ti4  1  0.195974  0.195974  0.693996  1
  Ti  Ti5  1  0.804026  0.804026  0.306004  1
  Ti  Ti6  1  0.209882  0.209882  0.206125  1
  Ti  Ti7  1  0.790118  0.790118  0.793875  1
  Ti  Ti8  1  0.338986  0.338986  0.966264  1
  Ti  Ti9  1  0.661014  0.661014  0.033736  1
  Ti  Ti10  1  0.001243  0.001243  0.341875  1
  Ti  Ti11  1  0.998757  0.998757  0.658125  1
  Ti  Ti12  1  0.179981  0.179981  0.456780  1
  Ti  Ti13  1  0.820019  0.820019  0.543220  1
  As  As14  1  0.181249  0.181249  0.893599  1
  As  As15  1  0.818751  0.818751  0.106401  1
  As  As16  1  0.370224  0.370224  0.397409  1
  As  As17  1  0.629776  0.629776  0.602591  1
  As  As18  1  0.368600  0.368600  0.661510  1
  As  As19  1  0.631400  0.631400  0.338490  1
  As  As20  1  0.064051  0.064051  0.156397  1
  As  As21  1  0.935949  0.935949  0.843603  1
