# generated using pymatgen
data_Lu4Al18NiIr5
_symmetry_space_group_name_H-M   'P 1'
_cell_length_a   7.50465924
_cell_length_b   7.50465994
_cell_length_c   9.37219937
_cell_angle_alpha   89.90288343
_cell_angle_beta   89.90288057
_cell_angle_gamma   119.46922316
_symmetry_Int_Tables_number   1
_chemical_formula_structural   Lu4Al18NiIr5
_chemical_formula_sum   'Lu4 Al18 Ni1 Ir5'
_cell_volume   459.54678969
_cell_formula_units_Z   1
loop_
 _symmetry_equiv_pos_site_id
 _symmetry_equiv_pos_as_xyz
  1  'x, y, z'
loop_
 _atom_site_type_symbol
 _atom_site_label
 _atom_site_symmetry_multiplicity
 _atom_site_fract_x
 _atom_site_fract_y
 _atom_site_fract_z
 _atom_site_occupancy
  Lu  Lu0  1  0.997344  0.674361  0.250412  1
  Lu  Lu1  1  0.006467  0.329196  0.749708  1
  Lu  Lu2  1  0.670804  0.993533  0.250292  1
  Lu  Lu3  1  0.325639  0.002656  0.749588  1
  Al  Al4  1  0.129212  0.129200  0.249279  1
  Al  Al5  1  0.870800  0.870788  0.750721  1
  Al  Al6  1  0.995370  0.335610  0.075451  1
  Al  Al7  1  0.996968  0.662448  0.924726  1
  Al  Al8  1  0.998690  0.663537  0.575694  1
  Al  Al9  1  0.336463  0.001310  0.424306  1
  Al  Al10  1  0.000010  0.334975  0.423803  1
  Al  Al11  1  0.665025  0.999990  0.576197  1
  Al  Al12  1  0.664390  0.004630  0.924549  1
  Al  Al13  1  0.337552  0.003032  0.075274  1
  Al  Al14  1  0.333505  0.332730  0.554012  1
  Al  Al15  1  0.667270  0.666495  0.445988  1
  Al  Al16  1  0.667057  0.666160  0.054412  1
  Al  Al17  1  0.333840  0.332943  0.945588  1
  Al  Al18  1  0.339748  0.548188  0.249442  1
  Al  Al19  1  0.660040  0.446249  0.753424  1
  Al  Al20  1  0.553751  0.339960  0.246576  1
  Al  Al21  1  0.451812  0.660252  0.750558  1
  Ni  Ni22  1  0.671314  0.328686  0.000000  1
  Ir  Ir23  1  0.327371  0.672629  0.000000  1
  Ir  Ir24  1  0.327721  0.672279  0.500000  1
  Ir  Ir25  1  0.672185  0.327815  0.500000  1
  Ir  Ir26  1  0.999486  0.000514  0.000000  1
  Ir  Ir27  1  0.000166  0.999834  0.500000  1
