# generated using pymatgen
data_Np4B16IrRh3
_symmetry_space_group_name_H-M   'P 1'
_cell_length_a   3.50364600
_cell_length_b   6.02522403
_cell_length_c   11.68228749
_cell_angle_alpha   90.01111976
_cell_angle_beta   90.00000000
_cell_angle_gamma   90.00000000
_symmetry_Int_Tables_number   1
_chemical_formula_structural   Np4B16IrRh3
_chemical_formula_sum   'Np4 B16 Ir1 Rh3'
_cell_volume   246.61602896
_cell_formula_units_Z   1
loop_
 _symmetry_equiv_pos_site_id
 _symmetry_equiv_pos_as_xyz
  1  'x, y, z'
loop_
 _atom_site_type_symbol
 _atom_site_label
 _atom_site_symmetry_multiplicity
 _atom_site_fract_x
 _atom_site_fract_y
 _atom_site_fract_z
 _atom_site_occupancy
  Np  Np0  1  0.500000  0.370131  0.149179  1
  Np  Np1  1  0.500000  0.629293  0.850263  1
  Np  Np2  1  0.500000  0.129929  0.649887  1
  Np  Np3  1  0.500000  0.870816  0.350204  1
  B  B4  1  0.000000  0.115548  0.047083  1
  B  B5  1  0.000000  0.884102  0.952785  1
  B  B6  1  0.000000  0.384059  0.547238  1
  B  B7  1  0.000000  0.615399  0.452644  1
  B  B8  1  0.000000  0.132854  0.467885  1
  B  B9  1  0.000000  0.867591  0.532732  1
  B  B10  1  0.000000  0.367246  0.967115  1
  B  B11  1  0.000000  0.632483  0.032730  1
  B  B12  1  0.000000  0.025593  0.192062  1
  B  B13  1  0.000000  0.974591  0.807587  1
  B  B14  1  0.000000  0.474248  0.692715  1
  B  B15  1  0.000000  0.526185  0.307490  1
  B  B16  1  0.000000  0.210167  0.311783  1
  B  B17  1  0.000000  0.790002  0.688228  1
  B  B18  1  0.000000  0.289544  0.812294  1
  B  B19  1  0.000000  0.709811  0.187352  1
  Ir  Ir20  1  0.500000  0.360454  0.407649  1
  Rh  Rh21  1  0.500000  0.640664  0.592680  1
  Rh  Rh22  1  0.500000  0.138251  0.908085  1
  Rh  Rh23  1  0.500000  0.861039  0.092331  1
