# generated using pymatgen
data_HoErMg2(SiIr2)2
_symmetry_space_group_name_H-M   'P 1'
_cell_length_a   4.05180900
_cell_length_b   4.05180900
_cell_length_c   10.99383700
_cell_angle_alpha   90.00000000
_cell_angle_beta   90.00000000
_cell_angle_gamma   90.00000000
_symmetry_Int_Tables_number   1
_chemical_formula_structural   HoErMg2(SiIr2)2
_chemical_formula_sum   'Ho1 Er1 Mg2 Si2 Ir4'
_cell_volume   180.48753896
_cell_formula_units_Z   1
loop_
 _symmetry_equiv_pos_site_id
 _symmetry_equiv_pos_as_xyz
  1  'x, y, z'
loop_
 _atom_site_type_symbol
 _atom_site_label
 _atom_site_symmetry_multiplicity
 _atom_site_fract_x
 _atom_site_fract_y
 _atom_site_fract_z
 _atom_site_occupancy
  Ho  Ho0  1  0.500000  0.000000  0.764757  1
  Er  Er1  1  0.000000  0.500000  0.235086  1
  Mg  Mg2  1  0.000000  0.000000  0.499828  1
  Mg  Mg3  1  0.500000  0.500000  0.499828  1
  Si  Si4  1  0.000000  0.500000  0.882409  1
  Si  Si5  1  0.500000  0.000000  0.117845  1
  Ir  Ir6  1  0.000000  0.000000  0.000224  1
  Ir  Ir7  1  0.500000  0.500000  0.000224  1
  Ir  Ir8  1  0.000000  0.500000  0.668967  1
  Ir  Ir9  1  0.500000  0.000000  0.330831  1
