# generated using pymatgen
data_Nb8Fe2Co6Si13P
_symmetry_space_group_name_H-M   'P 1'
_cell_length_a   9.18163991
_cell_length_b   9.18064128
_cell_length_c   9.21790659
_cell_angle_alpha   94.25542410
_cell_angle_beta   94.26118327
_cell_angle_gamma   148.30963186
_symmetry_Int_Tables_number   1
_chemical_formula_structural   Nb8Fe2Co6Si13P
_chemical_formula_sum   'Nb8 Fe2 Co6 Si13 P1'
_cell_volume   392.80067612
_cell_formula_units_Z   1
loop_
 _symmetry_equiv_pos_site_id
 _symmetry_equiv_pos_as_xyz
  1  'x, y, z'
loop_
 _atom_site_type_symbol
 _atom_site_label
 _atom_site_symmetry_multiplicity
 _atom_site_fract_x
 _atom_site_fract_y
 _atom_site_fract_z
 _atom_site_occupancy
  Nb  Nb0  1  0.134421  0.134421  0.268841  1
  Nb  Nb1  1  0.866304  0.866304  0.732608  1
  Nb  Nb2  1  0.866103  0.134896  0.000301  1
  Nb  Nb3  1  0.134197  0.865405  0.000301  1
  Nb  Nb4  1  0.498449  0.690089  0.189746  1
  Nb  Nb5  1  0.497501  0.308179  0.805756  1
  Nb  Nb6  1  0.308255  0.497578  0.805756  1
  Nb  Nb7  1  0.691295  0.499656  0.189746  1
  Fe  Fe8  1  0.899936  0.399936  0.799873  1
  Fe  Fe9  1  0.600188  0.100188  0.200375  1
  Co  Co10  1  0.398704  0.898704  0.797407  1
  Co  Co11  1  0.101280  0.601280  0.202561  1
  Co  Co12  1  0.102560  0.902261  0.501824  1
  Co  Co13  1  0.399265  0.599564  0.501824  1
  Co  Co14  1  0.595773  0.401025  0.502244  1
  Co  Co15  1  0.906471  0.101219  0.502244  1
  Si  Si16  1  0.705642  0.705642  0.411285  1
  Si  Si17  1  0.707609  0.291595  0.999484  1
  Si  Si18  1  0.291875  0.707889  0.999484  1
  Si  Si19  1  0.996423  0.293963  0.297117  1
  Si  Si20  1  0.997373  0.699836  0.703575  1
  Si  Si21  1  0.706202  0.003738  0.703575  1
  Si  Si22  1  0.300694  0.003154  0.297117  1
  Si  Si23  1  0.506103  0.911446  0.404391  1
  Si  Si24  1  0.508114  0.100040  0.595462  1
  Si  Si25  1  0.087348  0.495422  0.595462  1
  Si  Si26  1  0.898288  0.492945  0.404391  1
  Si  Si27  1  0.751984  0.752063  0.000105  1
  Si  Si28  1  0.248120  0.248041  0.000105  1
  P  P29  1  0.293521  0.293521  0.587042  1
