# generated using pymatgen
data_Nb5VRe5Si6Os
_symmetry_space_group_name_H-M   'P 1'
_cell_length_a   7.51434407
_cell_length_b   7.53092195
_cell_length_c   7.50275988
_cell_angle_alpha   127.39211398
_cell_angle_beta   123.89824410
_cell_angle_gamma   80.38700089
_symmetry_Int_Tables_number   1
_chemical_formula_structural   Nb5VRe5Si6Os
_chemical_formula_sum   'Nb5 V1 Re5 Si6 Os1'
_cell_volume   270.33664762
_cell_formula_units_Z   1
loop_
 _symmetry_equiv_pos_site_id
 _symmetry_equiv_pos_as_xyz
  1  'x, y, z'
loop_
 _atom_site_type_symbol
 _atom_site_label
 _atom_site_symmetry_multiplicity
 _atom_site_fract_x
 _atom_site_fract_y
 _atom_site_fract_z
 _atom_site_occupancy
  Nb  Nb0  1  0.441384  0.479308  0.532822  1
  Nb  Nb1  1  0.971548  0.502267  0.038846  1
  Nb  Nb2  1  0.031311  0.069527  0.528016  1
  Nb  Nb3  1  0.757856  0.909510  0.655217  1
  Nb  Nb4  1  0.242700  0.911601  0.162938  1
  V  V5  1  0.551026  0.098767  0.056012  1
  Re  Re6  1  0.966245  0.243607  0.214141  1
  Re  Re7  1  0.167773  0.752180  0.667827  1
  Re  Re8  1  0.839835  0.491961  0.585865  1
  Re  Re9  1  0.585269  0.752283  0.085267  1
  Re  Re10  1  0.404694  0.492926  0.150009  1
  Si  Si11  1  0.780867  0.550120  0.268375  1
  Si  Si12  1  0.229727  0.455633  0.727974  1
  Si  Si13  1  0.344238  0.836347  0.515102  1
  Si  Si14  1  0.662236  0.162532  0.492139  1
  Si  Si15  1  0.819567  0.829442  0.985760  1
  Si  Si16  1  0.172344  0.160078  0.995260  1
  Os  Os17  1  0.531382  0.244109  0.780628  1
