# generated using pymatgen
data_YHo9(Ga2Ru3)2
_symmetry_space_group_name_H-M   'P 1'
_cell_length_a   8.29225529
_cell_length_b   8.30446940
_cell_length_c   8.29225341
_cell_angle_alpha   109.35612432
_cell_angle_beta   109.61272685
_cell_angle_gamma   109.38555015
_symmetry_Int_Tables_number   1
_chemical_formula_structural   YHo9(Ga2Ru3)2
_chemical_formula_sum   'Y1 Ho9 Ga4 Ru6'
_cell_volume   439.89648065
_cell_formula_units_Z   1
loop_
 _symmetry_equiv_pos_site_id
 _symmetry_equiv_pos_as_xyz
  1  'x, y, z'
loop_
 _atom_site_type_symbol
 _atom_site_label
 _atom_site_symmetry_multiplicity
 _atom_site_fract_x
 _atom_site_fract_y
 _atom_site_fract_z
 _atom_site_occupancy
  Y  Y0  1  0.682592  0.750000  0.932591  1
  Ho  Ho1  1  0.000320  0.216808  0.000029  1
  Ho  Ho2  1  0.749977  0.431917  0.182204  1
  Ho  Ho3  1  0.431920  0.681962  0.250073  1
  Ho  Ho4  1  0.250286  0.068082  0.318059  1
  Ho  Ho5  1  0.216069  0.499964  0.499597  1
  Ho  Ho6  1  0.817664  0.250000  0.567664  1
  Ho  Ho7  1  0.499633  0.000037  0.716106  1
  Ho  Ho8  1  0.068111  0.818039  0.749959  1
  Ho  Ho9  1  0.283221  0.283192  0.783513  1
  Ga  Ga10  1  0.000109  0.587456  0.000000  1
  Ga  Ga11  1  0.499685  0.999959  0.087571  1
  Ga  Ga12  1  0.912544  0.912544  0.412654  1
  Ga  Ga13  1  0.587612  0.500041  0.499727  1
  Ru  Ru14  1  0.374359  0.250000  0.124359  1
  Ru  Ru15  1  0.877370  0.128549  0.252339  1
  Ru  Ru16  1  0.125461  0.750000  0.375460  1
  Ru  Ru17  1  0.750201  0.876069  0.625145  1
  Ru  Ru18  1  0.623791  0.371452  0.748821  1
  Ru  Ru19  1  0.249077  0.623931  0.874134  1
