# generated using pymatgen
data_NdMg2Si2(PPd5)4
_symmetry_space_group_name_H-M   'P 1'
_cell_length_a   8.65052080
_cell_length_b   8.64324289
_cell_length_c   8.64324407
_cell_angle_alpha   60.05571554
_cell_angle_beta   59.97214934
_cell_angle_gamma   59.97214399
_symmetry_Int_Tables_number   1
_chemical_formula_structural   NdMg2Si2(PPd5)4
_chemical_formula_sum   'Nd1 Mg2 Si2 P4 Pd20'
_cell_volume   456.96208154
_cell_formula_units_Z   1
loop_
 _symmetry_equiv_pos_site_id
 _symmetry_equiv_pos_as_xyz
  1  'x, y, z'
loop_
 _atom_site_type_symbol
 _atom_site_label
 _atom_site_symmetry_multiplicity
 _atom_site_fract_x
 _atom_site_fract_y
 _atom_site_fract_z
 _atom_site_occupancy
  Nd  Nd0  1  0.750000  0.750000  0.750000  1
  Mg  Mg1  1  0.250000  0.250000  0.250000  1
  Mg  Mg2  1  0.000000  0.000000  0.000000  1
  Si  Si3  1  0.735349  0.264651  0.264651  1
  Si  Si4  1  0.264651  0.735349  0.735349  1
  P  P5  1  0.264728  0.735272  0.264728  1
  P  P6  1  0.735272  0.264728  0.735272  1
  P  P7  1  0.264728  0.264728  0.735272  1
  P  P8  1  0.735272  0.735272  0.264728  1
  Pd  Pd9  1  0.379600  0.380401  0.380401  1
  Pd  Pd10  1  0.613284  0.610505  0.610505  1
  Pd  Pd11  1  0.380401  0.379600  0.859599  1
  Pd  Pd12  1  0.380401  0.859599  0.379600  1
  Pd  Pd13  1  0.610505  0.613284  0.165703  1
  Pd  Pd14  1  0.610505  0.165703  0.613284  1
  Pd  Pd15  1  0.859599  0.380401  0.380401  1
  Pd  Pd16  1  0.165703  0.610505  0.610505  1
  Pd  Pd17  1  0.342095  0.000134  0.000134  1
  Pd  Pd18  1  0.657635  0.000134  0.000134  1
  Pd  Pd19  1  0.000134  0.342095  0.657635  1
  Pd  Pd20  1  0.000134  0.657635  0.342095  1
  Pd  Pd21  1  0.001712  0.344406  0.997842  1
  Pd  Pd22  1  0.656038  0.997842  0.344406  1
  Pd  Pd23  1  0.997842  0.656038  0.001712  1
  Pd  Pd24  1  0.344406  0.001712  0.656038  1
  Pd  Pd25  1  0.001712  0.997842  0.344406  1
  Pd  Pd26  1  0.997842  0.001712  0.656038  1
  Pd  Pd27  1  0.656038  0.344406  0.997842  1
  Pd  Pd28  1  0.344406  0.656038  0.001712  1
