# generated using pymatgen
data_La9SmC4I15
_symmetry_space_group_name_H-M   'P 1'
_cell_length_a   9.91643436
_cell_length_b   10.84138650
_cell_length_c   11.91746816
_cell_angle_alpha   93.69752421
_cell_angle_beta   114.27666005
_cell_angle_gamma   109.44242148
_symmetry_Int_Tables_number   1
_chemical_formula_structural   La9SmC4I15
_chemical_formula_sum   'La9 Sm1 C4 I15'
_cell_volume   1070.68775014
_cell_formula_units_Z   1
loop_
 _symmetry_equiv_pos_site_id
 _symmetry_equiv_pos_as_xyz
  1  'x, y, z'
loop_
 _atom_site_type_symbol
 _atom_site_label
 _atom_site_symmetry_multiplicity
 _atom_site_fract_x
 _atom_site_fract_y
 _atom_site_fract_z
 _atom_site_occupancy
  La  La0  1  0.343467  0.745878  0.165109  1
  La  La1  1  0.778936  0.884211  0.258776  1
  La  La2  1  0.529051  0.187668  0.103634  1
  La  La3  1  0.221121  0.114819  0.742250  1
  La  La4  1  0.402595  0.459017  0.657123  1
  La  La5  1  0.471923  0.813224  0.897151  1
  La  La6  1  0.705218  0.567015  0.044610  1
  La  La7  1  0.294981  0.432333  0.955961  1
  La  La8  1  0.656601  0.254822  0.833002  1
  Sm  Sm9  1  0.595182  0.543605  0.336614  1
  C  C10  1  0.482187  0.300310  0.937102  1
  C  C11  1  0.518030  0.698933  0.062450  1
  C  C12  1  0.452634  0.361512  0.833603  1
  C  C13  1  0.546621  0.637467  0.165119  1
  I  I14  1  0.206795  0.906846  0.937738  1
  I  I15  1  0.102685  0.186432  0.466545  1
  I  I16  1  0.150238  0.554364  0.703821  1
  I  I17  1  0.404481  0.967532  0.646460  1
  I  I18  1  0.715817  0.733923  0.822438  1
  I  I19  1  0.292883  0.272521  0.184383  1
  I  I20  1  0.844019  0.448169  0.301006  1
  I  I21  1  0.887933  0.803167  0.529847  1
  I  I22  1  0.366202  0.627768  0.412966  1
  I  I23  1  0.056221  0.833044  0.221490  1
  I  I24  1  0.793785  0.094959  0.062744  1
  I  I25  1  0.641309  0.373174  0.584076  1
  I  I26  1  0.944432  0.166240  0.779434  1
  I  I27  1  0.594650  0.031313  0.353889  1
  I  I28  1  0.000001  0.499734  0.000659  1
