# generated using pymatgen
data_Cr2HN
_symmetry_space_group_name_H-M   'P 1'
_cell_length_a   3.91968071
_cell_length_b   3.92053942
_cell_length_c   4.83413263
_cell_angle_alpha   66.14838807
_cell_angle_beta   66.15428418
_cell_angle_gamma   90.10926489
_symmetry_Int_Tables_number   1
_chemical_formula_structural   Cr2HN
_chemical_formula_sum   'Cr4 H2 N2'
_cell_volume   60.91655639
_cell_formula_units_Z   2
loop_
 _symmetry_equiv_pos_site_id
 _symmetry_equiv_pos_as_xyz
  1  'x, y, z'
loop_
 _atom_site_type_symbol
 _atom_site_label
 _atom_site_symmetry_multiplicity
 _atom_site_fract_x
 _atom_site_fract_y
 _atom_site_fract_z
 _atom_site_occupancy
  Cr  Cr0  1  0.004089  0.004464  0.991062  1
  Cr  Cr1  1  0.246071  0.745689  0.508608  1
  Cr  Cr2  1  0.754386  0.254009  0.491226  1
  Cr  Cr3  1  0.495479  0.495856  0.009058  1
  H  H4  1  0.500054  0.999923  0.000018  1
  H  H5  1  0.749917  0.750063  0.500026  1
  N  N6  1  0.000091  0.499997  0.999916  1
  N  N7  1  0.249914  0.250000  0.500085  1
