# generated using pymatgen
data_Yb3Y15(ErRh6)2
_symmetry_space_group_name_H-M   'P 1'
_cell_length_a   10.91010390
_cell_length_b   10.95482601
_cell_length_c   6.36681700
_cell_angle_alpha   89.95779239
_cell_angle_beta   90.21790097
_cell_angle_gamma   90.00500887
_symmetry_Int_Tables_number   1
_chemical_formula_structural   Yb3Y15(ErRh6)2
_chemical_formula_sum   'Yb3 Y15 Er2 Rh12'
_cell_volume   760.94536828
_cell_formula_units_Z   1
loop_
 _symmetry_equiv_pos_site_id
 _symmetry_equiv_pos_as_xyz
  1  'x, y, z'
loop_
 _atom_site_type_symbol
 _atom_site_label
 _atom_site_symmetry_multiplicity
 _atom_site_fract_x
 _atom_site_fract_y
 _atom_site_fract_z
 _atom_site_occupancy
  Yb  Yb0  1  0.289431  0.087367  0.377012  1
  Yb  Yb1  1  0.292266  0.910192  0.878128  1
  Yb  Yb2  1  0.002221  0.999553  0.498083  1
  Y  Y3  1  0.707710  0.088384  0.881483  1
  Y  Y4  1  0.710635  0.914323  0.380573  1
  Y  Y5  1  0.588813  0.791264  0.878534  1
  Y  Y6  1  0.586730  0.208281  0.378281  1
  Y  Y7  1  0.412406  0.792410  0.379326  1
  Y  Y8  1  0.410396  0.207929  0.880189  1
  Y  Y9  1  0.210459  0.413378  0.624921  1
  Y  Y10  1  0.211261  0.588597  0.123559  1
  Y  Y11  1  0.789645  0.410329  0.119961  1
  Y  Y12  1  0.789997  0.587651  0.620449  1
  Y  Y13  1  0.910486  0.708641  0.121377  1
  Y  Y14  1  0.912489  0.288911  0.622664  1
  Y  Y15  1  0.086961  0.710293  0.621010  1
  Y  Y16  1  0.089547  0.292382  0.120339  1
  Y  Y17  1  0.001128  0.000879  0.998478  1
  Er  Er18  1  0.499942  0.499605  0.996952  1
  Er  Er19  1  0.499822  0.500205  0.497260  1
  Rh  Rh20  1  0.847396  0.156301  0.247311  1
  Rh  Rh21  1  0.846657  0.844656  0.753041  1
  Rh  Rh22  1  0.151618  0.160492  0.754276  1
  Rh  Rh23  1  0.150379  0.838040  0.247542  1
  Rh  Rh24  1  0.649811  0.347329  0.748742  1
  Rh  Rh25  1  0.649424  0.652999  0.251336  1
  Rh  Rh26  1  0.349085  0.352101  0.248595  1
  Rh  Rh27  1  0.348707  0.647762  0.745042  1
  Rh  Rh28  1  0.502230  0.000361  0.124059  1
  Rh  Rh29  1  0.502222  0.999453  0.623237  1
  Rh  Rh30  1  0.000056  0.500232  0.878601  1
  Rh  Rh31  1  0.000074  0.499698  0.379640  1
