# generated using pymatgen
data_Ba2Li3VAs4
_symmetry_space_group_name_H-M   'P 1'
_cell_length_a   7.12888130
_cell_length_b   7.12888156
_cell_length_c   6.02194100
_cell_angle_alpha   90.00000000
_cell_angle_beta   90.00000000
_cell_angle_gamma   129.91068504
_symmetry_Int_Tables_number   1
_chemical_formula_structural   Ba2Li3VAs4
_chemical_formula_sum   'Ba2 Li3 V1 As4'
_cell_volume   234.74719634
_cell_formula_units_Z   1
loop_
 _symmetry_equiv_pos_site_id
 _symmetry_equiv_pos_as_xyz
  1  'x, y, z'
loop_
 _atom_site_type_symbol
 _atom_site_label
 _atom_site_symmetry_multiplicity
 _atom_site_fract_x
 _atom_site_fract_y
 _atom_site_fract_z
 _atom_site_occupancy
  Ba  Ba0  1  0.500000  0.000000  0.252142  1
  Ba  Ba1  1  0.000000  0.500000  0.747858  1
  Li  Li2  1  0.500000  0.500000  0.500000  1
  Li  Li3  1  0.500000  0.500000  0.000000  1
  Li  Li4  1  0.000000  0.000000  0.500000  1
  V  V5  1  0.000000  0.000000  0.000000  1
  As  As6  1  0.662487  0.875519  0.770934  1
  As  As7  1  0.124481  0.337513  0.229066  1
  As  As8  1  0.875519  0.662487  0.229066  1
  As  As9  1  0.337513  0.124481  0.770934  1
