# generated using pymatgen
data_Pr8Si12Ir3Pd
_symmetry_space_group_name_H-M   'P 1'
_cell_length_a   8.27842800
_cell_length_b   8.27842941
_cell_length_c   8.56102500
_cell_angle_alpha   90.00000000
_cell_angle_beta   90.00000000
_cell_angle_gamma   120.00000237
_symmetry_Int_Tables_number   1
_chemical_formula_structural   Pr8Si12Ir3Pd
_chemical_formula_sum   'Pr8 Si12 Ir3 Pd1'
_cell_volume   508.10353030
_cell_formula_units_Z   1
loop_
 _symmetry_equiv_pos_site_id
 _symmetry_equiv_pos_as_xyz
  1  'x, y, z'
loop_
 _atom_site_type_symbol
 _atom_site_label
 _atom_site_symmetry_multiplicity
 _atom_site_fract_x
 _atom_site_fract_y
 _atom_site_fract_z
 _atom_site_occupancy
  Pr  Pr0  1  0.496939  0.503061  0.752419  1
  Pr  Pr1  1  0.500281  0.499719  0.247949  1
  Pr  Pr2  1  0.006121  0.503061  0.752419  1
  Pr  Pr3  1  0.999439  0.499719  0.247949  1
  Pr  Pr4  1  0.496939  0.993879  0.752419  1
  Pr  Pr5  1  0.500281  0.000561  0.247949  1
  Pr  Pr6  1  0.000000  0.000000  0.749185  1
  Pr  Pr7  1  0.000000  0.000000  0.250190  1
  Si  Si8  1  0.832828  0.167172  0.002169  1
  Si  Si9  1  0.166741  0.833259  0.997790  1
  Si  Si10  1  0.334343  0.167172  0.002169  1
  Si  Si11  1  0.167045  0.832955  0.502430  1
  Si  Si12  1  0.666518  0.833259  0.997790  1
  Si  Si13  1  0.835621  0.164379  0.497321  1
  Si  Si14  1  0.832828  0.665657  0.002169  1
  Si  Si15  1  0.665910  0.832955  0.502430  1
  Si  Si16  1  0.166741  0.333482  0.997790  1
  Si  Si17  1  0.328757  0.164379  0.497321  1
  Si  Si18  1  0.167045  0.334090  0.502430  1
  Si  Si19  1  0.835621  0.671243  0.497321  1
  Ir  Ir20  1  0.666667  0.333333  0.992531  1
  Ir  Ir21  1  0.333333  0.666667  0.007310  1
  Ir  Ir22  1  0.333333  0.666667  0.492472  1
  Pd  Pd23  1  0.666667  0.333333  0.508075  1
