# generated using pymatgen
data_Hf16Ta4Si15P
_symmetry_space_group_name_H-M   'P 1'
_cell_length_a   6.76402637
_cell_length_b   6.92287110
_cell_length_c   13.34956748
_cell_angle_alpha   89.90866377
_cell_angle_beta   89.69298767
_cell_angle_gamma   90.06220963
_symmetry_Int_Tables_number   1
_chemical_formula_structural   Hf16Ta4Si15P
_chemical_formula_sum   'Hf16 Ta4 Si15 P1'
_cell_volume   625.10314755
_cell_formula_units_Z   1
loop_
 _symmetry_equiv_pos_site_id
 _symmetry_equiv_pos_as_xyz
  1  'x, y, z'
loop_
 _atom_site_type_symbol
 _atom_site_label
 _atom_site_symmetry_multiplicity
 _atom_site_fract_x
 _atom_site_fract_y
 _atom_site_fract_z
 _atom_site_occupancy
  Hf  Hf0  1  0.335736  0.675552  0.875567  1
  Hf  Hf1  1  0.836490  0.825667  0.875314  1
  Hf  Hf2  1  0.663916  0.322028  0.377223  1
  Hf  Hf3  1  0.999478  0.675468  0.094792  1
  Hf  Hf4  1  0.495909  0.824433  0.404088  1
  Hf  Hf5  1  0.501307  0.175597  0.905067  1
  Hf  Hf6  1  0.505294  0.177114  0.596198  1
  Hf  Hf7  1  0.000201  0.324695  0.905061  1
  Hf  Hf8  1  0.163801  0.174736  0.124427  1
  Hf  Hf9  1  0.157919  0.171899  0.377469  1
  Hf  Hf10  1  0.995523  0.678667  0.405261  1
  Hf  Hf11  1  0.664436  0.324223  0.124494  1
  Hf  Hf12  1  0.498975  0.824911  0.094882  1
  Hf  Hf13  1  0.003678  0.322835  0.594956  1
  Hf  Hf14  1  0.338588  0.673002  0.623805  1
  Hf  Hf15  1  0.837763  0.830690  0.621221  1
  Ta  Ta16  1  0.664666  0.502261  0.749713  1
  Ta  Ta17  1  0.165218  0.998481  0.748859  1
  Ta  Ta18  1  0.335136  0.497716  0.250703  1
  Ta  Ta19  1  0.834137  0.000672  0.250882  1
  Si  Si20  1  0.675270  0.530874  0.538915  1
  Si  Si21  1  0.171393  0.970334  0.961124  1
  Si  Si22  1  0.298070  0.359240  0.750758  1
  Si  Si23  1  0.829132  0.029834  0.038866  1
  Si  Si24  1  0.329536  0.470041  0.038981  1
  Si  Si25  1  0.459486  0.106483  0.250597  1
  Si  Si26  1  0.701347  0.640079  0.249831  1
  Si  Si27  1  0.961679  0.394639  0.250500  1
  Si  Si28  1  0.798784  0.141483  0.750292  1
  Si  Si29  1  0.670963  0.530005  0.960977  1
  Si  Si30  1  0.184739  0.969192  0.539662  1
  Si  Si31  1  0.037961  0.606796  0.749269  1
  Si  Si32  1  0.325427  0.468263  0.460835  1
  Si  Si33  1  0.540107  0.894002  0.749438  1
  Si  Si34  1  0.201099  0.858148  0.249557  1
  P  P35  1  0.816837  0.029940  0.460416  1
