# generated using pymatgen
data_LiAu(BrO3)4
_symmetry_space_group_name_H-M   'P 1'
_cell_length_a   10.51048612
_cell_length_b   5.31863400
_cell_length_c   11.67450983
_cell_angle_alpha   90.00000000
_cell_angle_beta   116.24287283
_cell_angle_gamma   90.00000000
_symmetry_Int_Tables_number   1
_chemical_formula_structural   LiAu(BrO3)4
_chemical_formula_sum   'Li2 Au2 Br8 O24'
_cell_volume   585.35458654
_cell_formula_units_Z   2
loop_
 _symmetry_equiv_pos_site_id
 _symmetry_equiv_pos_as_xyz
  1  'x, y, z'
loop_
 _atom_site_type_symbol
 _atom_site_label
 _atom_site_symmetry_multiplicity
 _atom_site_fract_x
 _atom_site_fract_y
 _atom_site_fract_z
 _atom_site_occupancy
  Li  Li0  1  0.500000  0.000000  0.500000  1
  Li  Li1  1  0.500000  0.500000  0.000000  1
  Au  Au2  1  0.000000  0.000000  0.000000  1
  Au  Au3  1  0.000000  0.500000  0.500000  1
  Br  Br4  1  0.349015  0.593826  0.682355  1
  Br  Br5  1  0.650985  0.093826  0.817645  1
  Br  Br6  1  0.650985  0.406174  0.317645  1
  Br  Br7  1  0.349015  0.906174  0.182355  1
  Br  Br8  1  0.198302  0.078741  0.854549  1
  Br  Br9  1  0.801698  0.578741  0.645451  1
  Br  Br10  1  0.801698  0.921259  0.145451  1
  Br  Br11  1  0.198302  0.421259  0.354549  1
  O  O12  1  0.179986  0.708658  0.559425  1
  O  O13  1  0.820014  0.208658  0.940575  1
  O  O14  1  0.820014  0.291342  0.440575  1
  O  O15  1  0.179986  0.791342  0.059425  1
  O  O16  1  0.359431  0.697304  0.820880  1
  O  O17  1  0.640569  0.197304  0.679120  1
  O  O18  1  0.640569  0.302696  0.179120  1
  O  O19  1  0.359431  0.802696  0.320880  1
  O  O20  1  0.447108  0.792583  0.645515  1
  O  O21  1  0.552892  0.292583  0.854485  1
  O  O22  1  0.552892  0.207417  0.354485  1
  O  O23  1  0.447108  0.707417  0.145515  1
  O  O24  1  0.170226  0.230276  0.722222  1
  O  O25  1  0.829774  0.730276  0.777778  1
  O  O26  1  0.829774  0.769724  0.277778  1
  O  O27  1  0.170226  0.269724  0.222222  1
  O  O28  1  0.340378  0.203657  0.974458  1
  O  O29  1  0.659622  0.703657  0.525542  1
  O  O30  1  0.659622  0.796343  0.025542  1
  O  O31  1  0.340378  0.296343  0.474458  1
  O  O32  1  0.050378  0.203771  0.878147  1
  O  O33  1  0.949622  0.703771  0.621853  1
  O  O34  1  0.949622  0.796229  0.121853  1
  O  O35  1  0.050378  0.296229  0.378147  1
