# generated using pymatgen
data_Er10FeHg3
_symmetry_space_group_name_H-M   'P 1'
_cell_length_a   9.49344300
_cell_length_b   9.49346525
_cell_length_c   9.51087500
_cell_angle_alpha   90.00000000
_cell_angle_beta   90.00000000
_cell_angle_gamma   120.00042336
_symmetry_Int_Tables_number   1
_chemical_formula_structural   Er10FeHg3
_chemical_formula_sum   'Er20 Fe2 Hg6'
_cell_volume   742.33128656
_cell_formula_units_Z   2
loop_
 _symmetry_equiv_pos_site_id
 _symmetry_equiv_pos_as_xyz
  1  'x, y, z'
loop_
 _atom_site_type_symbol
 _atom_site_label
 _atom_site_symmetry_multiplicity
 _atom_site_fract_x
 _atom_site_fract_y
 _atom_site_fract_z
 _atom_site_occupancy
  Er  Er0  1  0.000000  0.000000  0.500000  1
  Er  Er1  1  0.000000  0.000000  0.000000  1
  Er  Er2  1  0.541338  0.458662  0.250000  1
  Er  Er3  1  0.541337  0.082674  0.250000  1
  Er  Er4  1  0.917325  0.458662  0.250000  1
  Er  Er5  1  0.458662  0.541338  0.750000  1
  Er  Er6  1  0.458663  0.917326  0.750000  1
  Er  Er7  1  0.082675  0.541338  0.750000  1
  Er  Er8  1  0.212451  0.787550  0.436143  1
  Er  Er9  1  0.212451  0.424904  0.436140  1
  Er  Er10  1  0.575096  0.787550  0.436141  1
  Er  Er11  1  0.787549  0.212450  0.563857  1
  Er  Er12  1  0.787549  0.575096  0.563860  1
  Er  Er13  1  0.424904  0.212450  0.563859  1
  Er  Er14  1  0.787549  0.212450  0.936143  1
  Er  Er15  1  0.787549  0.575096  0.936140  1
  Er  Er16  1  0.424904  0.212450  0.936141  1
  Er  Er17  1  0.212451  0.787550  0.063857  1
  Er  Er18  1  0.212451  0.424904  0.063860  1
  Er  Er19  1  0.575096  0.787550  0.063859  1
  Fe  Fe20  1  0.333336  0.666664  0.250000  1
  Fe  Fe21  1  0.666664  0.333336  0.750000  1
  Hg  Hg22  1  0.881310  0.118689  0.250000  1
  Hg  Hg23  1  0.881311  0.762618  0.250000  1
  Hg  Hg24  1  0.237380  0.118689  0.250000  1
  Hg  Hg25  1  0.118690  0.881311  0.750000  1
  Hg  Hg26  1  0.118689  0.237382  0.750000  1
  Hg  Hg27  1  0.762620  0.881311  0.750000  1
