# generated using pymatgen
data_CaY(Cu2P)4
_symmetry_space_group_name_H-M   'P 1'
_cell_length_a   7.25095164
_cell_length_b   7.25095164
_cell_length_c   3.80308000
_cell_angle_alpha   90.00000000
_cell_angle_beta   90.00000000
_cell_angle_gamma   89.66148516
_symmetry_Int_Tables_number   1
_chemical_formula_structural   CaY(Cu2P)4
_chemical_formula_sum   'Ca1 Y1 Cu8 P4'
_cell_volume   199.94838389
_cell_formula_units_Z   1
loop_
 _symmetry_equiv_pos_site_id
 _symmetry_equiv_pos_as_xyz
  1  'x, y, z'
loop_
 _atom_site_type_symbol
 _atom_site_label
 _atom_site_symmetry_multiplicity
 _atom_site_fract_x
 _atom_site_fract_y
 _atom_site_fract_z
 _atom_site_occupancy
  Ca  Ca0  1  0.500000  0.500000  0.500000  1
  Y  Y1  1  0.000000  0.000000  0.000000  1
  Cu  Cu2  1  0.664393  0.916190  0.500000  1
  Cu  Cu3  1  0.163017  0.583998  0.000000  1
  Cu  Cu4  1  0.416002  0.836983  0.000000  1
  Cu  Cu5  1  0.916190  0.664393  0.500000  1
  Cu  Cu6  1  0.836983  0.416002  0.000000  1
  Cu  Cu7  1  0.583998  0.163017  0.000000  1
  Cu  Cu8  1  0.083810  0.335607  0.500000  1
  Cu  Cu9  1  0.335607  0.083810  0.500000  1
  P  P10  1  0.281119  0.281119  0.000000  1
  P  P11  1  0.718881  0.718881  0.000000  1
  P  P12  1  0.785374  0.214626  0.500000  1
  P  P13  1  0.214626  0.785374  0.500000  1
