# generated using pymatgen
data_Dy6MgMn(Co4P3)4
_symmetry_space_group_name_H-M   'P 1'
_cell_length_a   3.71093000
_cell_length_b   10.56505800
_cell_length_c   12.24231200
_cell_angle_alpha   90.00000000
_cell_angle_beta   90.00000000
_cell_angle_gamma   90.00000000
_symmetry_Int_Tables_number   1
_chemical_formula_structural   Dy6MgMn(Co4P3)4
_chemical_formula_sum   'Dy6 Mg1 Mn1 Co16 P12'
_cell_volume   479.97441868
_cell_formula_units_Z   1
loop_
 _symmetry_equiv_pos_site_id
 _symmetry_equiv_pos_as_xyz
  1  'x, y, z'
loop_
 _atom_site_type_symbol
 _atom_site_label
 _atom_site_symmetry_multiplicity
 _atom_site_fract_x
 _atom_site_fract_y
 _atom_site_fract_z
 _atom_site_occupancy
  Dy  Dy0  1  0.000000  0.500000  0.525491  1
  Dy  Dy1  1  0.500000  0.000000  0.477574  1
  Dy  Dy2  1  0.500000  0.821393  0.206414  1
  Dy  Dy3  1  0.500000  0.178607  0.206414  1
  Dy  Dy4  1  0.000000  0.681859  0.794626  1
  Dy  Dy5  1  0.000000  0.318141  0.794626  1
  Mg  Mg6  1  0.500000  0.500000  0.153325  1
  Mn  Mn7  1  0.000000  0.000000  0.837951  1
  Co  Co8  1  0.500000  0.500000  0.704364  1
  Co  Co9  1  0.000000  0.000000  0.296695  1
  Co  Co10  1  0.000000  0.500000  0.986259  1
  Co  Co11  1  0.500000  0.000000  0.012318  1
  Co  Co12  1  0.500000  0.328995  0.992708  1
  Co  Co13  1  0.500000  0.671005  0.992708  1
  Co  Co14  1  0.000000  0.163091  0.002042  1
  Co  Co15  1  0.000000  0.836909  0.002042  1
  Co  Co16  1  0.500000  0.295094  0.433341  1
  Co  Co17  1  0.500000  0.704906  0.433341  1
  Co  Co18  1  0.000000  0.202394  0.571158  1
  Co  Co19  1  0.000000  0.797606  0.571158  1
  Co  Co20  1  0.500000  0.880265  0.708687  1
  Co  Co21  1  0.500000  0.119735  0.708687  1
  Co  Co22  1  0.000000  0.623064  0.293994  1
  Co  Co23  1  0.000000  0.376936  0.293994  1
  P  P24  1  0.500000  0.500000  0.883744  1
  P  P25  1  0.000000  0.000000  0.116471  1
  P  P26  1  0.500000  0.500000  0.353589  1
  P  P27  1  0.000000  0.000000  0.653196  1
  P  P28  1  0.500000  0.310058  0.617098  1
  P  P29  1  0.500000  0.689942  0.617098  1
  P  P30  1  0.000000  0.189122  0.385695  1
  P  P31  1  0.000000  0.810878  0.385695  1
  P  P32  1  0.500000  0.849067  0.890313  1
  P  P33  1  0.500000  0.150933  0.890313  1
  P  P34  1  0.000000  0.662592  0.103436  1
  P  P35  1  0.000000  0.337408  0.103436  1
