# generated using pymatgen
data_Y6Zn21Ag2As
_symmetry_space_group_name_H-M   'P 1'
_cell_length_a   9.06393276
_cell_length_b   9.06067071
_cell_length_c   9.06067000
_cell_angle_alpha   60.00079119
_cell_angle_beta   60.01231577
_cell_angle_gamma   60.01231974
_symmetry_Int_Tables_number   1
_chemical_formula_structural   Y6Zn21Ag2As
_chemical_formula_sum   'Y6 Zn21 Ag2 As1'
_cell_volume   526.26655238
_cell_formula_units_Z   1
loop_
 _symmetry_equiv_pos_site_id
 _symmetry_equiv_pos_as_xyz
  1  'x, y, z'
loop_
 _atom_site_type_symbol
 _atom_site_label
 _atom_site_symmetry_multiplicity
 _atom_site_fract_x
 _atom_site_fract_y
 _atom_site_fract_z
 _atom_site_occupancy
  Y  Y0  1  0.714799  0.285303  0.285303  1
  Y  Y1  1  0.714793  0.285308  0.714590  1
  Y  Y2  1  0.714793  0.714590  0.285308  1
  Y  Y3  1  0.281207  0.718083  0.718083  1
  Y  Y4  1  0.281204  0.718086  0.282626  1
  Y  Y5  1  0.281204  0.282626  0.718086  1
  Zn  Zn6  1  0.124112  0.619235  0.128330  1
  Zn  Zn7  1  0.124112  0.128330  0.619235  1
  Zn  Zn8  1  0.124116  0.128324  0.128324  1
  Zn  Zn9  1  0.386428  0.871191  0.871191  1
  Zn  Zn10  1  0.870214  0.373991  0.877897  1
  Zn  Zn11  1  0.870214  0.877897  0.373991  1
  Zn  Zn12  1  0.870213  0.877899  0.877899  1
  Zn  Zn13  1  0.496635  0.000113  0.000113  1
  Zn  Zn14  1  0.496638  0.000113  0.503137  1
  Zn  Zn15  1  0.496638  0.503137  0.000113  1
  Zn  Zn16  1  0.998401  0.500963  0.500963  1
  Zn  Zn17  1  0.998402  0.500963  0.999675  1
  Zn  Zn18  1  0.998402  0.999675  0.500963  1
  Zn  Zn19  1  0.008864  0.330379  0.330379  1
  Zn  Zn20  1  0.330677  0.008170  0.330579  1
  Zn  Zn21  1  0.330677  0.330579  0.008170  1
  Zn  Zn22  1  0.330679  0.330577  0.330577  1
  Zn  Zn23  1  0.990344  0.669886  0.669886  1
  Zn  Zn24  1  0.669486  0.991308  0.669602  1
  Zn  Zn25  1  0.669486  0.669602  0.991308  1
  Zn  Zn26  1  0.669488  0.669601  0.669601  1
  Ag  Ag27  1  0.638949  0.120349  0.120349  1
  Ag  Ag28  1  0.023471  0.992175  0.992175  1
  As  As29  1  0.495354  0.501548  0.501548  1
