# generated using pymatgen
data_PrEr4(In2Pt)2
_symmetry_space_group_name_H-M   'P 1'
_cell_length_a   3.61103100
_cell_length_b   8.18172800
_cell_length_c   18.35889400
_cell_angle_alpha   90.00000000
_cell_angle_beta   90.00000000
_cell_angle_gamma   90.00000000
_symmetry_Int_Tables_number   1
_chemical_formula_structural   PrEr4(In2Pt)2
_chemical_formula_sum   'Pr2 Er8 In8 Pt4'
_cell_volume   542.40385620
_cell_formula_units_Z   2
loop_
 _symmetry_equiv_pos_site_id
 _symmetry_equiv_pos_as_xyz
  1  'x, y, z'
loop_
 _atom_site_type_symbol
 _atom_site_label
 _atom_site_symmetry_multiplicity
 _atom_site_fract_x
 _atom_site_fract_y
 _atom_site_fract_z
 _atom_site_occupancy
  Pr  Pr0  1  0.000000  0.000000  0.000000  1
  Pr  Pr1  1  0.000000  0.500000  0.500000  1
  Er  Er2  1  0.000000  0.119964  0.413517  1
  Er  Er3  1  0.000000  0.880036  0.586483  1
  Er  Er4  1  0.000000  0.380036  0.913517  1
  Er  Er5  1  0.000000  0.619964  0.086483  1
  Er  Er6  1  0.000000  0.242254  0.219831  1
  Er  Er7  1  0.000000  0.757746  0.780169  1
  Er  Er8  1  0.000000  0.257746  0.719831  1
  Er  Er9  1  0.000000  0.742254  0.280169  1
  In  In10  1  0.500000  0.421809  0.347891  1
  In  In11  1  0.500000  0.578191  0.652109  1
  In  In12  1  0.500000  0.078191  0.847891  1
  In  In13  1  0.500000  0.921809  0.152109  1
  In  In14  1  0.500000  0.300889  0.067929  1
  In  In15  1  0.500000  0.699111  0.932071  1
  In  In16  1  0.500000  0.199111  0.567929  1
  In  In17  1  0.500000  0.800889  0.432071  1
  Pt  Pt18  1  0.500000  0.025065  0.303684  1
  Pt  Pt19  1  0.500000  0.974935  0.696316  1
  Pt  Pt20  1  0.500000  0.474935  0.803684  1
  Pt  Pt21  1  0.500000  0.525065  0.196316  1
