# generated using pymatgen
data_Rb2NaRh6F21
_symmetry_space_group_name_H-M   'P 1'
_cell_length_a   7.43865815
_cell_length_b   7.43865800
_cell_length_c   10.69191654
_cell_angle_alpha   70.29856193
_cell_angle_beta   70.29856251
_cell_angle_gamma   59.96463641
_symmetry_Int_Tables_number   1
_chemical_formula_structural   Rb2NaRh6F21
_chemical_formula_sum   'Rb2 Na1 Rh6 F21'
_cell_volume   471.79356364
_cell_formula_units_Z   1
loop_
 _symmetry_equiv_pos_site_id
 _symmetry_equiv_pos_as_xyz
  1  'x, y, z'
loop_
 _atom_site_type_symbol
 _atom_site_label
 _atom_site_symmetry_multiplicity
 _atom_site_fract_x
 _atom_site_fract_y
 _atom_site_fract_z
 _atom_site_occupancy
  Rb  Rb0  1  0.120176  0.165370  0.583309  1
  Rb  Rb1  1  0.834630  0.879824  0.416691  1
  Na  Na2  1  0.495343  0.504657  0.500000  1
  Rh  Rh3  1  0.458369  0.912356  0.197607  1
  Rh  Rh4  1  0.087644  0.541631  0.802393  1
  Rh  Rh5  1  0.958919  0.413758  0.191791  1
  Rh  Rh6  1  0.457926  0.414380  0.192915  1
  Rh  Rh7  1  0.585620  0.542074  0.807085  1
  Rh  Rh8  1  0.586242  0.041081  0.808209  1
  F  F9  1  0.725654  0.525189  0.615683  1
  F  F10  1  0.474811  0.274346  0.384317  1
  F  F11  1  0.148828  0.470955  0.255955  1
  F  F12  1  0.529045  0.851172  0.744045  1
  F  F13  1  0.860592  0.441091  0.860631  1
  F  F14  1  0.503270  0.899648  0.002883  1
  F  F15  1  0.767746  0.350516  0.135175  1
  F  F16  1  0.114887  0.581948  0.604429  1
  F  F17  1  0.899547  0.852960  0.801925  1
  F  F18  1  0.769663  0.723144  0.195923  1
  F  F19  1  0.649484  0.232254  0.864825  1
  F  F20  1  0.419777  0.580223  0.000000  1
  F  F21  1  0.842791  0.335108  0.384221  1
  F  F22  1  0.320790  0.637356  0.740011  1
  F  F23  1  0.418052  0.885113  0.395571  1
  F  F24  1  0.276856  0.230337  0.804077  1
  F  F25  1  0.558909  0.139408  0.139369  1
  F  F26  1  0.362644  0.679210  0.259989  1
  F  F27  1  0.147040  0.100453  0.198075  1
  F  F28  1  0.100352  0.496730  0.997117  1
  F  F29  1  0.664892  0.157209  0.615779  1
