# generated using pymatgen
data_CaLaCe2H11
_symmetry_space_group_name_H-M   'P 1'
_cell_length_a   6.73283504
_cell_length_b   6.73283485
_cell_length_c   6.73283432
_cell_angle_alpha   133.80261671
_cell_angle_beta   131.31135958
_cell_angle_gamma   69.37030251
_symmetry_Int_Tables_number   1
_chemical_formula_structural   CaLaCe2H11
_chemical_formula_sum   'Ca1 La1 Ce2 H11'
_cell_volume   162.34692994
_cell_formula_units_Z   1
loop_
 _symmetry_equiv_pos_site_id
 _symmetry_equiv_pos_as_xyz
  1  'x, y, z'
loop_
 _atom_site_type_symbol
 _atom_site_label
 _atom_site_symmetry_multiplicity
 _atom_site_fract_x
 _atom_site_fract_y
 _atom_site_fract_z
 _atom_site_occupancy
  Ca  Ca0  1  0.000000  0.500000  0.500000  1
  La  La1  1  0.500000  0.000000  0.500000  1
  Ce  Ce2  1  0.261863  0.261863  0.000000  1
  Ce  Ce3  1  0.738137  0.738137  0.000000  1
  H  H4  1  0.653338  0.115417  0.012032  1
  H  H5  1  0.346662  0.358694  0.462079  1
  H  H6  1  0.103385  0.641306  0.987968  1
  H  H7  1  0.896615  0.884583  0.537921  1
  H  H8  1  0.896615  0.358694  0.012032  1
  H  H9  1  0.653338  0.641306  0.537921  1
  H  H10  1  0.346662  0.884583  0.987968  1
  H  H11  1  0.103385  0.115417  0.462079  1
  H  H12  1  0.734936  0.234936  0.500000  1
  H  H13  1  0.500000  0.500000  0.000000  1
  H  H14  1  0.265064  0.765064  0.500000  1
