# generated using pymatgen
data_YNb6PbS12
_symmetry_space_group_name_H-M   'P 1'
_cell_length_a   5.84628900
_cell_length_b   5.84628893
_cell_length_c   14.43767400
_cell_angle_alpha   90.00000000
_cell_angle_beta   90.00000000
_cell_angle_gamma   119.99999474
_symmetry_Int_Tables_number   1
_chemical_formula_structural   YNb6PbS12
_chemical_formula_sum   'Y1 Nb6 Pb1 S12'
_cell_volume   427.35465702
_cell_formula_units_Z   1
loop_
 _symmetry_equiv_pos_site_id
 _symmetry_equiv_pos_as_xyz
  1  'x, y, z'
loop_
 _atom_site_type_symbol
 _atom_site_label
 _atom_site_symmetry_multiplicity
 _atom_site_fract_x
 _atom_site_fract_y
 _atom_site_fract_z
 _atom_site_occupancy
  Y  Y0  1  0.000000  0.000000  0.000000  1
  Nb  Nb1  1  0.000000  0.000000  0.761852  1
  Nb  Nb2  1  0.000000  0.000000  0.238148  1
  Nb  Nb3  1  0.333333  0.666667  0.238549  1
  Nb  Nb4  1  0.666667  0.333333  0.761451  1
  Nb  Nb5  1  0.666667  0.333333  0.238549  1
  Nb  Nb6  1  0.333333  0.666667  0.761451  1
  Pb  Pb7  1  0.000000  0.000000  0.500000  1
  S  S8  1  0.338130  0.000000  0.129214  1
  S  S9  1  0.000000  0.338130  0.129214  1
  S  S10  1  0.661870  0.661870  0.129214  1
  S  S11  1  0.336161  0.336161  0.653188  1
  S  S12  1  0.663839  0.663839  0.346812  1
  S  S13  1  0.663839  0.000000  0.653188  1
  S  S14  1  0.000000  0.663839  0.653188  1
  S  S15  1  0.000000  0.661870  0.870786  1
  S  S16  1  0.338130  0.338130  0.870786  1
  S  S17  1  0.000000  0.336161  0.346812  1
  S  S18  1  0.336161  0.000000  0.346812  1
  S  S19  1  0.661870  0.000000  0.870786  1
