# generated using pymatgen
data_Mn3Si3Tc5Ir
_symmetry_space_group_name_H-M   'P 1'
_cell_length_a   4.20295901
_cell_length_b   5.96947000
_cell_length_c   12.62991603
_cell_angle_alpha   90.00000000
_cell_angle_beta   89.99264925
_cell_angle_gamma   90.00000000
_symmetry_Int_Tables_number   1
_chemical_formula_structural   Mn3Si3Tc5Ir
_chemical_formula_sum   'Mn6 Si6 Tc10 Ir2'
_cell_volume   316.87748885
_cell_formula_units_Z   2
loop_
 _symmetry_equiv_pos_site_id
 _symmetry_equiv_pos_as_xyz
  1  'x, y, z'
loop_
 _atom_site_type_symbol
 _atom_site_label
 _atom_site_symmetry_multiplicity
 _atom_site_fract_x
 _atom_site_fract_y
 _atom_site_fract_z
 _atom_site_occupancy
  Mn  Mn0  1  0.000000  0.500000  0.000000  1
  Mn  Mn1  1  0.499757  0.000000  0.171039  1
  Mn  Mn2  1  0.999749  0.500000  0.333785  1
  Mn  Mn3  1  0.500000  0.000000  0.500000  1
  Mn  Mn4  1  0.000251  0.500000  0.666215  1
  Mn  Mn5  1  0.500242  0.000000  0.828961  1
  Si  Si6  1  0.000000  0.000000  0.000000  1
  Si  Si7  1  0.499707  0.500000  0.168181  1
  Si  Si8  1  0.999716  0.000000  0.333261  1
  Si  Si9  1  0.500000  0.500000  0.500000  1
  Si  Si10  1  0.000284  0.000000  0.666739  1
  Si  Si11  1  0.500292  0.500000  0.831819  1
  Tc  Tc12  1  0.999766  0.249626  0.164643  1
  Tc  Tc13  1  0.999766  0.750374  0.164643  1
  Tc  Tc14  1  0.499737  0.249246  0.332273  1
  Tc  Tc15  1  0.499737  0.750754  0.332273  1
  Tc  Tc16  1  0.000000  0.250295  0.500000  1
  Tc  Tc17  1  0.000000  0.749705  0.500000  1
  Tc  Tc18  1  0.500262  0.249246  0.667727  1
  Tc  Tc19  1  0.500262  0.750754  0.667727  1
  Tc  Tc20  1  0.000236  0.249626  0.835357  1
  Tc  Tc21  1  0.000236  0.750374  0.835357  1
  Ir  Ir22  1  0.500000  0.248261  0.000000  1
  Ir  Ir23  1  0.500000  0.751739  0.000000  1
