# generated using pymatgen
data_Dy5Mn3P12(IrRh)8
_symmetry_space_group_name_H-M   'P 1'
_cell_length_a   12.71341002
_cell_length_b   12.70974912
_cell_length_c   3.92457000
_cell_angle_alpha   90.00000000
_cell_angle_beta   90.00000000
_cell_angle_gamma   120.01582536
_symmetry_Int_Tables_number   1
_chemical_formula_structural   Dy5Mn3P12(IrRh)8
_chemical_formula_sum   'Dy5 Mn3 P12 Ir8 Rh8'
_cell_volume   549.10129188
_cell_formula_units_Z   1
loop_
 _symmetry_equiv_pos_site_id
 _symmetry_equiv_pos_as_xyz
  1  'x, y, z'
loop_
 _atom_site_type_symbol
 _atom_site_label
 _atom_site_symmetry_multiplicity
 _atom_site_fract_x
 _atom_site_fract_y
 _atom_site_fract_z
 _atom_site_occupancy
  Dy  Dy0  1  0.333157  0.666701  0.500000  1
  Dy  Dy1  1  0.666501  0.332827  0.500000  1
  Dy  Dy2  1  0.000333  0.810260  0.000000  1
  Dy  Dy3  1  0.189830  0.189917  0.000000  1
  Dy  Dy4  1  0.810029  0.000033  0.000000  1
  Mn  Mn5  1  0.998090  0.450092  0.500000  1
  Mn  Mn6  1  0.544100  0.544810  0.500000  1
  Mn  Mn7  1  0.452108  0.001123  0.500000  1
  P  P8  1  0.999759  0.634308  0.500000  1
  P  P9  1  0.366425  0.366433  0.500000  1
  P  P10  1  0.634091  0.999500  0.500000  1
  P  P11  1  0.517746  0.686084  0.000000  1
  P  P12  1  0.314268  0.831201  0.000000  1
  P  P13  1  0.169514  0.483872  0.000000  1
  P  P14  1  0.483233  0.168354  0.000000  1
  P  P15  1  0.685758  0.517771  0.000000  1
  P  P16  1  0.832064  0.314942  0.000000  1
  P  P17  1  0.000510  0.178837  0.500000  1
  P  P18  1  0.820714  0.821104  0.500000  1
  P  P19  1  0.178543  0.999690  0.500000  1
  Ir  Ir20  1  0.360164  0.490898  0.000000  1
  Ir  Ir21  1  0.491782  0.359576  0.000000  1
  Ir  Ir22  1  0.868343  0.509941  0.000000  1
  Ir  Ir23  1  0.641574  0.132023  0.000000  1
  Ir  Ir24  1  0.000539  0.283487  0.000000  1
  Ir  Ir25  1  0.718001  0.717826  0.000000  1
  Ir  Ir26  1  0.283153  0.000447  0.000000  1
  Ir  Ir27  1  0.999691  0.999678  0.500000  1
  Rh  Rh28  1  0.510188  0.868945  0.000000  1
  Rh  Rh29  1  0.130788  0.640940  0.000000  1
  Rh  Rh30  1  0.622494  0.801000  0.500000  1
  Rh  Rh31  1  0.197848  0.820898  0.500000  1
  Rh  Rh32  1  0.180003  0.376504  0.500000  1
  Rh  Rh33  1  0.375707  0.180011  0.500000  1
  Rh  Rh34  1  0.801796  0.623222  0.500000  1
  Rh  Rh35  1  0.821158  0.196744  0.500000  1
