# generated using pymatgen
data_Nd4Ho9Er7Bi12
_symmetry_space_group_name_H-M   'P 1'
_cell_length_a   8.33443404
_cell_length_b   9.48311800
_cell_length_c   12.14540106
_cell_angle_alpha   89.99679961
_cell_angle_beta   89.98928346
_cell_angle_gamma   89.99863653
_symmetry_Int_Tables_number   1
_chemical_formula_structural   Nd4Ho9Er7Bi12
_chemical_formula_sum   'Nd4 Ho9 Er7 Bi12'
_cell_volume   959.92901840
_cell_formula_units_Z   1
loop_
 _symmetry_equiv_pos_site_id
 _symmetry_equiv_pos_as_xyz
  1  'x, y, z'
loop_
 _atom_site_type_symbol
 _atom_site_label
 _atom_site_symmetry_multiplicity
 _atom_site_fract_x
 _atom_site_fract_y
 _atom_site_fract_z
 _atom_site_occupancy
  Nd  Nd0  1  0.172015  0.749984  0.226659  1
  Nd  Nd1  1  0.327953  0.750017  0.726660  1
  Nd  Nd2  1  0.827966  0.249966  0.773343  1
  Nd  Nd3  1  0.672051  0.250009  0.273319  1
  Ho  Ho4  1  0.310218  0.436836  0.435273  1
  Ho  Ho5  1  0.189852  0.436829  0.935272  1
  Ho  Ho6  1  0.310115  0.063131  0.435280  1
  Ho  Ho7  1  0.810119  0.936822  0.064723  1
  Ho  Ho8  1  0.689840  0.563164  0.564716  1
  Ho  Ho9  1  0.664095  0.749944  0.289334  1
  Ho  Ho10  1  0.835904  0.750004  0.789334  1
  Ho  Ho11  1  0.335898  0.249945  0.710703  1
  Ho  Ho12  1  0.164100  0.249927  0.210595  1
  Er  Er13  1  0.810188  0.563352  0.064745  1
  Er  Er14  1  0.689844  0.936666  0.564761  1
  Er  Er15  1  0.189794  0.063353  0.935243  1
  Er  Er16  1  0.476834  0.749958  0.003905  1
  Er  Er17  1  0.023124  0.750032  0.503906  1
  Er  Er18  1  0.523152  0.249955  0.996071  1
  Er  Er19  1  0.976731  0.249992  0.496097  1
  Bi  Bi20  1  0.402970  0.750128  0.467604  1
  Bi  Bi21  1  0.097172  0.750309  0.967528  1
  Bi  Bi22  1  0.597287  0.249561  0.532509  1
  Bi  Bi23  1  0.902785  0.250310  0.032459  1
  Bi  Bi24  1  0.935121  0.507142  0.328242  1
  Bi  Bi25  1  0.564805  0.992832  0.828270  1
  Bi  Bi26  1  0.064783  0.007107  0.671750  1
  Bi  Bi27  1  0.435247  0.492827  0.171686  1
  Bi  Bi28  1  0.064764  0.492875  0.671742  1
  Bi  Bi29  1  0.435272  0.007067  0.171705  1
  Bi  Bi30  1  0.935233  0.992874  0.328271  1
  Bi  Bi31  1  0.564767  0.507082  0.828294  1
