# generated using pymatgen
data_Zr3ScMn7Si
_symmetry_space_group_name_H-M   'P 1'
_cell_length_a   4.92126500
_cell_length_b   4.92126481
_cell_length_c   8.17173900
_cell_angle_alpha   90.00000000
_cell_angle_beta   90.00000000
_cell_angle_gamma   120.00000800
_symmetry_Int_Tables_number   1
_chemical_formula_structural   Zr3ScMn7Si
_chemical_formula_sum   'Zr3 Sc1 Mn7 Si1'
_cell_volume   171.39516640
_cell_formula_units_Z   1
loop_
 _symmetry_equiv_pos_site_id
 _symmetry_equiv_pos_as_xyz
  1  'x, y, z'
loop_
 _atom_site_type_symbol
 _atom_site_label
 _atom_site_symmetry_multiplicity
 _atom_site_fract_x
 _atom_site_fract_y
 _atom_site_fract_z
 _atom_site_occupancy
  Zr  Zr0  1  0.666667  0.333333  0.567517  1
  Zr  Zr1  1  0.666667  0.333333  0.939090  1
  Zr  Zr2  1  0.333333  0.666667  0.429817  1
  Sc  Sc3  1  0.333333  0.666667  0.063169  1
  Mn  Mn4  1  0.000000  0.000000  0.000257  1
  Mn  Mn5  1  0.170996  0.341991  0.751050  1
  Mn  Mn6  1  0.829400  0.170600  0.248906  1
  Mn  Mn7  1  0.829400  0.658800  0.248906  1
  Mn  Mn8  1  0.170996  0.829004  0.751050  1
  Mn  Mn9  1  0.658009  0.829004  0.751050  1
  Mn  Mn10  1  0.341200  0.170600  0.248906  1
  Si  Si11  1  0.000000  0.000000  0.500280  1
