# generated using pymatgen
data_Y5Ho(CdHg2)6
_symmetry_space_group_name_H-M   'P 1'
_cell_length_a   5.10433754
_cell_length_b   7.12660700
_cell_length_c   15.58004064
_cell_angle_alpha   90.00000000
_cell_angle_beta   90.05278444
_cell_angle_gamma   90.00000000
_symmetry_Int_Tables_number   1
_chemical_formula_structural   Y5Ho(CdHg2)6
_chemical_formula_sum   'Y5 Ho1 Cd6 Hg12'
_cell_volume   566.74878555
_cell_formula_units_Z   1
loop_
 _symmetry_equiv_pos_site_id
 _symmetry_equiv_pos_as_xyz
  1  'x, y, z'
loop_
 _atom_site_type_symbol
 _atom_site_label
 _atom_site_symmetry_multiplicity
 _atom_site_fract_x
 _atom_site_fract_y
 _atom_site_fract_z
 _atom_site_occupancy
  Y  Y0  1  0.499901  0.500000  0.166343  1
  Y  Y1  1  0.999919  0.000000  0.333786  1
  Y  Y2  1  0.500000  0.500000  0.500000  1
  Y  Y3  1  0.000081  0.000000  0.666213  1
  Y  Y4  1  0.500099  0.500000  0.833657  1
  Ho  Ho5  1  0.000000  0.000000  0.000000  1
  Cd  Cd6  1  0.000000  0.500000  0.000000  1
  Cd  Cd7  1  0.499790  0.000000  0.168208  1
  Cd  Cd8  1  0.999759  0.500000  0.332504  1
  Cd  Cd9  1  0.500000  0.000000  0.500000  1
  Cd  Cd10  1  0.000241  0.500000  0.667496  1
  Cd  Cd11  1  0.500210  0.000000  0.831792  1
  Hg  Hg12  1  0.500000  0.249542  0.000000  1
  Hg  Hg13  1  0.500000  0.750457  0.000000  1
  Hg  Hg14  1  0.999759  0.245959  0.165149  1
  Hg  Hg15  1  0.999759  0.754042  0.165149  1
  Hg  Hg16  1  0.499779  0.251737  0.333593  1
  Hg  Hg17  1  0.499779  0.748264  0.333593  1
  Hg  Hg18  1  0.000000  0.246988  0.500000  1
  Hg  Hg19  1  0.000000  0.753013  0.500000  1
  Hg  Hg20  1  0.500221  0.251737  0.666407  1
  Hg  Hg21  1  0.500221  0.748264  0.666407  1
  Hg  Hg22  1  0.000241  0.245959  0.834851  1
  Hg  Hg23  1  0.000241  0.754042  0.834851  1
