# generated using pymatgen
data_K2RbLiPb4
_symmetry_space_group_name_H-M   'P 1'
_cell_length_a   8.92493949
_cell_length_b   8.92493943
_cell_length_c   10.67606600
_cell_angle_alpha   90.00000000
_cell_angle_beta   90.00000000
_cell_angle_gamma   133.81610170
_symmetry_Int_Tables_number   1
_chemical_formula_structural   K2RbLiPb4
_chemical_formula_sum   'K4 Rb2 Li2 Pb8'
_cell_volume   613.61742146
_cell_formula_units_Z   2
loop_
 _symmetry_equiv_pos_site_id
 _symmetry_equiv_pos_as_xyz
  1  'x, y, z'
loop_
 _atom_site_type_symbol
 _atom_site_label
 _atom_site_symmetry_multiplicity
 _atom_site_fract_x
 _atom_site_fract_y
 _atom_site_fract_z
 _atom_site_occupancy
  K  K0  1  0.611160  0.388840  0.045742  1
  K  K1  1  0.388840  0.611160  0.954258  1
  K  K2  1  0.388840  0.611160  0.545742  1
  K  K3  1  0.611160  0.388840  0.454258  1
  Rb  Rb4  1  0.228406  0.771594  0.250000  1
  Rb  Rb5  1  0.771594  0.228406  0.750000  1
  Li  Li6  1  0.000000  0.000000  0.000000  1
  Li  Li7  1  0.000000  0.000000  0.500000  1
  Pb  Pb8  1  0.199968  0.274661  0.250000  1
  Pb  Pb9  1  0.800032  0.725339  0.750000  1
  Pb  Pb10  1  0.725339  0.800032  0.250000  1
  Pb  Pb11  1  0.274661  0.199968  0.750000  1
  Pb  Pb12  1  0.828917  0.171083  0.104540  1
  Pb  Pb13  1  0.171083  0.828917  0.895460  1
  Pb  Pb14  1  0.171083  0.828917  0.604540  1
  Pb  Pb15  1  0.828917  0.171083  0.395460  1
