# generated using pymatgen
data_LaNdCd(Si3Pd10)2
_symmetry_space_group_name_H-M   'P 1'
_cell_length_a   8.73879888
_cell_length_b   8.73892854
_cell_length_c   8.73870700
_cell_angle_alpha   59.99904598
_cell_angle_beta   59.99913021
_cell_angle_gamma   60.00039327
_symmetry_Int_Tables_number   1
_chemical_formula_structural   LaNdCd(Si3Pd10)2
_chemical_formula_sum   'La1 Nd1 Cd1 Si6 Pd20'
_cell_volume   471.88635296
_cell_formula_units_Z   1
loop_
 _symmetry_equiv_pos_site_id
 _symmetry_equiv_pos_as_xyz
  1  'x, y, z'
loop_
 _atom_site_type_symbol
 _atom_site_label
 _atom_site_symmetry_multiplicity
 _atom_site_fract_x
 _atom_site_fract_y
 _atom_site_fract_z
 _atom_site_occupancy
  La  La0  1  0.250010  0.250001  0.249985  1
  Nd  Nd1  1  0.749991  0.749997  0.750012  1
  Cd  Cd2  1  0.000000  0.000000  0.000000  1
  Si  Si3  1  0.733427  0.733449  0.266560  1
  Si  Si4  1  0.266573  0.266550  0.733441  1
  Si  Si5  1  0.733414  0.266574  0.733436  1
  Si  Si6  1  0.266588  0.733426  0.266563  1
  Si  Si7  1  0.266573  0.733435  0.733437  1
  Si  Si8  1  0.733427  0.266565  0.266563  1
  Pd  Pd9  1  0.614617  0.614620  0.614616  1
  Pd  Pd10  1  0.385422  0.385417  0.385422  1
  Pd  Pd11  1  0.156101  0.614627  0.614644  1
  Pd  Pd12  1  0.614619  0.156141  0.614617  1
  Pd  Pd13  1  0.843781  0.385413  0.385394  1
  Pd  Pd14  1  0.385421  0.843743  0.385422  1
  Pd  Pd15  1  0.614621  0.614604  0.156168  1
  Pd  Pd16  1  0.385417  0.385434  0.843717  1
  Pd  Pd17  1  0.999903  0.999903  0.655711  1
  Pd  Pd18  1  0.999934  0.999931  0.344455  1
  Pd  Pd19  1  0.344438  0.655716  0.999923  1
  Pd  Pd20  1  0.655726  0.344446  0.999914  1
  Pd  Pd21  1  0.999926  0.655708  0.999921  1
  Pd  Pd22  1  0.655700  0.999937  0.344432  1
  Pd  Pd23  1  0.999912  0.344455  0.999916  1
  Pd  Pd24  1  0.344462  0.999902  0.655731  1
  Pd  Pd25  1  0.655722  0.999924  0.999915  1
  Pd  Pd26  1  0.344441  0.999914  0.999923  1
  Pd  Pd27  1  0.999942  0.655686  0.344437  1
  Pd  Pd28  1  0.999895  0.344479  0.655727  1
