# generated using pymatgen
data_LaPr15(MgOs)4
_symmetry_space_group_name_H-M   'P 1'
_cell_length_a   10.11567566
_cell_length_b   10.09776143
_cell_length_c   10.09775945
_cell_angle_alpha   59.47243948
_cell_angle_beta   59.94129202
_cell_angle_gamma   59.94128990
_symmetry_Int_Tables_number   1
_chemical_formula_structural   LaPr15(MgOs)4
_chemical_formula_sum   'La1 Pr15 Mg4 Os4'
_cell_volume   725.74758698
_cell_formula_units_Z   1
loop_
 _symmetry_equiv_pos_site_id
 _symmetry_equiv_pos_as_xyz
  1  'x, y, z'
loop_
 _atom_site_type_symbol
 _atom_site_label
 _atom_site_symmetry_multiplicity
 _atom_site_fract_x
 _atom_site_fract_y
 _atom_site_fract_z
 _atom_site_occupancy
  La  La0  1  0.186154  0.813846  0.813846  1
  Pr  Pr1  1  0.559668  0.939585  0.560170  1
  Pr  Pr2  1  0.187663  0.190903  0.811634  1
  Pr  Pr3  1  0.559668  0.560170  0.939585  1
  Pr  Pr4  1  0.969948  0.343427  0.343427  1
  Pr  Pr5  1  0.809800  0.190903  0.811634  1
  Pr  Pr6  1  0.187663  0.811634  0.190903  1
  Pr  Pr7  1  0.345214  0.342976  0.966596  1
  Pr  Pr8  1  0.345214  0.966596  0.342976  1
  Pr  Pr9  1  0.940577  0.939585  0.560170  1
  Pr  Pr10  1  0.937040  0.562960  0.562960  1
  Pr  Pr11  1  0.343198  0.343427  0.343427  1
  Pr  Pr12  1  0.809800  0.811634  0.190903  1
  Pr  Pr13  1  0.810504  0.189496  0.189496  1
  Pr  Pr14  1  0.560124  0.939876  0.939876  1
  Pr  Pr15  1  0.940577  0.560170  0.939585  1
  Mg  Mg16  1  0.580531  0.577070  0.577070  1
  Mg  Mg17  1  0.578807  0.264512  0.577876  1
  Mg  Mg18  1  0.578807  0.577876  0.264512  1
  Mg  Mg19  1  0.265332  0.577070  0.577070  1
  Os  Os20  1  0.140663  0.589268  0.129407  1
  Os  Os21  1  0.584810  0.138806  0.138806  1
  Os  Os22  1  0.140663  0.129407  0.589268  1
  Os  Os23  1  0.137579  0.138806  0.138806  1
