# generated using pymatgen
data_BaSrH12Ir2Pb
_symmetry_space_group_name_H-M   'P 1'
_cell_length_a   5.28446500
_cell_length_b   5.28446394
_cell_length_c   8.65380700
_cell_angle_alpha   90.00000000
_cell_angle_beta   90.00000000
_cell_angle_gamma   120.00000038
_symmetry_Int_Tables_number   1
_chemical_formula_structural   BaSrH12Ir2Pb
_chemical_formula_sum   'Ba1 Sr1 H12 Ir2 Pb1'
_cell_volume   209.28581795
_cell_formula_units_Z   1
loop_
 _symmetry_equiv_pos_site_id
 _symmetry_equiv_pos_as_xyz
  1  'x, y, z'
loop_
 _atom_site_type_symbol
 _atom_site_label
 _atom_site_symmetry_multiplicity
 _atom_site_fract_x
 _atom_site_fract_y
 _atom_site_fract_z
 _atom_site_occupancy
  Ba  Ba0  1  0.000000  0.000000  0.999067  1
  Sr  Sr1  1  0.666667  0.333333  0.367586  1
  H  H2  1  0.174368  0.825632  0.352451  1
  H  H3  1  0.651263  0.825632  0.352451  1
  H  H4  1  0.174368  0.348737  0.352451  1
  H  H5  1  0.820260  0.179740  0.638500  1
  H  H6  1  0.359481  0.179740  0.638500  1
  H  H7  1  0.820260  0.640519  0.638500  1
  H  H8  1  0.524643  0.049285  0.869702  1
  H  H9  1  0.524643  0.475357  0.869702  1
  H  H10  1  0.950715  0.475357  0.869702  1
  H  H11  1  0.480944  0.961888  0.138295  1
  H  H12  1  0.480944  0.519056  0.138295  1
  H  H13  1  0.038112  0.519056  0.138295  1
  Ir  Ir14  1  0.666667  0.333333  0.747440  1
  Ir  Ir15  1  0.333333  0.666667  0.253456  1
  Pb  Pb16  1  0.333333  0.666667  0.635610  1
