# generated using pymatgen
data_Ba4Y2FeWO12
_symmetry_space_group_name_H-M   'P 1'
_cell_length_a   5.97036301
_cell_length_b   5.97008400
_cell_length_c   8.45468900
_cell_angle_alpha   90.00026872
_cell_angle_beta   90.00349320
_cell_angle_gamma   90.00005757
_symmetry_Int_Tables_number   1
_chemical_formula_structural   Ba4Y2FeWO12
_chemical_formula_sum   'Ba4 Y2 Fe1 W1 O12'
_cell_volume   301.35528754
_cell_formula_units_Z   1
loop_
 _symmetry_equiv_pos_site_id
 _symmetry_equiv_pos_as_xyz
  1  'x, y, z'
loop_
 _atom_site_type_symbol
 _atom_site_label
 _atom_site_symmetry_multiplicity
 _atom_site_fract_x
 _atom_site_fract_y
 _atom_site_fract_z
 _atom_site_occupancy
  Ba  Ba0  1  0.000090  0.000082  0.234015  1
  Ba  Ba1  1  0.500060  0.500177  0.233989  1
  Ba  Ba2  1  0.499958  0.499822  0.766014  1
  Ba  Ba3  1  0.999891  0.999917  0.765988  1
  Y  Y4  1  0.999984  0.499999  0.000001  1
  Y  Y5  1  0.500003  0.000000  0.499982  1
  Fe  Fe6  1  0.500013  0.000003  0.000005  1
  W  W7  1  0.000008  0.499999  0.500011  1
  O  O8  1  0.739499  0.763918  0.001261  1
  O  O9  1  0.736914  0.240306  0.001385  1
  O  O10  1  0.497110  0.999764  0.238687  1
  O  O11  1  0.002988  0.499802  0.268377  1
  O  O12  1  0.771124  0.733177  0.498362  1
  O  O13  1  0.766860  0.271114  0.498531  1
  O  O14  1  0.233148  0.728885  0.501480  1
  O  O15  1  0.228884  0.266823  0.501648  1
  O  O16  1  0.997025  0.500197  0.731625  1
  O  O17  1  0.502882  0.000237  0.761301  1
  O  O18  1  0.263070  0.759684  0.998607  1
  O  O19  1  0.260485  0.236094  0.998731  1
