# generated using pymatgen
data_Cu3PSe3S
_symmetry_space_group_name_H-M   'P 1'
_cell_length_a   6.31990100
_cell_length_b   6.68174800
_cell_length_c   7.68693600
_cell_angle_alpha   90.00000000
_cell_angle_beta   90.00000000
_cell_angle_gamma   90.00000000
_symmetry_Int_Tables_number   1
_chemical_formula_structural   Cu3PSe3S
_chemical_formula_sum   'Cu6 P2 Se6 S2'
_cell_volume   324.60382477
_cell_formula_units_Z   2
loop_
 _symmetry_equiv_pos_site_id
 _symmetry_equiv_pos_as_xyz
  1  'x, y, z'
loop_
 _atom_site_type_symbol
 _atom_site_label
 _atom_site_symmetry_multiplicity
 _atom_site_fract_x
 _atom_site_fract_y
 _atom_site_fract_z
 _atom_site_occupancy
  Cu  Cu0  1  0.905052  0.817301  0.242287  1
  Cu  Cu1  1  0.405052  0.182699  0.257713  1
  Cu  Cu2  1  0.405052  0.182699  0.742287  1
  Cu  Cu3  1  0.905052  0.817301  0.757713  1
  Cu  Cu4  1  0.397151  0.638213  0.500000  1
  Cu  Cu5  1  0.897151  0.361787  0.000000  1
  P  P6  1  0.415776  0.675305  0.000000  1
  P  P7  1  0.915776  0.324695  0.500000  1
  Se  Se8  1  0.286684  0.834675  0.755835  1
  Se  Se9  1  0.786684  0.165325  0.744165  1
  Se  Se10  1  0.781906  0.643072  0.500000  1
  Se  Se11  1  0.281906  0.356928  0.000000  1
  Se  Se12  1  0.786684  0.165325  0.255835  1
  Se  Se13  1  0.286684  0.834675  0.244165  1
  S  S14  1  0.752452  0.678244  0.000000  1
  S  S15  1  0.252452  0.321756  0.500000  1
