# generated using pymatgen
data_La2AlCuNi8
_symmetry_space_group_name_H-M   'P 1'
_cell_length_a   4.99646467
_cell_length_b   4.99646434
_cell_length_c   8.06829400
_cell_angle_alpha   90.00000000
_cell_angle_beta   90.00000000
_cell_angle_gamma   119.11168075
_symmetry_Int_Tables_number   1
_chemical_formula_structural   La2AlCuNi8
_chemical_formula_sum   'La2 Al1 Cu1 Ni8'
_cell_volume   175.97714622
_cell_formula_units_Z   1
loop_
 _symmetry_equiv_pos_site_id
 _symmetry_equiv_pos_as_xyz
  1  'x, y, z'
loop_
 _atom_site_type_symbol
 _atom_site_label
 _atom_site_symmetry_multiplicity
 _atom_site_fract_x
 _atom_site_fract_y
 _atom_site_fract_z
 _atom_site_occupancy
  La  La0  1  0.000000  0.000000  0.761412  1
  La  La1  1  0.000000  0.000000  0.238588  1
  Al  Al2  1  0.500000  0.500000  0.500000  1
  Cu  Cu3  1  0.500000  0.500000  0.000000  1
  Ni  Ni4  1  0.670492  0.329508  0.749286  1
  Ni  Ni5  1  0.670492  0.329508  0.250714  1
  Ni  Ni6  1  0.329508  0.670492  0.749286  1
  Ni  Ni7  1  0.500000  0.000000  0.500000  1
  Ni  Ni8  1  0.000000  0.500000  0.000000  1
  Ni  Ni9  1  0.500000  0.000000  0.000000  1
  Ni  Ni10  1  0.329508  0.670492  0.250714  1
  Ni  Ni11  1  0.000000  0.500000  0.500000  1
