# generated using pymatgen
data_Er10AgIrPb6
_symmetry_space_group_name_H-M   'P 1'
_cell_length_a   9.15706100
_cell_length_b   9.15706136
_cell_length_c   6.80886300
_cell_angle_alpha   90.00000000
_cell_angle_beta   90.00000000
_cell_angle_gamma   120.00000954
_symmetry_Int_Tables_number   1
_chemical_formula_structural   Er10AgIrPb6
_chemical_formula_sum   'Er10 Ag1 Ir1 Pb6'
_cell_volume   494.44434873
_cell_formula_units_Z   1
loop_
 _symmetry_equiv_pos_site_id
 _symmetry_equiv_pos_as_xyz
  1  'x, y, z'
loop_
 _atom_site_type_symbol
 _atom_site_label
 _atom_site_symmetry_multiplicity
 _atom_site_fract_x
 _atom_site_fract_y
 _atom_site_fract_z
 _atom_site_occupancy
  Er  Er0  1  0.247531  0.000000  0.230019  1
  Er  Er1  1  0.752469  0.000000  0.769981  1
  Er  Er2  1  0.000000  0.247531  0.230019  1
  Er  Er3  1  0.000000  0.752469  0.769981  1
  Er  Er4  1  0.752469  0.752469  0.230019  1
  Er  Er5  1  0.247531  0.247531  0.769981  1
  Er  Er6  1  0.333333  0.666667  0.000000  1
  Er  Er7  1  0.666667  0.333333  0.000000  1
  Er  Er8  1  0.666667  0.333333  0.500000  1
  Er  Er9  1  0.333333  0.666667  0.500000  1
  Ag  Ag10  1  0.000000  0.000000  0.500000  1
  Ir  Ir11  1  0.000000  0.000000  0.000000  1
  Pb  Pb12  1  0.601357  0.000000  0.253150  1
  Pb  Pb13  1  0.398643  0.000000  0.746850  1
  Pb  Pb14  1  0.000000  0.601357  0.253150  1
  Pb  Pb15  1  0.000000  0.398643  0.746850  1
  Pb  Pb16  1  0.398643  0.398643  0.253150  1
  Pb  Pb17  1  0.601357  0.601357  0.746850  1
