# generated using pymatgen
data_PmCoGe2Pt
_symmetry_space_group_name_H-M   'P 1'
_cell_length_a   5.93156754
_cell_length_b   5.93156749
_cell_length_c   5.93156786
_cell_angle_alpha   138.54331069
_cell_angle_beta   138.54331112
_cell_angle_gamma   60.07189483
_symmetry_Int_Tables_number   1
_chemical_formula_structural   PmCoGe2Pt
_chemical_formula_sum   'Pm1 Co1 Ge2 Pt1'
_cell_volume   90.53051355
_cell_formula_units_Z   1
loop_
 _symmetry_equiv_pos_site_id
 _symmetry_equiv_pos_as_xyz
  1  'x, y, z'
loop_
 _atom_site_type_symbol
 _atom_site_label
 _atom_site_symmetry_multiplicity
 _atom_site_fract_x
 _atom_site_fract_y
 _atom_site_fract_z
 _atom_site_occupancy
  Pm  Pm0  1  0.000000  0.000000  0.000000  1
  Co  Co1  1  0.750000  0.250000  0.500000  1
  Ge  Ge2  1  0.375878  0.375878  0.000000  1
  Ge  Ge3  1  0.624121  0.624121  0.000000  1
  Pt  Pt4  1  0.250000  0.750000  0.500000  1
