# generated using pymatgen
data_Tm6InCuOs
_symmetry_space_group_name_H-M   'P 1'
_cell_length_a   8.47970393
_cell_length_b   8.48039981
_cell_length_c   8.47970400
_cell_angle_alpha   113.45033510
_cell_angle_beta   110.76572272
_cell_angle_gamma   104.32639358
_symmetry_Int_Tables_number   1
_chemical_formula_structural   Tm6InCuOs
_chemical_formula_sum   'Tm12 In2 Cu2 Os2'
_cell_volume   466.34643258
_cell_formula_units_Z   2
loop_
 _symmetry_equiv_pos_site_id
 _symmetry_equiv_pos_as_xyz
  1  'x, y, z'
loop_
 _atom_site_type_symbol
 _atom_site_label
 _atom_site_symmetry_multiplicity
 _atom_site_fract_x
 _atom_site_fract_y
 _atom_site_fract_z
 _atom_site_occupancy
  Tm  Tm0  1  0.439346  0.238588  0.200660  1
  Tm  Tm1  1  0.560654  0.761412  0.799340  1
  Tm  Tm2  1  0.037927  0.238588  0.799242  1
  Tm  Tm3  1  0.962073  0.761412  0.200758  1
  Tm  Tm4  1  0.188362  0.277096  0.465301  1
  Tm  Tm5  1  0.811638  0.722904  0.534699  1
  Tm  Tm6  1  0.188206  0.722904  0.911266  1
  Tm  Tm7  1  0.811794  0.277096  0.088734  1
  Tm  Tm8  1  0.334376  0.646764  0.312388  1
  Tm  Tm9  1  0.665624  0.353236  0.687612  1
  Tm  Tm10  1  0.334493  0.022067  0.687575  1
  Tm  Tm11  1  0.665507  0.977933  0.312425  1
  In  In12  1  0.500000  0.500000  0.000000  1
  In  In13  1  0.000000  0.000000  0.000000  1
  Cu  Cu14  1  0.118225  0.618311  0.500086  1
  Cu  Cu15  1  0.881775  0.381689  0.499914  1
  Os  Os16  1  0.333013  0.000000  0.333013  1
  Os  Os17  1  0.666987  0.000000  0.666987  1
