# generated using pymatgen
data_Ho5(TcO6)2
_symmetry_space_group_name_H-M   'P 1'
_cell_length_a   6.80182303
_cell_length_b   6.80182389
_cell_length_c   7.50429009
_cell_angle_alpha   73.76541552
_cell_angle_beta   73.76541255
_cell_angle_gamma   49.13295673
_symmetry_Int_Tables_number   1
_chemical_formula_structural   Ho5(TcO6)2
_chemical_formula_sum   'Ho5 Tc2 O12'
_cell_volume   249.83898983
_cell_formula_units_Z   1
loop_
 _symmetry_equiv_pos_site_id
 _symmetry_equiv_pos_as_xyz
  1  'x, y, z'
loop_
 _atom_site_type_symbol
 _atom_site_label
 _atom_site_symmetry_multiplicity
 _atom_site_fract_x
 _atom_site_fract_y
 _atom_site_fract_z
 _atom_site_occupancy
  Ho  Ho0  1  0.315321  0.315321  0.824056  1
  Ho  Ho1  1  0.684679  0.684679  0.175944  1
  Ho  Ho2  1  0.000000  0.000000  0.500000  1
  Ho  Ho3  1  0.695784  0.695784  0.642015  1
  Ho  Ho4  1  0.304216  0.304216  0.357985  1
  Tc  Tc5  1  0.214065  0.785935  0.000000  1
  Tc  Tc6  1  0.785935  0.214065  0.000000  1
  O  O7  1  0.499047  0.499047  0.178987  1
  O  O8  1  0.500953  0.500953  0.821013  1
  O  O9  1  0.001360  0.001360  0.204913  1
  O  O10  1  0.998640  0.998640  0.795087  1
  O  O11  1  0.913076  0.417510  0.915273  1
  O  O12  1  0.582490  0.086924  0.084727  1
  O  O13  1  0.086924  0.582490  0.084727  1
  O  O14  1  0.594083  0.098046  0.573802  1
  O  O15  1  0.901954  0.405917  0.426198  1
  O  O16  1  0.405917  0.901954  0.426198  1
  O  O17  1  0.098046  0.594083  0.573802  1
  O  O18  1  0.417510  0.913076  0.915273  1
