# generated using pymatgen
data_Nb5Co16Si7Mo
_symmetry_space_group_name_H-M   'P 1'
_cell_length_a   7.90850096
_cell_length_b   7.89999105
_cell_length_c   7.90850057
_cell_angle_alpha   60.03559516
_cell_angle_beta   59.92882616
_cell_angle_gamma   60.03559629
_symmetry_Int_Tables_number   1
_chemical_formula_structural   Nb5Co16Si7Mo
_chemical_formula_sum   'Nb5 Co16 Si7 Mo1'
_cell_volume   349.38075351
_cell_formula_units_Z   1
loop_
 _symmetry_equiv_pos_site_id
 _symmetry_equiv_pos_as_xyz
  1  'x, y, z'
loop_
 _atom_site_type_symbol
 _atom_site_label
 _atom_site_symmetry_multiplicity
 _atom_site_fract_x
 _atom_site_fract_y
 _atom_site_fract_z
 _atom_site_occupancy
  Nb  Nb0  1  0.203080  0.796920  0.798064  1
  Nb  Nb1  1  0.798064  0.201936  0.203080  1
  Nb  Nb2  1  0.798064  0.796920  0.203080  1
  Nb  Nb3  1  0.203080  0.201936  0.798064  1
  Nb  Nb4  1  0.794752  0.205248  0.794752  1
  Co  Co5  1  0.165932  0.165807  0.165932  1
  Co  Co6  1  0.497672  0.834068  0.834193  1
  Co  Co7  1  0.833661  0.498614  0.833661  1
  Co  Co8  1  0.834193  0.834068  0.497672  1
  Co  Co9  1  0.165932  0.502328  0.165932  1
  Co  Co10  1  0.165936  0.166339  0.501386  1
  Co  Co11  1  0.501386  0.166339  0.165936  1
  Co  Co12  1  0.833661  0.834064  0.833661  1
  Co  Co13  1  0.380666  0.383987  0.380666  1
  Co  Co14  1  0.145320  0.619334  0.616013  1
  Co  Co15  1  0.619013  0.142508  0.619013  1
  Co  Co16  1  0.616013  0.619334  0.145320  1
  Co  Co17  1  0.380666  0.854680  0.380666  1
  Co  Co18  1  0.380534  0.380987  0.857492  1
  Co  Co19  1  0.857492  0.380987  0.380534  1
  Co  Co20  1  0.619013  0.619466  0.619013  1
  Si  Si21  1  0.501983  0.498017  0.501983  1
  Si  Si22  1  0.999564  0.500436  0.999564  1
  Si  Si23  1  0.499158  0.997663  0.002337  1
  Si  Si24  1  0.002337  0.500842  0.499158  1
  Si  Si25  1  0.499564  0.000436  0.499564  1
  Si  Si26  1  0.002337  0.997663  0.499158  1
  Si  Si27  1  0.499158  0.500842  0.002337  1
  Mo  Mo28  1  0.201770  0.798230  0.201770  1
