# generated using pymatgen
data_NpBr3O
_symmetry_space_group_name_H-M   'P 1'
_cell_length_a   4.10691416
_cell_length_b   12.95420800
_cell_length_c   12.96354782
_cell_angle_alpha   90.00000000
_cell_angle_beta   89.50862448
_cell_angle_gamma   90.00000000
_symmetry_Int_Tables_number   1
_chemical_formula_structural   NpBr3O
_chemical_formula_sum   'Np4 Br12 O4'
_cell_volume   689.65897889
_cell_formula_units_Z   4
loop_
 _symmetry_equiv_pos_site_id
 _symmetry_equiv_pos_as_xyz
  1  'x, y, z'
loop_
 _atom_site_type_symbol
 _atom_site_label
 _atom_site_symmetry_multiplicity
 _atom_site_fract_x
 _atom_site_fract_y
 _atom_site_fract_z
 _atom_site_occupancy
  Np  Np0  1  0.494174  0.381254  0.618688  1
  Np  Np1  1  0.994174  0.118746  0.118688  1
  Np  Np2  1  0.505826  0.618746  0.381312  1
  Np  Np3  1  0.005826  0.881254  0.881312  1
  Br  Br4  1  0.488309  0.393515  0.822746  1
  Br  Br5  1  0.511691  0.606485  0.177254  1
  Br  Br6  1  0.988309  0.106485  0.322746  1
  Br  Br7  1  0.011691  0.893515  0.677254  1
  Br  Br8  1  0.512675  0.822914  0.393511  1
  Br  Br9  1  0.487325  0.177086  0.606489  1
  Br  Br10  1  0.987325  0.322914  0.106489  1
  Br  Br11  1  0.012675  0.677086  0.893511  1
  Br  Br12  1  0.501251  0.601659  0.601624  1
  Br  Br13  1  0.498749  0.398341  0.398376  1
  Br  Br14  1  0.001251  0.898341  0.101624  1
  Br  Br15  1  0.998749  0.101659  0.898376  1
  O  O16  1  0.994561  0.385095  0.614860  1
  O  O17  1  0.005439  0.614905  0.385140  1
  O  O18  1  0.494561  0.114905  0.114860  1
  O  O19  1  0.505439  0.885095  0.885140  1
