# generated using pymatgen
data_TbTmH3F9
_symmetry_space_group_name_H-M   'P 1'
_cell_length_a   4.31896916
_cell_length_b   7.70412680
_cell_length_c   7.07821095
_cell_angle_alpha   75.22154920
_cell_angle_beta   87.32373082
_cell_angle_gamma   98.37401599
_symmetry_Int_Tables_number   1
_chemical_formula_structural   TbTmH3F9
_chemical_formula_sum   'Tb1 Tm1 H3 F9'
_cell_volume   224.43352961
_cell_formula_units_Z   1
loop_
 _symmetry_equiv_pos_site_id
 _symmetry_equiv_pos_as_xyz
  1  'x, y, z'
loop_
 _atom_site_type_symbol
 _atom_site_label
 _atom_site_symmetry_multiplicity
 _atom_site_fract_x
 _atom_site_fract_y
 _atom_site_fract_z
 _atom_site_occupancy
  Tb  Tb0  1  0.458300  0.118089  0.287368  1
  Tm  Tm1  1  0.606953  0.354559  0.676592  1
  H  H2  1  0.989895  0.748939  0.529192  1
  H  H3  1  0.609307  0.817716  0.093410  1
  H  H4  1  0.668767  0.561559  0.212366  1
  F  F5  1  0.974071  0.156525  0.243207  1
  F  F6  1  0.102128  0.338828  0.678632  1
  F  F7  1  0.770398  0.680693  0.110900  1
  F  F8  1  0.755656  0.641074  0.595227  1
  F  F9  1  0.203484  0.844163  0.464210  1
  F  F10  1  0.566939  0.105788  0.595211  1
  F  F11  1  0.534477  0.304664  0.982050  1
  F  F12  1  0.496433  0.927942  0.082407  1
  F  F13  1  0.548593  0.409535  0.345505  1
