# generated using pymatgen
data_Ho4Al4OsPd2Pt
_symmetry_space_group_name_H-M   'P 1'
_cell_length_a   4.34156000
_cell_length_b   6.86643097
_cell_length_c   7.88320730
_cell_angle_alpha   89.85267308
_cell_angle_beta   90.00000000
_cell_angle_gamma   90.00000000
_symmetry_Int_Tables_number   1
_chemical_formula_structural   Ho4Al4OsPd2Pt
_chemical_formula_sum   'Ho4 Al4 Os1 Pd2 Pt1'
_cell_volume   235.00568970
_cell_formula_units_Z   1
loop_
 _symmetry_equiv_pos_site_id
 _symmetry_equiv_pos_as_xyz
  1  'x, y, z'
loop_
 _atom_site_type_symbol
 _atom_site_label
 _atom_site_symmetry_multiplicity
 _atom_site_fract_x
 _atom_site_fract_y
 _atom_site_fract_z
 _atom_site_occupancy
  Ho  Ho0  1  0.250000  0.035780  0.678791  1
  Ho  Ho1  1  0.250000  0.526404  0.819249  1
  Ho  Ho2  1  0.750000  0.980826  0.321467  1
  Ho  Ho3  1  0.750000  0.463421  0.184671  1
  Al  Al4  1  0.250000  0.145036  0.063633  1
  Al  Al5  1  0.250000  0.637936  0.438552  1
  Al  Al6  1  0.750000  0.859290  0.939233  1
  Al  Al7  1  0.750000  0.353228  0.559413  1
  Os  Os8  1  0.250000  0.267121  0.377747  1
  Pd  Pd9  1  0.250000  0.770826  0.118006  1
  Pd  Pd10  1  0.750000  0.729360  0.621149  1
  Pt  Pt11  1  0.750000  0.230771  0.878089  1
