# generated using pymatgen
data_HoErLu2Pt4F28
_symmetry_space_group_name_H-M   'P 1'
_cell_length_a   5.49938520
_cell_length_b   8.77727450
_cell_length_c   11.88549615
_cell_angle_alpha   62.66843973
_cell_angle_beta   89.88685075
_cell_angle_gamma   89.99781750
_symmetry_Int_Tables_number   1
_chemical_formula_structural   HoErLu2Pt4F28
_chemical_formula_sum   'Ho1 Er1 Lu2 Pt4 F28'
_cell_volume   509.66083125
_cell_formula_units_Z   1
loop_
 _symmetry_equiv_pos_site_id
 _symmetry_equiv_pos_as_xyz
  1  'x, y, z'
loop_
 _atom_site_type_symbol
 _atom_site_label
 _atom_site_symmetry_multiplicity
 _atom_site_fract_x
 _atom_site_fract_y
 _atom_site_fract_z
 _atom_site_occupancy
  Ho  Ho0  1  0.260737  0.815511  0.264392  1
  Er  Er1  1  0.739246  0.184208  0.735701  1
  Lu  Lu2  1  0.761794  0.185967  0.235793  1
  Lu  Lu3  1  0.238216  0.814225  0.764186  1
  Pt  Pt4  1  0.759524  0.726393  0.042425  1
  Pt  Pt5  1  0.240448  0.273668  0.957363  1
  Pt  Pt6  1  0.259719  0.270661  0.456102  1
  Pt  Pt7  1  0.740325  0.729129  0.544104  1
  F  F8  1  0.938028  0.702758  0.416377  1
  F  F9  1  0.061595  0.297135  0.583771  1
  F  F10  1  0.438543  0.299046  0.085267  1
  F  F11  1  0.561381  0.700932  0.914689  1
  F  F12  1  0.465370  0.724126  0.136988  1
  F  F13  1  0.534909  0.275725  0.862807  1
  F  F14  1  0.965618  0.274518  0.360789  1
  F  F15  1  0.034461  0.725502  0.639223  1
  F  F16  1  0.949257  0.745298  0.175939  1
  F  F17  1  0.050087  0.254569  0.823893  1
  F  F18  1  0.452894  0.251952  0.322923  1
  F  F19  1  0.547062  0.748056  0.677101  1
  F  F20  1  0.775767  0.474902  0.142960  1
  F  F21  1  0.224222  0.525139  0.857029  1
  F  F22  1  0.275780  0.521995  0.357241  1
  F  F23  1  0.724238  0.477532  0.642908  1
  F  F24  1  0.936402  0.277727  0.044915  1
  F  F25  1  0.063660  0.722281  0.955065  1
  F  F26  1  0.438326  0.723200  0.457260  1
  F  F27  1  0.561984  0.276635  0.543093  1
  F  F28  1  0.745388  0.980524  0.449014  1
  F  F29  1  0.254588  0.019387  0.551016  1
  F  F30  1  0.245737  0.022466  0.050846  1
  F  F31  1  0.754243  0.977763  0.948897  1
  F  F32  1  0.585020  0.974706  0.232675  1
  F  F33  1  0.415918  0.025697  0.767238  1
  F  F34  1  0.078624  0.032249  0.266984  1
  F  F35  1  0.920888  0.968418  0.733027  1
