# generated using pymatgen
data_YbTa3Nb2(B2Ru5)2
_symmetry_space_group_name_H-M   'P 1'
_cell_length_a   9.50956203
_cell_length_b   9.50810396
_cell_length_c   3.04396400
_cell_angle_alpha   90.00000000
_cell_angle_beta   90.00000000
_cell_angle_gamma   90.36458789
_symmetry_Int_Tables_number   1
_chemical_formula_structural   YbTa3Nb2(B2Ru5)2
_chemical_formula_sum   'Yb1 Ta3 Nb2 B4 Ru10'
_cell_volume   275.22327374
_cell_formula_units_Z   1
loop_
 _symmetry_equiv_pos_site_id
 _symmetry_equiv_pos_as_xyz
  1  'x, y, z'
loop_
 _atom_site_type_symbol
 _atom_site_label
 _atom_site_symmetry_multiplicity
 _atom_site_fract_x
 _atom_site_fract_y
 _atom_site_fract_z
 _atom_site_occupancy
  Yb  Yb0  1  0.824914  0.675073  0.000000  1
  Ta  Ta1  1  0.677567  0.175135  0.000000  1
  Ta  Ta2  1  0.503528  0.501627  0.000000  1
  Ta  Ta3  1  0.998473  0.996177  0.000000  1
  Nb  Nb4  1  0.177201  0.322986  0.000000  1
  Nb  Nb5  1  0.324983  0.823368  0.000000  1
  B  B6  1  0.619377  0.880314  0.000000  1
  B  B7  1  0.376376  0.123480  0.000000  1
  B  B8  1  0.122723  0.619046  0.000000  1
  B  B9  1  0.881295  0.377330  0.000000  1
  Ru  Ru10  1  0.556645  0.725993  0.500000  1
  Ru  Ru11  1  0.427386  0.283921  0.500000  1
  Ru  Ru12  1  0.083614  0.782715  0.500000  1
  Ru  Ru13  1  0.929771  0.214750  0.500000  1
  Ru  Ru14  1  0.284543  0.568914  0.500000  1
  Ru  Ru15  1  0.716489  0.413969  0.500000  1
  Ru  Ru16  1  0.216296  0.073666  0.500000  1
  Ru  Ru17  1  0.774135  0.944902  0.500000  1
  Ru  Ru18  1  0.496262  0.005836  0.500000  1
  Ru  Ru19  1  0.008421  0.490798  0.500000  1
