# generated using pymatgen
data_Tb20Sn3Bi5Ir4
_symmetry_space_group_name_H-M   'P 1'
_cell_length_a   8.00014519
_cell_length_b   9.04845815
_cell_length_c   12.45657921
_cell_angle_alpha   90.11069282
_cell_angle_beta   90.02496414
_cell_angle_gamma   90.00083122
_symmetry_Int_Tables_number   1
_chemical_formula_structural   Tb20Sn3Bi5Ir4
_chemical_formula_sum   'Tb20 Sn3 Bi5 Ir4'
_cell_volume   901.71728147
_cell_formula_units_Z   1
loop_
 _symmetry_equiv_pos_site_id
 _symmetry_equiv_pos_as_xyz
  1  'x, y, z'
loop_
 _atom_site_type_symbol
 _atom_site_label
 _atom_site_symmetry_multiplicity
 _atom_site_fract_x
 _atom_site_fract_y
 _atom_site_fract_z
 _atom_site_occupancy
  Tb  Tb0  1  0.841217  0.743226  0.791943  1
  Tb  Tb1  1  0.161117  0.253447  0.206756  1
  Tb  Tb2  1  0.341532  0.256456  0.708727  1
  Tb  Tb3  1  0.655288  0.746401  0.292109  1
  Tb  Tb4  1  0.374136  0.743809  0.696002  1
  Tb  Tb5  1  0.621569  0.253748  0.303431  1
  Tb  Tb6  1  0.874353  0.256033  0.803969  1
  Tb  Tb7  1  0.128632  0.746839  0.194579  1
  Tb  Tb8  1  0.950083  0.747148  0.504105  1
  Tb  Tb9  1  0.052595  0.252739  0.499915  1
  Tb  Tb10  1  0.449646  0.255994  0.997785  1
  Tb  Tb11  1  0.551435  0.743931  0.002114  1
  Tb  Tb12  1  0.677571  0.040848  0.565981  1
  Tb  Tb13  1  0.321366  0.958933  0.434319  1
  Tb  Tb14  1  0.178038  0.959968  0.933714  1
  Tb  Tb15  1  0.322966  0.540213  0.432321  1
  Tb  Tb16  1  0.822069  0.040656  0.066236  1
  Tb  Tb17  1  0.679505  0.461084  0.570622  1
  Tb  Tb18  1  0.817195  0.459735  0.065140  1
  Tb  Tb19  1  0.181001  0.539581  0.931505  1
  Sn  Sn20  1  0.570067  0.491990  0.828426  1
  Sn  Sn21  1  0.430172  0.507951  0.172043  1
  Sn  Sn22  1  0.069750  0.507601  0.670711  1
  Bi  Bi23  1  0.429778  0.991818  0.172178  1
  Bi  Bi24  1  0.929418  0.491161  0.327265  1
  Bi  Bi25  1  0.570049  0.007963  0.827571  1
  Bi  Bi26  1  0.929997  0.008385  0.327283  1
  Bi  Bi27  1  0.069556  0.991985  0.673121  1
  Ir  Ir28  1  0.570513  0.750567  0.509772  1
  Ir  Ir29  1  0.429277  0.249540  0.490307  1
  Ir  Ir30  1  0.069708  0.249551  0.990200  1
  Ir  Ir31  1  0.930401  0.750700  0.009848  1
