# generated using pymatgen
data_La14Ir3Rh2Au
_symmetry_space_group_name_H-M   'P 1'
_cell_length_a   6.56902351
_cell_length_b   10.30792325
_cell_length_c   10.30792278
_cell_angle_alpha   120.23310759
_cell_angle_beta   89.77666734
_cell_angle_gamma   90.22332914
_symmetry_Int_Tables_number   1
_chemical_formula_structural   La14Ir3Rh2Au
_chemical_formula_sum   'La14 Ir3 Rh2 Au1'
_cell_volume   603.03769170
_cell_formula_units_Z   1
loop_
 _symmetry_equiv_pos_site_id
 _symmetry_equiv_pos_as_xyz
  1  'x, y, z'
loop_
 _atom_site_type_symbol
 _atom_site_label
 _atom_site_symmetry_multiplicity
 _atom_site_fract_x
 _atom_site_fract_y
 _atom_site_fract_z
 _atom_site_occupancy
  La  La0  1  0.476215  0.334217  0.665783  1
  La  La1  1  0.965483  0.662101  0.337899  1
  La  La2  1  0.249725  0.124998  0.875002  1
  La  La3  1  0.247727  0.742281  0.859748  1
  La  La4  1  0.247727  0.140252  0.257719  1
  La  La5  1  0.728988  0.875762  0.124238  1
  La  La6  1  0.745370  0.247530  0.124889  1
  La  La7  1  0.745370  0.875111  0.752470  1
  La  La8  1  0.440638  0.541699  0.458301  1
  La  La9  1  0.444994  0.931362  0.477309  1
  La  La10  1  0.444994  0.522691  0.068638  1
  La  La11  1  0.928322  0.460642  0.539358  1
  La  La12  1  0.937943  0.078236  0.540869  1
  La  La13  1  0.937943  0.459131  0.921764  1
  Ir  Ir14  1  0.687845  0.188338  0.811662  1
  Ir  Ir15  1  0.692867  0.625601  0.813818  1
  Ir  Ir16  1  0.692867  0.186182  0.374399  1
  Rh  Rh17  1  0.196591  0.378826  0.187228  1
  Rh  Rh18  1  0.196591  0.812772  0.621174  1
  Au  Au19  1  0.193798  0.812268  0.187732  1
