# generated using pymatgen
data_Er12Fe4NiSn
_symmetry_space_group_name_H-M   'P 1'
_cell_length_a   8.23792161
_cell_length_b   8.23792043
_cell_length_c   8.23792117
_cell_angle_alpha   106.88693197
_cell_angle_beta   110.99961494
_cell_angle_gamma   110.55793460
_symmetry_Int_Tables_number   1
_chemical_formula_structural   Er12Fe4NiSn
_chemical_formula_sum   'Er12 Fe4 Ni1 Sn1'
_cell_volume   429.69949718
_cell_formula_units_Z   1
loop_
 _symmetry_equiv_pos_site_id
 _symmetry_equiv_pos_as_xyz
  1  'x, y, z'
loop_
 _atom_site_type_symbol
 _atom_site_label
 _atom_site_symmetry_multiplicity
 _atom_site_fract_x
 _atom_site_fract_y
 _atom_site_fract_z
 _atom_site_occupancy
  Er  Er0  1  0.474947  0.288259  0.186687  1
  Er  Er1  1  0.101573  0.288259  0.813313  1
  Er  Er2  1  0.898427  0.711741  0.186687  1
  Er  Er3  1  0.525053  0.711741  0.813313  1
  Er  Er4  1  0.302212  0.614186  0.311973  1
  Er  Er5  1  0.302212  0.990240  0.688027  1
  Er  Er6  1  0.697788  0.385814  0.688027  1
  Er  Er7  1  0.697788  0.009760  0.311973  1
  Er  Er8  1  0.196965  0.212980  0.409946  1
  Er  Er9  1  0.803035  0.787020  0.590054  1
  Er  Er10  1  0.196965  0.787020  0.983984  1
  Er  Er11  1  0.803035  0.212980  0.016016  1
  Fe  Fe12  1  0.500000  0.608568  0.108568  1
  Fe  Fe13  1  0.500000  0.391432  0.891432  1
  Fe  Fe14  1  0.383711  0.000000  0.383711  1
  Fe  Fe15  1  0.616289  0.000000  0.616289  1
  Ni  Ni16  1  0.000000  0.000000  0.000000  1
  Sn  Sn17  1  0.000000  0.500000  0.500000  1
