# generated using pymatgen
data_TbHoMo3P7Rh9
_symmetry_space_group_name_H-M   'P 1'
_cell_length_a   3.93913767
_cell_length_b   9.54394167
_cell_length_c   9.54272480
_cell_angle_alpha   120.00061561
_cell_angle_beta   90.00154459
_cell_angle_gamma   89.99819672
_symmetry_Int_Tables_number   1
_chemical_formula_structural   TbHoMo3P7Rh9
_chemical_formula_sum   'Tb1 Ho1 Mo3 P7 Rh9'
_cell_volume   310.69142857
_cell_formula_units_Z   1
loop_
 _symmetry_equiv_pos_site_id
 _symmetry_equiv_pos_as_xyz
  1  'x, y, z'
loop_
 _atom_site_type_symbol
 _atom_site_label
 _atom_site_symmetry_multiplicity
 _atom_site_fract_x
 _atom_site_fract_y
 _atom_site_fract_z
 _atom_site_occupancy
  Tb  Tb0  1  0.261274  0.666629  0.333267  1
  Ho  Ho1  1  0.762202  0.333381  0.666712  1
  Mo  Mo2  1  0.762013  0.091736  0.870799  1
  Mo  Mo3  1  0.762008  0.129270  0.221120  1
  Mo  Mo4  1  0.761992  0.778943  0.908145  1
  P  P5  1  0.262366  0.000010  0.999955  1
  P  P6  1  0.761674  0.882120  0.593887  1
  P  P7  1  0.761662  0.406072  0.288218  1
  P  P8  1  0.761629  0.711765  0.117808  1
  P  P9  1  0.262055  0.118266  0.412010  1
  P  P10  1  0.262068  0.588047  0.706319  1
  P  P11  1  0.262041  0.293743  0.881784  1
  Rh  Rh12  1  0.261872  0.884588  0.159730  1
  Rh  Rh13  1  0.261881  0.840199  0.724714  1
  Rh  Rh14  1  0.261876  0.275264  0.115537  1
  Rh  Rh15  1  0.761898  0.612720  0.558734  1
  Rh  Rh16  1  0.761869  0.441141  0.053862  1
  Rh  Rh17  1  0.761868  0.946021  0.387245  1
  Rh  Rh18  1  0.261934  0.371218  0.439868  1
  Rh  Rh19  1  0.261893  0.560256  0.931457  1
  Rh  Rh20  1  0.261924  0.068610  0.628831  1
