# generated using pymatgen
data_SrTh3Ir8
_symmetry_space_group_name_H-M   'P 1'
_cell_length_a   9.45959099
_cell_length_b   9.45959081
_cell_length_c   9.45959132
_cell_angle_alpha   33.57280622
_cell_angle_beta   33.57280988
_cell_angle_gamma   33.57280778
_symmetry_Int_Tables_number   1
_chemical_formula_structural   SrTh3Ir8
_chemical_formula_sum   'Sr1 Th3 Ir8'
_cell_volume   230.57667106
_cell_formula_units_Z   1
loop_
 _symmetry_equiv_pos_site_id
 _symmetry_equiv_pos_as_xyz
  1  'x, y, z'
loop_
 _atom_site_type_symbol
 _atom_site_label
 _atom_site_symmetry_multiplicity
 _atom_site_fract_x
 _atom_site_fract_y
 _atom_site_fract_z
 _atom_site_occupancy
  Sr  Sr0  1  0.126066  0.126066  0.126066  1
  Th  Th1  1  0.623646  0.623646  0.623646  1
  Th  Th2  1  0.002681  0.002681  0.002681  1
  Th  Th3  1  0.497358  0.497358  0.497358  1
  Ir  Ir4  1  0.562972  0.562972  0.057331  1
  Ir  Ir5  1  0.062493  0.062493  0.567122  1
  Ir  Ir6  1  0.562972  0.057331  0.562972  1
  Ir  Ir7  1  0.062493  0.567122  0.062493  1
  Ir  Ir8  1  0.812341  0.812341  0.812341  1
  Ir  Ir9  1  0.312527  0.312527  0.312527  1
  Ir  Ir10  1  0.057331  0.562972  0.562972  1
  Ir  Ir11  1  0.567122  0.062493  0.062493  1
