# generated using pymatgen
data_Yb3DyOs8
_symmetry_space_group_name_H-M   'P 1'
_cell_length_a   5.29884500
_cell_length_b   5.29884387
_cell_length_c   8.78808500
_cell_angle_alpha   90.00130972
_cell_angle_beta   89.99869198
_cell_angle_gamma   119.99507766
_symmetry_Int_Tables_number   1
_chemical_formula_structural   Yb3DyOs8
_chemical_formula_sum   'Yb3 Dy1 Os8'
_cell_volume   213.70208486
_cell_formula_units_Z   1
loop_
 _symmetry_equiv_pos_site_id
 _symmetry_equiv_pos_as_xyz
  1  'x, y, z'
loop_
 _atom_site_type_symbol
 _atom_site_label
 _atom_site_symmetry_multiplicity
 _atom_site_fract_x
 _atom_site_fract_y
 _atom_site_fract_z
 _atom_site_occupancy
  Yb  Yb0  1  0.333350  0.666650  0.431578  1
  Yb  Yb1  1  0.333359  0.666641  0.064152  1
  Yb  Yb2  1  0.666674  0.333326  0.940159  1
  Dy  Dy3  1  0.666665  0.333335  0.565219  1
  Os  Os4  1  0.000042  0.999958  0.499722  1
  Os  Os5  1  0.000051  0.999949  0.998853  1
  Os  Os6  1  0.172336  0.344730  0.750262  1
  Os  Os7  1  0.172329  0.827671  0.750272  1
  Os  Os8  1  0.655270  0.827664  0.750262  1
  Os  Os9  1  0.828272  0.656515  0.249837  1
  Os  Os10  1  0.828165  0.171835  0.249847  1
  Os  Os11  1  0.343485  0.171728  0.249837  1
