# generated using pymatgen
data_Tm2Pa2Ge6MoIr6
_symmetry_space_group_name_H-M   'P 1'
_cell_length_a   7.28573858
_cell_length_b   7.30226357
_cell_length_c   7.28559722
_cell_angle_alpha   109.49429699
_cell_angle_beta   109.33893005
_cell_angle_gamma   109.49534738
_symmetry_Int_Tables_number   1
_chemical_formula_structural   Tm2Pa2Ge6MoIr6
_chemical_formula_sum   'Tm2 Pa2 Ge6 Mo1 Ir6'
_cell_volume   298.69555863
_cell_formula_units_Z   1
loop_
 _symmetry_equiv_pos_site_id
 _symmetry_equiv_pos_as_xyz
  1  'x, y, z'
loop_
 _atom_site_type_symbol
 _atom_site_label
 _atom_site_symmetry_multiplicity
 _atom_site_fract_x
 _atom_site_fract_y
 _atom_site_fract_z
 _atom_site_occupancy
  Tm  Tm0  1  0.000000  0.000000  0.500000  1
  Tm  Tm1  1  0.500000  0.000000  0.000000  1
  Pa  Pa2  1  0.000000  0.500000  0.000000  1
  Pa  Pa3  1  0.500000  0.500000  0.500000  1
  Ge  Ge4  1  0.684172  0.690515  0.006275  1
  Ge  Ge5  1  0.315554  0.999937  0.315568  1
  Ge  Ge6  1  0.993756  0.309537  0.315833  1
  Ge  Ge7  1  0.315828  0.309485  0.993725  1
  Ge  Ge8  1  0.684446  0.000063  0.684432  1
  Ge  Ge9  1  0.006244  0.690463  0.684167  1
  Mo  Mo10  1  0.000000  0.000000  0.000000  1
  Ir  Ir11  1  0.749642  0.254398  0.504671  1
  Ir  Ir12  1  0.750001  0.499986  0.249951  1
  Ir  Ir13  1  0.504646  0.254389  0.749633  1
  Ir  Ir14  1  0.249999  0.500014  0.750049  1
  Ir  Ir15  1  0.250358  0.745602  0.495329  1
  Ir  Ir16  1  0.495354  0.745611  0.250367  1
