# generated using pymatgen
data_La3Y(Tl2Br5)4
_symmetry_space_group_name_H-M   'P 1'
_cell_length_a   8.67069402
_cell_length_b   9.23661000
_cell_length_c   13.85817400
_cell_angle_alpha   90.00000000
_cell_angle_beta   89.53462123
_cell_angle_gamma   90.00000000
_symmetry_Int_Tables_number   1
_chemical_formula_structural   La3Y(Tl2Br5)4
_chemical_formula_sum   'La3 Y1 Tl8 Br20'
_cell_volume   1109.83432097
_cell_formula_units_Z   1
loop_
 _symmetry_equiv_pos_site_id
 _symmetry_equiv_pos_as_xyz
  1  'x, y, z'
loop_
 _atom_site_type_symbol
 _atom_site_label
 _atom_site_symmetry_multiplicity
 _atom_site_fract_x
 _atom_site_fract_y
 _atom_site_fract_z
 _atom_site_occupancy
  La  La0  1  0.926043  0.750000  0.505627  1
  La  La1  1  0.075207  0.250000  0.494683  1
  La  La2  1  0.427607  0.250000  0.994286  1
  Y  Y3  1  0.571878  0.750000  0.003564  1
  Tl  Tl4  1  0.944746  0.002193  0.829202  1
  Tl  Tl5  1  0.053466  0.995543  0.170780  1
  Tl  Tl6  1  0.446396  0.996025  0.674132  1
  Tl  Tl7  1  0.053466  0.504457  0.170780  1
  Tl  Tl8  1  0.553868  0.002869  0.325918  1
  Tl  Tl9  1  0.944746  0.497807  0.829202  1
  Tl  Tl10  1  0.553868  0.497131  0.325918  1
  Tl  Tl11  1  0.446396  0.503975  0.674132  1
  Br  Br12  1  0.125004  0.750000  0.681568  1
  Br  Br13  1  0.874923  0.250000  0.318237  1
  Br  Br14  1  0.627032  0.250000  0.817410  1
  Br  Br15  1  0.384066  0.750000  0.174443  1
  Br  Br16  1  0.832443  0.044923  0.578516  1
  Br  Br17  1  0.168814  0.955058  0.421118  1
  Br  Br18  1  0.336489  0.949032  0.926716  1
  Br  Br19  1  0.168814  0.544942  0.421118  1
  Br  Br20  1  0.664315  0.036861  0.073821  1
  Br  Br21  1  0.832443  0.455077  0.578516  1
  Br  Br22  1  0.664315  0.463139  0.073821  1
  Br  Br23  1  0.336489  0.550968  0.926716  1
  Br  Br24  1  0.576807  0.750000  0.509910  1
  Br  Br25  1  0.424084  0.250000  0.491423  1
  Br  Br26  1  0.079272  0.250000  0.990161  1
  Br  Br27  1  0.909293  0.750000  0.010072  1
  Br  Br28  1  0.657023  0.750000  0.803047  1
  Br  Br29  1  0.339753  0.250000  0.204444  1
  Br  Br30  1  0.160222  0.250000  0.704495  1
  Br  Br31  1  0.840715  0.750000  0.296225  1
