# generated using pymatgen
data_DyTm3U4(ReB6)4
_symmetry_space_group_name_H-M   'P 1'
_cell_length_a   3.62462800
_cell_length_b   9.27683000
_cell_length_c   11.39874300
_cell_angle_alpha   89.99997644
_cell_angle_beta   90.00000000
_cell_angle_gamma   90.00000000
_symmetry_Int_Tables_number   1
_chemical_formula_structural   DyTm3U4(ReB6)4
_chemical_formula_sum   'Dy1 Tm3 U4 Re4 B24'
_cell_volume   383.28339187
_cell_formula_units_Z   1
loop_
 _symmetry_equiv_pos_site_id
 _symmetry_equiv_pos_as_xyz
  1  'x, y, z'
loop_
 _atom_site_type_symbol
 _atom_site_label
 _atom_site_symmetry_multiplicity
 _atom_site_fract_x
 _atom_site_fract_y
 _atom_site_fract_z
 _atom_site_occupancy
  Dy  Dy0  1  0.000000  0.163360  0.907670  1
  Tm  Tm1  1  0.000000  0.336618  0.407685  1
  Tm  Tm2  1  0.000000  0.663369  0.592262  1
  Tm  Tm3  1  0.000000  0.836535  0.092389  1
  U  U4  1  0.000000  0.956210  0.396368  1
  U  U5  1  0.000000  0.043698  0.603557  1
  U  U6  1  0.000000  0.456468  0.103980  1
  U  U7  1  0.000000  0.544093  0.896246  1
  Re  Re8  1  0.000000  0.645144  0.318559  1
  Re  Re9  1  0.000000  0.355038  0.681256  1
  Re  Re10  1  0.000000  0.145198  0.181618  1
  Re  Re11  1  0.000000  0.854395  0.818486  1
  B  B12  1  0.500000  0.550939  0.431411  1
  B  B13  1  0.500000  0.449125  0.568474  1
  B  B14  1  0.500000  0.050775  0.069024  1
  B  B15  1  0.500000  0.948124  0.931360  1
  B  B16  1  0.500000  0.742387  0.423387  1
  B  B17  1  0.500000  0.257646  0.576430  1
  B  B18  1  0.500000  0.242777  0.077077  1
  B  B19  1  0.500000  0.757300  0.923400  1
  B  B20  1  0.500000  0.801972  0.274986  1
  B  B21  1  0.500000  0.198215  0.724613  1
  B  B22  1  0.500000  0.302047  0.225205  1
  B  B23  1  0.500000  0.697903  0.774882  1
  B  B24  1  0.500000  0.644290  0.188577  1
  B  B25  1  0.500000  0.356282  0.811250  1
  B  B26  1  0.500000  0.144213  0.311529  1
  B  B27  1  0.500000  0.855504  0.688360  1
  B  B28  1  0.500000  0.988078  0.219303  1
  B  B29  1  0.500000  0.011056  0.780401  1
  B  B30  1  0.500000  0.488174  0.280886  1
  B  B31  1  0.500000  0.511953  0.719052  1
  B  B32  1  0.500000  0.641119  0.039196  1
  B  B33  1  0.500000  0.360099  0.961208  1
  B  B34  1  0.500000  0.141112  0.460836  1
  B  B35  1  0.500000  0.858783  0.539076  1
