# generated using pymatgen
data_Lu3GaCu(SiAg)2
_symmetry_space_group_name_H-M   'P 1'
_cell_length_a   6.95775285
_cell_length_b   6.95775423
_cell_length_c   4.10747000
_cell_angle_alpha   90.00000000
_cell_angle_beta   90.00000000
_cell_angle_gamma   121.42749815
_symmetry_Int_Tables_number   1
_chemical_formula_structural   Lu3GaCu(SiAg)2
_chemical_formula_sum   'Lu3 Ga1 Cu1 Si2 Ag2'
_cell_volume   169.67371088
_cell_formula_units_Z   1
loop_
 _symmetry_equiv_pos_site_id
 _symmetry_equiv_pos_as_xyz
  1  'x, y, z'
loop_
 _atom_site_type_symbol
 _atom_site_label
 _atom_site_symmetry_multiplicity
 _atom_site_fract_x
 _atom_site_fract_y
 _atom_site_fract_z
 _atom_site_occupancy
  Lu  Lu0  1  0.429504  0.429504  0.500000  1
  Lu  Lu1  1  0.577855  0.006409  0.500000  1
  Lu  Lu2  1  0.006409  0.577855  0.500000  1
  Ga  Ga3  1  0.978117  0.978117  0.500000  1
  Cu  Cu4  1  0.744165  0.744165  0.000000  1
  Si  Si5  1  0.669779  0.350416  0.000000  1
  Si  Si6  1  0.350416  0.669779  0.000000  1
  Ag  Ag7  1  0.248011  0.995742  0.000000  1
  Ag  Ag8  1  0.995742  0.248011  0.000000  1
