# generated using pymatgen
data_Tb3Cd3C
_symmetry_space_group_name_H-M   'P 1'
_cell_length_a   9.61006472
_cell_length_b   9.60505272
_cell_length_c   9.60949906
_cell_angle_alpha   119.65136544
_cell_angle_beta   90.64291216
_cell_angle_gamma   119.62528556
_symmetry_Int_Tables_number   1
_chemical_formula_structural   Tb3Cd3C
_chemical_formula_sum   'Tb12 Cd12 C4'
_cell_volume   630.51079563
_cell_formula_units_Z   4
loop_
 _symmetry_equiv_pos_site_id
 _symmetry_equiv_pos_as_xyz
  1  'x, y, z'
loop_
 _atom_site_type_symbol
 _atom_site_label
 _atom_site_symmetry_multiplicity
 _atom_site_fract_x
 _atom_site_fract_y
 _atom_site_fract_z
 _atom_site_occupancy
  Tb  Tb0  1  0.934721  0.369419  0.184686  1
  Tb  Tb1  1  0.935755  0.750017  0.185713  1
  Tb  Tb2  1  0.315248  0.750005  0.184732  1
  Tb  Tb3  1  0.685758  0.250007  0.435755  1
  Tb  Tb4  1  0.684736  0.869499  0.434782  1
  Tb  Tb5  1  0.065260  0.250009  0.434734  1
  Tb  Tb6  1  0.315281  0.130552  0.565256  1
  Tb  Tb7  1  0.314289  0.749987  0.564297  1
  Tb  Tb8  1  0.934712  0.749993  0.565282  1
  Tb  Tb9  1  0.684777  0.250001  0.815254  1
  Tb  Tb10  1  0.065262  0.630536  0.815283  1
  Tb  Tb11  1  0.064199  0.249995  0.814242  1
  Cd  Cd12  1  0.000051  0.000023  0.000022  1
  Cd  Cd13  1  0.499977  0.000020  0.000001  1
  Cd  Cd14  1  0.499994  0.499973  0.000019  1
  Cd  Cd15  1  0.708225  0.916240  0.124431  1
  Cd  Cd16  1  0.292038  0.083835  0.208184  1
  Cd  Cd17  1  0.291848  0.416179  0.207987  1
  Cd  Cd18  1  0.624304  0.416154  0.208212  1
  Cd  Cd19  1  0.499980  0.499977  0.499956  1
  Cd  Cd20  1  0.375543  0.583744  0.791745  1
  Cd  Cd21  1  0.708195  0.583707  0.791940  1
  Cd  Cd22  1  0.708040  0.916288  0.791795  1
  Cd  Cd23  1  0.291803  0.083851  0.875703  1
  C  C24  1  0.999998  0.499975  0.999961  1
  C  C25  1  0.999987  0.000021  0.500001  1
  C  C26  1  0.500051  0.000036  0.500027  1
  C  C27  1  0.999975  0.499969  0.500009  1
