# generated using pymatgen
data_Lu6Sc4SnSb5
_symmetry_space_group_name_H-M   'P 1'
_cell_length_a   8.66955700
_cell_length_b   8.66914679
_cell_length_c   6.07120800
_cell_angle_alpha   90.00000000
_cell_angle_beta   90.00000000
_cell_angle_gamma   119.99843832
_symmetry_Int_Tables_number   1
_chemical_formula_structural   Lu6Sc4SnSb5
_chemical_formula_sum   'Lu6 Sc4 Sn1 Sb5'
_cell_volume   395.17170523
_cell_formula_units_Z   1
loop_
 _symmetry_equiv_pos_site_id
 _symmetry_equiv_pos_as_xyz
  1  'x, y, z'
loop_
 _atom_site_type_symbol
 _atom_site_label
 _atom_site_symmetry_multiplicity
 _atom_site_fract_x
 _atom_site_fract_y
 _atom_site_fract_z
 _atom_site_occupancy
  Lu  Lu0  1  0.758933  0.758000  0.750000  1
  Lu  Lu1  1  0.241067  0.999067  0.750000  1
  Lu  Lu2  1  0.000000  0.240562  0.750000  1
  Lu  Lu3  1  0.240138  0.241743  0.250000  1
  Lu  Lu4  1  0.759862  0.001605  0.250000  1
  Lu  Lu5  1  0.000000  0.758435  0.250000  1
  Sc  Sc6  1  0.666794  0.333461  0.999972  1
  Sc  Sc7  1  0.333206  0.666668  0.999972  1
  Sc  Sc8  1  0.333206  0.666668  0.500028  1
  Sc  Sc9  1  0.666794  0.333461  0.500028  1
  Sn  Sn10  1  0.000000  0.397528  0.250000  1
  Sb  Sb11  1  0.396038  0.395551  0.750000  1
  Sb  Sb12  1  0.603962  0.999513  0.750000  1
  Sb  Sb13  1  0.000000  0.602899  0.750000  1
  Sb  Sb14  1  0.604239  0.604538  0.250000  1
  Sb  Sb15  1  0.395761  0.000299  0.250000  1
