# generated using pymatgen
data_Sm2BeGa8Cu17
_symmetry_space_group_name_H-M   'P 1'
_cell_length_a   8.23810936
_cell_length_b   8.23810807
_cell_length_c   8.28077952
_cell_angle_alpha   120.38275882
_cell_angle_beta   120.38275688
_cell_angle_gamma   89.03808172
_symmetry_Int_Tables_number   1
_chemical_formula_structural   Sm2BeGa8Cu17
_chemical_formula_sum   'Sm2 Be1 Ga8 Cu17'
_cell_volume   396.06809345
_cell_formula_units_Z   1
loop_
 _symmetry_equiv_pos_site_id
 _symmetry_equiv_pos_as_xyz
  1  'x, y, z'
loop_
 _atom_site_type_symbol
 _atom_site_label
 _atom_site_symmetry_multiplicity
 _atom_site_fract_x
 _atom_site_fract_y
 _atom_site_fract_z
 _atom_site_occupancy
  Sm  Sm0  1  0.750000  0.750000  0.000000  1
  Sm  Sm1  1  0.250000  0.250000  0.000000  1
  Be  Be2  1  0.000000  0.500000  0.500000  1
  Ga  Ga3  1  0.060737  0.560737  0.863249  1
  Ga  Ga4  1  0.697488  0.197488  0.136751  1
  Ga  Ga5  1  0.554765  0.692940  0.500000  1
  Ga  Ga6  1  0.192940  0.054765  0.500000  1
  Ga  Ga7  1  0.939263  0.439263  0.136751  1
  Ga  Ga8  1  0.302512  0.802512  0.863249  1
  Ga  Ga9  1  0.445235  0.307060  0.500000  1
  Ga  Ga10  1  0.807060  0.945235  0.500000  1
  Cu  Cu11  1  0.061065  0.212976  0.274041  1
  Cu  Cu12  1  0.938935  0.787024  0.725959  1
  Cu  Cu13  1  0.556522  0.303034  0.859555  1
  Cu  Cu14  1  0.443478  0.696966  0.140445  1
  Cu  Cu15  1  0.803034  0.056522  0.859555  1
  Cu  Cu16  1  0.196966  0.943478  0.140445  1
  Cu  Cu17  1  0.712976  0.561065  0.274041  1
  Cu  Cu18  1  0.287024  0.438935  0.725959  1
  Cu  Cu19  1  0.440075  0.940075  0.737177  1
  Cu  Cu20  1  0.202898  0.702898  0.262823  1
  Cu  Cu21  1  0.937058  0.213458  0.500000  1
  Cu  Cu22  1  0.713458  0.437058  0.500000  1
  Cu  Cu23  1  0.559925  0.059925  0.262823  1
  Cu  Cu24  1  0.797102  0.297102  0.737177  1
  Cu  Cu25  1  0.062942  0.786542  0.500000  1
  Cu  Cu26  1  0.286542  0.562942  0.500000  1
  Cu  Cu27  1  0.500000  0.000000  0.500000  1
