# generated using pymatgen
data_DyAl10FeIr
_symmetry_space_group_name_H-M   'P 1'
_cell_length_a   6.80080635
_cell_length_b   6.80080685
_cell_length_c   9.08619525
_cell_angle_alpha   90.09591322
_cell_angle_beta   90.09591219
_cell_angle_gamma   97.00623752
_symmetry_Int_Tables_number   1
_chemical_formula_structural   DyAl10FeIr
_chemical_formula_sum   'Dy2 Al20 Fe2 Ir2'
_cell_volume   417.10599331
_cell_formula_units_Z   2
loop_
 _symmetry_equiv_pos_site_id
 _symmetry_equiv_pos_as_xyz
  1  'x, y, z'
loop_
 _atom_site_type_symbol
 _atom_site_label
 _atom_site_symmetry_multiplicity
 _atom_site_fract_x
 _atom_site_fract_y
 _atom_site_fract_z
 _atom_site_occupancy
  Dy  Dy0  1  0.872376  0.127624  0.750000  1
  Dy  Dy1  1  0.127624  0.872376  0.250000  1
  Al  Al2  1  0.620256  0.372074  0.550114  1
  Al  Al3  1  0.379744  0.627926  0.449886  1
  Al  Al4  1  0.372074  0.620256  0.050114  1
  Al  Al5  1  0.627926  0.379744  0.949886  1
  Al  Al6  1  0.228667  0.220453  0.496021  1
  Al  Al7  1  0.771333  0.779547  0.503979  1
  Al  Al8  1  0.779547  0.771333  0.003979  1
  Al  Al9  1  0.220453  0.228667  0.996021  1
  Al  Al10  1  0.848716  0.160856  0.100114  1
  Al  Al11  1  0.151284  0.839144  0.899886  1
  Al  Al12  1  0.160856  0.848716  0.600114  1
  Al  Al13  1  0.839144  0.151284  0.399886  1
  Al  Al14  1  0.860300  0.586161  0.754391  1
  Al  Al15  1  0.139700  0.413839  0.245609  1
  Al  Al16  1  0.413839  0.139700  0.745609  1
  Al  Al17  1  0.586161  0.860300  0.254391  1
  Al  Al18  1  0.223190  0.480278  0.754878  1
  Al  Al19  1  0.776810  0.519722  0.245122  1
  Al  Al20  1  0.519722  0.776810  0.745122  1
  Al  Al21  1  0.480278  0.223190  0.254878  1
  Fe  Fe22  1  0.000000  0.500000  0.000000  1
  Fe  Fe23  1  0.500000  0.000000  0.500000  1
  Ir  Ir24  1  0.000000  0.500000  0.500000  1
  Ir  Ir25  1  0.500000  0.000000  0.000000  1
