# generated using pymatgen
data_Rb3Ta2Au3Se8
_symmetry_space_group_name_H-M   'P 1'
_cell_length_a   13.34486285
_cell_length_b   13.34486220
_cell_length_c   15.59320800
_cell_angle_alpha   62.15233345
_cell_angle_beta   62.15233493
_cell_angle_gamma   26.27630926
_symmetry_Int_Tables_number   1
_chemical_formula_structural   Rb3Ta2Au3Se8
_chemical_formula_sum   'Rb6 Ta4 Au6 Se16'
_cell_volume   1078.68181406
_cell_formula_units_Z   2
loop_
 _symmetry_equiv_pos_site_id
 _symmetry_equiv_pos_as_xyz
  1  'x, y, z'
loop_
 _atom_site_type_symbol
 _atom_site_label
 _atom_site_symmetry_multiplicity
 _atom_site_fract_x
 _atom_site_fract_y
 _atom_site_fract_z
 _atom_site_occupancy
  Rb  Rb0  1  0.635961  0.756631  0.398256  1
  Rb  Rb1  1  0.000000  0.000000  0.000000  1
  Rb  Rb2  1  0.756631  0.635961  0.898256  1
  Rb  Rb3  1  0.000000  0.000000  0.500000  1
  Rb  Rb4  1  0.243369  0.364039  0.101744  1
  Rb  Rb5  1  0.364039  0.243369  0.601744  1
  Ta  Ta6  1  0.584339  0.168797  0.276862  1
  Ta  Ta7  1  0.168797  0.584339  0.776862  1
  Ta  Ta8  1  0.831203  0.415661  0.223138  1
  Ta  Ta9  1  0.415661  0.831203  0.723138  1
  Au  Au10  1  0.279498  0.720502  0.750000  1
  Au  Au11  1  0.334506  0.918481  0.217039  1
  Au  Au12  1  0.918481  0.334506  0.717039  1
  Au  Au13  1  0.081519  0.665494  0.282961  1
  Au  Au14  1  0.720502  0.279498  0.250000  1
  Au  Au15  1  0.665494  0.081519  0.782961  1
  Se  Se16  1  0.476841  0.437987  0.655251  1
  Se  Se17  1  0.223969  0.088969  0.817851  1
  Se  Se18  1  0.437987  0.476841  0.155251  1
  Se  Se19  1  0.776031  0.911031  0.182149  1
  Se  Se20  1  0.562013  0.523159  0.844749  1
  Se  Se21  1  0.299991  0.283547  0.889072  1
  Se  Se22  1  0.716453  0.700009  0.610928  1
  Se  Se23  1  0.283547  0.299991  0.389072  1
  Se  Se24  1  0.911031  0.776031  0.682149  1
  Se  Se25  1  0.163640  0.025056  0.620237  1
  Se  Se26  1  0.700009  0.716453  0.110928  1
  Se  Se27  1  0.523159  0.562013  0.344749  1
  Se  Se28  1  0.974944  0.836360  0.879763  1
  Se  Se29  1  0.088969  0.223969  0.317851  1
  Se  Se30  1  0.836360  0.974944  0.379763  1
  Se  Se31  1  0.025056  0.163640  0.120237  1
