# generated using pymatgen
data_Ba3TbFeIrO9
_symmetry_space_group_name_H-M   'P 1'
_cell_length_a   5.99705900
_cell_length_b   5.99705887
_cell_length_c   14.87538800
_cell_angle_alpha   90.00000000
_cell_angle_beta   90.00000000
_cell_angle_gamma   120.00000625
_symmetry_Int_Tables_number   1
_chemical_formula_structural   Ba3TbFeIrO9
_chemical_formula_sum   'Ba6 Tb2 Fe2 Ir2 O18'
_cell_volume   463.31412445
_cell_formula_units_Z   2
loop_
 _symmetry_equiv_pos_site_id
 _symmetry_equiv_pos_as_xyz
  1  'x, y, z'
loop_
 _atom_site_type_symbol
 _atom_site_label
 _atom_site_symmetry_multiplicity
 _atom_site_fract_x
 _atom_site_fract_y
 _atom_site_fract_z
 _atom_site_occupancy
  Ba  Ba0  1  0.333333  0.666667  0.598506  1
  Ba  Ba1  1  0.666667  0.333333  0.403145  1
  Ba  Ba2  1  0.666667  0.333333  0.098506  1
  Ba  Ba3  1  0.333333  0.666667  0.903145  1
  Ba  Ba4  1  0.000000  0.000000  0.244503  1
  Ba  Ba5  1  0.000000  0.000000  0.744503  1
  Tb  Tb6  1  0.000000  0.000000  0.501330  1
  Tb  Tb7  1  0.000000  0.000000  0.001330  1
  Fe  Fe8  1  0.666667  0.333333  0.647359  1
  Fe  Fe9  1  0.333333  0.666667  0.147359  1
  Ir  Ir10  1  0.333333  0.666667  0.336050  1
  Ir  Ir11  1  0.666667  0.333333  0.836050  1
  O  O12  1  0.485038  0.514962  0.256841  1
  O  O13  1  0.485038  0.970075  0.256841  1
  O  O14  1  0.029925  0.514962  0.256841  1
  O  O15  1  0.514962  0.485038  0.756841  1
  O  O16  1  0.514962  0.029925  0.756841  1
  O  O17  1  0.970075  0.485038  0.756841  1
  O  O18  1  0.169934  0.830066  0.088726  1
  O  O19  1  0.169934  0.339867  0.088726  1
  O  O20  1  0.660133  0.830066  0.088726  1
  O  O21  1  0.821500  0.178500  0.910829  1
  O  O22  1  0.821500  0.643001  0.910829  1
  O  O23  1  0.356999  0.178500  0.910829  1
  O  O24  1  0.830066  0.169934  0.588726  1
  O  O25  1  0.830066  0.660133  0.588726  1
  O  O26  1  0.339867  0.169934  0.588726  1
  O  O27  1  0.178500  0.821500  0.410829  1
  O  O28  1  0.178500  0.356999  0.410829  1
  O  O29  1  0.643001  0.821500  0.410829  1
