# generated using pymatgen
data_Zr3Ti7Sn2(BSb2)2
_symmetry_space_group_name_H-M   'P 1'
_cell_length_a   8.24616106
_cell_length_b   8.24616073
_cell_length_c   5.46399700
_cell_angle_alpha   90.00000000
_cell_angle_beta   90.00000000
_cell_angle_gamma   120.00916707
_symmetry_Int_Tables_number   1
_chemical_formula_structural   Zr3Ti7Sn2(BSb2)2
_chemical_formula_sum   'Zr3 Ti7 Sn2 B2 Sb4'
_cell_volume   321.73963745
_cell_formula_units_Z   1
loop_
 _symmetry_equiv_pos_site_id
 _symmetry_equiv_pos_as_xyz
  1  'x, y, z'
loop_
 _atom_site_type_symbol
 _atom_site_label
 _atom_site_symmetry_multiplicity
 _atom_site_fract_x
 _atom_site_fract_y
 _atom_site_fract_z
 _atom_site_occupancy
  Zr  Zr0  1  0.773154  0.773154  0.750000  1
  Zr  Zr1  1  0.224600  0.998931  0.750000  1
  Zr  Zr2  1  0.998931  0.224600  0.750000  1
  Ti  Ti3  1  0.666220  0.334733  0.001864  1
  Ti  Ti4  1  0.334733  0.666220  0.001864  1
  Ti  Ti5  1  0.334733  0.666220  0.498136  1
  Ti  Ti6  1  0.666220  0.334733  0.498136  1
  Ti  Ti7  1  0.248527  0.248527  0.250000  1
  Ti  Ti8  1  0.753224  0.000434  0.250000  1
  Ti  Ti9  1  0.000434  0.753224  0.250000  1
  Sn  Sn10  1  0.396382  0.999951  0.250000  1
  Sn  Sn11  1  0.999951  0.396382  0.250000  1
  B  B12  1  0.000684  0.000684  0.065403  1
  B  B13  1  0.000684  0.000684  0.434597  1
  Sb  Sb14  1  0.403643  0.403643  0.750000  1
  Sb  Sb15  1  0.592811  0.000911  0.750000  1
  Sb  Sb16  1  0.000911  0.592811  0.750000  1
  Sb  Sb17  1  0.604155  0.604155  0.250000  1
