# generated using pymatgen
data_TmFe2MoP3Ir2
_symmetry_space_group_name_H-M   'P 1'
_cell_length_a   3.82895400
_cell_length_b   10.53150800
_cell_length_c   12.28430900
_cell_angle_alpha   90.00000000
_cell_angle_beta   90.00000000
_cell_angle_gamma   90.00000000
_symmetry_Int_Tables_number   1
_chemical_formula_structural   TmFe2MoP3Ir2
_chemical_formula_sum   'Tm4 Fe8 Mo4 P12 Ir8'
_cell_volume   495.36057986
_cell_formula_units_Z   4
loop_
 _symmetry_equiv_pos_site_id
 _symmetry_equiv_pos_as_xyz
  1  'x, y, z'
loop_
 _atom_site_type_symbol
 _atom_site_label
 _atom_site_symmetry_multiplicity
 _atom_site_fract_x
 _atom_site_fract_y
 _atom_site_fract_z
 _atom_site_occupancy
  Tm  Tm0  1  0.250000  0.580292  0.712082  1
  Tm  Tm1  1  0.250000  0.919708  0.212082  1
  Tm  Tm2  1  0.750000  0.419708  0.287918  1
  Tm  Tm3  1  0.750000  0.080292  0.787918  1
  Fe  Fe4  1  0.250000  0.881870  0.695902  1
  Fe  Fe5  1  0.250000  0.618130  0.195902  1
  Fe  Fe6  1  0.750000  0.118130  0.304098  1
  Fe  Fe7  1  0.750000  0.381870  0.804098  1
  Fe  Fe8  1  0.250000  0.462204  0.936754  1
  Fe  Fe9  1  0.250000  0.037796  0.436754  1
  Fe  Fe10  1  0.750000  0.537796  0.063246  1
  Fe  Fe11  1  0.750000  0.962204  0.563246  1
  Mo  Mo12  1  0.250000  0.702598  0.990045  1
  Mo  Mo13  1  0.250000  0.797402  0.490045  1
  Mo  Mo14  1  0.750000  0.297402  0.009955  1
  Mo  Mo15  1  0.750000  0.202598  0.509955  1
  P  P16  1  0.250000  0.433894  0.111995  1
  P  P17  1  0.250000  0.066106  0.611995  1
  P  P18  1  0.750000  0.566106  0.888005  1
  P  P19  1  0.750000  0.933894  0.388005  1
  P  P20  1  0.250000  0.272884  0.865896  1
  P  P21  1  0.250000  0.227116  0.365896  1
  P  P22  1  0.750000  0.727116  0.134104  1
  P  P23  1  0.750000  0.772884  0.634104  1
  P  P24  1  0.250000  0.599753  0.380351  1
  P  P25  1  0.250000  0.900247  0.880351  1
  P  P26  1  0.750000  0.400247  0.619649  1
  P  P27  1  0.750000  0.099753  0.119649  1
  Ir  Ir28  1  0.250000  0.406279  0.476031  1
  Ir  Ir29  1  0.250000  0.093721  0.976031  1
  Ir  Ir30  1  0.750000  0.593721  0.523969  1
  Ir  Ir31  1  0.750000  0.906279  0.023969  1
  Ir  Ir32  1  0.250000  0.226345  0.177740  1
  Ir  Ir33  1  0.250000  0.273655  0.677740  1
  Ir  Ir34  1  0.750000  0.773655  0.822260  1
  Ir  Ir35  1  0.750000  0.726345  0.322260  1
