# generated using pymatgen
data_HfTi11(Ga2Sn)4
_symmetry_space_group_name_H-M   'P 1'
_cell_length_a   5.48640400
_cell_length_b   8.45355624
_cell_length_c   9.02868526
_cell_angle_alpha   89.97250351
_cell_angle_beta   90.00000000
_cell_angle_gamma   90.00000000
_symmetry_Int_Tables_number   1
_chemical_formula_structural   HfTi11(Ga2Sn)4
_chemical_formula_sum   'Hf1 Ti11 Ga8 Sn4'
_cell_volume   418.74698646
_cell_formula_units_Z   1
loop_
 _symmetry_equiv_pos_site_id
 _symmetry_equiv_pos_as_xyz
  1  'x, y, z'
loop_
 _atom_site_type_symbol
 _atom_site_label
 _atom_site_symmetry_multiplicity
 _atom_site_fract_x
 _atom_site_fract_y
 _atom_site_fract_z
 _atom_site_occupancy
  Hf  Hf0  1  0.250000  0.127632  0.194049  1
  Ti  Ti1  1  0.000217  0.751628  0.119012  1
  Ti  Ti2  1  0.499443  0.250754  0.880460  1
  Ti  Ti3  1  0.000557  0.250754  0.880460  1
  Ti  Ti4  1  0.499783  0.751628  0.119012  1
  Ti  Ti5  1  0.750000  0.470008  0.609497  1
  Ti  Ti6  1  0.250000  0.529049  0.391754  1
  Ti  Ti7  1  0.750000  0.969676  0.391650  1
  Ti  Ti8  1  0.250000  0.030634  0.604566  1
  Ti  Ti9  1  0.750000  0.371568  0.193132  1
  Ti  Ti10  1  0.250000  0.627072  0.805918  1
  Ti  Ti11  1  0.750000  0.871435  0.805430  1
  Ga  Ga12  1  0.999244  0.748889  0.576691  1
  Ga  Ga13  1  0.504837  0.253268  0.428703  1
  Ga  Ga14  1  0.995163  0.253268  0.428703  1
  Ga  Ga15  1  0.500756  0.748889  0.576691  1
  Ga  Ga16  1  0.750000  0.133224  0.652025  1
  Ga  Ga17  1  0.250000  0.857722  0.352027  1
  Ga  Ga18  1  0.750000  0.634002  0.348456  1
  Ga  Ga19  1  0.250000  0.366544  0.651535  1
  Sn  Sn20  1  0.750000  0.049054  0.084333  1
  Sn  Sn21  1  0.250000  0.946905  0.907087  1
  Sn  Sn22  1  0.750000  0.551442  0.913468  1
  Sn  Sn23  1  0.250000  0.454956  0.085340  1
