# generated using pymatgen
data_Tm11Lu(OsPt)2
_symmetry_space_group_name_H-M   'P 1'
_cell_length_a   7.20969183
_cell_length_b   8.98567748
_cell_length_c   6.37371103
_cell_angle_alpha   90.06166593
_cell_angle_beta   89.81735573
_cell_angle_gamma   90.02360398
_symmetry_Int_Tables_number   1
_chemical_formula_structural   Tm11Lu(OsPt)2
_chemical_formula_sum   'Tm11 Lu1 Os2 Pt2'
_cell_volume   412.91190396
_cell_formula_units_Z   1
loop_
 _symmetry_equiv_pos_site_id
 _symmetry_equiv_pos_as_xyz
  1  'x, y, z'
loop_
 _atom_site_type_symbol
 _atom_site_label
 _atom_site_symmetry_multiplicity
 _atom_site_fract_x
 _atom_site_fract_y
 _atom_site_fract_z
 _atom_site_occupancy
  Tm  Tm0  1  0.026956  0.249763  0.619437  1
  Tm  Tm1  1  0.973471  0.750280  0.380314  1
  Tm  Tm2  1  0.462029  0.750238  0.123221  1
  Tm  Tm3  1  0.537631  0.249851  0.877168  1
  Tm  Tm4  1  0.824691  0.941420  0.833158  1
  Tm  Tm5  1  0.316021  0.939121  0.680107  1
  Tm  Tm6  1  0.824345  0.558803  0.832922  1
  Tm  Tm7  1  0.683918  0.061142  0.320034  1
  Tm  Tm8  1  0.175689  0.440822  0.167085  1
  Tm  Tm9  1  0.683919  0.438822  0.319991  1
  Tm  Tm10  1  0.316067  0.561157  0.680109  1
  Lu  Lu11  1  0.175215  0.058975  0.166928  1
  Os  Os12  1  0.113563  0.750419  0.966385  1
  Os  Os13  1  0.886910  0.249650  0.033836  1
  Pt  Pt14  1  0.388006  0.249514  0.459536  1
  Pt  Pt15  1  0.611572  0.750023  0.539769  1
