# generated using pymatgen
data_Ba7In2Hg29
_symmetry_space_group_name_H-M   'P 1'
_cell_length_a   11.05752005
_cell_length_b   11.09926522
_cell_length_c   10.84528900
_cell_angle_alpha   90.00000000
_cell_angle_beta   90.00000000
_cell_angle_gamma   121.78892893
_symmetry_Int_Tables_number   1
_chemical_formula_structural   Ba7In2Hg29
_chemical_formula_sum   'Ba7 In2 Hg29'
_cell_volume   1131.38185476
_cell_formula_units_Z   1
loop_
 _symmetry_equiv_pos_site_id
 _symmetry_equiv_pos_as_xyz
  1  'x, y, z'
loop_
 _atom_site_type_symbol
 _atom_site_label
 _atom_site_symmetry_multiplicity
 _atom_site_fract_x
 _atom_site_fract_y
 _atom_site_fract_z
 _atom_site_occupancy
  Ba  Ba0  1  0.661301  0.320748  0.000000  1
  Ba  Ba1  1  0.983287  0.996512  0.000000  1
  Ba  Ba2  1  0.825757  0.668902  0.500000  1
  Ba  Ba3  1  0.336940  0.160604  0.500000  1
  Ba  Ba4  1  0.843714  0.181245  0.500000  1
  Ba  Ba5  1  0.338689  0.668247  0.786541  1
  Ba  Ba6  1  0.338689  0.668247  0.213459  1
  In  In7  1  0.049210  0.658855  0.000000  1
  In  In8  1  0.337255  0.384552  0.000000  1
  Hg  Hg9  1  0.606425  0.940596  0.000000  1
  Hg  Hg10  1  0.609355  0.672621  0.000000  1
  Hg  Hg11  1  0.326392  0.930113  0.000000  1
  Hg  Hg12  1  0.074674  0.396986  0.000000  1
  Hg  Hg13  1  0.832530  0.673882  0.830328  1
  Hg  Hg14  1  0.312185  0.148378  0.832044  1
  Hg  Hg15  1  0.840555  0.168326  0.827954  1
  Hg  Hg16  1  0.832530  0.673882  0.169672  1
  Hg  Hg17  1  0.312185  0.148378  0.167956  1
  Hg  Hg18  1  0.840555  0.168326  0.172046  1
  Hg  Hg19  1  0.664568  0.343659  0.641570  1
  Hg  Hg20  1  0.008831  0.995583  0.646969  1
  Hg  Hg21  1  0.008831  0.995583  0.353031  1
  Hg  Hg22  1  0.664568  0.343659  0.358430  1
  Hg  Hg23  1  0.956706  0.482451  0.738758  1
  Hg  Hg24  1  0.510913  0.475098  0.742649  1
  Hg  Hg25  1  0.522278  0.051033  0.736653  1
  Hg  Hg26  1  0.155693  0.836181  0.704798  1
  Hg  Hg27  1  0.699184  0.857233  0.694085  1
  Hg  Hg28  1  0.152276  0.304598  0.702231  1
  Hg  Hg29  1  0.699184  0.857233  0.305915  1
  Hg  Hg30  1  0.155693  0.836181  0.295202  1
  Hg  Hg31  1  0.152276  0.304598  0.297769  1
  Hg  Hg32  1  0.510913  0.475098  0.257351  1
  Hg  Hg33  1  0.956706  0.482451  0.261242  1
  Hg  Hg34  1  0.522278  0.051033  0.263347  1
  Hg  Hg35  1  0.137646  0.580875  0.500000  1
  Hg  Hg36  1  0.430844  0.557908  0.500000  1
  Hg  Hg37  1  0.455059  0.873471  0.500000  1
