# generated using pymatgen
data_CaPd4
_symmetry_space_group_name_H-M   'P 1'
_cell_length_a   5.32272684
_cell_length_b   5.32272623
_cell_length_c   11.33414942
_cell_angle_alpha   94.62678375
_cell_angle_beta   94.62678473
_cell_angle_gamma   119.94485448
_symmetry_Int_Tables_number   1
_chemical_formula_structural   CaPd4
_chemical_formula_sum   'Ca3 Pd12'
_cell_volume   274.60724360
_cell_formula_units_Z   3
loop_
 _symmetry_equiv_pos_site_id
 _symmetry_equiv_pos_as_xyz
  1  'x, y, z'
loop_
 _atom_site_type_symbol
 _atom_site_label
 _atom_site_symmetry_multiplicity
 _atom_site_fract_x
 _atom_site_fract_y
 _atom_site_fract_z
 _atom_site_occupancy
  Ca  Ca0  1  0.000000  0.000000  0.000000  1
  Ca  Ca1  1  0.130267  0.130267  0.353875  1
  Ca  Ca2  1  0.869733  0.869733  0.646124  1
  Pd  Pd3  1  0.669080  0.330919  0.000000  1
  Pd  Pd4  1  0.330919  0.669080  0.000000  1
  Pd  Pd5  1  0.579503  0.073317  0.203638  1
  Pd  Pd6  1  0.073317  0.579503  0.203638  1
  Pd  Pd7  1  0.568358  0.568358  0.201768  1
  Pd  Pd8  1  0.810096  0.484897  0.410452  1
  Pd  Pd9  1  0.484897  0.810096  0.410452  1
  Pd  Pd10  1  0.515103  0.189904  0.589548  1
  Pd  Pd11  1  0.189904  0.515103  0.589548  1
  Pd  Pd12  1  0.431642  0.431642  0.798232  1
  Pd  Pd13  1  0.926683  0.420497  0.796362  1
  Pd  Pd14  1  0.420497  0.926683  0.796362  1
