# generated using pymatgen
data_Zr4FeGe2B4Ru9
_symmetry_space_group_name_H-M   'P 1'
_cell_length_a   9.33679628
_cell_length_b   9.33679628
_cell_length_c   3.06951000
_cell_angle_alpha   90.00000000
_cell_angle_beta   90.00000000
_cell_angle_gamma   89.59167265
_symmetry_Int_Tables_number   1
_chemical_formula_structural   Zr4FeGe2B4Ru9
_chemical_formula_sum   'Zr4 Fe1 Ge2 B4 Ru9'
_cell_volume   267.58008627
_cell_formula_units_Z   1
loop_
 _symmetry_equiv_pos_site_id
 _symmetry_equiv_pos_as_xyz
  1  'x, y, z'
loop_
 _atom_site_type_symbol
 _atom_site_label
 _atom_site_symmetry_multiplicity
 _atom_site_fract_x
 _atom_site_fract_y
 _atom_site_fract_z
 _atom_site_occupancy
  Zr  Zr0  1  0.671047  0.171047  0.000000  1
  Zr  Zr1  1  0.328953  0.828953  0.000000  1
  Zr  Zr2  1  0.177335  0.322665  0.000000  1
  Zr  Zr3  1  0.822665  0.677335  0.000000  1
  Fe  Fe4  1  0.500000  0.000000  0.500000  1
  Ge  Ge5  1  0.000000  0.000000  0.000000  1
  Ge  Ge6  1  0.500000  0.500000  0.000000  1
  B  B7  1  0.124135  0.624135  0.000000  1
  B  B8  1  0.875865  0.375865  0.000000  1
  B  B9  1  0.615662  0.884338  0.000000  1
  B  B10  1  0.384338  0.115662  0.000000  1
  Ru  Ru11  1  0.219815  0.065321  0.500000  1
  Ru  Ru12  1  0.780185  0.934679  0.500000  1
  Ru  Ru13  1  0.067846  0.786788  0.500000  1
  Ru  Ru14  1  0.713212  0.432154  0.500000  1
  Ru  Ru15  1  0.932154  0.213212  0.500000  1
  Ru  Ru16  1  0.286788  0.567846  0.500000  1
  Ru  Ru17  1  0.565321  0.719815  0.500000  1
  Ru  Ru18  1  0.434679  0.280185  0.500000  1
  Ru  Ru19  1  0.000000  0.500000  0.500000  1
