# generated using pymatgen
data_Sm2Ni4PPt4
_symmetry_space_group_name_H-M   'P 1'
_cell_length_a   8.54864870
_cell_length_b   8.54864749
_cell_length_c   4.09198900
_cell_angle_alpha   90.00000000
_cell_angle_beta   90.00000000
_cell_angle_gamma   143.34245644
_symmetry_Int_Tables_number   1
_chemical_formula_structural   Sm2Ni4PPt4
_chemical_formula_sum   'Sm2 Ni4 P1 Pt4'
_cell_volume   178.53613128
_cell_formula_units_Z   1
loop_
 _symmetry_equiv_pos_site_id
 _symmetry_equiv_pos_as_xyz
  1  'x, y, z'
loop_
 _atom_site_type_symbol
 _atom_site_label
 _atom_site_symmetry_multiplicity
 _atom_site_fract_x
 _atom_site_fract_y
 _atom_site_fract_z
 _atom_site_occupancy
  Sm  Sm0  1  0.616035  0.363580  0.500000  1
  Sm  Sm1  1  0.363580  0.616035  0.500000  1
  Ni  Ni2  1  0.112636  0.887709  0.000000  1
  Ni  Ni3  1  0.887709  0.112636  0.000000  1
  Ni  Ni4  1  0.188823  0.794313  0.500000  1
  Ni  Ni5  1  0.794313  0.188823  0.500000  1
  P  P6  1  0.225119  0.225119  0.000000  1
  Pt  Pt7  1  0.491121  0.987672  0.000000  1
  Pt  Pt8  1  0.987672  0.491121  0.000000  1
  Pt  Pt9  1  0.001430  0.001430  0.500000  1
  Pt  Pt10  1  0.645163  0.645163  0.000000  1
