# generated using pymatgen
data_Cs6NdYI12
_symmetry_space_group_name_H-M   'P 1'
_cell_length_a   10.72794628
_cell_length_b   10.73807824
_cell_length_c   8.87398500
_cell_angle_alpha   90.00000000
_cell_angle_beta   90.00000000
_cell_angle_gamma   89.95984332
_symmetry_Int_Tables_number   1
_chemical_formula_structural   Cs6NdYI12
_chemical_formula_sum   'Cs6 Nd1 Y1 I12'
_cell_volume   1022.26087163
_cell_formula_units_Z   1
loop_
 _symmetry_equiv_pos_site_id
 _symmetry_equiv_pos_as_xyz
  1  'x, y, z'
loop_
 _atom_site_type_symbol
 _atom_site_label
 _atom_site_symmetry_multiplicity
 _atom_site_fract_x
 _atom_site_fract_y
 _atom_site_fract_z
 _atom_site_occupancy
  Cs  Cs0  1  0.000000  0.000000  0.500000  1
  Cs  Cs1  1  0.000000  0.000000  0.000000  1
  Cs  Cs2  1  0.234785  0.587131  0.500000  1
  Cs  Cs3  1  0.765215  0.412869  0.500000  1
  Cs  Cs4  1  0.412806  0.231582  0.000000  1
  Cs  Cs5  1  0.587194  0.768418  0.000000  1
  Nd  Nd6  1  0.000000  0.500000  0.000000  1
  Y  Y7  1  0.500000  0.000000  0.500000  1
  I  I8  1  0.694143  0.058704  0.743242  1
  I  I9  1  0.305857  0.941296  0.743242  1
  I  I10  1  0.939600  0.699314  0.249094  1
  I  I11  1  0.060400  0.300686  0.249094  1
  I  I12  1  0.305857  0.941296  0.256758  1
  I  I13  1  0.694143  0.058704  0.256758  1
  I  I14  1  0.060400  0.300686  0.750906  1
  I  I15  1  0.939600  0.699314  0.750906  1
  I  I16  1  0.569739  0.725148  0.500000  1
  I  I17  1  0.430261  0.274852  0.500000  1
  I  I18  1  0.282496  0.570659  0.000000  1
  I  I19  1  0.717504  0.429341  0.000000  1
