# generated using pymatgen
data_Dy16InHg3Ru3Rh
_symmetry_space_group_name_H-M   'P 1'
_cell_length_a   9.64577988
_cell_length_b   9.61847422
_cell_length_c   9.64578068
_cell_angle_alpha   59.41069616
_cell_angle_beta   59.49231141
_cell_angle_gamma   59.41069770
_symmetry_Int_Tables_number   1
_chemical_formula_structural   Dy16InHg3Ru3Rh
_chemical_formula_sum   'Dy16 In1 Hg3 Ru3 Rh1'
_cell_volume   624.70582733
_cell_formula_units_Z   1
loop_
 _symmetry_equiv_pos_site_id
 _symmetry_equiv_pos_as_xyz
  1  'x, y, z'
loop_
 _atom_site_type_symbol
 _atom_site_label
 _atom_site_symmetry_multiplicity
 _atom_site_fract_x
 _atom_site_fract_y
 _atom_site_fract_z
 _atom_site_occupancy
  Dy  Dy0  1  0.690062  0.310659  0.310448  1
  Dy  Dy1  1  0.692781  0.689336  0.309837  1
  Dy  Dy2  1  0.310146  0.688566  0.310146  1
  Dy  Dy3  1  0.935270  0.939665  0.561559  1
  Dy  Dy4  1  0.149869  0.151288  0.545141  1
  Dy  Dy5  1  0.560866  0.941145  0.560866  1
  Dy  Dy6  1  0.148629  0.150239  0.148629  1
  Dy  Dy7  1  0.310448  0.310659  0.690062  1
  Dy  Dy8  1  0.940141  0.560357  0.559799  1
  Dy  Dy9  1  0.559799  0.560357  0.940141  1
  Dy  Dy10  1  0.561559  0.939665  0.935270  1
  Dy  Dy11  1  0.938443  0.561007  0.938443  1
  Dy  Dy12  1  0.151379  0.542892  0.151379  1
  Dy  Dy13  1  0.309837  0.689336  0.692781  1
  Dy  Dy14  1  0.690651  0.311616  0.690651  1
  Dy  Dy15  1  0.545141  0.151288  0.149869  1
  In  In16  1  0.920344  0.920626  0.920344  1
  Hg  Hg17  1  0.916215  0.916199  0.253779  1
  Hg  Hg18  1  0.253779  0.916199  0.916215  1
  Hg  Hg19  1  0.916421  0.254071  0.916421  1
  Ru  Ru20  1  0.360909  0.359111  0.360909  1
  Ru  Ru21  1  0.922041  0.356222  0.357975  1
  Ru  Ru22  1  0.357975  0.356222  0.922041  1
  Rh  Rh23  1  0.357296  0.923277  0.357296  1
