# generated using pymatgen
data_Ac6ZnSn5Ir6
_symmetry_space_group_name_H-M   'P 1'
_cell_length_a   7.71216136
_cell_length_b   7.71216196
_cell_length_c   8.68247571
_cell_angle_alpha   90.01133894
_cell_angle_beta   89.98865929
_cell_angle_gamma   120.40064486
_symmetry_Int_Tables_number   1
_chemical_formula_structural   Ac6ZnSn5Ir6
_chemical_formula_sum   'Ac6 Zn1 Sn5 Ir6'
_cell_volume   445.40894413
_cell_formula_units_Z   1
loop_
 _symmetry_equiv_pos_site_id
 _symmetry_equiv_pos_as_xyz
  1  'x, y, z'
loop_
 _atom_site_type_symbol
 _atom_site_label
 _atom_site_symmetry_multiplicity
 _atom_site_fract_x
 _atom_site_fract_y
 _atom_site_fract_z
 _atom_site_occupancy
  Ac  Ac0  1  0.416975  0.005333  0.252314  1
  Ac  Ac1  1  0.577860  0.577887  0.745690  1
  Ac  Ac2  1  0.577887  0.577860  0.254310  1
  Ac  Ac3  1  0.005289  0.417038  0.252373  1
  Ac  Ac4  1  0.005333  0.416975  0.747686  1
  Ac  Ac5  1  0.417038  0.005289  0.747627  1
  Zn  Zn6  1  0.222796  0.222796  0.500000  1
  Sn  Sn7  1  0.239287  0.239287  0.000000  1
  Sn  Sn8  1  0.752602  0.995207  0.999978  1
  Sn  Sn9  1  0.002689  0.765333  0.499962  1
  Sn  Sn10  1  0.765333  0.002689  0.500038  1
  Sn  Sn11  1  0.995207  0.752602  0.000022  1
  Ir  Ir12  1  0.690040  0.340224  0.499915  1
  Ir  Ir13  1  0.665007  0.332881  0.000079  1
  Ir  Ir14  1  0.332881  0.665007  0.999921  1
  Ir  Ir15  1  0.340224  0.690040  0.500085  1
  Ir  Ir16  1  0.996774  0.996777  0.751603  1
  Ir  Ir17  1  0.996777  0.996774  0.248397  1
