# generated using pymatgen
data_LaTl2Br5
_symmetry_space_group_name_H-M   'P 1'
_cell_length_a   8.79732600
_cell_length_b   9.37596300
_cell_length_c   14.13978800
_cell_angle_alpha   90.00000000
_cell_angle_beta   90.00000000
_cell_angle_gamma   90.00000000
_symmetry_Int_Tables_number   1
_chemical_formula_structural   LaTl2Br5
_chemical_formula_sum   'La4 Tl8 Br20'
_cell_volume   1166.29783300
_cell_formula_units_Z   4
loop_
 _symmetry_equiv_pos_site_id
 _symmetry_equiv_pos_as_xyz
  1  'x, y, z'
loop_
 _atom_site_type_symbol
 _atom_site_label
 _atom_site_symmetry_multiplicity
 _atom_site_fract_x
 _atom_site_fract_y
 _atom_site_fract_z
 _atom_site_occupancy
  La  La0  1  0.926711  0.750000  0.504507  1
  La  La1  1  0.073289  0.250000  0.495493  1
  La  La2  1  0.426711  0.250000  0.995493  1
  La  La3  1  0.573289  0.750000  0.004507  1
  Tl  Tl4  1  0.947515  0.004644  0.827573  1
  Tl  Tl5  1  0.052485  0.995356  0.172427  1
  Tl  Tl6  1  0.447515  0.995356  0.672427  1
  Tl  Tl7  1  0.052485  0.504644  0.172427  1
  Tl  Tl8  1  0.552485  0.004644  0.327573  1
  Tl  Tl9  1  0.947515  0.495356  0.827573  1
  Tl  Tl10  1  0.552485  0.495356  0.327573  1
  Tl  Tl11  1  0.447515  0.504644  0.672427  1
  Br  Br12  1  0.123249  0.750000  0.676989  1
  Br  Br13  1  0.876751  0.250000  0.323011  1
  Br  Br14  1  0.623249  0.250000  0.823011  1
  Br  Br15  1  0.376751  0.750000  0.176989  1
  Br  Br16  1  0.836200  0.043560  0.575527  1
  Br  Br17  1  0.163800  0.956440  0.424473  1
  Br  Br18  1  0.336200  0.956440  0.924473  1
  Br  Br19  1  0.163800  0.543560  0.424473  1
  Br  Br20  1  0.663800  0.043560  0.075527  1
  Br  Br21  1  0.836200  0.456440  0.575527  1
  Br  Br22  1  0.663800  0.456440  0.075527  1
  Br  Br23  1  0.336200  0.543560  0.924473  1
  Br  Br24  1  0.581452  0.750000  0.509589  1
  Br  Br25  1  0.418548  0.250000  0.490411  1
  Br  Br26  1  0.081452  0.250000  0.990411  1
  Br  Br27  1  0.918548  0.750000  0.009589  1
  Br  Br28  1  0.660109  0.750000  0.798874  1
  Br  Br29  1  0.339891  0.250000  0.201126  1
  Br  Br30  1  0.160109  0.250000  0.701126  1
  Br  Br31  1  0.839891  0.750000  0.298874  1
