# generated using pymatgen
data_Li4HfZr7(AsO4)12
_symmetry_space_group_name_H-M   'P 1'
_cell_length_a   9.33405545
_cell_length_b   9.29743924
_cell_length_c   15.89077978
_cell_angle_alpha   54.92094432
_cell_angle_beta   89.97621510
_cell_angle_gamma   90.00822550
_symmetry_Int_Tables_number   1
_chemical_formula_structural   Li4HfZr7(AsO4)12
_chemical_formula_sum   'Li4 Hf1 Zr7 As12 O48'
_cell_volume   1128.55613644
_cell_formula_units_Z   1
loop_
 _symmetry_equiv_pos_site_id
 _symmetry_equiv_pos_as_xyz
  1  'x, y, z'
loop_
 _atom_site_type_symbol
 _atom_site_label
 _atom_site_symmetry_multiplicity
 _atom_site_fract_x
 _atom_site_fract_y
 _atom_site_fract_z
 _atom_site_occupancy
  Li  Li0  1  0.723698  0.975737  0.817388  1
  Li  Li1  1  0.777090  0.977497  0.315328  1
  Li  Li2  1  0.276944  0.023598  0.182946  1
  Li  Li3  1  0.223514  0.023443  0.683560  1
  Hf  Hf4  1  0.960204  0.142328  0.111595  1
  Zr  Zr5  1  0.540066  0.142639  0.611428  1
  Zr  Zr6  1  0.039863  0.857134  0.888937  1
  Zr  Zr7  1  0.460328  0.857760  0.388354  1
  Zr  Zr8  1  0.522760  0.370496  0.879179  1
  Zr  Zr9  1  0.977705  0.370706  0.378545  1
  Zr  Zr10  1  0.476811  0.629231  0.121186  1
  Zr  Zr11  1  0.022225  0.629533  0.620869  1
  As  As12  1  0.603371  0.967771  0.144047  1
  As  As13  1  0.898199  0.968050  0.644276  1
  As  As14  1  0.398381  0.031985  0.855800  1
  As  As15  1  0.101105  0.032446  0.354411  1
  As  As16  1  0.877135  0.244981  0.854879  1
  As  As17  1  0.623808  0.245731  0.353322  1
  As  As18  1  0.123168  0.756787  0.146248  1
  As  As19  1  0.376132  0.754971  0.646346  1
  As  As20  1  0.752524  0.540055  0.990136  1
  As  As21  1  0.748081  0.542264  0.488716  1
  As  As22  1  0.246707  0.456203  0.011916  1
  As  As23  1  0.252217  0.457941  0.510993  1
  O  O24  1  0.920031  0.169825  0.978977  1
  O  O25  1  0.582279  0.168985  0.477903  1
  O  O26  1  0.082524  0.831271  0.022062  1
  O  O27  1  0.418045  0.831472  0.521880  1
  O  O28  1  0.766535  0.005716  0.179695  1
  O  O29  1  0.736319  0.005390  0.681397  1
  O  O30  1  0.236442  0.994600  0.818823  1
  O  O31  1  0.263680  0.994120  0.318670  1
  O  O32  1  0.877403  0.379885  0.061306  1
  O  O33  1  0.621771  0.383988  0.559865  1
  O  O34  1  0.122106  0.616230  0.940320  1
  O  O35  1  0.378218  0.616542  0.439735  1
  O  O36  1  0.093977  0.923115  0.161905  1
  O  O37  1  0.404176  0.920316  0.662822  1
  O  O38  1  0.904006  0.079111  0.838638  1
  O  O39  1  0.596064  0.080281  0.336864  1
  O  O40  1  0.974495  0.068642  0.264916  1
  O  O41  1  0.526143  0.067795  0.767209  1
  O  O42  1  0.025555  0.932797  0.732905  1
  O  O43  1  0.475844  0.932916  0.232573  1
  O  O44  1  0.167090  0.251054  0.083079  1
  O  O45  1  0.329952  0.252029  0.582466  1
  O  O46  1  0.830133  0.746315  0.918585  1
  O  O47  1  0.670831  0.748566  0.417299  1
  O  O48  1  0.547935  0.151394  0.031403  1
  O  O49  1  0.952385  0.152241  0.531305  1
  O  O50  1  0.451813  0.847091  0.968717  1
  O  O51  1  0.046095  0.848261  0.467098  1
  O  O52  1  0.698516  0.288678  0.833451  1
  O  O53  1  0.802270  0.289849  0.331855  1
  O  O54  1  0.301830  0.713689  0.167040  1
  O  O55  1  0.197429  0.711829  0.666918  1
  O  O56  1  0.671194  0.511483  0.905201  1
  O  O57  1  0.827754  0.511163  0.404367  1
  O  O58  1  0.327044  0.487553  0.096023  1
  O  O59  1  0.172310  0.489153  0.595252  1
  O  O60  1  0.384254  0.209675  0.860086  1
  O  O61  1  0.114917  0.210106  0.358761  1
  O  O62  1  0.616130  0.789942  0.139874  1
  O  O63  1  0.884241  0.790352  0.639860  1
  O  O64  1  0.483716  0.581225  0.726511  1
  O  O65  1  0.016034  0.582359  0.226201  1
  O  O66  1  0.515368  0.419097  0.273903  1
  O  O67  1  0.984073  0.419074  0.773688  1
  O  O68  1  0.361008  0.461103  0.927221  1
  O  O69  1  0.138036  0.463432  0.426081  1
  O  O70  1  0.637962  0.535455  0.074682  1
  O  O71  1  0.862027  0.535541  0.574206  1
