# generated using pymatgen
data_CeInCu3Pd2
_symmetry_space_group_name_H-M   'P 1'
_cell_length_a   5.06881600
_cell_length_b   8.44206500
_cell_length_c   11.04458500
_cell_angle_alpha   90.00000000
_cell_angle_beta   90.00000000
_cell_angle_gamma   90.00000000
_symmetry_Int_Tables_number   1
_chemical_formula_structural   CeInCu3Pd2
_chemical_formula_sum   'Ce4 In4 Cu12 Pd8'
_cell_volume   472.61186455
_cell_formula_units_Z   4
loop_
 _symmetry_equiv_pos_site_id
 _symmetry_equiv_pos_as_xyz
  1  'x, y, z'
loop_
 _atom_site_type_symbol
 _atom_site_label
 _atom_site_symmetry_multiplicity
 _atom_site_fract_x
 _atom_site_fract_y
 _atom_site_fract_z
 _atom_site_occupancy
  Ce  Ce0  1  0.750000  0.749895  0.435453  1
  Ce  Ce1  1  0.250000  0.250105  0.564547  1
  Ce  Ce2  1  0.250000  0.750105  0.935453  1
  Ce  Ce3  1  0.750000  0.249895  0.064547  1
  In  In4  1  0.750000  0.859583  0.142190  1
  In  In5  1  0.250000  0.140417  0.857810  1
  In  In6  1  0.250000  0.640417  0.642190  1
  In  In7  1  0.750000  0.359583  0.357810  1
  Cu  Cu8  1  0.499615  0.930948  0.692462  1
  Cu  Cu9  1  0.500385  0.069052  0.307538  1
  Cu  Cu10  1  0.500385  0.569052  0.192462  1
  Cu  Cu11  1  0.999615  0.069052  0.307538  1
  Cu  Cu12  1  0.499615  0.430948  0.807538  1
  Cu  Cu13  1  0.000385  0.930948  0.692462  1
  Cu  Cu14  1  0.000385  0.430948  0.807538  1
  Cu  Cu15  1  0.999615  0.569052  0.192462  1
  Cu  Cu16  1  0.750000  0.683519  0.754812  1
  Cu  Cu17  1  0.250000  0.316481  0.245188  1
  Cu  Cu18  1  0.250000  0.816481  0.254812  1
  Cu  Cu19  1  0.750000  0.183519  0.745188  1
  Pd  Pd20  1  0.750000  0.592360  0.984346  1
  Pd  Pd21  1  0.250000  0.407640  0.015654  1
  Pd  Pd22  1  0.250000  0.907640  0.484346  1
  Pd  Pd23  1  0.750000  0.092360  0.515654  1
  Pd  Pd24  1  0.750000  0.947020  0.904354  1
  Pd  Pd25  1  0.250000  0.052980  0.095646  1
  Pd  Pd26  1  0.250000  0.552980  0.404354  1
  Pd  Pd27  1  0.750000  0.447020  0.595646  1
