# generated using pymatgen
data_Tb10IrRu3Rh2
_symmetry_space_group_name_H-M   'P 1'
_cell_length_a   10.91722901
_cell_length_b   10.91479400
_cell_length_c   6.42780008
_cell_angle_alpha   90.00000000
_cell_angle_beta   89.95623780
_cell_angle_gamma   90.00000000
_symmetry_Int_Tables_number   1
_chemical_formula_structural   Tb10IrRu3Rh2
_chemical_formula_sum   'Tb20 Ir2 Ru6 Rh4'
_cell_volume   765.93197096
_cell_formula_units_Z   2
loop_
 _symmetry_equiv_pos_site_id
 _symmetry_equiv_pos_as_xyz
  1  'x, y, z'
loop_
 _atom_site_type_symbol
 _atom_site_label
 _atom_site_symmetry_multiplicity
 _atom_site_fract_x
 _atom_site_fract_y
 _atom_site_fract_z
 _atom_site_occupancy
  Tb  Tb0  1  0.294103  0.087560  0.378865  1
  Tb  Tb1  1  0.294103  0.912440  0.878865  1
  Tb  Tb2  1  0.708291  0.085883  0.878929  1
  Tb  Tb3  1  0.708291  0.914117  0.378929  1
  Tb  Tb4  1  0.587360  0.793922  0.878614  1
  Tb  Tb5  1  0.587360  0.206078  0.378614  1
  Tb  Tb6  1  0.412893  0.793896  0.379239  1
  Tb  Tb7  1  0.412893  0.206104  0.879239  1
  Tb  Tb8  1  0.206802  0.414294  0.620350  1
  Tb  Tb9  1  0.206802  0.585706  0.120350  1
  Tb  Tb10  1  0.794739  0.411423  0.121627  1
  Tb  Tb11  1  0.794739  0.588577  0.621627  1
  Tb  Tb12  1  0.912659  0.706971  0.119927  1
  Tb  Tb13  1  0.912659  0.293029  0.619927  1
  Tb  Tb14  1  0.085984  0.707209  0.622305  1
  Tb  Tb15  1  0.085984  0.292791  0.122305  1
  Tb  Tb16  1  0.997899  0.000746  0.499974  1
  Tb  Tb17  1  0.997899  0.999254  0.999974  1
  Tb  Tb18  1  0.499579  0.500178  0.000053  1
  Tb  Tb19  1  0.499579  0.499822  0.500053  1
  Ir  Ir20  1  0.347719  0.346794  0.250311  1
  Ir  Ir21  1  0.347719  0.653206  0.750311  1
  Ru  Ru22  1  0.847661  0.152790  0.249640  1
  Ru  Ru23  1  0.847661  0.847210  0.749640  1
  Ru  Ru24  1  0.499646  0.000019  0.122832  1
  Ru  Ru25  1  0.499646  0.999981  0.622832  1
  Ru  Ru26  1  0.999246  0.500309  0.877373  1
  Ru  Ru27  1  0.999246  0.499691  0.377373  1
  Rh  Rh28  1  0.153457  0.152856  0.750251  1
  Rh  Rh29  1  0.153457  0.847144  0.250251  1
  Rh  Rh30  1  0.651962  0.348636  0.749712  1
  Rh  Rh31  1  0.651962  0.651364  0.249712  1
