# generated using pymatgen
data_Y3Zr(P3Rh4)2
_symmetry_space_group_name_H-M   'P 1'
_cell_length_a   3.94743600
_cell_length_b   11.24290100
_cell_length_c   12.94000400
_cell_angle_alpha   90.00000000
_cell_angle_beta   90.00000000
_cell_angle_gamma   90.00000000
_symmetry_Int_Tables_number   1
_chemical_formula_structural   Y3Zr(P3Rh4)2
_chemical_formula_sum   'Y6 Zr2 P12 Rh16'
_cell_volume   574.28555757
_cell_formula_units_Z   2
loop_
 _symmetry_equiv_pos_site_id
 _symmetry_equiv_pos_as_xyz
  1  'x, y, z'
loop_
 _atom_site_type_symbol
 _atom_site_label
 _atom_site_symmetry_multiplicity
 _atom_site_fract_x
 _atom_site_fract_y
 _atom_site_fract_z
 _atom_site_occupancy
  Y  Y0  1  0.000000  0.500000  0.522644  1
  Y  Y1  1  0.500000  0.000000  0.477356  1
  Y  Y2  1  0.500000  0.819632  0.202022  1
  Y  Y3  1  0.500000  0.180368  0.202022  1
  Y  Y4  1  0.000000  0.680368  0.797978  1
  Y  Y5  1  0.000000  0.319632  0.797978  1
  Zr  Zr6  1  0.500000  0.500000  0.158242  1
  Zr  Zr7  1  0.000000  0.000000  0.841758  1
  P  P8  1  0.500000  0.500000  0.877950  1
  P  P9  1  0.000000  0.000000  0.122050  1
  P  P10  1  0.500000  0.500000  0.359051  1
  P  P11  1  0.000000  0.000000  0.640949  1
  P  P12  1  0.500000  0.313346  0.616342  1
  P  P13  1  0.500000  0.686654  0.616342  1
  P  P14  1  0.000000  0.186654  0.383658  1
  P  P15  1  0.000000  0.813346  0.383658  1
  P  P16  1  0.500000  0.841996  0.888594  1
  P  P17  1  0.500000  0.158004  0.888594  1
  P  P18  1  0.000000  0.658004  0.111406  1
  P  P19  1  0.000000  0.341996  0.111406  1
  Rh  Rh20  1  0.500000  0.500000  0.699826  1
  Rh  Rh21  1  0.000000  0.000000  0.300174  1
  Rh  Rh22  1  0.000000  0.500000  0.983632  1
  Rh  Rh23  1  0.500000  0.000000  0.016368  1
  Rh  Rh24  1  0.500000  0.331534  0.988723  1
  Rh  Rh25  1  0.500000  0.668466  0.988723  1
  Rh  Rh26  1  0.000000  0.168466  0.011277  1
  Rh  Rh27  1  0.000000  0.831534  0.011277  1
  Rh  Rh28  1  0.500000  0.291904  0.432389  1
  Rh  Rh29  1  0.500000  0.708096  0.432389  1
  Rh  Rh30  1  0.000000  0.208096  0.567611  1
  Rh  Rh31  1  0.000000  0.791904  0.567611  1
  Rh  Rh32  1  0.500000  0.872984  0.705593  1
  Rh  Rh33  1  0.500000  0.127016  0.705593  1
  Rh  Rh34  1  0.000000  0.627016  0.294407  1
  Rh  Rh35  1  0.000000  0.372984  0.294407  1
