# generated using pymatgen
data_Y20IrRu2Rh9
_symmetry_space_group_name_H-M   'P 1'
_cell_length_a   10.91827908
_cell_length_b   10.91663401
_cell_length_c   6.43152004
_cell_angle_alpha   90.00178284
_cell_angle_beta   90.01318184
_cell_angle_gamma   90.00446077
_symmetry_Int_Tables_number   1
_chemical_formula_structural   Y20IrRu2Rh9
_chemical_formula_sum   'Y20 Ir1 Ru2 Rh9'
_cell_volume   766.57836110
_cell_formula_units_Z   1
loop_
 _symmetry_equiv_pos_site_id
 _symmetry_equiv_pos_as_xyz
  1  'x, y, z'
loop_
 _atom_site_type_symbol
 _atom_site_label
 _atom_site_symmetry_multiplicity
 _atom_site_fract_x
 _atom_site_fract_y
 _atom_site_fract_z
 _atom_site_occupancy
  Y  Y0  1  0.294922  0.086460  0.378422  1
  Y  Y1  1  0.294960  0.911618  0.877874  1
  Y  Y2  1  0.705200  0.086547  0.878285  1
  Y  Y3  1  0.704993  0.913435  0.378245  1
  Y  Y4  1  0.584911  0.794067  0.878027  1
  Y  Y5  1  0.586708  0.205247  0.378550  1
  Y  Y6  1  0.412804  0.794000  0.379777  1
  Y  Y7  1  0.413525  0.205053  0.878309  1
  Y  Y8  1  0.210148  0.413033  0.621782  1
  Y  Y9  1  0.210138  0.589372  0.120120  1
  Y  Y10  1  0.790482  0.411126  0.121128  1
  Y  Y11  1  0.790655  0.588806  0.621326  1
  Y  Y12  1  0.911306  0.709411  0.121124  1
  Y  Y13  1  0.911171  0.290505  0.621599  1
  Y  Y14  1  0.090727  0.709305  0.621931  1
  Y  Y15  1  0.088803  0.290710  0.121363  1
  Y  Y16  1  0.999986  0.999869  0.498560  1
  Y  Y17  1  0.000119  0.000046  0.998727  1
  Y  Y18  1  0.499673  0.500353  0.998471  1
  Y  Y19  1  0.499653  0.500212  0.498679  1
  Ir  Ir20  1  0.345339  0.651782  0.750016  1
  Ru  Ru21  1  0.500318  0.000643  0.126233  1
  Ru  Ru22  1  0.500304  0.000741  0.625853  1
  Rh  Rh23  1  0.848277  0.154593  0.250374  1
  Rh  Rh24  1  0.848086  0.845463  0.750094  1
  Rh  Rh25  1  0.151705  0.154592  0.750536  1
  Rh  Rh26  1  0.151181  0.846056  0.250377  1
  Rh  Rh27  1  0.654596  0.348255  0.750285  1
  Rh  Rh28  1  0.655266  0.651658  0.250514  1
  Rh  Rh29  1  0.345443  0.347589  0.249980  1
  Rh  Rh30  1  0.999134  0.499644  0.877039  1
  Rh  Rh31  1  0.999468  0.499808  0.376405  1
