# generated using pymatgen
data_Nd16AlCd3Ir4
_symmetry_space_group_name_H-M   'P 1'
_cell_length_a   9.92465235
_cell_length_b   9.92465234
_cell_length_c   9.92465324
_cell_angle_alpha   60.02053440
_cell_angle_beta   60.02053027
_cell_angle_gamma   60.02053575
_symmetry_Int_Tables_number   1
_chemical_formula_structural   Nd16AlCd3Ir4
_chemical_formula_sum   'Nd16 Al1 Cd3 Ir4'
_cell_volume   691.56508573
_cell_formula_units_Z   1
loop_
 _symmetry_equiv_pos_site_id
 _symmetry_equiv_pos_as_xyz
  1  'x, y, z'
loop_
 _atom_site_type_symbol
 _atom_site_label
 _atom_site_symmetry_multiplicity
 _atom_site_fract_x
 _atom_site_fract_y
 _atom_site_fract_z
 _atom_site_occupancy
  Nd  Nd0  1  0.347777  0.347777  0.347777  1
  Nd  Nd1  1  0.350476  0.350476  0.951282  1
  Nd  Nd2  1  0.350476  0.951282  0.350476  1
  Nd  Nd3  1  0.951282  0.350476  0.350476  1
  Nd  Nd4  1  0.809077  0.190279  0.190279  1
  Nd  Nd5  1  0.191973  0.807192  0.807192  1
  Nd  Nd6  1  0.190279  0.809077  0.190279  1
  Nd  Nd7  1  0.807192  0.191973  0.807192  1
  Nd  Nd8  1  0.190279  0.190279  0.809077  1
  Nd  Nd9  1  0.807192  0.807192  0.191973  1
  Nd  Nd10  1  0.937401  0.561806  0.561806  1
  Nd  Nd11  1  0.560895  0.939207  0.939207  1
  Nd  Nd12  1  0.561806  0.937401  0.561806  1
  Nd  Nd13  1  0.939207  0.560895  0.939207  1
  Nd  Nd14  1  0.561806  0.561806  0.937401  1
  Nd  Nd15  1  0.939207  0.939207  0.560895  1
  Al  Al16  1  0.579430  0.579430  0.579430  1
  Cd  Cd17  1  0.579873  0.579873  0.262851  1
  Cd  Cd18  1  0.579873  0.262851  0.579873  1
  Cd  Cd19  1  0.262851  0.579873  0.579873  1
  Ir  Ir20  1  0.141971  0.141971  0.141971  1
  Ir  Ir21  1  0.142187  0.142187  0.575302  1
  Ir  Ir22  1  0.142187  0.575302  0.142187  1
  Ir  Ir23  1  0.575302  0.142187  0.142187  1
