# generated using pymatgen
data_CsLi4TaO5
_symmetry_space_group_name_H-M   'P 1'
_cell_length_a   5.93585775
_cell_length_b   5.96027422
_cell_length_c   9.36250239
_cell_angle_alpha   94.33111838
_cell_angle_beta   99.80413041
_cell_angle_gamma   119.65633272
_symmetry_Int_Tables_number   1
_chemical_formula_structural   CsLi4TaO5
_chemical_formula_sum   'Cs2 Li8 Ta2 O10'
_cell_volume   278.66483508
_cell_formula_units_Z   2
loop_
 _symmetry_equiv_pos_site_id
 _symmetry_equiv_pos_as_xyz
  1  'x, y, z'
loop_
 _atom_site_type_symbol
 _atom_site_label
 _atom_site_symmetry_multiplicity
 _atom_site_fract_x
 _atom_site_fract_y
 _atom_site_fract_z
 _atom_site_occupancy
  Cs  Cs0  1  0.618467  0.780721  0.403932  1
  Cs  Cs1  1  0.381533  0.219279  0.596068  1
  Li  Li2  1  0.337945  0.986815  0.888769  1
  Li  Li3  1  0.662055  0.013185  0.111231  1
  Li  Li4  1  0.604664  0.406991  0.075394  1
  Li  Li5  1  0.906495  0.409313  0.318199  1
  Li  Li6  1  0.099594  0.418843  0.092750  1
  Li  Li7  1  0.395336  0.593009  0.924606  1
  Li  Li8  1  0.093505  0.590687  0.681801  1
  Li  Li9  1  0.900406  0.581157  0.907250  1
  Ta  Ta10  1  0.160174  0.983215  0.171658  1
  Ta  Ta11  1  0.839826  0.016785  0.828342  1
  O  O12  1  0.781596  0.773637  0.021786  1
  O  O13  1  0.539645  0.230149  0.248568  1
  O  O14  1  0.218404  0.226363  0.978214  1
  O  O15  1  0.258575  0.766869  0.041225  1
  O  O16  1  0.460355  0.769851  0.751432  1
  O  O17  1  0.914834  0.235176  0.686816  1
  O  O18  1  0.044289  0.212849  0.251889  1
  O  O19  1  0.741425  0.233131  0.958775  1
  O  O20  1  0.085166  0.764824  0.313184  1
  O  O21  1  0.955711  0.787151  0.748111  1
