# generated using pymatgen
data_Yb6Zn17AsPt6
_symmetry_space_group_name_H-M   'P 1'
_cell_length_a   9.06125337
_cell_length_b   9.06125365
_cell_length_c   9.06125400
_cell_angle_alpha   60.00000604
_cell_angle_beta   60.00000499
_cell_angle_gamma   60.00000227
_symmetry_Int_Tables_number   1
_chemical_formula_structural   Yb6Zn17AsPt6
_chemical_formula_sum   'Yb6 Zn17 As1 Pt6'
_cell_volume   526.07772368
_cell_formula_units_Z   1
loop_
 _symmetry_equiv_pos_site_id
 _symmetry_equiv_pos_as_xyz
  1  'x, y, z'
loop_
 _atom_site_type_symbol
 _atom_site_label
 _atom_site_symmetry_multiplicity
 _atom_site_fract_x
 _atom_site_fract_y
 _atom_site_fract_z
 _atom_site_occupancy
  Yb  Yb0  1  0.722610  0.277390  0.277390  1
  Yb  Yb1  1  0.277390  0.722610  0.722610  1
  Yb  Yb2  1  0.277390  0.722610  0.277390  1
  Yb  Yb3  1  0.722610  0.277390  0.722610  1
  Yb  Yb4  1  0.277390  0.277390  0.722610  1
  Yb  Yb5  1  0.722610  0.722610  0.277390  1
  Zn  Zn6  1  0.125524  0.125524  0.125524  1
  Zn  Zn7  1  0.874476  0.874476  0.874476  1
  Zn  Zn8  1  0.125524  0.125524  0.623427  1
  Zn  Zn9  1  0.125524  0.623427  0.125524  1
  Zn  Zn10  1  0.874476  0.874476  0.376573  1
  Zn  Zn11  1  0.874476  0.376573  0.874476  1
  Zn  Zn12  1  0.623427  0.125524  0.125524  1
  Zn  Zn13  1  0.376573  0.874476  0.874476  1
  Zn  Zn14  1  0.333387  0.333387  0.333387  1
  Zn  Zn15  1  0.666613  0.666613  0.666613  1
  Zn  Zn16  1  0.333387  0.333387  0.999841  1
  Zn  Zn17  1  0.333387  0.999841  0.333387  1
  Zn  Zn18  1  0.666613  0.666613  0.000159  1
  Zn  Zn19  1  0.666613  0.000159  0.666613  1
  Zn  Zn20  1  0.999841  0.333387  0.333387  1
  Zn  Zn21  1  0.000159  0.666613  0.666613  1
  Zn  Zn22  1  0.000000  0.000000  0.000000  1
  As  As23  1  0.500000  0.500000  0.500000  1
  Pt  Pt24  1  0.500000  0.000000  0.000000  1
  Pt  Pt25  1  0.000000  0.500000  0.500000  1
  Pt  Pt26  1  0.000000  0.500000  0.000000  1
  Pt  Pt27  1  0.500000  0.000000  0.500000  1
  Pt  Pt28  1  0.000000  0.000000  0.500000  1
  Pt  Pt29  1  0.500000  0.500000  0.000000  1
