# generated using pymatgen
data_Eu10AgHg2Ir3
_symmetry_space_group_name_H-M   'P 1'
_cell_length_a   9.30792893
_cell_length_b   9.30792893
_cell_length_c   9.31427800
_cell_angle_alpha   127.77856954
_cell_angle_beta   127.77856953
_cell_angle_gamma   76.93486012
_symmetry_Int_Tables_number   1
_chemical_formula_structural   Eu10AgHg2Ir3
_chemical_formula_sum   'Eu10 Ag1 Hg2 Ir3'
_cell_volume   489.52208150
_cell_formula_units_Z   1
loop_
 _symmetry_equiv_pos_site_id
 _symmetry_equiv_pos_as_xyz
  1  'x, y, z'
loop_
 _atom_site_type_symbol
 _atom_site_label
 _atom_site_symmetry_multiplicity
 _atom_site_fract_x
 _atom_site_fract_y
 _atom_site_fract_z
 _atom_site_occupancy
  Eu  Eu0  1  0.505281  0.507595  0.012876  1
  Eu  Eu1  1  0.992405  0.994719  0.987124  1
  Eu  Eu2  1  0.544023  0.029031  0.838901  1
  Eu  Eu3  1  0.205122  0.690131  0.161099  1
  Eu  Eu4  1  0.015705  0.221366  0.500000  1
  Eu  Eu5  1  0.707101  0.536171  0.500000  1
  Eu  Eu6  1  0.470969  0.955977  0.161099  1
  Eu  Eu7  1  0.809869  0.294878  0.838901  1
  Eu  Eu8  1  0.963829  0.792899  0.500000  1
  Eu  Eu9  1  0.278634  0.484295  0.500000  1
  Ag  Ag10  1  0.370638  0.129362  0.500000  1
  Hg  Hg11  1  0.253535  0.246465  0.000000  1
  Hg  Hg12  1  0.753535  0.746465  0.000000  1
  Ir  Ir13  1  0.138063  0.638515  0.776579  1
  Ir  Ir14  1  0.861485  0.361937  0.223421  1
  Ir  Ir15  1  0.629805  0.870195  0.500000  1
