# generated using pymatgen
data_Cs4CuPtSe32
_symmetry_space_group_name_H-M   'P 1'
_cell_length_a   12.98548600
_cell_length_b   12.98548600
_cell_length_c   7.26210300
_cell_angle_alpha   90.00000000
_cell_angle_beta   90.00000000
_cell_angle_gamma   90.00000000
_symmetry_Int_Tables_number   1
_chemical_formula_structural   Cs4CuPtSe32
_chemical_formula_sum   'Cs4 Cu1 Pt1 Se32'
_cell_volume   1224.55648057
_cell_formula_units_Z   1
loop_
 _symmetry_equiv_pos_site_id
 _symmetry_equiv_pos_as_xyz
  1  'x, y, z'
loop_
 _atom_site_type_symbol
 _atom_site_label
 _atom_site_symmetry_multiplicity
 _atom_site_fract_x
 _atom_site_fract_y
 _atom_site_fract_z
 _atom_site_occupancy
  Cs  Cs0  1  0.500000  0.000000  0.999017  1
  Cs  Cs1  1  0.000000  0.500000  0.000983  1
  Cs  Cs2  1  0.500000  0.500000  0.500000  1
  Cs  Cs3  1  0.000000  0.000000  0.500000  1
  Cu  Cu4  1  0.000000  0.000000  0.000000  1
  Pt  Pt5  1  0.500000  0.500000  0.000000  1
  Se  Se6  1  0.191354  0.423120  0.583481  1
  Se  Se7  1  0.808646  0.576880  0.583481  1
  Se  Se8  1  0.576880  0.191354  0.416519  1
  Se  Se9  1  0.423120  0.808646  0.416519  1
  Se  Se10  1  0.308889  0.922419  0.582505  1
  Se  Se11  1  0.077581  0.308889  0.417495  1
  Se  Se12  1  0.818082  0.964006  0.958126  1
  Se  Se13  1  0.035994  0.818082  0.041874  1
  Se  Se14  1  0.964006  0.181918  0.041874  1
  Se  Se15  1  0.181918  0.035994  0.958126  1
  Se  Se16  1  0.533598  0.686025  0.028840  1
  Se  Se17  1  0.466402  0.313975  0.028840  1
  Se  Se18  1  0.686025  0.466402  0.971160  1
  Se  Se19  1  0.313975  0.533598  0.971160  1
  Se  Se20  1  0.788562  0.204862  0.127714  1
  Se  Se21  1  0.795138  0.788562  0.872286  1
  Se  Se22  1  0.204862  0.211438  0.872286  1
  Se  Se23  1  0.211438  0.795138  0.127714  1
  Se  Se24  1  0.295496  0.709744  0.875261  1
  Se  Se25  1  0.704504  0.290256  0.875261  1
  Se  Se26  1  0.709744  0.704504  0.124739  1
  Se  Se27  1  0.290256  0.295496  0.124739  1
  Se  Se28  1  0.919478  0.308291  0.586263  1
  Se  Se29  1  0.691709  0.919478  0.413737  1
  Se  Se30  1  0.308291  0.080522  0.413737  1
  Se  Se31  1  0.080522  0.691709  0.586263  1
  Se  Se32  1  0.191522  0.580861  0.412050  1
  Se  Se33  1  0.808478  0.419139  0.412050  1
  Se  Se34  1  0.580861  0.808478  0.587950  1
  Se  Se35  1  0.419139  0.191522  0.587950  1
  Se  Se36  1  0.691111  0.077581  0.582505  1
  Se  Se37  1  0.922419  0.691111  0.417495  1
