# generated using pymatgen
data_CsRbNd6(CBr6)2
_symmetry_space_group_name_H-M   'P 1'
_cell_length_a   9.06223020
_cell_length_b   9.09384294
_cell_length_c   9.77238694
_cell_angle_alpha   69.69713788
_cell_angle_beta   86.01257239
_cell_angle_gamma   89.34412002
_symmetry_Int_Tables_number   1
_chemical_formula_structural   CsRbNd6(CBr6)2
_chemical_formula_sum   'Cs1 Rb1 Nd6 C2 Br12'
_cell_volume   753.41476337
_cell_formula_units_Z   1
loop_
 _symmetry_equiv_pos_site_id
 _symmetry_equiv_pos_as_xyz
  1  'x, y, z'
loop_
 _atom_site_type_symbol
 _atom_site_label
 _atom_site_symmetry_multiplicity
 _atom_site_fract_x
 _atom_site_fract_y
 _atom_site_fract_z
 _atom_site_occupancy
  Cs  Cs0  1  0.524717  0.650151  0.665796  1
  Rb  Rb1  1  0.475616  0.343256  0.335247  1
  Nd  Nd2  1  0.914041  0.738317  0.003976  1
  Nd  Nd3  1  0.085912  0.261865  0.996130  1
  Nd  Nd4  1  0.737213  0.087855  0.000603  1
  Nd  Nd5  1  0.262703  0.912645  0.999012  1
  Nd  Nd6  1  0.979057  0.876661  0.327457  1
  Nd  Nd7  1  0.020665  0.123964  0.672301  1
  C  C8  1  0.004705  0.028542  0.922914  1
  C  C9  1  0.995158  0.971686  0.076974  1
  Br  Br10  1  0.088807  0.190349  0.326241  1
  Br  Br11  1  0.913669  0.810204  0.673654  1
  Br  Br12  1  0.207319  0.590786  0.001125  1
  Br  Br13  1  0.792628  0.409207  0.999694  1
  Br  Br14  1  0.405939  0.202484  0.006134  1
  Br  Br15  1  0.594052  0.797813  0.994837  1
  Br  Br16  1  0.670780  0.998275  0.326598  1
  Br  Br17  1  0.329119  0.006579  0.672206  1
  Br  Br18  1  0.286989  0.761199  0.323613  1
  Br  Br19  1  0.712310  0.237891  0.675412  1
  Br  Br20  1  0.848141  0.581914  0.326160  1
  Br  Br21  1  0.150459  0.418357  0.673916  1
