# generated using pymatgen
data_SrLaMgSbO6
_symmetry_space_group_name_H-M   'P 1'
_cell_length_a   5.71268400
_cell_length_b   5.69130085
_cell_length_c   9.84813007
_cell_angle_alpha   54.76316725
_cell_angle_beta   90.00000000
_cell_angle_gamma   90.00000000
_symmetry_Int_Tables_number   1
_chemical_formula_structural   SrLaMgSbO6
_chemical_formula_sum   'Sr2 La2 Mg2 Sb2 O12'
_cell_volume   261.52157026
_cell_formula_units_Z   2
loop_
 _symmetry_equiv_pos_site_id
 _symmetry_equiv_pos_as_xyz
  1  'x, y, z'
loop_
 _atom_site_type_symbol
 _atom_site_label
 _atom_site_symmetry_multiplicity
 _atom_site_fract_x
 _atom_site_fract_y
 _atom_site_fract_z
 _atom_site_occupancy
  Sr  Sr0  1  0.226808  0.244186  0.250621  1
  Sr  Sr1  1  0.773192  0.244186  0.750621  1
  La  La2  1  0.284329  0.759810  0.751216  1
  La  La3  1  0.715671  0.759810  0.251216  1
  Mg  Mg4  1  0.752856  0.501108  0.999863  1
  Mg  Mg5  1  0.247144  0.501108  0.499863  1
  Sb  Sb6  1  0.751649  0.999684  0.500463  1
  Sb  Sb7  1  0.248351  0.999684  0.000463  1
  O  O8  1  0.960273  0.765652  0.456427  1
  O  O9  1  0.039727  0.765652  0.956427  1
  O  O10  1  0.527522  0.228232  0.538428  1
  O  O11  1  0.472478  0.228232  0.038428  1
  O  O12  1  0.030683  0.163635  0.543205  1
  O  O13  1  0.969317  0.163635  0.043205  1
  O  O14  1  0.483118  0.819631  0.458809  1
  O  O15  1  0.516882  0.819631  0.958809  1
  O  O16  1  0.762350  0.329613  0.256820  1
  O  O17  1  0.237650  0.329613  0.756820  1
  O  O18  1  0.729018  0.688450  0.744150  1
  O  O19  1  0.270982  0.688450  0.244150  1
