# generated using pymatgen
data_Tb4ErZrGa10
_symmetry_space_group_name_H-M   'P 1'
_cell_length_a   6.10179100
_cell_length_b   9.55122300
_cell_length_c   11.37208800
_cell_angle_alpha   90.00000000
_cell_angle_beta   90.00000000
_cell_angle_gamma   90.00000000
_symmetry_Int_Tables_number   1
_chemical_formula_structural   Tb4ErZrGa10
_chemical_formula_sum   'Tb8 Er2 Zr2 Ga20'
_cell_volume   662.76035930
_cell_formula_units_Z   2
loop_
 _symmetry_equiv_pos_site_id
 _symmetry_equiv_pos_as_xyz
  1  'x, y, z'
loop_
 _atom_site_type_symbol
 _atom_site_label
 _atom_site_symmetry_multiplicity
 _atom_site_fract_x
 _atom_site_fract_y
 _atom_site_fract_z
 _atom_site_occupancy
  Tb  Tb0  1  0.887746  0.513669  0.352748  1
  Tb  Tb1  1  0.612254  0.986331  0.852748  1
  Tb  Tb2  1  0.110682  0.011738  0.648502  1
  Tb  Tb3  1  0.389318  0.488262  0.148502  1
  Tb  Tb4  1  0.110682  0.488262  0.648502  1
  Tb  Tb5  1  0.389318  0.011738  0.148502  1
  Tb  Tb6  1  0.887746  0.986331  0.352748  1
  Tb  Tb7  1  0.612254  0.513669  0.852748  1
  Er  Er8  1  0.151061  0.250000  0.924794  1
  Er  Er9  1  0.348939  0.250000  0.424794  1
  Zr  Zr10  1  0.858239  0.750000  0.076426  1
  Zr  Zr11  1  0.641761  0.750000  0.576426  1
  Ga  Ga12  1  0.874003  0.046977  0.089372  1
  Ga  Ga13  1  0.625997  0.453023  0.589372  1
  Ga  Ga14  1  0.123859  0.558302  0.911896  1
  Ga  Ga15  1  0.376141  0.941698  0.411896  1
  Ga  Ga16  1  0.123859  0.941698  0.911896  1
  Ga  Ga17  1  0.376141  0.558302  0.411896  1
  Ga  Ga18  1  0.874003  0.453023  0.089372  1
  Ga  Ga19  1  0.625997  0.046977  0.589372  1
  Ga  Ga20  1  0.169424  0.750000  0.249734  1
  Ga  Ga21  1  0.330576  0.750000  0.749734  1
  Ga  Ga22  1  0.825061  0.250000  0.749456  1
  Ga  Ga23  1  0.674939  0.250000  0.249456  1
  Ga  Ga24  1  0.384934  0.750000  0.006309  1
  Ga  Ga25  1  0.115066  0.750000  0.506309  1
  Ga  Ga26  1  0.630213  0.250000  0.995594  1
  Ga  Ga27  1  0.869787  0.250000  0.495594  1
  Ga  Ga28  1  0.601394  0.750000  0.291581  1
  Ga  Ga29  1  0.898606  0.750000  0.791581  1
  Ga  Ga30  1  0.404746  0.250000  0.701070  1
  Ga  Ga31  1  0.095254  0.250000  0.201070  1
