# generated using pymatgen
data_La4Al18RePt4Rh
_symmetry_space_group_name_H-M   'P 1'
_cell_length_a   7.71982320
_cell_length_b   7.71982184
_cell_length_c   9.68070227
_cell_angle_alpha   89.84240033
_cell_angle_beta   89.84239995
_cell_angle_gamma   119.28355324
_symmetry_Int_Tables_number   1
_chemical_formula_structural   La4Al18RePt4Rh
_chemical_formula_sum   'La4 Al18 Re1 Pt4 Rh1'
_cell_volume   503.19461223
_cell_formula_units_Z   1
loop_
 _symmetry_equiv_pos_site_id
 _symmetry_equiv_pos_as_xyz
  1  'x, y, z'
loop_
 _atom_site_type_symbol
 _atom_site_label
 _atom_site_symmetry_multiplicity
 _atom_site_fract_x
 _atom_site_fract_y
 _atom_site_fract_z
 _atom_site_occupancy
  La  La0  1  0.995220  0.671699  0.248292  1
  La  La1  1  0.004780  0.328301  0.751708  1
  La  La2  1  0.671699  0.995220  0.248292  1
  La  La3  1  0.328301  0.004780  0.751708  1
  Al  Al4  1  0.130816  0.130816  0.249822  1
  Al  Al5  1  0.869184  0.869184  0.750178  1
  Al  Al6  1  0.003982  0.330925  0.073890  1
  Al  Al7  1  0.996018  0.669075  0.926110  1
  Al  Al8  1  0.996455  0.667662  0.574861  1
  Al  Al9  1  0.332338  0.003545  0.425139  1
  Al  Al10  1  0.003545  0.332338  0.425139  1
  Al  Al11  1  0.667662  0.996455  0.574861  1
  Al  Al12  1  0.669075  0.996018  0.926110  1
  Al  Al13  1  0.330925  0.003982  0.073890  1
  Al  Al14  1  0.331754  0.331754  0.548750  1
  Al  Al15  1  0.668246  0.668246  0.451250  1
  Al  Al16  1  0.668917  0.668917  0.046910  1
  Al  Al17  1  0.331083  0.331083  0.953090  1
  Al  Al18  1  0.342278  0.544238  0.250370  1
  Al  Al19  1  0.657722  0.455762  0.749630  1
  Al  Al20  1  0.544238  0.342278  0.250370  1
  Al  Al21  1  0.455762  0.657722  0.749630  1
  Re  Re22  1  0.000000  0.000000  0.000000  1
  Pt  Pt23  1  0.671037  0.328963  0.000000  1
  Pt  Pt24  1  0.328963  0.671037  0.000000  1
  Pt  Pt25  1  0.328759  0.671241  0.500000  1
  Pt  Pt26  1  0.671241  0.328759  0.500000  1
  Rh  Rh27  1  0.000000  0.000000  0.500000  1
