# generated using pymatgen
data_TbY5Al24Ru3Rh5
_symmetry_space_group_name_H-M   'P 1'
_cell_length_a   8.79578600
_cell_length_b   8.83548445
_cell_length_c   9.56025825
_cell_angle_alpha   90.15201819
_cell_angle_beta   90.00000000
_cell_angle_gamma   119.85148142
_symmetry_Int_Tables_number   1
_chemical_formula_structural   TbY5Al24Ru3Rh5
_chemical_formula_sum   'Tb1 Y5 Al24 Ru3 Rh5'
_cell_volume   644.39365326
_cell_formula_units_Z   1
loop_
 _symmetry_equiv_pos_site_id
 _symmetry_equiv_pos_as_xyz
  1  'x, y, z'
loop_
 _atom_site_type_symbol
 _atom_site_label
 _atom_site_symmetry_multiplicity
 _atom_site_fract_x
 _atom_site_fract_y
 _atom_site_fract_z
 _atom_site_occupancy
  Tb  Tb0  1  0.192022  0.384045  0.750275  1
  Y  Y1  1  0.385155  0.190605  0.249375  1
  Y  Y2  1  0.805451  0.190605  0.249375  1
  Y  Y3  1  0.807806  0.615610  0.249745  1
  Y  Y4  1  0.614850  0.809432  0.750613  1
  Y  Y5  1  0.194582  0.809432  0.750613  1
  Al  Al6  1  0.437609  0.875219  0.249261  1
  Al  Al7  1  0.123567  0.560942  0.250379  1
  Al  Al8  1  0.437375  0.560942  0.250379  1
  Al  Al9  1  0.562372  0.124744  0.750756  1
  Al  Al10  1  0.876267  0.439050  0.749609  1
  Al  Al11  1  0.562783  0.439050  0.749609  1
  Al  Al12  1  0.162454  0.835900  0.423019  1
  Al  Al13  1  0.162668  0.325337  0.423026  1
  Al  Al14  1  0.673445  0.835900  0.423019  1
  Al  Al15  1  0.837526  0.164069  0.576967  1
  Al  Al16  1  0.837326  0.674651  0.576906  1
  Al  Al17  1  0.326544  0.164069  0.576967  1
  Al  Al18  1  0.835266  0.162198  0.923319  1
  Al  Al19  1  0.837169  0.674338  0.923520  1
  Al  Al20  1  0.326933  0.162198  0.923319  1
  Al  Al21  1  0.164712  0.837767  0.076680  1
  Al  Al22  1  0.162824  0.325648  0.076541  1
  Al  Al23  1  0.673054  0.837767  0.076680  1
  Al  Al24  1  0.333514  0.667029  0.526069  1
  Al  Al25  1  0.666543  0.333084  0.473850  1
  Al  Al26  1  0.665547  0.331092  0.025346  1
  Al  Al27  1  0.334517  0.669036  0.974728  1
  Al  Al28  1  0.999334  0.998667  0.249902  1
  Al  Al29  1  0.000768  0.001537  0.750092  1
  Ru  Ru30  1  0.999958  0.999917  0.499950  1
  Ru  Ru31  1  0.999954  0.999907  0.000042  1
  Ru  Ru32  1  0.500029  0.000059  0.000012  1
  Rh  Rh33  1  0.500027  0.000053  0.500020  1
  Rh  Rh34  1  0.999974  0.500026  0.499972  1
  Rh  Rh35  1  0.500052  0.500026  0.499972  1
  Rh  Rh36  1  0.999946  0.500023  0.000046  1
  Rh  Rh37  1  0.500077  0.500023  0.000046  1
