# generated using pymatgen
data_Ca3Ti2Ga2SiO12
_symmetry_space_group_name_H-M   'P 1'
_cell_length_a   10.73559407
_cell_length_b   10.73558607
_cell_length_c   10.73559305
_cell_angle_alpha   109.06735677
_cell_angle_beta   109.06773235
_cell_angle_gamma   110.28165640
_symmetry_Int_Tables_number   1
_chemical_formula_structural   Ca3Ti2Ga2SiO12
_chemical_formula_sum   'Ca12 Ti8 Ga8 Si4 O48'
_cell_volume   952.33675032
_cell_formula_units_Z   4
loop_
 _symmetry_equiv_pos_site_id
 _symmetry_equiv_pos_as_xyz
  1  'x, y, z'
loop_
 _atom_site_type_symbol
 _atom_site_label
 _atom_site_symmetry_multiplicity
 _atom_site_fract_x
 _atom_site_fract_y
 _atom_site_fract_z
 _atom_site_occupancy
  Ca  Ca0  1  0.750000  0.750001  0.000000  1
  Ca  Ca1  1  0.875000  0.248416  0.873416  1
  Ca  Ca2  1  0.498417  0.125000  0.873417  1
  Ca  Ca3  1  0.250001  0.250001  0.000000  1
  Ca  Ca4  1  0.875000  0.748416  0.373417  1
  Ca  Ca5  1  0.251584  0.625000  0.126584  1
  Ca  Ca6  1  0.998416  0.125000  0.373416  1
  Ca  Ca7  1  0.999999  0.499999  0.500000  1
  Ca  Ca8  1  0.375000  0.001584  0.126583  1
  Ca  Ca9  1  0.751583  0.625000  0.626583  1
  Ca  Ca10  1  0.375000  0.501584  0.626584  1
  Ca  Ca11  1  0.500000  0.999999  0.500000  1
  Ti  Ti12  1  0.125000  0.375000  0.750000  1
  Ti  Ti13  1  0.625000  0.875000  0.250000  1
  Ti  Ti14  1  0.125000  0.875000  0.750000  1
  Ti  Ti15  1  0.625000  0.375000  0.250000  1
  Ti  Ti16  1  0.125000  0.375000  0.250000  1
  Ti  Ti17  1  0.125000  0.875000  0.250000  1
  Ti  Ti18  1  0.625000  0.875000  0.750000  1
  Ti  Ti19  1  0.625000  0.375000  0.750000  1
  Ga  Ga20  1  0.001392  0.625000  0.876392  1
  Ga  Ga21  1  0.375000  0.751391  0.876391  1
  Ga  Ga22  1  0.875000  0.498609  0.123609  1
  Ga  Ga23  1  0.748608  0.125000  0.123608  1
  Ga  Ga24  1  0.501392  0.625000  0.376392  1
  Ga  Ga25  1  0.375000  0.251391  0.376391  1
  Ga  Ga26  1  0.875000  0.998609  0.623609  1
  Ga  Ga27  1  0.248608  0.125000  0.623608  1
  Si  Si28  1  0.999997  0.999997  0.000000  1
  Si  Si29  1  0.499996  0.499997  0.999999  1
  Si  Si30  1  0.250003  0.750003  0.500000  1
  Si  Si31  1  0.750004  0.250003  0.500001  1
  O  O32  1  0.821507  0.874265  0.860620  1
  O  O33  1  0.031301  0.198496  0.773565  1
  O  O34  1  0.049644  0.472743  0.869985  1
  O  O35  1  0.801503  0.575068  0.832805  1
  O  O36  1  0.531301  0.757737  0.832805  1
  O  O37  1  0.539114  0.486355  0.860618  1
  O  O38  1  0.722742  0.352758  0.923098  1
  O  O39  1  0.924932  0.698496  0.167195  1
  O  O40  1  0.027258  0.450356  0.130017  1
  O  O41  1  0.039114  0.178496  0.052759  1
  O  O42  1  0.429660  0.799644  0.076901  1
  O  O43  1  0.242263  0.075068  0.773565  1
  O  O44  1  0.700356  0.070341  0.923099  1
  O  O45  1  0.321508  0.460887  0.947242  1
  O  O46  1  0.625737  0.678496  0.139382  1
  O  O47  1  0.513645  0.374265  0.052758  1
  O  O48  1  0.147242  0.777257  0.076900  1
  O  O49  1  0.320340  0.897242  0.869984  1
  O  O50  1  0.013645  0.960887  0.139379  1
  O  O51  1  0.825068  0.492263  0.273564  1
  O  O52  1  0.948497  0.281302  0.273565  1
  O  O53  1  0.602758  0.179659  0.130016  1
  O  O54  1  0.507738  0.781302  0.332805  1
  O  O55  1  0.125737  0.986355  0.947241  1
  O  O56  1  0.124263  0.763645  0.552759  1
  O  O57  1  0.742262  0.968698  0.167195  1
  O  O58  1  0.647242  0.570341  0.369984  1
  O  O59  1  0.301503  0.468698  0.226435  1
  O  O60  1  0.424932  0.257737  0.226436  1
  O  O61  1  0.236355  0.789113  0.360621  1
  O  O62  1  0.929660  0.852758  0.630016  1
  O  O63  1  0.102758  0.972743  0.423100  1
  O  O64  1  0.736355  0.375735  0.447242  1
  O  O65  1  0.624263  0.071504  0.360618  1
  O  O66  1  0.928492  0.289113  0.552758  1
  O  O67  1  0.549644  0.679659  0.576901  1
  O  O68  1  0.007737  0.674932  0.726435  1
  O  O69  1  0.820340  0.950356  0.423099  1
  O  O70  1  0.222742  0.299644  0.369983  1
  O  O71  1  0.210886  0.571504  0.447241  1
  O  O72  1  0.325068  0.051504  0.332805  1
  O  O73  1  0.527258  0.397242  0.576902  1
  O  O74  1  0.710886  0.263645  0.639382  1
  O  O75  1  0.718699  0.992263  0.667195  1
  O  O76  1  0.448497  0.174932  0.667195  1
  O  O77  1  0.200356  0.277257  0.630015  1
  O  O78  1  0.218699  0.551504  0.726435  1
  O  O79  1  0.428493  0.875735  0.639380  1
