# generated using pymatgen
data_Er16In4Pd2RuRh
_symmetry_space_group_name_H-M   'P 1'
_cell_length_a   9.61789154
_cell_length_b   9.61530621
_cell_length_c   9.61530526
_cell_angle_alpha   59.90991176
_cell_angle_beta   59.95791279
_cell_angle_gamma   59.95791417
_symmetry_Int_Tables_number   1
_chemical_formula_structural   Er16In4Pd2RuRh
_chemical_formula_sum   'Er16 In4 Pd2 Ru1 Rh1'
_cell_volume   627.94025779
_cell_formula_units_Z   1
loop_
 _symmetry_equiv_pos_site_id
 _symmetry_equiv_pos_as_xyz
  1  'x, y, z'
loop_
 _atom_site_type_symbol
 _atom_site_label
 _atom_site_symmetry_multiplicity
 _atom_site_fract_x
 _atom_site_fract_y
 _atom_site_fract_z
 _atom_site_occupancy
  Er  Er0  1  0.195053  0.183067  0.811173  1
  Er  Er1  1  0.436185  0.061189  0.061189  1
  Er  Er2  1  0.434330  0.063371  0.441076  1
  Er  Er3  1  0.061935  0.438446  0.063315  1
  Er  Er4  1  0.645483  0.051128  0.652804  1
  Er  Er5  1  0.191461  0.810942  0.810942  1
  Er  Er6  1  0.061935  0.063315  0.438446  1
  Er  Er7  1  0.809830  0.190279  0.190279  1
  Er  Er8  1  0.810009  0.811212  0.185856  1
  Er  Er9  1  0.645483  0.652804  0.051128  1
  Er  Er10  1  0.644819  0.651819  0.651819  1
  Er  Er11  1  0.064054  0.436605  0.436605  1
  Er  Er12  1  0.057520  0.648845  0.648845  1
  Er  Er13  1  0.810009  0.185856  0.811212  1
  Er  Er14  1  0.434330  0.441076  0.063371  1
  Er  Er15  1  0.195053  0.811173  0.183067  1
  In  In16  1  0.417214  0.750230  0.416383  1
  In  In17  1  0.417214  0.416383  0.750230  1
  In  In18  1  0.749484  0.417072  0.417072  1
  In  In19  1  0.416489  0.415825  0.415825  1
  Pd  Pd20  1  0.858040  0.429786  0.856117  1
  Pd  Pd21  1  0.858040  0.856117  0.429786  1
  Ru  Ru22  1  0.428475  0.857032  0.857032  1
  Rh  Rh23  1  0.857555  0.856429  0.856429  1
