# generated using pymatgen
data_Hg3Se(SF3)2
_symmetry_space_group_name_H-M   'P 1'
_cell_length_a   7.59381625
_cell_length_b   7.59381543
_cell_length_c   4.95541400
_cell_angle_alpha   106.75085673
_cell_angle_beta   106.75086277
_cell_angle_gamma   55.28767939
_symmetry_Int_Tables_number   1
_chemical_formula_structural   Hg3Se(SF3)2
_chemical_formula_sum   'Hg3 Se1 S2 F6'
_cell_volume   222.12012111
_cell_formula_units_Z   1
loop_
 _symmetry_equiv_pos_site_id
 _symmetry_equiv_pos_as_xyz
  1  'x, y, z'
loop_
 _atom_site_type_symbol
 _atom_site_label
 _atom_site_symmetry_multiplicity
 _atom_site_fract_x
 _atom_site_fract_y
 _atom_site_fract_z
 _atom_site_occupancy
  Hg  Hg0  1  0.500000  0.000000  0.000000  1
  Hg  Hg1  1  0.000000  0.500000  0.000000  1
  Hg  Hg2  1  0.500000  0.500000  0.499999  1
  Se  Se3  1  0.000000  0.000000  0.000000  1
  S  S4  1  0.311689  0.311689  0.344000  1
  S  S5  1  0.688311  0.688311  0.655998  1
  F  F6  1  0.904798  0.904798  0.227935  1
  F  F7  1  0.880514  0.289083  0.234131  1
  F  F8  1  0.289083  0.880514  0.234131  1
  F  F9  1  0.710916  0.119486  0.765868  1
  F  F10  1  0.119486  0.710916  0.765868  1
  F  F11  1  0.095202  0.095202  0.772064  1
