# generated using pymatgen
data_Y5Th3(MgRh)8
_symmetry_space_group_name_H-M   'P 1'
_cell_length_a   4.03628400
_cell_length_b   7.67395255
_cell_length_c   16.90588600
_cell_angle_alpha   90.47844396
_cell_angle_beta   90.00000000
_cell_angle_gamma   90.00000000
_symmetry_Int_Tables_number   1
_chemical_formula_structural   Y5Th3(MgRh)8
_chemical_formula_sum   'Y5 Th3 Mg8 Rh8'
_cell_volume   523.62891466
_cell_formula_units_Z   1
loop_
 _symmetry_equiv_pos_site_id
 _symmetry_equiv_pos_as_xyz
  1  'x, y, z'
loop_
 _atom_site_type_symbol
 _atom_site_label
 _atom_site_symmetry_multiplicity
 _atom_site_fract_x
 _atom_site_fract_y
 _atom_site_fract_z
 _atom_site_occupancy
  Y  Y0  1  0.750000  0.943562  0.281177  1
  Y  Y1  1  0.750000  0.840399  0.062537  1
  Y  Y2  1  0.750000  0.452786  0.215317  1
  Y  Y3  1  0.250000  0.050974  0.717727  1
  Y  Y4  1  0.250000  0.551678  0.784931  1
  Th  Th5  1  0.250000  0.164024  0.937480  1
  Th  Th6  1  0.250000  0.664599  0.564794  1
  Th  Th7  1  0.750000  0.332084  0.434899  1
  Mg  Mg8  1  0.750000  0.011669  0.565586  1
  Mg  Mg9  1  0.250000  0.626823  0.346059  1
  Mg  Mg10  1  0.750000  0.371454  0.655459  1
  Mg  Mg11  1  0.250000  0.501360  0.065010  1
  Mg  Mg12  1  0.750000  0.514502  0.935873  1
  Mg  Mg13  1  0.250000  0.987149  0.433555  1
  Mg  Mg14  1  0.250000  0.124500  0.151643  1
  Mg  Mg15  1  0.750000  0.871651  0.846027  1
  Rh  Rh16  1  0.750000  0.732867  0.446886  1
  Rh  Rh17  1  0.250000  0.254337  0.317640  1
  Rh  Rh18  1  0.750000  0.243881  0.818567  1
  Rh  Rh19  1  0.750000  0.745743  0.681180  1
  Rh  Rh20  1  0.250000  0.264468  0.554569  1
  Rh  Rh21  1  0.250000  0.747934  0.188503  1
  Rh  Rh22  1  0.750000  0.242555  0.055125  1
  Rh  Rh23  1  0.250000  0.758998  0.939457  1
