# generated using pymatgen
data_U4Ga5Tc7As
_symmetry_space_group_name_H-M   'P 1'
_cell_length_a   7.22861540
_cell_length_b   7.22861639
_cell_length_c   7.22861617
_cell_angle_alpha   109.70741736
_cell_angle_beta   108.99984545
_cell_angle_gamma   109.70742658
_symmetry_Int_Tables_number   1
_chemical_formula_structural   U4Ga5Tc7As
_chemical_formula_sum   'U4 Ga5 Tc7 As1'
_cell_volume   290.75121394
_cell_formula_units_Z   1
loop_
 _symmetry_equiv_pos_site_id
 _symmetry_equiv_pos_as_xyz
  1  'x, y, z'
loop_
 _atom_site_type_symbol
 _atom_site_label
 _atom_site_symmetry_multiplicity
 _atom_site_fract_x
 _atom_site_fract_y
 _atom_site_fract_z
 _atom_site_occupancy
  U  U0  1  0.508434  0.505959  0.508434  1
  U  U1  1  0.002474  0.494041  0.002474  1
  U  U2  1  0.508434  0.000000  0.002474  1
  U  U3  1  0.002474  0.000000  0.508434  1
  Ga  Ga4  1  0.700044  0.693514  0.006529  1
  Ga  Ga5  1  0.313015  0.306486  0.006529  1
  Ga  Ga6  1  0.006529  0.693514  0.700044  1
  Ga  Ga7  1  0.006529  0.306486  0.313015  1
  Ga  Ga8  1  0.290917  0.000000  0.290917  1
  Tc  Tc9  1  0.497484  0.751317  0.248802  1
  Tc  Tc10  1  0.746167  0.248683  0.497484  1
  Tc  Tc11  1  0.248802  0.751317  0.497484  1
  Tc  Tc12  1  0.253560  0.500000  0.753560  1
  Tc  Tc13  1  0.980445  0.000000  0.980445  1
  Tc  Tc14  1  0.497484  0.248683  0.746167  1
  Tc  Tc15  1  0.753560  0.500000  0.253560  1
  As  As16  1  0.683644  0.000000  0.683644  1
