# generated using pymatgen
data_Dy3Ho3(BBr3)2
_symmetry_space_group_name_H-M   'P 1'
_cell_length_a   9.71862746
_cell_length_b   9.71862307
_cell_length_c   9.71862410
_cell_angle_alpha   109.48555363
_cell_angle_beta   109.47157063
_cell_angle_gamma   109.45652380
_symmetry_Int_Tables_number   1
_chemical_formula_structural   Dy3Ho3(BBr3)2
_chemical_formula_sum   'Dy6 Ho6 B4 Br12'
_cell_volume   706.63089348
_cell_formula_units_Z   2
loop_
 _symmetry_equiv_pos_site_id
 _symmetry_equiv_pos_as_xyz
  1  'x, y, z'
loop_
 _atom_site_type_symbol
 _atom_site_label
 _atom_site_symmetry_multiplicity
 _atom_site_fract_x
 _atom_site_fract_y
 _atom_site_fract_z
 _atom_site_occupancy
  Dy  Dy0  1  0.459746  0.479836  0.229814  1
  Dy  Dy1  1  0.750087  0.229956  0.270068  1
  Dy  Dy2  1  0.749913  0.019981  0.479870  1
  Dy  Dy3  1  0.229943  0.459680  0.479810  1
  Dy  Dy4  1  0.270057  0.749868  0.229737  1
  Dy  Dy5  1  0.040254  0.270068  0.020091  1
  Ho  Ho6  1  0.020464  0.040904  0.270533  1
  Ho  Ho7  1  0.479536  0.750070  0.020441  1
  Ho  Ho8  1  0.479427  0.229390  0.458911  1
  Ho  Ho9  1  0.020573  0.479484  0.749962  1
  Ho  Ho10  1  0.270438  0.020480  0.040955  1
  Ho  Ho11  1  0.229562  0.270517  0.750042  1
  B  B12  1  0.250019  0.249389  0.250019  1
  B  B13  1  0.499712  0.000014  0.249718  1
  B  B14  1  0.000288  0.250006  0.500302  1
  B  B15  1  0.249981  0.500001  0.999371  1
  Br  Br16  1  0.249978  0.758163  0.742299  1
  Br  Br17  1  0.516127  0.507890  0.758212  1
  Br  Br18  1  0.983873  0.742087  0.991765  1
  Br  Br19  1  0.741849  0.250322  0.757951  1
  Br  Br20  1  0.992363  0.983896  0.742028  1
  Br  Br21  1  0.250022  0.992320  0.508184  1
  Br  Br22  1  0.758151  0.516104  0.508473  1
  Br  Br23  1  0.507637  0.249665  0.991535  1
  Br  Br24  1  0.758161  0.742034  0.249677  1
  Br  Br25  1  0.741839  0.991516  0.983871  1
  Br  Br26  1  0.991808  0.508169  0.249998  1
  Br  Br27  1  0.508192  0.758190  0.516364  1
