# generated using pymatgen
data_TaCoRuF12
_symmetry_space_group_name_H-M   'P 1'
_cell_length_a   5.36392441
_cell_length_b   5.65792647
_cell_length_c   9.36981400
_cell_angle_alpha   73.88347168
_cell_angle_beta   88.62060417
_cell_angle_gamma   62.34306544
_symmetry_Int_Tables_number   1
_chemical_formula_structural   TaCoRuF12
_chemical_formula_sum   'Ta1 Co1 Ru1 F12'
_cell_volume   240.13104630
_cell_formula_units_Z   1
loop_
 _symmetry_equiv_pos_site_id
 _symmetry_equiv_pos_as_xyz
  1  'x, y, z'
loop_
 _atom_site_type_symbol
 _atom_site_label
 _atom_site_symmetry_multiplicity
 _atom_site_fract_x
 _atom_site_fract_y
 _atom_site_fract_z
 _atom_site_occupancy
  Ta  Ta0  1  0.223392  0.000123  0.753475  1
  Co  Co1  1  0.502935  0.502522  0.497196  1
  Ru  Ru2  1  0.779053  0.994876  0.254026  1
  F  F3  1  0.950087  0.220687  0.200604  1
  F  F4  1  0.053379  0.768893  0.795487  1
  F  F5  1  0.001270  0.761939  0.144667  1
  F  F6  1  0.444561  0.771865  0.620475  1
  F  F7  1  0.551875  0.229859  0.377091  1
  F  F8  1  0.922609  0.251178  0.575960  1
  F  F9  1  0.075524  0.753783  0.426313  1
  F  F10  1  0.397537  0.242629  0.663267  1
  F  F11  1  0.601135  0.755932  0.326752  1
  F  F12  1  0.515441  0.789691  0.911456  1
  F  F13  1  0.492160  0.214080  0.095535  1
  F  F14  1  0.989043  0.241943  0.857697  1
