# generated using pymatgen
data_DyLuNb4(B2Ru5)2
_symmetry_space_group_name_H-M   'P 1'
_cell_length_a   9.54227481
_cell_length_b   9.54227454
_cell_length_c   3.09243100
_cell_angle_alpha   90.00000000
_cell_angle_beta   90.00000000
_cell_angle_gamma   90.59507863
_symmetry_Int_Tables_number   1
_chemical_formula_structural   DyLuNb4(B2Ru5)2
_chemical_formula_sum   'Dy1 Lu1 Nb4 B4 Ru10'
_cell_volume   281.56613618
_cell_formula_units_Z   1
loop_
 _symmetry_equiv_pos_site_id
 _symmetry_equiv_pos_as_xyz
  1  'x, y, z'
loop_
 _atom_site_type_symbol
 _atom_site_label
 _atom_site_symmetry_multiplicity
 _atom_site_fract_x
 _atom_site_fract_y
 _atom_site_fract_z
 _atom_site_occupancy
  Dy  Dy0  1  0.824641  0.675359  0.000000  1
  Lu  Lu1  1  0.176233  0.323767  0.000000  1
  Nb  Nb2  1  0.324010  0.824297  0.000000  1
  Nb  Nb3  1  0.675703  0.175990  0.000000  1
  Nb  Nb4  1  0.498987  0.499692  0.000000  1
  Nb  Nb5  1  0.000308  0.001013  0.000000  1
  B  B6  1  0.620462  0.879538  0.000000  1
  B  B7  1  0.378114  0.121886  0.000000  1
  B  B8  1  0.121404  0.620213  0.000000  1
  B  B9  1  0.879787  0.378596  0.000000  1
  Ru  Ru10  1  0.559939  0.723031  0.500000  1
  Ru  Ru11  1  0.437936  0.277996  0.500000  1
  Ru  Ru12  1  0.081419  0.784785  0.500000  1
  Ru  Ru13  1  0.920678  0.215205  0.500000  1
  Ru  Ru14  1  0.284795  0.579322  0.500000  1
  Ru  Ru15  1  0.715215  0.418581  0.500000  1
  Ru  Ru16  1  0.222004  0.062064  0.500000  1
  Ru  Ru17  1  0.776969  0.940061  0.500000  1
  Ru  Ru18  1  0.499434  0.000566  0.500000  1
  Ru  Ru19  1  0.001963  0.498037  0.500000  1
