# generated using pymatgen
data_Ba4YLu(GaO5)2
_symmetry_space_group_name_H-M   'P 1'
_cell_length_a   6.09939000
_cell_length_b   7.83749541
_cell_length_c   12.70320256
_cell_angle_alpha   91.70135979
_cell_angle_beta   90.00000000
_cell_angle_gamma   90.00000000
_symmetry_Int_Tables_number   1
_chemical_formula_structural   Ba4YLu(GaO5)2
_chemical_formula_sum   'Ba8 Y2 Lu2 Ga4 O20'
_cell_volume   606.99543859
_cell_formula_units_Z   2
loop_
 _symmetry_equiv_pos_site_id
 _symmetry_equiv_pos_as_xyz
  1  'x, y, z'
loop_
 _atom_site_type_symbol
 _atom_site_label
 _atom_site_symmetry_multiplicity
 _atom_site_fract_x
 _atom_site_fract_y
 _atom_site_fract_z
 _atom_site_occupancy
  Ba  Ba0  1  0.756934  0.485823  0.350334  1
  Ba  Ba1  1  0.743066  0.985823  0.850334  1
  Ba  Ba2  1  0.242424  0.512460  0.649350  1
  Ba  Ba3  1  0.257576  0.012460  0.149350  1
  Ba  Ba4  1  0.755574  0.994875  0.378612  1
  Ba  Ba5  1  0.744426  0.494875  0.878612  1
  Ba  Ba6  1  0.244253  0.007000  0.620787  1
  Ba  Ba7  1  0.255747  0.507000  0.120787  1
  Y  Y8  1  0.249674  0.735353  0.370662  1
  Y  Y9  1  0.250326  0.235353  0.870662  1
  Lu  Lu10  1  0.749709  0.263491  0.629431  1
  Lu  Lu11  1  0.750291  0.763491  0.129431  1
  Ga  Ga12  1  0.736508  0.743246  0.583463  1
  Ga  Ga13  1  0.763492  0.243246  0.083463  1
  Ga  Ga14  1  0.261240  0.257529  0.418822  1
  Ga  Ga15  1  0.238760  0.757529  0.918822  1
  O  O16  1  0.764209  0.970953  0.633951  1
  O  O17  1  0.735791  0.470953  0.133951  1
  O  O18  1  0.235828  0.032361  0.365905  1
  O  O19  1  0.264172  0.532361  0.865905  1
  O  O20  1  0.737604  0.058404  0.171218  1
  O  O21  1  0.762396  0.558404  0.671218  1
  O  O22  1  0.262186  0.936176  0.826870  1
  O  O23  1  0.237814  0.436176  0.326870  1
  O  O24  1  0.539851  0.748605  0.266816  1
  O  O25  1  0.960149  0.248605  0.766816  1
  O  O26  1  0.466711  0.251871  0.729353  1
  O  O27  1  0.033289  0.751871  0.229353  1
  O  O28  1  0.547841  0.225461  0.977515  1
  O  O29  1  0.952159  0.725461  0.477515  1
  O  O30  1  0.462336  0.774769  0.021877  1
  O  O31  1  0.037664  0.274769  0.521877  1
  O  O32  1  0.039615  0.233973  0.017957  1
  O  O33  1  0.460385  0.733973  0.517957  1
  O  O34  1  0.964386  0.767650  0.987077  1
  O  O35  1  0.535614  0.267650  0.487077  1
