# generated using pymatgen
data_Dy3Th11(TcOs2)2
_symmetry_space_group_name_H-M   'P 1'
_cell_length_a   9.87680021
_cell_length_b   9.96854385
_cell_length_c   6.38094765
_cell_angle_alpha   89.94666723
_cell_angle_beta   90.09116615
_cell_angle_gamma   120.30780548
_symmetry_Int_Tables_number   1
_chemical_formula_structural   Dy3Th11(TcOs2)2
_chemical_formula_sum   'Dy3 Th11 Tc2 Os4'
_cell_volume   542.38522077
_cell_formula_units_Z   1
loop_
 _symmetry_equiv_pos_site_id
 _symmetry_equiv_pos_as_xyz
  1  'x, y, z'
loop_
 _atom_site_type_symbol
 _atom_site_label
 _atom_site_symmetry_multiplicity
 _atom_site_fract_x
 _atom_site_fract_y
 _atom_site_fract_z
 _atom_site_occupancy
  Dy  Dy0  1  0.460947  0.535277  0.296570  1
  Dy  Dy1  1  0.073750  0.535543  0.300049  1
  Dy  Dy2  1  0.926547  0.461989  0.798155  1
  Th  Th3  1  0.252025  0.127809  0.510650  1
  Th  Th4  1  0.542948  0.081022  0.796823  1
  Th  Th5  1  0.747951  0.872984  0.013203  1
  Th  Th6  1  0.668020  0.335432  0.273451  1
  Th  Th7  1  0.123729  0.868895  0.009967  1
  Th  Th8  1  0.462146  0.921348  0.297078  1
  Th  Th9  1  0.537691  0.466232  0.798662  1
  Th  Th10  1  0.874954  0.130016  0.511419  1
  Th  Th11  1  0.122722  0.252395  0.013655  1
  Th  Th12  1  0.874670  0.748797  0.510967  1
  Th  Th13  1  0.331971  0.664684  0.770364  1
  Tc  Tc14  1  0.812439  0.634350  0.045511  1
  Tc  Tc15  1  0.813063  0.176648  0.046582  1
  Os  Os16  1  0.628816  0.813168  0.547595  1
  Os  Os17  1  0.369895  0.186150  0.043668  1
  Os  Os18  1  0.187136  0.369498  0.554724  1
  Os  Os19  1  0.188580  0.817763  0.544905  1
