# generated using pymatgen
data_Th4Mg2Pd3Ru
_symmetry_space_group_name_H-M   'P 1'
_cell_length_a   3.88117900
_cell_length_b   7.85260485
_cell_length_c   7.85260485
_cell_angle_alpha   90.29404541
_cell_angle_beta   90.00000000
_cell_angle_gamma   90.00000000
_symmetry_Int_Tables_number   1
_chemical_formula_structural   Th4Mg2Pd3Ru
_chemical_formula_sum   'Th4 Mg2 Pd3 Ru1'
_cell_volume   239.32355300
_cell_formula_units_Z   1
loop_
 _symmetry_equiv_pos_site_id
 _symmetry_equiv_pos_as_xyz
  1  'x, y, z'
loop_
 _atom_site_type_symbol
 _atom_site_label
 _atom_site_symmetry_multiplicity
 _atom_site_fract_x
 _atom_site_fract_y
 _atom_site_fract_z
 _atom_site_occupancy
  Th  Th0  1  0.500000  0.166359  0.666359  1
  Th  Th1  1  0.500000  0.816000  0.316000  1
  Th  Th2  1  0.500000  0.344446  0.175743  1
  Th  Th3  1  0.500000  0.675743  0.844446  1
  Mg  Mg4  1  0.000000  0.002992  0.000972  1
  Mg  Mg5  1  0.000000  0.500972  0.502992  1
  Pd  Pd6  1  0.000000  0.364447  0.864447  1
  Pd  Pd7  1  0.000000  0.867246  0.631131  1
  Pd  Pd8  1  0.000000  0.131131  0.367246  1
  Ru  Ru9  1  0.000000  0.630665  0.130665  1
