# generated using pymatgen
data_Sc5Ag4Hg
_symmetry_space_group_name_H-M   'P 1'
_cell_length_a   3.46261300
_cell_length_b   3.46261300
_cell_length_c   17.25833400
_cell_angle_alpha   90.00000000
_cell_angle_beta   90.00000000
_cell_angle_gamma   90.00000000
_symmetry_Int_Tables_number   1
_chemical_formula_structural   Sc5Ag4Hg
_chemical_formula_sum   'Sc5 Ag4 Hg1'
_cell_volume   206.92205366
_cell_formula_units_Z   1
loop_
 _symmetry_equiv_pos_site_id
 _symmetry_equiv_pos_as_xyz
  1  'x, y, z'
loop_
 _atom_site_type_symbol
 _atom_site_label
 _atom_site_symmetry_multiplicity
 _atom_site_fract_x
 _atom_site_fract_y
 _atom_site_fract_z
 _atom_site_occupancy
  Sc  Sc0  1  0.500000  0.500000  0.105329  1
  Sc  Sc1  1  0.500000  0.500000  0.303040  1
  Sc  Sc2  1  0.500000  0.500000  0.500000  1
  Sc  Sc3  1  0.500000  0.500000  0.696960  1
  Sc  Sc4  1  0.500000  0.500000  0.894671  1
  Ag  Ag5  1  0.000000  0.000000  0.204129  1
  Ag  Ag6  1  0.000000  0.000000  0.401778  1
  Ag  Ag7  1  0.000000  0.000000  0.598222  1
  Ag  Ag8  1  0.000000  0.000000  0.795871  1
  Hg  Hg9  1  0.000000  0.000000  0.000000  1
