# generated using pymatgen
data_Hf4Mn3FeGeAs3
_symmetry_space_group_name_H-M   'P 1'
_cell_length_a   3.71926100
_cell_length_b   6.59708487
_cell_length_c   7.70789001
_cell_angle_alpha   89.89005447
_cell_angle_beta   90.00000000
_cell_angle_gamma   90.00000000
_symmetry_Int_Tables_number   1
_chemical_formula_structural   Hf4Mn3FeGeAs3
_chemical_formula_sum   'Hf4 Mn3 Fe1 Ge1 As3'
_cell_volume   189.12260288
_cell_formula_units_Z   1
loop_
 _symmetry_equiv_pos_site_id
 _symmetry_equiv_pos_as_xyz
  1  'x, y, z'
loop_
 _atom_site_type_symbol
 _atom_site_label
 _atom_site_symmetry_multiplicity
 _atom_site_fract_x
 _atom_site_fract_y
 _atom_site_fract_z
 _atom_site_occupancy
  Hf  Hf0  1  0.250000  0.463342  0.175357  1
  Hf  Hf1  1  0.750000  0.535689  0.823794  1
  Hf  Hf2  1  0.750000  0.035383  0.676251  1
  Hf  Hf3  1  0.250000  0.964425  0.324047  1
  Mn  Mn4  1  0.250000  0.865715  0.937620  1
  Mn  Mn5  1  0.750000  0.135408  0.060329  1
  Mn  Mn6  1  0.750000  0.632768  0.440651  1
  Fe  Fe7  1  0.250000  0.367475  0.561107  1
  Ge  Ge8  1  0.750000  0.260851  0.373170  1
  As  As9  1  0.250000  0.739019  0.630106  1
  As  As10  1  0.750000  0.761032  0.128442  1
  As  As11  1  0.250000  0.238895  0.869125  1
