# generated using pymatgen
data_Tb4TmGa4P8Ir19
_symmetry_space_group_name_H-M   'P 1'
_cell_length_a   12.91076243
_cell_length_b   12.88880112
_cell_length_c   3.96417800
_cell_angle_alpha   90.00000000
_cell_angle_beta   90.00000000
_cell_angle_gamma   120.05763108
_symmetry_Int_Tables_number   1
_chemical_formula_structural   Tb4TmGa4P8Ir19
_chemical_formula_sum   'Tb4 Tm1 Ga4 P8 Ir19'
_cell_volume   570.94686247
_cell_formula_units_Z   1
loop_
 _symmetry_equiv_pos_site_id
 _symmetry_equiv_pos_as_xyz
  1  'x, y, z'
loop_
 _atom_site_type_symbol
 _atom_site_label
 _atom_site_symmetry_multiplicity
 _atom_site_fract_x
 _atom_site_fract_y
 _atom_site_fract_z
 _atom_site_occupancy
  Tb  Tb0  1  0.335698  0.669364  0.500000  1
  Tb  Tb1  1  0.181068  0.181666  0.000000  1
  Tb  Tb2  1  0.817985  0.999286  0.000000  1
  Tb  Tb3  1  0.001768  0.816261  0.000000  1
  Tm  Tm4  1  0.665911  0.331609  0.500000  1
  Ga  Ga5  1  0.318095  0.834605  0.000000  1
  Ga  Ga6  1  0.357335  0.358367  0.500000  1
  Ga  Ga7  1  0.641153  0.001219  0.500000  1
  Ga  Ga8  1  0.997002  0.637851  0.500000  1
  P  P9  1  0.173240  0.484412  0.000000  1
  P  P10  1  0.521241  0.690333  0.000000  1
  P  P11  1  0.822644  0.305841  0.000000  1
  P  P12  1  0.482926  0.176049  0.000000  1
  P  P13  1  0.692101  0.514139  0.000000  1
  P  P14  1  0.822481  0.818496  0.500000  1
  P  P15  1  0.179036  0.001191  0.500000  1
  P  P16  1  0.999816  0.180172  0.500000  1
  Ir  Ir17  1  0.191176  0.825284  0.500000  1
  Ir  Ir18  1  0.174449  0.381977  0.500000  1
  Ir  Ir19  1  0.626004  0.795266  0.500000  1
  Ir  Ir20  1  0.825256  0.206014  0.500000  1
  Ir  Ir21  1  0.386170  0.178588  0.500000  1
  Ir  Ir22  1  0.790095  0.613975  0.500000  1
  Ir  Ir23  1  0.128080  0.633260  0.000000  1
  Ir  Ir24  1  0.362895  0.496977  0.000000  1
  Ir  Ir25  1  0.522278  0.871501  0.000000  1
  Ir  Ir26  1  0.633325  0.132636  0.000000  1
  Ir  Ir27  1  0.497751  0.366410  0.000000  1
  Ir  Ir28  1  0.865757  0.499869  0.000000  1
  Ir  Ir29  1  0.547717  0.550837  0.500000  1
  Ir  Ir30  1  0.443430  0.992830  0.500000  1
  Ir  Ir31  1  0.998199  0.447185  0.500000  1
  Ir  Ir32  1  0.718401  0.714767  0.000000  1
  Ir  Ir33  1  0.280834  0.008307  0.000000  1
  Ir  Ir34  1  0.999850  0.282879  0.000000  1
  Ir  Ir35  1  0.998835  0.000578  0.500000  1
