# generated using pymatgen
data_Pr3SmAs7Ir8
_symmetry_space_group_name_H-M   'P 1'
_cell_length_a   4.16113400
_cell_length_b   13.26625271
_cell_length_c   13.70958500
_cell_angle_alpha   81.98073774
_cell_angle_beta   90.00000000
_cell_angle_gamma   90.00000000
_symmetry_Int_Tables_number   1
_chemical_formula_structural   Pr3SmAs7Ir8
_chemical_formula_sum   'Pr6 Sm2 As14 Ir16'
_cell_volume   749.40486255
_cell_formula_units_Z   2
loop_
 _symmetry_equiv_pos_site_id
 _symmetry_equiv_pos_as_xyz
  1  'x, y, z'
loop_
 _atom_site_type_symbol
 _atom_site_label
 _atom_site_symmetry_multiplicity
 _atom_site_fract_x
 _atom_site_fract_y
 _atom_site_fract_z
 _atom_site_occupancy
  Pr  Pr0  1  0.250000  0.098140  0.793191  1
  Pr  Pr1  1  0.750000  0.901860  0.206809  1
  Pr  Pr2  1  0.250000  0.286967  0.102938  1
  Pr  Pr3  1  0.750000  0.713033  0.897062  1
  Pr  Pr4  1  0.250000  0.519042  0.293601  1
  Pr  Pr5  1  0.750000  0.480958  0.706399  1
  Sm  Sm6  1  0.250000  0.206806  0.439879  1
  Sm  Sm7  1  0.750000  0.793194  0.560121  1
  As  As8  1  0.250000  0.057121  0.100353  1
  As  As9  1  0.750000  0.942879  0.899647  1
  As  As10  1  0.250000  0.310776  0.687257  1
  As  As11  1  0.750000  0.689224  0.312743  1
  As  As12  1  0.250000  0.608119  0.566523  1
  As  As13  1  0.750000  0.391881  0.433477  1
  As  As14  1  0.250000  0.847041  0.717312  1
  As  As15  1  0.750000  0.152959  0.282688  1
  As  As16  1  0.750000  0.256243  0.917988  1
  As  As17  1  0.250000  0.743757  0.082012  1
  As  As18  1  0.750000  0.095607  0.586118  1
  As  As19  1  0.250000  0.904393  0.413882  1
  As  As20  1  0.750000  0.472237  0.128503  1
  As  As21  1  0.250000  0.527763  0.871497  1
  Ir  Ir22  1  0.250000  0.989592  0.573688  1
  Ir  Ir23  1  0.750000  0.010408  0.426312  1
  Ir  Ir24  1  0.250000  0.664970  0.733133  1
  Ir  Ir25  1  0.750000  0.335030  0.266867  1
  Ir  Ir26  1  0.250000  0.555694  0.045392  1
  Ir  Ir27  1  0.750000  0.444306  0.954608  1
  Ir  Ir28  1  0.250000  0.054597  0.279244  1
  Ir  Ir29  1  0.750000  0.945403  0.720756  1
  Ir  Ir30  1  0.250000  0.424562  0.525386  1
  Ir  Ir31  1  0.750000  0.575438  0.474614  1
  Ir  Ir32  1  0.250000  0.918878  0.996991  1
  Ir  Ir33  1  0.750000  0.081122  0.003009  1
  Ir  Ir34  1  0.250000  0.722025  0.402144  1
  Ir  Ir35  1  0.750000  0.277975  0.597856  1
  Ir  Ir36  1  0.250000  0.342789  0.860072  1
  Ir  Ir37  1  0.750000  0.657211  0.139928  1
