# generated using pymatgen
data_Ti5Al16GaIr7
_symmetry_space_group_name_H-M   'P 1'
_cell_length_a   8.54189787
_cell_length_b   8.63875183
_cell_length_c   8.63875150
_cell_angle_alpha   59.25962835
_cell_angle_beta   60.37018582
_cell_angle_gamma   60.37019393
_symmetry_Int_Tables_number   1
_chemical_formula_structural   Ti5Al16GaIr7
_chemical_formula_sum   'Ti5 Al16 Ga1 Ir7'
_cell_volume   450.64379515
_cell_formula_units_Z   1
loop_
 _symmetry_equiv_pos_site_id
 _symmetry_equiv_pos_as_xyz
  1  'x, y, z'
loop_
 _atom_site_type_symbol
 _atom_site_label
 _atom_site_symmetry_multiplicity
 _atom_site_fract_x
 _atom_site_fract_y
 _atom_site_fract_z
 _atom_site_occupancy
  Ti  Ti0  1  0.804219  0.195781  0.195781  1
  Ti  Ti1  1  0.783324  0.216676  0.781766  1
  Ti  Ti2  1  0.783324  0.781766  0.216676  1
  Ti  Ti3  1  0.218234  0.781766  0.216676  1
  Ti  Ti4  1  0.218234  0.216676  0.781766  1
  Al  Al5  1  0.884134  0.841916  0.841916  1
  Al  Al6  1  0.854602  0.831195  0.459603  1
  Al  Al7  1  0.432036  0.841916  0.841916  1
  Al  Al8  1  0.854602  0.459603  0.831195  1
  Al  Al9  1  0.168805  0.145398  0.145398  1
  Al  Al10  1  0.158084  0.115866  0.567964  1
  Al  Al11  1  0.158084  0.567964  0.115866  1
  Al  Al12  1  0.540397  0.145398  0.145398  1
  Al  Al13  1  0.616937  0.617910  0.617910  1
  Al  Al14  1  0.630517  0.618189  0.120777  1
  Al  Al15  1  0.147243  0.617910  0.617910  1
  Al  Al16  1  0.630517  0.120777  0.618189  1
  Al  Al17  1  0.381811  0.369483  0.369483  1
  Al  Al18  1  0.382090  0.383063  0.852757  1
  Al  Al19  1  0.382090  0.852757  0.383063  1
  Al  Al20  1  0.879223  0.369483  0.369483  1
  Ga  Ga21  1  0.022509  0.977491  0.977491  1
  Ir  Ir22  1  0.513056  0.486944  0.486944  1
  Ir  Ir23  1  0.011327  0.488673  0.488673  1
  Ir  Ir24  1  0.511327  0.988673  0.988673  1
  Ir  Ir25  1  0.511674  0.995039  0.488326  1
  Ir  Ir26  1  0.511674  0.488326  0.995039  1
  Ir  Ir27  1  0.004961  0.488326  0.995039  1
  Ir  Ir28  1  0.004961  0.995039  0.488326  1
