# generated using pymatgen
data_Dy18HoTmSn16
_symmetry_space_group_name_H-M   'P 1'
_cell_length_a   8.03730907
_cell_length_b   8.16885707
_cell_length_c   15.45815600
_cell_angle_alpha   90.00000000
_cell_angle_beta   90.00000000
_cell_angle_gamma   90.01465800
_symmetry_Int_Tables_number   1
_chemical_formula_structural   Dy18HoTmSn16
_chemical_formula_sum   'Dy18 Ho1 Tm1 Sn16'
_cell_volume   1014.91492153
_cell_formula_units_Z   1
loop_
 _symmetry_equiv_pos_site_id
 _symmetry_equiv_pos_as_xyz
  1  'x, y, z'
loop_
 _atom_site_type_symbol
 _atom_site_label
 _atom_site_symmetry_multiplicity
 _atom_site_fract_x
 _atom_site_fract_y
 _atom_site_fract_z
 _atom_site_occupancy
  Dy  Dy0  1  0.367719  0.837379  0.877559  1
  Dy  Dy1  1  0.867527  0.662774  0.622442  1
  Dy  Dy2  1  0.632406  0.162817  0.378073  1
  Dy  Dy3  1  0.132411  0.337203  0.121943  1
  Dy  Dy4  1  0.632406  0.162817  0.121927  1
  Dy  Dy5  1  0.132411  0.337203  0.378057  1
  Dy  Dy6  1  0.367719  0.837379  0.622441  1
  Dy  Dy7  1  0.867527  0.662774  0.877558  1
  Dy  Dy8  1  0.520783  0.320705  0.902424  1
  Dy  Dy9  1  0.020690  0.179221  0.597587  1
  Dy  Dy10  1  0.479381  0.679245  0.402766  1
  Dy  Dy11  1  0.979405  0.820745  0.097223  1
  Dy  Dy12  1  0.479381  0.679245  0.097234  1
  Dy  Dy13  1  0.979405  0.820745  0.402777  1
  Dy  Dy14  1  0.520783  0.320705  0.597576  1
  Dy  Dy15  1  0.020690  0.179221  0.902413  1
  Dy  Dy16  1  0.801092  0.497065  0.250000  1
  Dy  Dy17  1  0.301089  0.002907  0.250000  1
  Ho  Ho18  1  0.198709  0.502973  0.750000  1
  Tm  Tm19  1  0.698869  0.996969  0.750000  1
  Sn  Sn20  1  0.292921  0.036776  0.041495  1
  Sn  Sn21  1  0.792915  0.463241  0.458507  1
  Sn  Sn22  1  0.707315  0.963653  0.542478  1
  Sn  Sn23  1  0.207315  0.536343  0.957650  1
  Sn  Sn24  1  0.707315  0.963653  0.957522  1
  Sn  Sn25  1  0.207315  0.536343  0.542350  1
  Sn  Sn26  1  0.292921  0.036776  0.458505  1
  Sn  Sn27  1  0.792915  0.463241  0.041493  1
  Sn  Sn28  1  0.564773  0.618401  0.750000  1
  Sn  Sn29  1  0.064384  0.881828  0.750000  1
  Sn  Sn30  1  0.434648  0.381147  0.250000  1
  Sn  Sn31  1  0.934599  0.118836  0.250000  1
  Sn  Sn32  1  0.330126  0.148612  0.750000  1
  Sn  Sn33  1  0.829987  0.350989  0.750000  1
  Sn  Sn34  1  0.670099  0.852379  0.250000  1
  Sn  Sn35  1  0.170049  0.647691  0.250000  1
