# generated using pymatgen
data_Ho6Er10Cd4RuPt3
_symmetry_space_group_name_H-M   'P 1'
_cell_length_a   9.61759046
_cell_length_b   9.61758959
_cell_length_c   9.61758882
_cell_angle_alpha   59.61407363
_cell_angle_beta   59.61407438
_cell_angle_gamma   59.61407078
_symmetry_Int_Tables_number   1
_chemical_formula_structural   Ho6Er10Cd4RuPt3
_chemical_formula_sum   'Ho6 Er10 Cd4 Ru1 Pt3'
_cell_volume   623.53058911
_cell_formula_units_Z   1
loop_
 _symmetry_equiv_pos_site_id
 _symmetry_equiv_pos_as_xyz
  1  'x, y, z'
loop_
 _atom_site_type_symbol
 _atom_site_label
 _atom_site_symmetry_multiplicity
 _atom_site_fract_x
 _atom_site_fract_y
 _atom_site_fract_z
 _atom_site_occupancy
  Ho  Ho0  1  0.185634  0.815488  0.815488  1
  Ho  Ho1  1  0.810473  0.186801  0.186801  1
  Ho  Ho2  1  0.815488  0.185634  0.815488  1
  Ho  Ho3  1  0.186801  0.810473  0.186801  1
  Ho  Ho4  1  0.815488  0.815488  0.185634  1
  Ho  Ho5  1  0.186801  0.186801  0.810473  1
  Er  Er6  1  0.601516  0.601516  0.601516  1
  Er  Er7  1  0.599849  0.599849  0.197914  1
  Er  Er8  1  0.599849  0.197914  0.599849  1
  Er  Er9  1  0.197914  0.599849  0.599849  1
  Er  Er10  1  0.064775  0.438520  0.438520  1
  Er  Er11  1  0.438692  0.060267  0.060267  1
  Er  Er12  1  0.438520  0.064775  0.438520  1
  Er  Er13  1  0.060267  0.438692  0.060267  1
  Er  Er14  1  0.438520  0.438520  0.064775  1
  Er  Er15  1  0.060267  0.060267  0.438692  1
  Cd  Cd16  1  0.830561  0.830561  0.830561  1
  Cd  Cd17  1  0.831139  0.831139  0.504342  1
  Cd  Cd18  1  0.831139  0.504342  0.831139  1
  Cd  Cd19  1  0.504342  0.831139  0.831139  1
  Ru  Ru20  1  0.393218  0.393218  0.393218  1
  Pt  Pt21  1  0.393332  0.393332  0.822082  1
  Pt  Pt22  1  0.393332  0.822082  0.393332  1
  Pt  Pt23  1  0.822082  0.393332  0.393332  1
