# generated using pymatgen
data_Tm5Pt8Au
_symmetry_space_group_name_H-M   'P 1'
_cell_length_a   9.73896200
_cell_length_b   9.73896200
_cell_length_c   5.74901300
_cell_angle_alpha   90.00000000
_cell_angle_beta   90.00000000
_cell_angle_gamma   90.00000000
_symmetry_Int_Tables_number   1
_chemical_formula_structural   Tm5Pt8Au
_chemical_formula_sum   'Tm10 Pt16 Au2'
_cell_volume   545.27882545
_cell_formula_units_Z   2
loop_
 _symmetry_equiv_pos_site_id
 _symmetry_equiv_pos_as_xyz
  1  'x, y, z'
loop_
 _atom_site_type_symbol
 _atom_site_label
 _atom_site_symmetry_multiplicity
 _atom_site_fract_x
 _atom_site_fract_y
 _atom_site_fract_z
 _atom_site_occupancy
  Tm  Tm0  1  0.453284  0.814369  0.000000  1
  Tm  Tm1  1  0.546716  0.185631  0.000000  1
  Tm  Tm2  1  0.185631  0.546716  0.000000  1
  Tm  Tm3  1  0.814369  0.453284  0.000000  1
  Tm  Tm4  1  0.500000  0.500000  0.500000  1
  Tm  Tm5  1  0.314369  0.046716  0.500000  1
  Tm  Tm6  1  0.685631  0.953284  0.500000  1
  Tm  Tm7  1  0.953284  0.685631  0.500000  1
  Tm  Tm8  1  0.046716  0.314369  0.500000  1
  Tm  Tm9  1  0.000000  0.000000  0.000000  1
  Pt  Pt10  1  0.193833  0.806167  0.249562  1
  Pt  Pt11  1  0.806167  0.193833  0.750438  1
  Pt  Pt12  1  0.806167  0.193833  0.249562  1
  Pt  Pt13  1  0.193833  0.806167  0.750438  1
  Pt  Pt14  1  0.442303  0.780641  0.500000  1
  Pt  Pt15  1  0.557697  0.219359  0.500000  1
  Pt  Pt16  1  0.219359  0.557697  0.500000  1
  Pt  Pt17  1  0.780641  0.442303  0.500000  1
  Pt  Pt18  1  0.306167  0.306167  0.250438  1
  Pt  Pt19  1  0.693833  0.693833  0.749562  1
  Pt  Pt20  1  0.693833  0.693833  0.250438  1
  Pt  Pt21  1  0.306167  0.306167  0.749562  1
  Pt  Pt22  1  0.280641  0.057697  0.000000  1
  Pt  Pt23  1  0.719359  0.942303  0.000000  1
  Pt  Pt24  1  0.942303  0.719359  0.000000  1
  Pt  Pt25  1  0.057697  0.280641  0.000000  1
  Au  Au26  1  0.000000  0.000000  0.500000  1
  Au  Au27  1  0.500000  0.500000  0.000000  1
