# generated using pymatgen
data_Er7Lu(OsBr4)2
_symmetry_space_group_name_H-M   'P 1'
_cell_length_a   8.88386720
_cell_length_b   8.90924322
_cell_length_c   6.50794276
_cell_angle_alpha   89.45607443
_cell_angle_beta   89.60838300
_cell_angle_gamma   89.26460006
_symmetry_Int_Tables_number   1
_chemical_formula_structural   Er7Lu(OsBr4)2
_chemical_formula_sum   'Er7 Lu1 Os2 Br8'
_cell_volume   515.01688137
_cell_formula_units_Z   1
loop_
 _symmetry_equiv_pos_site_id
 _symmetry_equiv_pos_as_xyz
  1  'x, y, z'
loop_
 _atom_site_type_symbol
 _atom_site_label
 _atom_site_symmetry_multiplicity
 _atom_site_fract_x
 _atom_site_fract_y
 _atom_site_fract_z
 _atom_site_occupancy
  Er  Er0  1  0.751415  0.098303  0.989395  1
  Er  Er1  1  0.099287  0.751454  0.490252  1
  Er  Er2  1  0.902131  0.248143  0.510447  1
  Er  Er3  1  0.752511  0.902794  0.508702  1
  Er  Er4  1  0.248380  0.096232  0.492333  1
  Er  Er5  1  0.097530  0.247066  0.992192  1
  Er  Er6  1  0.902845  0.752458  0.008935  1
  Lu  Lu7  1  0.244422  0.902815  0.011758  1
  Os  Os8  1  0.994612  0.004587  0.250236  1
  Os  Os9  1  0.005652  0.994872  0.750460  1
  Br  Br10  1  0.419964  0.816917  0.404843  1
  Br  Br11  1  0.580849  0.183731  0.591284  1
  Br  Br12  1  0.184434  0.581863  0.091291  1
  Br  Br13  1  0.816736  0.419210  0.908667  1
  Br  Br14  1  0.414799  0.189105  0.094260  1
  Br  Br15  1  0.583388  0.811049  0.904611  1
  Br  Br16  1  0.809724  0.585270  0.406105  1
  Br  Br17  1  0.191322  0.414130  0.594229  1
