# generated using pymatgen
data_Dy2Sb(AsRh2)6
_symmetry_space_group_name_H-M   'P 1'
_cell_length_a   10.07924800
_cell_length_b   10.07924679
_cell_length_c   3.95033900
_cell_angle_alpha   90.00000000
_cell_angle_beta   90.00000000
_cell_angle_gamma   119.99999740
_symmetry_Int_Tables_number   1
_chemical_formula_structural   Dy2Sb(AsRh2)6
_chemical_formula_sum   'Dy2 Sb1 As6 Rh12'
_cell_volume   347.55314249
_cell_formula_units_Z   1
loop_
 _symmetry_equiv_pos_site_id
 _symmetry_equiv_pos_as_xyz
  1  'x, y, z'
loop_
 _atom_site_type_symbol
 _atom_site_label
 _atom_site_symmetry_multiplicity
 _atom_site_fract_x
 _atom_site_fract_y
 _atom_site_fract_z
 _atom_site_occupancy
  Dy  Dy0  1  0.333333  0.666667  0.751239  1
  Dy  Dy1  1  0.666667  0.333333  0.248740  1
  Sb  Sb2  1  0.000000  0.000000  0.602257  1
  As  As3  1  0.880760  0.591874  0.748253  1
  As  As4  1  0.408126  0.288886  0.748253  1
  As  As5  1  0.711114  0.119240  0.748253  1
  As  As6  1  0.116350  0.405966  0.252015  1
  As  As7  1  0.594034  0.710384  0.252015  1
  As  As8  1  0.289616  0.883650  0.252015  1
  Rh  Rh9  1  0.618733  0.551022  0.749224  1
  Rh  Rh10  1  0.448978  0.067710  0.749224  1
  Rh  Rh11  1  0.932290  0.381267  0.749224  1
  Rh  Rh12  1  0.383889  0.450428  0.251466  1
  Rh  Rh13  1  0.549572  0.933461  0.251466  1
  Rh  Rh14  1  0.066539  0.616111  0.251466  1
  Rh  Rh15  1  0.123132  0.838767  0.755753  1
  Rh  Rh16  1  0.161233  0.284365  0.755753  1
  Rh  Rh17  1  0.715635  0.876868  0.755753  1
  Rh  Rh18  1  0.881179  0.149878  0.243970  1
  Rh  Rh19  1  0.850122  0.731302  0.243970  1
  Rh  Rh20  1  0.268698  0.118821  0.243970  1
