# generated using pymatgen
data_CeY(AlRh)2
_symmetry_space_group_name_H-M   'P 1'
_cell_length_a   4.24668400
_cell_length_b   6.99721600
_cell_length_c   15.96767700
_cell_angle_alpha   90.00000000
_cell_angle_beta   90.00000000
_cell_angle_gamma   90.00000000
_symmetry_Int_Tables_number   1
_chemical_formula_structural   CeY(AlRh)2
_chemical_formula_sum   'Ce4 Y4 Al8 Rh8'
_cell_volume   474.47896689
_cell_formula_units_Z   4
loop_
 _symmetry_equiv_pos_site_id
 _symmetry_equiv_pos_as_xyz
  1  'x, y, z'
loop_
 _atom_site_type_symbol
 _atom_site_label
 _atom_site_symmetry_multiplicity
 _atom_site_fract_x
 _atom_site_fract_y
 _atom_site_fract_z
 _atom_site_occupancy
  Ce  Ce0  1  0.250000  0.028274  0.779695  1
  Ce  Ce1  1  0.750000  0.971726  0.220305  1
  Ce  Ce2  1  0.250000  0.528274  0.720305  1
  Ce  Ce3  1  0.750000  0.471726  0.279695  1
  Y  Y4  1  0.250000  0.157855  0.558331  1
  Y  Y5  1  0.750000  0.842145  0.441669  1
  Y  Y6  1  0.250000  0.657855  0.941669  1
  Y  Y7  1  0.750000  0.342145  0.058331  1
  Al  Al8  1  0.250000  0.141217  0.353151  1
  Al  Al9  1  0.750000  0.858783  0.646849  1
  Al  Al10  1  0.250000  0.641217  0.146849  1
  Al  Al11  1  0.750000  0.358783  0.853151  1
  Al  Al12  1  0.250000  0.008469  0.060123  1
  Al  Al13  1  0.750000  0.991531  0.939877  1
  Al  Al14  1  0.250000  0.508469  0.439877  1
  Al  Al15  1  0.750000  0.491531  0.560123  1
  Rh  Rh16  1  0.750000  0.277891  0.426676  1
  Rh  Rh17  1  0.250000  0.722109  0.573324  1
  Rh  Rh18  1  0.750000  0.777891  0.073324  1
  Rh  Rh19  1  0.250000  0.222109  0.926676  1
  Rh  Rh20  1  0.750000  0.740003  0.813431  1
  Rh  Rh21  1  0.250000  0.259997  0.186569  1
  Rh  Rh22  1  0.750000  0.240003  0.686569  1
  Rh  Rh23  1  0.250000  0.759997  0.313431  1
