# generated using pymatgen
data_K4CeNpBr12
_symmetry_space_group_name_H-M   'P 1'
_cell_length_a   8.04307339
_cell_length_b   7.62001382
_cell_length_c   13.19045900
_cell_angle_alpha   55.02846302
_cell_angle_beta   89.94011174
_cell_angle_gamma   89.91019783
_symmetry_Int_Tables_number   1
_chemical_formula_structural   K4CeNpBr12
_chemical_formula_sum   'K4 Ce1 Np1 Br12'
_cell_volume   662.44933026
_cell_formula_units_Z   1
loop_
 _symmetry_equiv_pos_site_id
 _symmetry_equiv_pos_as_xyz
  1  'x, y, z'
loop_
 _atom_site_type_symbol
 _atom_site_label
 _atom_site_symmetry_multiplicity
 _atom_site_fract_x
 _atom_site_fract_y
 _atom_site_fract_z
 _atom_site_occupancy
  K  K0  1  0.582353  0.724985  0.252496  1
  K  K1  1  0.082277  0.273531  0.248669  1
  K  K2  1  0.417647  0.275015  0.747504  1
  K  K3  1  0.917723  0.726469  0.751331  1
  Ce  Ce4  1  0.000000  0.000000  0.000000  1
  Np  Np5  1  0.500000  0.000000  0.500000  1
  Br  Br6  1  0.981637  0.846576  0.248769  1
  Br  Br7  1  0.481882  0.150505  0.253437  1
  Br  Br8  1  0.018363  0.153424  0.751231  1
  Br  Br9  1  0.518118  0.849495  0.746563  1
  Br  Br10  1  0.685156  0.649082  0.552896  1
  Br  Br11  1  0.186300  0.353058  0.947027  1
  Br  Br12  1  0.314844  0.350918  0.447104  1
  Br  Br13  1  0.813700  0.646942  0.052973  1
  Br  Br14  1  0.704614  0.227937  0.953247  1
  Br  Br15  1  0.207615  0.773331  0.546578  1
  Br  Br16  1  0.295386  0.772063  0.046753  1
  Br  Br17  1  0.792385  0.226669  0.453422  1
