# generated using pymatgen
data_Hf3B2Ru5
_symmetry_space_group_name_H-M   'P 1'
_cell_length_a   9.49911400
_cell_length_b   9.49911400
_cell_length_c   3.13563200
_cell_angle_alpha   90.00000000
_cell_angle_beta   90.00000000
_cell_angle_gamma   90.00000000
_symmetry_Int_Tables_number   1
_chemical_formula_structural   Hf3B2Ru5
_chemical_formula_sum   'Hf6 B4 Ru10'
_cell_volume   282.93800523
_cell_formula_units_Z   2
loop_
 _symmetry_equiv_pos_site_id
 _symmetry_equiv_pos_as_xyz
  1  'x, y, z'
loop_
 _atom_site_type_symbol
 _atom_site_label
 _atom_site_symmetry_multiplicity
 _atom_site_fract_x
 _atom_site_fract_y
 _atom_site_fract_z
 _atom_site_occupancy
  Hf  Hf0  1  0.824516  0.675484  0.000000  1
  Hf  Hf1  1  0.175484  0.324516  0.000000  1
  Hf  Hf2  1  0.324516  0.824516  0.000000  1
  Hf  Hf3  1  0.675484  0.175484  0.000000  1
  Hf  Hf4  1  0.500000  0.500000  0.000000  1
  Hf  Hf5  1  0.000000  0.000000  0.000000  1
  B  B6  1  0.621864  0.878136  0.000000  1
  B  B7  1  0.378136  0.121864  0.000000  1
  B  B8  1  0.121864  0.621864  0.000000  1
  B  B9  1  0.878136  0.378136  0.000000  1
  Ru  Ru10  1  0.572206  0.720705  0.500000  1
  Ru  Ru11  1  0.427794  0.279295  0.500000  1
  Ru  Ru12  1  0.072206  0.779295  0.500000  1
  Ru  Ru13  1  0.927794  0.220705  0.500000  1
  Ru  Ru14  1  0.279295  0.572206  0.500000  1
  Ru  Ru15  1  0.720705  0.427794  0.500000  1
  Ru  Ru16  1  0.220705  0.072206  0.500000  1
  Ru  Ru17  1  0.779295  0.927794  0.500000  1
  Ru  Ru18  1  0.500000  0.000000  0.500000  1
  Ru  Ru19  1  0.000000  0.500000  0.500000  1
