# generated using pymatgen
data_Tm5Hf3Rh4
_symmetry_space_group_name_H-M   'P 1'
_cell_length_a   4.58785900
_cell_length_b   6.97503817
_cell_length_c   8.31526507
_cell_angle_alpha   89.63882595
_cell_angle_beta   90.00000000
_cell_angle_gamma   90.00000000
_symmetry_Int_Tables_number   1
_chemical_formula_structural   Tm5Hf3Rh4
_chemical_formula_sum   'Tm5 Hf3 Rh4'
_cell_volume   266.08728381
_cell_formula_units_Z   1
loop_
 _symmetry_equiv_pos_site_id
 _symmetry_equiv_pos_as_xyz
  1  'x, y, z'
loop_
 _atom_site_type_symbol
 _atom_site_label
 _atom_site_symmetry_multiplicity
 _atom_site_fract_x
 _atom_site_fract_y
 _atom_site_fract_z
 _atom_site_occupancy
  Tm  Tm0  1  0.750000  0.645233  0.420490  1
  Tm  Tm1  1  0.250000  0.992114  0.326063  1
  Tm  Tm2  1  0.250000  0.479967  0.169609  1
  Tm  Tm3  1  0.750000  0.017738  0.681356  1
  Tm  Tm4  1  0.750000  0.516718  0.822282  1
  Hf  Hf5  1  0.250000  0.861494  0.926904  1
  Hf  Hf6  1  0.250000  0.355738  0.574166  1
  Hf  Hf7  1  0.750000  0.143248  0.075170  1
  Rh  Rh8  1  0.250000  0.234352  0.908644  1
  Rh  Rh9  1  0.250000  0.736327  0.606329  1
  Rh  Rh10  1  0.750000  0.767157  0.078360  1
  Rh  Rh11  1  0.750000  0.249913  0.410629  1
