# generated using pymatgen
data_Nd8ZnCu(Si6Pd)2
_symmetry_space_group_name_H-M   'P 1'
_cell_length_a   8.21192000
_cell_length_b   8.21192144
_cell_length_c   8.55556600
_cell_angle_alpha   90.00000000
_cell_angle_beta   90.00000000
_cell_angle_gamma   119.99999419
_symmetry_Int_Tables_number   1
_chemical_formula_structural   Nd8ZnCu(Si6Pd)2
_chemical_formula_sum   'Nd8 Zn1 Cu1 Si12 Pd2'
_cell_volume   499.65345988
_cell_formula_units_Z   1
loop_
 _symmetry_equiv_pos_site_id
 _symmetry_equiv_pos_as_xyz
  1  'x, y, z'
loop_
 _atom_site_type_symbol
 _atom_site_label
 _atom_site_symmetry_multiplicity
 _atom_site_fract_x
 _atom_site_fract_y
 _atom_site_fract_z
 _atom_site_occupancy
  Nd  Nd0  1  0.499312  0.500688  0.750418  1
  Nd  Nd1  1  0.499923  0.500077  0.249609  1
  Nd  Nd2  1  0.001376  0.500688  0.750418  1
  Nd  Nd3  1  0.000154  0.500077  0.249609  1
  Nd  Nd4  1  0.499312  0.998624  0.750418  1
  Nd  Nd5  1  0.499923  0.999846  0.249609  1
  Nd  Nd6  1  0.000000  0.000000  0.750068  1
  Nd  Nd7  1  0.000000  0.000000  0.250195  1
  Zn  Zn8  1  0.666667  0.333333  0.996704  1
  Cu  Cu9  1  0.333333  0.666667  0.001683  1
  Si  Si10  1  0.835143  0.164857  0.000661  1
  Si  Si11  1  0.170457  0.829543  0.999732  1
  Si  Si12  1  0.329715  0.164857  0.000661  1
  Si  Si13  1  0.166028  0.833972  0.499545  1
  Si  Si14  1  0.659086  0.829543  0.999732  1
  Si  Si15  1  0.833832  0.166168  0.500527  1
  Si  Si16  1  0.835143  0.670285  0.000661  1
  Si  Si17  1  0.667944  0.833972  0.499545  1
  Si  Si18  1  0.170457  0.340914  0.999732  1
  Si  Si19  1  0.332337  0.166168  0.500527  1
  Si  Si20  1  0.166028  0.332056  0.499545  1
  Si  Si21  1  0.833832  0.667663  0.500527  1
  Pd  Pd22  1  0.333333  0.666667  0.498970  1
  Pd  Pd23  1  0.666667  0.333333  0.500907  1
