# generated using pymatgen
data_Tb10Tl6Cl
_symmetry_space_group_name_H-M   'P 1'
_cell_length_a   6.70710001
_cell_length_b   9.12317203
_cell_length_c   9.12332700
_cell_angle_alpha   119.99944405
_cell_angle_beta   89.99753091
_cell_angle_gamma   90.00494814
_symmetry_Int_Tables_number   1
_chemical_formula_structural   Tb10Tl6Cl
_chemical_formula_sum   'Tb10 Tl6 Cl1'
_cell_volume   483.46712779
_cell_formula_units_Z   1
loop_
 _symmetry_equiv_pos_site_id
 _symmetry_equiv_pos_as_xyz
  1  'x, y, z'
loop_
 _atom_site_type_symbol
 _atom_site_label
 _atom_site_symmetry_multiplicity
 _atom_site_fract_x
 _atom_site_fract_y
 _atom_site_fract_z
 _atom_site_occupancy
  Tb  Tb0  1  0.500000  0.333312  0.666621  1
  Tb  Tb1  1  0.500000  0.666689  0.333379  1
  Tb  Tb2  1  0.000000  0.666645  0.333291  1
  Tb  Tb3  1  0.000000  0.333355  0.666709  1
  Tb  Tb4  1  0.753864  0.250725  0.000000  1
  Tb  Tb5  1  0.753793  0.749292  0.749288  1
  Tb  Tb6  1  0.753793  0.000003  0.250712  1
  Tb  Tb7  1  0.246135  0.749275  0.000000  1
  Tb  Tb8  1  0.246206  0.250709  0.250712  1
  Tb  Tb9  1  0.246206  0.999996  0.749288  1
  Tl  Tl10  1  0.749496  0.603742  0.000000  1
  Tl  Tl11  1  0.749645  0.396250  0.396250  1
  Tl  Tl12  1  0.749645  0.000000  0.603750  1
  Tl  Tl13  1  0.250504  0.396258  0.000000  1
  Tl  Tl14  1  0.250356  0.603750  0.603750  1
  Tl  Tl15  1  0.250356  0.000000  0.396250  1
  Cl  Cl16  1  0.500000  0.000001  0.000000  1
