# generated using pymatgen
data_Sm2GdEr(SeO3)6
_symmetry_space_group_name_H-M   'P 1'
_cell_length_a   7.19932975
_cell_length_b   8.24996787
_cell_length_c   9.17954915
_cell_angle_alpha   71.03954709
_cell_angle_beta   70.07816994
_cell_angle_gamma   66.19032951
_symmetry_Int_Tables_number   1
_chemical_formula_structural   Sm2GdEr(SeO3)6
_chemical_formula_sum   'Sm2 Gd1 Er1 Se6 O18'
_cell_volume   457.69990371
_cell_formula_units_Z   1
loop_
 _symmetry_equiv_pos_site_id
 _symmetry_equiv_pos_as_xyz
  1  'x, y, z'
loop_
 _atom_site_type_symbol
 _atom_site_label
 _atom_site_symmetry_multiplicity
 _atom_site_fract_x
 _atom_site_fract_y
 _atom_site_fract_z
 _atom_site_occupancy
  Sm  Sm0  1  0.333121  0.730244  0.589670  1
  Sm  Sm1  1  0.664762  0.272707  0.409724  1
  Gd  Gd2  1  0.740991  0.734578  0.800363  1
  Er  Er3  1  0.258930  0.263456  0.200262  1
  Se  Se4  1  0.425888  0.780450  0.196716  1
  Se  Se5  1  0.572195  0.224611  0.804053  1
  Se  Se6  1  0.149928  0.744543  0.968146  1
  Se  Se7  1  0.850865  0.248092  0.036578  1
  Se  Se8  1  0.887342  0.759666  0.414729  1
  Se  Se9  1  0.113502  0.242166  0.580677  1
  O  O10  1  0.647229  0.793429  0.053374  1
  O  O11  1  0.354454  0.209478  0.951846  1
  O  O12  1  0.359700  0.948550  0.299447  1
  O  O13  1  0.635024  0.058701  0.699826  1
  O  O14  1  0.513771  0.600237  0.348744  1
  O  O15  1  0.481843  0.404377  0.652447  1
  O  O16  1  0.171240  0.559780  0.120657  1
  O  O17  1  0.833433  0.429645  0.880747  1
  O  O18  1  0.405279  0.709812  0.852015  1
  O  O19  1  0.593372  0.288755  0.150673  1
  O  O20  1  0.341411  0.250599  0.432467  1
  O  O21  1  0.659110  0.748617  0.561446  1
  O  O22  1  0.972322  0.291329  0.440670  1
  O  O23  1  0.031433  0.707655  0.553530  1
  O  O24  1  0.155323  0.018121  0.655295  1
  O  O25  1  0.843658  0.984231  0.344739  1
  O  O26  1  0.937853  0.302637  0.164455  1
  O  O27  1  0.066020  0.693532  0.836705  1
