# generated using pymatgen
data_V11CoSi3Ge
_symmetry_space_group_name_H-M   'P 1'
_cell_length_a   4.69154800
_cell_length_b   4.69448700
_cell_length_c   9.36191400
_cell_angle_alpha   90.00000000
_cell_angle_beta   90.00000000
_cell_angle_gamma   90.00000000
_symmetry_Int_Tables_number   1
_chemical_formula_structural   V11CoSi3Ge
_chemical_formula_sum   'V11 Co1 Si3 Ge1'
_cell_volume   206.19064258
_cell_formula_units_Z   1
loop_
 _symmetry_equiv_pos_site_id
 _symmetry_equiv_pos_as_xyz
  1  'x, y, z'
loop_
 _atom_site_type_symbol
 _atom_site_label
 _atom_site_symmetry_multiplicity
 _atom_site_fract_x
 _atom_site_fract_y
 _atom_site_fract_z
 _atom_site_occupancy
  V  V0  1  0.002967  0.500000  0.131986  1
  V  V1  1  0.000116  0.500000  0.622892  1
  V  V2  1  0.498393  0.248324  0.745261  1
  V  V3  1  0.498393  0.248324  0.254739  1
  V  V4  1  0.756089  0.000000  0.000000  1
  V  V5  1  0.002967  0.500000  0.868014  1
  V  V6  1  0.000116  0.500000  0.377108  1
  V  V7  1  0.498393  0.751676  0.745261  1
  V  V8  1  0.498393  0.751676  0.254739  1
  V  V9  1  0.247172  0.000000  0.000000  1
  V  V10  1  0.246734  0.000000  0.500000  1
  Co  Co11  1  0.748569  0.000000  0.500000  1
  Si  Si12  1  0.497493  0.500000  0.500000  1
  Si  Si13  1  0.002275  0.000000  0.749943  1
  Si  Si14  1  0.002275  0.000000  0.250057  1
  Ge  Ge15  1  0.499652  0.500000  0.000000  1
