# generated using pymatgen
data_AcEu3(Ga5Pd3)2
_symmetry_space_group_name_H-M   'P 1'
_cell_length_a   8.77190132
_cell_length_b   8.77780160
_cell_length_c   8.77780200
_cell_angle_alpha   140.81452317
_cell_angle_beta   107.86663093
_cell_angle_gamma   85.31050426
_symmetry_Int_Tables_number   1
_chemical_formula_structural   AcEu3(Ga5Pd3)2
_chemical_formula_sum   'Ac1 Eu3 Ga10 Pd6'
_cell_volume   392.52166618
_cell_formula_units_Z   1
loop_
 _symmetry_equiv_pos_site_id
 _symmetry_equiv_pos_as_xyz
  1  'x, y, z'
loop_
 _atom_site_type_symbol
 _atom_site_label
 _atom_site_symmetry_multiplicity
 _atom_site_fract_x
 _atom_site_fract_y
 _atom_site_fract_z
 _atom_site_occupancy
  Ac  Ac0  1  0.913446  0.638662  0.274785  1
  Eu  Eu1  1  0.635205  0.861807  0.773398  1
  Eu  Eu2  1  0.363305  0.137552  0.225753  1
  Eu  Eu3  1  0.090707  0.363813  0.726894  1
  Ga  Ga4  1  0.292700  0.042218  0.752446  1
  Ga  Ga5  1  0.707951  0.964280  0.249686  1
  Ga  Ga6  1  0.707951  0.458265  0.743672  1
  Ga  Ga7  1  0.292700  0.540254  0.250481  1
  Ga  Ga8  1  0.430818  0.595639  0.835180  1
  Ga  Ga9  1  0.566096  0.400993  0.165103  1
  Ga  Ga10  1  0.757013  0.095033  0.661980  1
  Ga  Ga11  1  0.238960  0.905163  0.333798  1
  Ga  Ga12  1  0.002413  0.750418  0.755318  1
  Ga  Ga13  1  0.002413  0.247096  0.251997  1
  Pd  Pd14  1  0.241378  0.643892  0.597487  1
  Pd  Pd15  1  0.760528  0.357121  0.403406  1
  Pd  Pd16  1  0.047530  0.143386  0.904144  1
  Pd  Pd17  1  0.950559  0.854920  0.095640  1
  Pd  Pd18  1  0.499161  0.748923  0.248597  1
  Pd  Pd19  1  0.499161  0.250565  0.750238  1
