# generated using pymatgen
data_Cs6KRb2GaBi4
_symmetry_space_group_name_H-M   'P 1'
_cell_length_a   11.53316114
_cell_length_b   11.48523624
_cell_length_c   12.06139300
_cell_angle_alpha   90.00000000
_cell_angle_beta   90.00000000
_cell_angle_gamma   119.86263053
_symmetry_Int_Tables_number   1
_chemical_formula_structural   Cs6KRb2GaBi4
_chemical_formula_sum   'Cs12 K2 Rb4 Ga2 Bi8'
_cell_volume   1385.52986649
_cell_formula_units_Z   2
loop_
 _symmetry_equiv_pos_site_id
 _symmetry_equiv_pos_as_xyz
  1  'x, y, z'
loop_
 _atom_site_type_symbol
 _atom_site_label
 _atom_site_symmetry_multiplicity
 _atom_site_fract_x
 _atom_site_fract_y
 _atom_site_fract_z
 _atom_site_occupancy
  Cs  Cs0  1  0.208742  0.417905  0.540801  1
  Cs  Cs1  1  0.791258  0.209165  0.040801  1
  Cs  Cs2  1  0.418341  0.209395  0.041387  1
  Cs  Cs3  1  0.581659  0.791053  0.541387  1
  Cs  Cs4  1  0.209370  0.790670  0.541107  1
  Cs  Cs5  1  0.790630  0.581303  0.458893  1
  Cs  Cs6  1  0.791258  0.209165  0.459199  1
  Cs  Cs7  1  0.790630  0.581303  0.041107  1
  Cs  Cs8  1  0.418341  0.209395  0.458613  1
  Cs  Cs9  1  0.581659  0.791053  0.958613  1
  Cs  Cs10  1  0.208742  0.417905  0.959199  1
  Cs  Cs11  1  0.209370  0.790670  0.958893  1
  K  K12  1  0.119418  0.238958  0.250000  1
  K  K13  1  0.880582  0.119541  0.750000  1
  Rb  Rb14  1  0.237865  0.119231  0.750000  1
  Rb  Rb15  1  0.762135  0.881365  0.250000  1
  Rb  Rb16  1  0.119051  0.881444  0.250000  1
  Rb  Rb17  1  0.880949  0.762394  0.750000  1
  Ga  Ga18  1  0.333080  0.666686  0.250000  1
  Ga  Ga19  1  0.666920  0.333605  0.750000  1
  Bi  Bi20  1  0.471332  0.523706  0.250000  1
  Bi  Bi21  1  0.947223  0.471266  0.750000  1
  Bi  Bi22  1  0.528668  0.052374  0.750000  1
  Bi  Bi23  1  0.473829  0.947934  0.250000  1
  Bi  Bi24  1  0.052777  0.524043  0.250000  1
  Bi  Bi25  1  0.526171  0.474105  0.750000  1
  Bi  Bi26  1  0.000000  0.002184  0.000000  1
  Bi  Bi27  1  0.000000  0.002184  0.500000  1
