# generated using pymatgen
data_Tb3Gd2YH18
_symmetry_space_group_name_H-M   'P 1'
_cell_length_a   6.39886401
_cell_length_b   6.39989082
_cell_length_c   6.66188602
_cell_angle_alpha   89.99834980
_cell_angle_beta   90.00083407
_cell_angle_gamma   120.00529186
_symmetry_Int_Tables_number   1
_chemical_formula_structural   Tb3Gd2YH18
_chemical_formula_sum   'Tb3 Gd2 Y1 H18'
_cell_volume   236.25451349
_cell_formula_units_Z   1
loop_
 _symmetry_equiv_pos_site_id
 _symmetry_equiv_pos_as_xyz
  1  'x, y, z'
loop_
 _atom_site_type_symbol
 _atom_site_label
 _atom_site_symmetry_multiplicity
 _atom_site_fract_x
 _atom_site_fract_y
 _atom_site_fract_z
 _atom_site_occupancy
  Tb  Tb0  1  0.000000  0.329997  0.750108  1
  Tb  Tb1  1  0.329559  0.329848  0.250012  1
  Tb  Tb2  1  0.670441  0.000288  0.250012  1
  Gd  Gd3  1  0.669935  0.669856  0.750134  1
  Gd  Gd4  1  0.330065  0.999922  0.750134  1
  Y  Y5  1  0.000000  0.669980  0.250116  1
  H  H6  1  0.305494  0.305864  0.592016  1
  H  H7  1  0.694506  0.000370  0.592016  1
  H  H8  1  0.000000  0.694056  0.591223  1
  H  H9  1  0.695050  0.694939  0.092798  1
  H  H10  1  0.304950  0.999889  0.092798  1
  H  H11  1  0.000000  0.304859  0.092052  1
  H  H12  1  0.355418  0.355545  0.907909  1
  H  H13  1  0.644582  0.000128  0.907909  1
  H  H14  1  0.000000  0.644067  0.908083  1
  H  H15  1  0.643797  0.643897  0.407077  1
  H  H16  1  0.356203  0.000101  0.407077  1
  H  H17  1  0.000000  0.356327  0.407203  1
  H  H18  1  0.000000  0.000907  0.819840  1
  H  H19  1  0.000000  0.999287  0.319633  1
  H  H20  1  0.332548  0.665821  0.704317  1
  H  H21  1  0.667452  0.333272  0.704317  1
  H  H22  1  0.667438  0.334109  0.204617  1
  H  H23  1  0.332562  0.666672  0.204617  1
