# generated using pymatgen
data_Ho4Si3Rh4
_symmetry_space_group_name_H-M   'P 1'
_cell_length_a   10.69152663
_cell_length_b   10.69152682
_cell_length_c   7.69396938
_cell_angle_alpha   71.20033993
_cell_angle_beta   71.20034058
_cell_angle_gamma   29.66861148
_symmetry_Int_Tables_number   1
_chemical_formula_structural   Ho4Si3Rh4
_chemical_formula_sum   'Ho8 Si6 Rh8'
_cell_volume   410.42850435
_cell_formula_units_Z   2
loop_
 _symmetry_equiv_pos_site_id
 _symmetry_equiv_pos_as_xyz
  1  'x, y, z'
loop_
 _atom_site_type_symbol
 _atom_site_label
 _atom_site_symmetry_multiplicity
 _atom_site_fract_x
 _atom_site_fract_y
 _atom_site_fract_z
 _atom_site_occupancy
  Ho  Ho0  1  0.789687  0.550161  0.599687  1
  Ho  Ho1  1  0.449839  0.210313  0.900313  1
  Ho  Ho2  1  0.210313  0.449839  0.400313  1
  Ho  Ho3  1  0.550161  0.789687  0.099687  1
  Ho  Ho4  1  0.791232  0.073587  0.168714  1
  Ho  Ho5  1  0.926413  0.208768  0.331286  1
  Ho  Ho6  1  0.208768  0.926413  0.831286  1
  Ho  Ho7  1  0.073587  0.791232  0.668714  1
  Si  Si8  1  0.953086  0.703431  0.055698  1
  Si  Si9  1  0.296569  0.046914  0.444302  1
  Si  Si10  1  0.046914  0.296569  0.944302  1
  Si  Si11  1  0.703431  0.953086  0.555698  1
  Si  Si12  1  0.635238  0.364762  0.750000  1
  Si  Si13  1  0.364762  0.635238  0.250000  1
  Rh  Rh14  1  0.575861  0.298371  0.520496  1
  Rh  Rh15  1  0.701629  0.424139  0.979504  1
  Rh  Rh16  1  0.424139  0.701629  0.479504  1
  Rh  Rh17  1  0.298371  0.575861  0.020496  1
  Rh  Rh18  1  0.628938  0.929535  0.308622  1
  Rh  Rh19  1  0.070465  0.371062  0.191378  1
  Rh  Rh20  1  0.371062  0.070465  0.691378  1
  Rh  Rh21  1  0.929535  0.628938  0.808622  1
