# generated using pymatgen
data_Tb7Ho9Cd4Os2PtRh
_symmetry_space_group_name_H-M   'P 1'
_cell_length_a   9.65194608
_cell_length_b   9.65194617
_cell_length_c   9.70646800
_cell_angle_alpha   59.81296290
_cell_angle_beta   59.81296260
_cell_angle_gamma   59.71201311
_symmetry_Int_Tables_number   1
_chemical_formula_structural   Tb7Ho9Cd4Os2PtRh
_chemical_formula_sum   'Tb7 Ho9 Cd4 Os2 Pt1 Rh1'
_cell_volume   636.19995195
_cell_formula_units_Z   1
loop_
 _symmetry_equiv_pos_site_id
 _symmetry_equiv_pos_as_xyz
  1  'x, y, z'
loop_
 _atom_site_type_symbol
 _atom_site_label
 _atom_site_symmetry_multiplicity
 _atom_site_fract_x
 _atom_site_fract_y
 _atom_site_fract_z
 _atom_site_occupancy
  Tb  Tb0  1  0.812445  0.806391  0.190582  1
  Tb  Tb1  1  0.939172  0.555961  0.564871  1
  Tb  Tb2  1  0.554739  0.939310  0.939611  1
  Tb  Tb3  1  0.554739  0.939310  0.566340  1
  Tb  Tb4  1  0.939172  0.555961  0.939996  1
  Tb  Tb5  1  0.561655  0.563890  0.937227  1
  Tb  Tb6  1  0.940418  0.940390  0.559596  1
  Ho  Ho7  1  0.347838  0.351099  0.349627  1
  Ho  Ho8  1  0.347838  0.351099  0.951437  1
  Ho  Ho9  1  0.345682  0.956947  0.348685  1
  Ho  Ho10  1  0.958796  0.346000  0.347602  1
  Ho  Ho11  1  0.814775  0.187571  0.190699  1
  Ho  Ho12  1  0.186975  0.813007  0.810378  1
  Ho  Ho13  1  0.186975  0.813007  0.189641  1
  Ho  Ho14  1  0.814775  0.187571  0.806955  1
  Ho  Ho15  1  0.188124  0.187540  0.812168  1
  Cd  Cd16  1  0.579984  0.579901  0.581065  1
  Cd  Cd17  1  0.579984  0.579901  0.259049  1
  Cd  Cd18  1  0.580886  0.256774  0.581170  1
  Cd  Cd19  1  0.256536  0.580912  0.581275  1
  Os  Os20  1  0.144512  0.142953  0.137190  1
  Os  Os21  1  0.144512  0.142953  0.575346  1
  Pt  Pt22  1  0.574510  0.145939  0.139776  1
  Rh  Rh23  1  0.144960  0.575616  0.139713  1
