# generated using pymatgen
data_Yb2DyEr5(B6Os)4
_symmetry_space_group_name_H-M   'P 1'
_cell_length_a   3.63225600
_cell_length_b   9.12557945
_cell_length_c   11.51420601
_cell_angle_alpha   89.84037756
_cell_angle_beta   90.00000000
_cell_angle_gamma   90.00000000
_symmetry_Int_Tables_number   1
_chemical_formula_structural   Yb2DyEr5(B6Os)4
_chemical_formula_sum   'Yb2 Dy1 Er5 B24 Os4'
_cell_volume   381.65346555
_cell_formula_units_Z   1
loop_
 _symmetry_equiv_pos_site_id
 _symmetry_equiv_pos_as_xyz
  1  'x, y, z'
loop_
 _atom_site_type_symbol
 _atom_site_label
 _atom_site_symmetry_multiplicity
 _atom_site_fract_x
 _atom_site_fract_y
 _atom_site_fract_z
 _atom_site_occupancy
  Yb  Yb0  1  0.000000  0.324408  0.414527  1
  Yb  Yb1  1  0.000000  0.675564  0.585517  1
  Dy  Dy2  1  0.000000  0.821969  0.086353  1
  Er  Er3  1  0.000000  0.178112  0.913610  1
  Er  Er4  1  0.000000  0.942232  0.370484  1
  Er  Er5  1  0.000000  0.057862  0.629545  1
  Er  Er6  1  0.000000  0.442851  0.130024  1
  Er  Er7  1  0.000000  0.556931  0.869885  1
  B  B8  1  0.500000  0.553884  0.432612  1
  B  B9  1  0.500000  0.446020  0.567487  1
  B  B10  1  0.500000  0.053799  0.066542  1
  B  B11  1  0.500000  0.946731  0.933150  1
  B  B12  1  0.500000  0.748300  0.418168  1
  B  B13  1  0.500000  0.251710  0.581955  1
  B  B14  1  0.500000  0.248501  0.080925  1
  B  B15  1  0.500000  0.751541  0.918585  1
  B  B16  1  0.500000  0.791196  0.265020  1
  B  B17  1  0.500000  0.208588  0.735342  1
  B  B18  1  0.500000  0.290367  0.234247  1
  B  B19  1  0.500000  0.709679  0.765650  1
  B  B20  1  0.500000  0.631064  0.185338  1
  B  B21  1  0.500000  0.368579  0.814927  1
  B  B22  1  0.500000  0.130693  0.314028  1
  B  B23  1  0.500000  0.869456  0.685973  1
  B  B24  1  0.500000  0.983016  0.211859  1
  B  B25  1  0.500000  0.017539  0.788256  1
  B  B26  1  0.500000  0.483461  0.288004  1
  B  B27  1  0.500000  0.516384  0.712034  1
  B  B28  1  0.500000  0.603037  0.028387  1
  B  B29  1  0.500000  0.396315  0.971429  1
  B  B30  1  0.500000  0.099329  0.472492  1
  B  B31  1  0.500000  0.900727  0.527548  1
  Os  Os32  1  0.000000  0.639751  0.319289  1
  Os  Os33  1  0.000000  0.359989  0.680994  1
  Os  Os34  1  0.000000  0.136999  0.177925  1
  Os  Os35  1  0.000000  0.863417  0.821888  1
