# generated using pymatgen
data_Ta4MnCr(P2Rh)2
_symmetry_space_group_name_H-M   'P 1'
_cell_length_a   3.67458000
_cell_length_b   6.24270892
_cell_length_c   7.19564511
_cell_angle_alpha   89.07872748
_cell_angle_beta   90.00000000
_cell_angle_gamma   90.00000000
_symmetry_Int_Tables_number   1
_chemical_formula_structural   Ta4MnCr(P2Rh)2
_chemical_formula_sum   'Ta4 Mn1 Cr1 P4 Rh2'
_cell_volume   165.04196440
_cell_formula_units_Z   1
loop_
 _symmetry_equiv_pos_site_id
 _symmetry_equiv_pos_as_xyz
  1  'x, y, z'
loop_
 _atom_site_type_symbol
 _atom_site_label
 _atom_site_symmetry_multiplicity
 _atom_site_fract_x
 _atom_site_fract_y
 _atom_site_fract_z
 _atom_site_occupancy
  Ta  Ta0  1  0.750000  0.978425  0.818910  1
  Ta  Ta1  1  0.250000  0.529405  0.337599  1
  Ta  Ta2  1  0.250000  0.021495  0.179842  1
  Ta  Ta3  1  0.750000  0.471157  0.665101  1
  Mn  Mn4  1  0.250000  0.143750  0.557316  1
  Cr  Cr5  1  0.750000  0.855181  0.441502  1
  P  P6  1  0.250000  0.779405  0.617027  1
  P  P7  1  0.750000  0.221489  0.385241  1
  P  P8  1  0.250000  0.261669  0.861709  1
  P  P9  1  0.750000  0.737368  0.135429  1
  Rh  Rh10  1  0.750000  0.351885  0.068265  1
  Rh  Rh11  1  0.250000  0.648771  0.932060  1
