# generated using pymatgen
data_HoTm19(Bi5Sb)2
_symmetry_space_group_name_H-M   'P 1'
_cell_length_a   8.12633105
_cell_length_b   9.41387300
_cell_length_c   11.86164307
_cell_angle_alpha   90.00000000
_cell_angle_beta   90.01260947
_cell_angle_gamma   90.00000000
_symmetry_Int_Tables_number   1
_chemical_formula_structural   HoTm19(Bi5Sb)2
_chemical_formula_sum   'Ho1 Tm19 Bi10 Sb2'
_cell_volume   907.41862008
_cell_formula_units_Z   1
loop_
 _symmetry_equiv_pos_site_id
 _symmetry_equiv_pos_as_xyz
  1  'x, y, z'
loop_
 _atom_site_type_symbol
 _atom_site_label
 _atom_site_symmetry_multiplicity
 _atom_site_fract_x
 _atom_site_fract_y
 _atom_site_fract_z
 _atom_site_occupancy
  Ho  Ho0  1  0.183555  0.750000  0.717378  1
  Tm  Tm1  1  0.354075  0.750000  0.214114  1
  Tm  Tm2  1  0.854033  0.750000  0.285864  1
  Tm  Tm3  1  0.646920  0.250000  0.782875  1
  Tm  Tm4  1  0.146944  0.250000  0.717131  1
  Tm  Tm5  1  0.689916  0.567193  0.058131  1
  Tm  Tm6  1  0.189867  0.932814  0.441811  1
  Tm  Tm7  1  0.308714  0.061257  0.940977  1
  Tm  Tm8  1  0.808771  0.438773  0.559067  1
  Tm  Tm9  1  0.308714  0.438743  0.940977  1
  Tm  Tm10  1  0.808771  0.061227  0.559067  1
  Tm  Tm11  1  0.689916  0.932807  0.058131  1
  Tm  Tm12  1  0.189867  0.567186  0.441811  1
  Tm  Tm13  1  0.477109  0.250000  0.488907  1
  Tm  Tm14  1  0.977079  0.250000  0.011078  1
  Tm  Tm15  1  0.527292  0.750000  0.511473  1
  Tm  Tm16  1  0.027097  0.750000  0.988551  1
  Tm  Tm17  1  0.313733  0.250000  0.218096  1
  Tm  Tm18  1  0.813759  0.250000  0.281909  1
  Tm  Tm19  1  0.683546  0.750000  0.782851  1
  Bi  Bi20  1  0.594764  0.250000  0.042529  1
  Bi  Bi21  1  0.094795  0.250000  0.457468  1
  Bi  Bi22  1  0.566045  0.996074  0.325636  1
  Bi  Bi23  1  0.066085  0.503938  0.174317  1
  Bi  Bi24  1  0.433828  0.496013  0.674273  1
  Bi  Bi25  1  0.933338  0.003909  0.825787  1
  Bi  Bi26  1  0.433828  0.003987  0.674273  1
  Bi  Bi27  1  0.933338  0.496091  0.825787  1
  Bi  Bi28  1  0.566045  0.503926  0.325636  1
  Bi  Bi29  1  0.066085  0.996062  0.174317  1
  Sb  Sb30  1  0.406328  0.750000  0.958537  1
  Sb  Sb31  1  0.905842  0.750000  0.541243  1
