# generated using pymatgen
data_Er7Nb(ReB6)4
_symmetry_space_group_name_H-M   'P 1'
_cell_length_a   3.62986600
_cell_length_b   9.07737602
_cell_length_c   11.44881400
_cell_angle_alpha   90.00371083
_cell_angle_beta   90.00000000
_cell_angle_gamma   90.00000000
_symmetry_Int_Tables_number   1
_chemical_formula_structural   Er7Nb(ReB6)4
_chemical_formula_sum   'Er7 Nb1 Re4 B24'
_cell_volume   377.23451176
_cell_formula_units_Z   1
loop_
 _symmetry_equiv_pos_site_id
 _symmetry_equiv_pos_as_xyz
  1  'x, y, z'
loop_
 _atom_site_type_symbol
 _atom_site_label
 _atom_site_symmetry_multiplicity
 _atom_site_fract_x
 _atom_site_fract_y
 _atom_site_fract_z
 _atom_site_occupancy
  Er  Er0  1  0.000000  0.322930  0.412260  1
  Er  Er1  1  0.000000  0.677537  0.586376  1
  Er  Er2  1  0.000000  0.821965  0.086386  1
  Er  Er3  1  0.000000  0.177948  0.914871  1
  Er  Er4  1  0.000000  0.943684  0.370707  1
  Er  Er5  1  0.000000  0.057522  0.630641  1
  Er  Er6  1  0.000000  0.444703  0.125385  1
  Nb  Nb7  1  0.000000  0.556863  0.870936  1
  Re  Re8  1  0.000000  0.637964  0.318584  1
  Re  Re9  1  0.000000  0.366936  0.685088  1
  Re  Re10  1  0.000000  0.139165  0.177214  1
  Re  Re11  1  0.000000  0.854058  0.822455  1
  B  B12  1  0.500000  0.553295  0.433481  1
  B  B13  1  0.500000  0.447928  0.566870  1
  B  B14  1  0.500000  0.052077  0.066067  1
  B  B15  1  0.500000  0.944623  0.933970  1
  B  B16  1  0.500000  0.749387  0.418944  1
  B  B17  1  0.500000  0.251733  0.582454  1
  B  B18  1  0.500000  0.249264  0.080547  1
  B  B19  1  0.500000  0.745361  0.918821  1
  B  B20  1  0.500000  0.792301  0.264855  1
  B  B21  1  0.500000  0.208602  0.737037  1
  B  B22  1  0.500000  0.292741  0.234269  1
  B  B23  1  0.500000  0.704468  0.765345  1
  B  B24  1  0.500000  0.630566  0.184499  1
  B  B25  1  0.500000  0.372722  0.817269  1
  B  B26  1  0.500000  0.131396  0.314735  1
  B  B27  1  0.500000  0.867510  0.684969  1
  B  B28  1  0.500000  0.982152  0.212100  1
  B  B29  1  0.500000  0.016064  0.788930  1
  B  B30  1  0.500000  0.481135  0.287382  1
  B  B31  1  0.500000  0.520666  0.713495  1
  B  B32  1  0.500000  0.601114  0.023315  1
  B  B33  1  0.500000  0.402781  0.968393  1
  B  B34  1  0.500000  0.102825  0.472787  1
  B  B35  1  0.500000  0.898011  0.528562  1
