# generated using pymatgen
data_LiY19(Cd3Fe)2
_symmetry_space_group_name_H-M   'P 1'
_cell_length_a   9.54019300
_cell_length_b   9.54019319
_cell_length_c   9.74229200
_cell_angle_alpha   90.00000000
_cell_angle_beta   90.00000000
_cell_angle_gamma   119.99999588
_symmetry_Int_Tables_number   1
_chemical_formula_structural   LiY19(Cd3Fe)2
_chemical_formula_sum   'Li1 Y19 Cd6 Fe2'
_cell_volume   767.90257134
_cell_formula_units_Z   1
loop_
 _symmetry_equiv_pos_site_id
 _symmetry_equiv_pos_as_xyz
  1  'x, y, z'
loop_
 _atom_site_type_symbol
 _atom_site_label
 _atom_site_symmetry_multiplicity
 _atom_site_fract_x
 _atom_site_fract_y
 _atom_site_fract_z
 _atom_site_occupancy
  Li  Li0  1  0.000000  0.000000  0.500000  1
  Y  Y1  1  0.000000  0.000000  0.000000  1
  Y  Y2  1  0.542054  0.457946  0.253052  1
  Y  Y3  1  0.542054  0.084107  0.253052  1
  Y  Y4  1  0.915893  0.457946  0.253052  1
  Y  Y5  1  0.457946  0.542054  0.746948  1
  Y  Y6  1  0.457946  0.915893  0.746948  1
  Y  Y7  1  0.084107  0.542054  0.746948  1
  Y  Y8  1  0.210047  0.789953  0.435155  1
  Y  Y9  1  0.210047  0.420097  0.435155  1
  Y  Y10  1  0.579903  0.789953  0.435155  1
  Y  Y11  1  0.789953  0.210047  0.564845  1
  Y  Y12  1  0.789953  0.579903  0.564845  1
  Y  Y13  1  0.420097  0.210047  0.564845  1
  Y  Y14  1  0.787578  0.212422  0.938252  1
  Y  Y15  1  0.787578  0.575154  0.938252  1
  Y  Y16  1  0.424846  0.212422  0.938252  1
  Y  Y17  1  0.212422  0.787578  0.061748  1
  Y  Y18  1  0.212422  0.424846  0.061748  1
  Y  Y19  1  0.575154  0.787578  0.061748  1
  Cd  Cd20  1  0.888984  0.111016  0.260065  1
  Cd  Cd21  1  0.888984  0.777968  0.260065  1
  Cd  Cd22  1  0.222032  0.111016  0.260065  1
  Cd  Cd23  1  0.111016  0.888984  0.739935  1
  Cd  Cd24  1  0.111016  0.222032  0.739935  1
  Cd  Cd25  1  0.777968  0.888984  0.739935  1
  Fe  Fe26  1  0.333333  0.666667  0.247768  1
  Fe  Fe27  1  0.666667  0.333333  0.752232  1
