# generated using pymatgen
data_Nd6DyErSb20
_symmetry_space_group_name_H-M   'P 1'
_cell_length_a   4.26305200
_cell_length_b   13.49130468
_cell_length_c   15.12378600
_cell_angle_alpha   77.99617475
_cell_angle_beta   90.00000000
_cell_angle_gamma   90.00000000
_symmetry_Int_Tables_number   1
_chemical_formula_structural   Nd6DyErSb20
_chemical_formula_sum   'Nd6 Dy1 Er1 Sb20'
_cell_volume   850.81146535
_cell_formula_units_Z   1
loop_
 _symmetry_equiv_pos_site_id
 _symmetry_equiv_pos_as_xyz
  1  'x, y, z'
loop_
 _atom_site_type_symbol
 _atom_site_label
 _atom_site_symmetry_multiplicity
 _atom_site_fract_x
 _atom_site_fract_y
 _atom_site_fract_z
 _atom_site_occupancy
  Nd  Nd0  1  0.750000  0.335728  0.142617  1
  Nd  Nd1  1  0.250000  0.949774  0.361035  1
  Nd  Nd2  1  0.250000  0.664123  0.856986  1
  Nd  Nd3  1  0.250000  0.667982  0.576573  1
  Nd  Nd4  1  0.750000  0.050333  0.639016  1
  Nd  Nd5  1  0.750000  0.331895  0.423818  1
  Dy  Dy6  1  0.750000  0.603717  0.227349  1
  Er  Er7  1  0.250000  0.396708  0.772672  1
  Sb  Sb8  1  0.750000  0.850769  0.820293  1
  Sb  Sb9  1  0.250000  0.861827  0.675363  1
  Sb  Sb10  1  0.250000  0.142779  0.478048  1
  Sb  Sb11  1  0.750000  0.284813  0.934161  1
  Sb  Sb12  1  0.250000  0.147252  0.781131  1
  Sb  Sb13  1  0.750000  0.574304  0.441561  1
  Sb  Sb14  1  0.750000  0.138237  0.324639  1
  Sb  Sb15  1  0.250000  0.706431  0.350449  1
  Sb  Sb16  1  0.750000  0.293712  0.650066  1
  Sb  Sb17  1  0.750000  0.853395  0.218983  1
  Sb  Sb18  1  0.250000  0.420537  0.972230  1
  Sb  Sb19  1  0.250000  0.425768  0.559099  1
  Sb  Sb20  1  0.750000  0.571046  0.736749  1
  Sb  Sb21  1  0.250000  0.427569  0.263556  1
  Sb  Sb22  1  0.750000  0.857246  0.521963  1
  Sb  Sb23  1  0.750000  0.031050  0.891448  1
  Sb  Sb24  1  0.250000  0.715273  0.065006  1
  Sb  Sb25  1  0.250000  0.969060  0.108475  1
  Sb  Sb26  1  0.250000  0.149209  0.179687  1
  Sb  Sb27  1  0.750000  0.579460  0.027029  1
