# generated using pymatgen
data_Pr2ThSe5
_symmetry_space_group_name_H-M   'P 1'
_cell_length_a   7.96420400
_cell_length_b   8.61767000
_cell_length_c   12.69441300
_cell_angle_alpha   90.00000000
_cell_angle_beta   90.00000000
_cell_angle_gamma   90.00000000
_symmetry_Int_Tables_number   1
_chemical_formula_structural   Pr2ThSe5
_chemical_formula_sum   'Pr8 Th4 Se20'
_cell_volume   871.25414802
_cell_formula_units_Z   4
loop_
 _symmetry_equiv_pos_site_id
 _symmetry_equiv_pos_as_xyz
  1  'x, y, z'
loop_
 _atom_site_type_symbol
 _atom_site_label
 _atom_site_symmetry_multiplicity
 _atom_site_fract_x
 _atom_site_fract_y
 _atom_site_fract_z
 _atom_site_occupancy
  Pr  Pr0  1  0.519149  0.498830  0.321390  1
  Pr  Pr1  1  0.980851  0.001170  0.821390  1
  Pr  Pr2  1  0.480851  0.998830  0.678610  1
  Pr  Pr3  1  0.019149  0.501170  0.178610  1
  Pr  Pr4  1  0.480851  0.501170  0.678610  1
  Pr  Pr5  1  0.019149  0.998830  0.178610  1
  Pr  Pr6  1  0.519149  0.001170  0.321390  1
  Pr  Pr7  1  0.980851  0.498830  0.821390  1
  Th  Th8  1  0.077012  0.750000  0.491063  1
  Th  Th9  1  0.422988  0.750000  0.991063  1
  Th  Th10  1  0.922988  0.250000  0.508937  1
  Th  Th11  1  0.577012  0.250000  0.008937  1
  Se  Se12  1  0.837923  0.956143  0.600106  1
  Se  Se13  1  0.662077  0.543857  0.100106  1
  Se  Se14  1  0.162077  0.456143  0.399894  1
  Se  Se15  1  0.337923  0.043857  0.899894  1
  Se  Se16  1  0.162077  0.043857  0.399894  1
  Se  Se17  1  0.337923  0.456143  0.899894  1
  Se  Se18  1  0.837923  0.543857  0.600106  1
  Se  Se19  1  0.662077  0.956143  0.100106  1
  Se  Se20  1  0.826493  0.750000  0.314883  1
  Se  Se21  1  0.673507  0.750000  0.814883  1
  Se  Se22  1  0.173507  0.250000  0.685117  1
  Se  Se23  1  0.326493  0.250000  0.185117  1
  Se  Se24  1  0.459068  0.750000  0.499334  1
  Se  Se25  1  0.040932  0.750000  0.999334  1
  Se  Se26  1  0.540932  0.250000  0.500666  1
  Se  Se27  1  0.959068  0.250000  0.000666  1
  Se  Se28  1  0.200512  0.750000  0.715970  1
  Se  Se29  1  0.299488  0.750000  0.215970  1
  Se  Se30  1  0.799488  0.250000  0.284030  1
  Se  Se31  1  0.700512  0.250000  0.784030  1
