# generated using pymatgen
data_Ba5Sr(InAs3)2
_symmetry_space_group_name_H-M   'P 1'
_cell_length_a   4.63571700
_cell_length_b   13.99825500
_cell_length_c   14.69817000
_cell_angle_alpha   90.00000000
_cell_angle_beta   90.00000000
_cell_angle_gamma   90.00000000
_symmetry_Int_Tables_number   1
_chemical_formula_structural   Ba5Sr(InAs3)2
_chemical_formula_sum   'Ba10 Sr2 In4 As12'
_cell_volume   953.79289324
_cell_formula_units_Z   2
loop_
 _symmetry_equiv_pos_site_id
 _symmetry_equiv_pos_as_xyz
  1  'x, y, z'
loop_
 _atom_site_type_symbol
 _atom_site_label
 _atom_site_symmetry_multiplicity
 _atom_site_fract_x
 _atom_site_fract_y
 _atom_site_fract_z
 _atom_site_occupancy
  Ba  Ba0  1  0.750000  0.129394  0.994262  1
  Ba  Ba1  1  0.250000  0.276314  0.201256  1
  Ba  Ba2  1  0.250000  0.370606  0.494262  1
  Ba  Ba3  1  0.750000  0.644472  0.502646  1
  Ba  Ba4  1  0.750000  0.425073  0.893589  1
  Ba  Ba5  1  0.250000  0.855528  0.002646  1
  Ba  Ba6  1  0.750000  0.223686  0.701256  1
  Ba  Ba7  1  0.750000  0.919947  0.609062  1
  Ba  Ba8  1  0.250000  0.074927  0.393589  1
  Ba  Ba9  1  0.250000  0.580053  0.109062  1
  Sr  Sr10  1  0.250000  0.780843  0.293387  1
  Sr  Sr11  1  0.750000  0.719157  0.793387  1
  In  In12  1  0.750000  0.943760  0.203802  1
  In  In13  1  0.750000  0.450732  0.296635  1
  In  In14  1  0.250000  0.556240  0.703802  1
  In  In15  1  0.250000  0.049268  0.796635  1
  As  As16  1  0.750000  0.761795  0.135915  1
  As  As17  1  0.250000  0.086643  0.615362  1
  As  As18  1  0.250000  0.596796  0.884442  1
  As  As19  1  0.750000  0.903204  0.384442  1
  As  As20  1  0.250000  0.738205  0.635915  1
  As  As21  1  0.250000  0.041332  0.147915  1
  As  As22  1  0.750000  0.947411  0.850548  1
  As  As23  1  0.750000  0.458668  0.647915  1
  As  As24  1  0.250000  0.552589  0.350548  1
  As  As25  1  0.750000  0.267735  0.371178  1
  As  As26  1  0.750000  0.413357  0.115362  1
  As  As27  1  0.250000  0.232265  0.871178  1
