# generated using pymatgen
data_Tm12TlNi4Rh
_symmetry_space_group_name_H-M   'P 1'
_cell_length_a   8.19273984
_cell_length_b   8.19264868
_cell_length_c   8.19539600
_cell_angle_alpha   106.78431626
_cell_angle_beta   110.27486924
_cell_angle_gamma   111.42128834
_symmetry_Int_Tables_number   1
_chemical_formula_structural   Tm12TlNi4Rh
_chemical_formula_sum   'Tm12 Tl1 Ni4 Rh1'
_cell_volume   422.54103139
_cell_formula_units_Z   1
loop_
 _symmetry_equiv_pos_site_id
 _symmetry_equiv_pos_as_xyz
  1  'x, y, z'
loop_
 _atom_site_type_symbol
 _atom_site_label
 _atom_site_symmetry_multiplicity
 _atom_site_fract_x
 _atom_site_fract_y
 _atom_site_fract_z
 _atom_site_occupancy
  Tm  Tm0  1  0.691751  0.283111  0.974814  1
  Tm  Tm1  1  0.308323  0.717117  0.025365  1
  Tm  Tm2  1  0.691831  0.716954  0.408707  1
  Tm  Tm3  1  0.308291  0.283058  0.591306  1
  Tm  Tm4  1  0.805510  0.126548  0.321064  1
  Tm  Tm5  1  0.805389  0.484302  0.678941  1
  Tm  Tm6  1  0.194606  0.873595  0.678962  1
  Tm  Tm7  1  0.194569  0.515647  0.321052  1
  Tm  Tm8  1  0.607707  0.791209  0.816530  1
  Tm  Tm9  1  0.974580  0.791211  0.183432  1
  Tm  Tm10  1  0.025487  0.208912  0.816548  1
  Tm  Tm11  1  0.392290  0.208929  0.183374  1
  Tl  Tl12  1  0.499994  0.999791  0.499984  1
  Ni  Ni13  1  0.861898  0.499729  0.362018  1
  Ni  Ni14  1  0.138361  0.500279  0.638340  1
  Ni  Ni15  1  0.000081  0.123538  0.123474  1
  Ni  Ni16  1  0.999686  0.876414  0.876097  1
  Rh  Rh17  1  0.499645  0.499657  0.999992  1
