# generated using pymatgen
data_LiTm2Co8TcP6
_symmetry_space_group_name_H-M   'P 1'
_cell_length_a   3.67897900
_cell_length_b   10.29329000
_cell_length_c   11.77045300
_cell_angle_alpha   90.00000000
_cell_angle_beta   90.00000000
_cell_angle_gamma   90.00000000
_symmetry_Int_Tables_number   1
_chemical_formula_structural   LiTm2Co8TcP6
_chemical_formula_sum   'Li2 Tm4 Co16 Tc2 P12'
_cell_volume   445.73290409
_cell_formula_units_Z   2
loop_
 _symmetry_equiv_pos_site_id
 _symmetry_equiv_pos_as_xyz
  1  'x, y, z'
loop_
 _atom_site_type_symbol
 _atom_site_label
 _atom_site_symmetry_multiplicity
 _atom_site_fract_x
 _atom_site_fract_y
 _atom_site_fract_z
 _atom_site_occupancy
  Li  Li0  1  0.750000  0.296075  0.009516  1
  Li  Li1  1  0.750000  0.203925  0.509516  1
  Tm  Tm2  1  0.250000  0.582075  0.703121  1
  Tm  Tm3  1  0.250000  0.917925  0.203121  1
  Tm  Tm4  1  0.750000  0.417261  0.295391  1
  Tm  Tm5  1  0.750000  0.082739  0.795391  1
  Co  Co6  1  0.250000  0.408809  0.486525  1
  Co  Co7  1  0.250000  0.091191  0.986525  1
  Co  Co8  1  0.750000  0.593462  0.511676  1
  Co  Co9  1  0.750000  0.906538  0.011676  1
  Co  Co10  1  0.250000  0.218140  0.175753  1
  Co  Co11  1  0.250000  0.281860  0.675753  1
  Co  Co12  1  0.750000  0.776977  0.823005  1
  Co  Co13  1  0.750000  0.723023  0.323005  1
  Co  Co14  1  0.250000  0.884919  0.702539  1
  Co  Co15  1  0.250000  0.615081  0.202539  1
  Co  Co16  1  0.750000  0.116886  0.300400  1
  Co  Co17  1  0.750000  0.383114  0.800400  1
  Co  Co18  1  0.250000  0.463948  0.932747  1
  Co  Co19  1  0.250000  0.036052  0.432747  1
  Co  Co20  1  0.750000  0.533868  0.070207  1
  Co  Co21  1  0.750000  0.966132  0.570207  1
  Tc  Tc22  1  0.250000  0.709276  0.990270  1
  Tc  Tc23  1  0.250000  0.790724  0.490270  1
  P  P24  1  0.250000  0.418601  0.115383  1
  P  P25  1  0.250000  0.081399  0.615383  1
  P  P26  1  0.750000  0.576670  0.887134  1
  P  P27  1  0.750000  0.923330  0.387134  1
  P  P28  1  0.250000  0.268494  0.863729  1
  P  P29  1  0.250000  0.231506  0.363729  1
  P  P30  1  0.750000  0.731665  0.133547  1
  P  P31  1  0.750000  0.768335  0.633547  1
  P  P32  1  0.250000  0.596364  0.391160  1
  P  P33  1  0.250000  0.903636  0.891160  1
  P  P34  1  0.750000  0.399521  0.607900  1
  P  P35  1  0.750000  0.100479  0.107900  1
