# generated using pymatgen
data_NaPr2Sm4IrI12
_symmetry_space_group_name_H-M   'P 1'
_cell_length_a   9.98265795
_cell_length_b   10.00896556
_cell_length_c   10.05699274
_cell_angle_alpha   106.79277423
_cell_angle_beta   107.24902918
_cell_angle_gamma   106.81656533
_symmetry_Int_Tables_number   1
_chemical_formula_structural   NaPr2Sm4IrI12
_chemical_formula_sum   'Na1 Pr2 Sm4 Ir1 I12'
_cell_volume   837.91545117
_cell_formula_units_Z   1
loop_
 _symmetry_equiv_pos_site_id
 _symmetry_equiv_pos_as_xyz
  1  'x, y, z'
loop_
 _atom_site_type_symbol
 _atom_site_label
 _atom_site_symmetry_multiplicity
 _atom_site_fract_x
 _atom_site_fract_y
 _atom_site_fract_z
 _atom_site_occupancy
  Na  Na0  1  0.500738  0.499412  0.498724  1
  Pr  Pr1  1  0.692728  0.969877  0.898730  1
  Pr  Pr2  1  0.900764  0.695799  0.972446  1
  Sm  Sm3  1  0.100841  0.298503  0.028333  1
  Sm  Sm4  1  0.300150  0.027978  0.100928  1
  Sm  Sm5  1  0.029522  0.106649  0.314951  1
  Sm  Sm6  1  0.969341  0.897418  0.686402  1
  Ir  Ir7  1  0.999876  0.000468  0.001067  1
  I  I8  1  0.232477  0.686022  0.079177  1
  I  I9  1  0.451115  0.369177  0.143528  1
  I  I10  1  0.682927  0.078121  0.229140  1
  I  I11  1  0.927482  0.780554  0.322937  1
  I  I12  1  0.144587  0.451127  0.369669  1
  I  I13  1  0.372283  0.145307  0.451382  1
  I  I14  1  0.625339  0.852765  0.543298  1
  I  I15  1  0.857314  0.550807  0.623396  1
  I  I16  1  0.076919  0.226376  0.684991  1
  I  I17  1  0.314374  0.925596  0.777333  1
  I  I18  1  0.542453  0.620073  0.850681  1
  I  I19  1  0.778777  0.317971  0.922889  1
