# generated using pymatgen
data_Tm8V(B8Os)3
_symmetry_space_group_name_H-M   'P 1'
_cell_length_a   3.59538700
_cell_length_b   9.09697375
_cell_length_c   11.47236694
_cell_angle_alpha   89.95349205
_cell_angle_beta   90.00000000
_cell_angle_gamma   90.00000000
_symmetry_Int_Tables_number   1
_chemical_formula_structural   Tm8V(B8Os)3
_chemical_formula_sum   'Tm8 V1 B24 Os3'
_cell_volume   375.22820146
_cell_formula_units_Z   1
loop_
 _symmetry_equiv_pos_site_id
 _symmetry_equiv_pos_as_xyz
  1  'x, y, z'
loop_
 _atom_site_type_symbol
 _atom_site_label
 _atom_site_symmetry_multiplicity
 _atom_site_fract_x
 _atom_site_fract_y
 _atom_site_fract_z
 _atom_site_occupancy
  Tm  Tm0  1  0.000000  0.322322  0.413227  1
  Tm  Tm1  1  0.000000  0.676943  0.583659  1
  Tm  Tm2  1  0.000000  0.820547  0.087421  1
  Tm  Tm3  1  0.000000  0.177817  0.914792  1
  Tm  Tm4  1  0.000000  0.943532  0.372533  1
  Tm  Tm5  1  0.000000  0.057418  0.627998  1
  Tm  Tm6  1  0.000000  0.444162  0.127985  1
  Tm  Tm7  1  0.000000  0.557002  0.871377  1
  V  V8  1  0.000000  0.637836  0.320484  1
  B  B9  1  0.500000  0.551677  0.434562  1
  B  B10  1  0.500000  0.446685  0.566879  1
  B  B11  1  0.500000  0.053064  0.066872  1
  B  B12  1  0.500000  0.946648  0.933676  1
  B  B13  1  0.500000  0.749390  0.420763  1
  B  B14  1  0.500000  0.252022  0.580366  1
  B  B15  1  0.500000  0.249197  0.080577  1
  B  B16  1  0.500000  0.751178  0.919742  1
  B  B17  1  0.500000  0.793638  0.265129  1
  B  B18  1  0.500000  0.208182  0.734669  1
  B  B19  1  0.500000  0.291840  0.233991  1
  B  B20  1  0.500000  0.708868  0.765412  1
  B  B21  1  0.500000  0.631349  0.184263  1
  B  B22  1  0.500000  0.368414  0.815401  1
  B  B23  1  0.500000  0.131009  0.313990  1
  B  B24  1  0.500000  0.869158  0.684954  1
  B  B25  1  0.500000  0.981678  0.212728  1
  B  B26  1  0.500000  0.018146  0.787876  1
  B  B27  1  0.500000  0.479529  0.287548  1
  B  B28  1  0.500000  0.517716  0.712320  1
  B  B29  1  0.500000  0.604606  0.028240  1
  B  B30  1  0.500000  0.395524  0.970656  1
  B  B31  1  0.500000  0.105788  0.470778  1
  B  B32  1  0.500000  0.895738  0.529777  1
  Os  Os33  1  0.000000  0.360981  0.680748  1
  Os  Os34  1  0.000000  0.137615  0.177452  1
  Os  Os35  1  0.000000  0.862779  0.821155  1
