# generated using pymatgen
data_Th4(Pd3Pt)3
_symmetry_space_group_name_H-M   'P 1'
_cell_length_a   5.92604000
_cell_length_b   5.92212411
_cell_length_c   9.96629800
_cell_angle_alpha   90.00000000
_cell_angle_beta   90.00000000
_cell_angle_gamma   120.02187577
_symmetry_Int_Tables_number   1
_chemical_formula_structural   Th4(Pd3Pt)3
_chemical_formula_sum   'Th4 Pd9 Pt3'
_cell_volume   302.83830557
_cell_formula_units_Z   1
loop_
 _symmetry_equiv_pos_site_id
 _symmetry_equiv_pos_as_xyz
  1  'x, y, z'
loop_
 _atom_site_type_symbol
 _atom_site_label
 _atom_site_symmetry_multiplicity
 _atom_site_fract_x
 _atom_site_fract_y
 _atom_site_fract_z
 _atom_site_occupancy
  Th  Th0  1  0.998885  0.997771  0.498812  1
  Th  Th1  1  0.998885  0.997771  0.001188  1
  Th  Th2  1  0.336288  0.672577  0.250000  1
  Th  Th3  1  0.664915  0.329830  0.750000  1
  Pd  Pd4  1  0.498328  0.498065  0.501122  1
  Pd  Pd5  1  0.999737  0.498065  0.501122  1
  Pd  Pd6  1  0.498328  0.498065  0.998878  1
  Pd  Pd7  1  0.999737  0.498065  0.998878  1
  Pd  Pd8  1  0.350256  0.179151  0.250000  1
  Pd  Pd9  1  0.828895  0.179151  0.250000  1
  Pd  Pd10  1  0.172104  0.344207  0.750000  1
  Pd  Pd11  1  0.651766  0.823722  0.750000  1
  Pd  Pd12  1  0.171956  0.823722  0.750000  1
  Pt  Pt13  1  0.499591  0.999181  0.502059  1
  Pt  Pt14  1  0.499591  0.999181  0.997941  1
  Pt  Pt15  1  0.830738  0.661476  0.250000  1
