# generated using pymatgen
data_La3Pr2Nd(SiPd5)2
_symmetry_space_group_name_H-M   'P 1'
_cell_length_a   8.51632622
_cell_length_b   8.49771048
_cell_length_c   8.49771044
_cell_angle_alpha   127.45548133
_cell_angle_beta   126.24519516
_cell_angle_gamma   78.44881434
_symmetry_Int_Tables_number   1
_chemical_formula_structural   La3Pr2Nd(SiPd5)2
_chemical_formula_sum   'La3 Pr2 Nd1 Si2 Pd10'
_cell_volume   381.33028381
_cell_formula_units_Z   1
loop_
 _symmetry_equiv_pos_site_id
 _symmetry_equiv_pos_as_xyz
  1  'x, y, z'
loop_
 _atom_site_type_symbol
 _atom_site_label
 _atom_site_symmetry_multiplicity
 _atom_site_fract_x
 _atom_site_fract_y
 _atom_site_fract_z
 _atom_site_occupancy
  La  La0  1  0.384652  0.249631  0.135021  1
  La  La1  1  0.778349  0.549224  0.229123  1
  La  La2  1  0.614968  0.750035  0.864934  1
  Pr  Pr3  1  0.820698  0.048969  0.771729  1
  Pr  Pr4  1  0.221341  0.450574  0.770767  1
  Nd  Nd5  1  0.180057  0.950915  0.229143  1
  Si  Si6  1  0.211367  0.750572  0.460794  1
  Si  Si7  1  0.789714  0.249868  0.539846  1
  Pd  Pd8  1  0.829939  0.591601  0.637667  1
  Pd  Pd9  1  0.545403  0.307154  0.636317  1
  Pd  Pd10  1  0.453290  0.090649  0.760592  1
  Pd  Pd11  1  0.829939  0.192272  0.238338  1
  Pd  Pd12  1  0.170381  0.408547  0.362508  1
  Pd  Pd13  1  0.453290  0.692698  0.362641  1
  Pd  Pd14  1  0.545403  0.909085  0.238249  1
  Pd  Pd15  1  0.170381  0.807874  0.761835  1
  Pd  Pd16  1  0.000413  0.000296  0.500377  1
  Pd  Pd17  1  0.000413  0.500037  0.000117  1
