# generated using pymatgen
data_CaDy3Lu4(B6Ru)4
_symmetry_space_group_name_H-M   'P 1'
_cell_length_a   3.62119400
_cell_length_b   9.07711093
_cell_length_c   11.47296244
_cell_angle_alpha   89.92522837
_cell_angle_beta   90.00000000
_cell_angle_gamma   90.00000000
_symmetry_Int_Tables_number   1
_chemical_formula_structural   CaDy3Lu4(B6Ru)4
_chemical_formula_sum   'Ca1 Dy3 Lu4 B24 Ru4'
_cell_volume   377.11572083
_cell_formula_units_Z   1
loop_
 _symmetry_equiv_pos_site_id
 _symmetry_equiv_pos_as_xyz
  1  'x, y, z'
loop_
 _atom_site_type_symbol
 _atom_site_label
 _atom_site_symmetry_multiplicity
 _atom_site_fract_x
 _atom_site_fract_y
 _atom_site_fract_z
 _atom_site_occupancy
  Ca  Ca0  1  0.000000  0.322071  0.414044  1
  Dy  Dy1  1  0.000000  0.676593  0.585020  1
  Dy  Dy2  1  0.000000  0.822152  0.086358  1
  Dy  Dy3  1  0.000000  0.178484  0.914628  1
  Lu  Lu4  1  0.000000  0.944144  0.371583  1
  Lu  Lu5  1  0.000000  0.057449  0.627759  1
  Lu  Lu6  1  0.000000  0.443378  0.129060  1
  Lu  Lu7  1  0.000000  0.555808  0.872060  1
  B  B8  1  0.500000  0.554739  0.432331  1
  B  B9  1  0.500000  0.445594  0.567853  1
  B  B10  1  0.500000  0.054059  0.067101  1
  B  B11  1  0.500000  0.945371  0.932397  1
  B  B12  1  0.500000  0.749708  0.418859  1
  B  B13  1  0.500000  0.250533  0.581509  1
  B  B14  1  0.500000  0.249443  0.080991  1
  B  B15  1  0.500000  0.750145  0.919098  1
  B  B16  1  0.500000  0.792185  0.265774  1
  B  B17  1  0.500000  0.208639  0.734427  1
  B  B18  1  0.500000  0.291146  0.233794  1
  B  B19  1  0.500000  0.708361  0.765934  1
  B  B20  1  0.500000  0.631005  0.184863  1
  B  B21  1  0.500000  0.369334  0.815810  1
  B  B22  1  0.500000  0.130393  0.314866  1
  B  B23  1  0.500000  0.869305  0.684394  1
  B  B24  1  0.500000  0.983044  0.212788  1
  B  B25  1  0.500000  0.016982  0.786629  1
  B  B26  1  0.500000  0.483404  0.286807  1
  B  B27  1  0.500000  0.516931  0.713323  1
  B  B28  1  0.500000  0.604023  0.028531  1
  B  B29  1  0.500000  0.396134  0.971698  1
  B  B30  1  0.500000  0.101576  0.472113  1
  B  B31  1  0.500000  0.897180  0.528209  1
  Ru  Ru32  1  0.000000  0.640568  0.319327  1
  Ru  Ru33  1  0.000000  0.361209  0.681465  1
  Ru  Ru34  1  0.000000  0.137517  0.178585  1
  Ru  Ru35  1  0.000000  0.861392  0.820010  1
