# generated using pymatgen
data_Ba4PuO7
_symmetry_space_group_name_H-M   'P 1'
_cell_length_a   6.33919100
_cell_length_b   7.60024381
_cell_length_c   9.89553800
_cell_angle_alpha   103.07499146
_cell_angle_beta   90.00000000
_cell_angle_gamma   90.00000000
_symmetry_Int_Tables_number   1
_chemical_formula_structural   Ba4PuO7
_chemical_formula_sum   'Ba8 Pu2 O14'
_cell_volume   464.40093162
_cell_formula_units_Z   2
loop_
 _symmetry_equiv_pos_site_id
 _symmetry_equiv_pos_as_xyz
  1  'x, y, z'
loop_
 _atom_site_type_symbol
 _atom_site_label
 _atom_site_symmetry_multiplicity
 _atom_site_fract_x
 _atom_site_fract_y
 _atom_site_fract_z
 _atom_site_occupancy
  Ba  Ba0  1  0.176780  0.635768  0.082797  1
  Ba  Ba1  1  0.676780  0.364232  0.917203  1
  Ba  Ba2  1  0.642601  0.013509  0.147432  1
  Ba  Ba3  1  0.142601  0.986491  0.852568  1
  Ba  Ba4  1  0.196649  0.908471  0.441718  1
  Ba  Ba5  1  0.696649  0.091529  0.558282  1
  Ba  Ba6  1  0.156567  0.470176  0.619033  1
  Ba  Ba7  1  0.656567  0.529824  0.380967  1
  Pu  Pu8  1  0.157649  0.268185  0.241735  1
  Pu  Pu9  1  0.657649  0.731815  0.758265  1
  O  O10  1  0.412527  0.335193  0.122212  1
  O  O11  1  0.912527  0.664807  0.877788  1
  O  O12  1  0.956562  0.309534  0.090651  1
  O  O13  1  0.456562  0.690466  0.909349  1
  O  O14  1  0.907317  0.208755  0.360449  1
  O  O15  1  0.407317  0.791245  0.639551  1
  O  O16  1  0.365898  0.235802  0.389726  1
  O  O17  1  0.865898  0.764198  0.610274  1
  O  O18  1  0.126073  0.542674  0.338204  1
  O  O19  1  0.626073  0.457326  0.661796  1
  O  O20  1  0.179728  0.992829  0.148041  1
  O  O21  1  0.679728  0.007171  0.851959  1
  O  O22  1  0.075920  0.168741  0.674562  1
  O  O23  1  0.575920  0.831259  0.325438  1
