# generated using pymatgen
data_Sr2Ni2Pd3O10
_symmetry_space_group_name_H-M   'P 1'
_cell_length_a   5.30980271
_cell_length_b   6.83906753
_cell_length_c   7.44188834
_cell_angle_alpha   110.68274111
_cell_angle_beta   96.78804467
_cell_angle_gamma   105.00112686
_symmetry_Int_Tables_number   1
_chemical_formula_structural   Sr2Ni2Pd3O10
_chemical_formula_sum   'Sr2 Ni2 Pd3 O10'
_cell_volume   237.55115188
_cell_formula_units_Z   1
loop_
 _symmetry_equiv_pos_site_id
 _symmetry_equiv_pos_as_xyz
  1  'x, y, z'
loop_
 _atom_site_type_symbol
 _atom_site_label
 _atom_site_symmetry_multiplicity
 _atom_site_fract_x
 _atom_site_fract_y
 _atom_site_fract_z
 _atom_site_occupancy
  Sr  Sr0  1  0.620727  0.240862  0.739263  1
  Sr  Sr1  1  0.365176  0.760162  0.262775  1
  Ni  Ni2  1  0.005362  0.508960  0.505970  1
  Ni  Ni3  1  0.195036  0.896096  0.887585  1
  Pd  Pd4  1  0.603493  0.704633  0.697890  1
  Pd  Pd5  1  0.398900  0.295767  0.301535  1
  Pd  Pd6  1  0.800918  0.094192  0.104556  1
  O  O7  1  0.679420  0.606144  0.422699  1
  O  O8  1  0.321702  0.397037  0.575491  1
  O  O9  1  0.694767  0.176673  0.376102  1
  O  O10  1  0.087800  0.396741  0.225559  1
  O  O11  1  0.310254  0.823521  0.614528  1
  O  O12  1  0.907506  0.595390  0.772557  1
  O  O13  1  0.112204  0.991874  0.176941  1
  O  O14  1  0.497274  0.206236  0.035484  1
  O  O15  1  0.882700  0.014499  0.831681  1
  O  O16  1  0.516762  0.791214  0.969387  1
