# generated using pymatgen
data_Tb3Y(InGa2)2
_symmetry_space_group_name_H-M   'P 1'
_cell_length_a   7.24509741
_cell_length_b   7.24509741
_cell_length_c   4.46166100
_cell_angle_alpha   90.00000000
_cell_angle_beta   90.00000000
_cell_angle_gamma   89.90657235
_symmetry_Int_Tables_number   1
_chemical_formula_structural   Tb3Y(InGa2)2
_chemical_formula_sum   'Tb3 Y1 In2 Ga4'
_cell_volume   234.19868349
_cell_formula_units_Z   1
loop_
 _symmetry_equiv_pos_site_id
 _symmetry_equiv_pos_as_xyz
  1  'x, y, z'
loop_
 _atom_site_type_symbol
 _atom_site_label
 _atom_site_symmetry_multiplicity
 _atom_site_fract_x
 _atom_site_fract_y
 _atom_site_fract_z
 _atom_site_occupancy
  Tb  Tb0  1  0.672507  0.172280  0.500000  1
  Tb  Tb1  1  0.327720  0.827493  0.500000  1
  Tb  Tb2  1  0.172237  0.327763  0.500000  1
  Y  Y3  1  0.827439  0.672561  0.500000  1
  In  In4  1  0.000072  0.000010  0.000000  1
  In  In5  1  0.499990  0.499928  0.000000  1
  Ga  Ga6  1  0.125664  0.625736  0.000000  1
  Ga  Ga7  1  0.874264  0.374336  0.000000  1
  Ga  Ga8  1  0.625706  0.874294  0.000000  1
  Ga  Ga9  1  0.374402  0.125598  0.000000  1
