# generated using pymatgen
data_CaHo6CoCl12
_symmetry_space_group_name_H-M   'P 1'
_cell_length_a   8.76630521
_cell_length_b   8.76630599
_cell_length_c   8.76630634
_cell_angle_alpha   106.36378482
_cell_angle_beta   106.36376972
_cell_angle_gamma   106.36378582
_symmetry_Int_Tables_number   1
_chemical_formula_structural   CaHo6CoCl12
_chemical_formula_sum   'Ca1 Ho6 Co1 Cl12'
_cell_volume   570.49937216
_cell_formula_units_Z   1
loop_
 _symmetry_equiv_pos_site_id
 _symmetry_equiv_pos_as_xyz
  1  'x, y, z'
loop_
 _atom_site_type_symbol
 _atom_site_label
 _atom_site_symmetry_multiplicity
 _atom_site_fract_x
 _atom_site_fract_y
 _atom_site_fract_z
 _atom_site_occupancy
  Ca  Ca0  1  0.500000  0.500000  0.500000  1
  Ho  Ho1  1  0.312342  0.104041  0.021333  1
  Ho  Ho2  1  0.104041  0.021333  0.312342  1
  Ho  Ho3  1  0.021333  0.312342  0.104041  1
  Ho  Ho4  1  0.687658  0.895959  0.978667  1
  Ho  Ho5  1  0.895959  0.978667  0.687658  1
  Ho  Ho6  1  0.978667  0.687658  0.895959  1
  Co  Co7  1  0.000000  0.000000  0.000000  1
  Cl  Cl8  1  0.215556  0.071126  0.676797  1
  Cl  Cl9  1  0.071126  0.676797  0.215556  1
  Cl  Cl10  1  0.676797  0.215556  0.071126  1
  Cl  Cl11  1  0.784444  0.928874  0.323203  1
  Cl  Cl12  1  0.928874  0.323203  0.784444  1
  Cl  Cl13  1  0.323203  0.784444  0.928874  1
  Cl  Cl14  1  0.370687  0.448892  0.156756  1
  Cl  Cl15  1  0.448892  0.156756  0.370687  1
  Cl  Cl16  1  0.156756  0.370687  0.448892  1
  Cl  Cl17  1  0.629313  0.551108  0.843244  1
  Cl  Cl18  1  0.551108  0.843244  0.629313  1
  Cl  Cl19  1  0.843244  0.629313  0.551108  1
