# generated using pymatgen
data_In2Te6Pt3Rh
_symmetry_space_group_name_H-M   'P 1'
_cell_length_a   8.02559600
_cell_length_b   8.02559462
_cell_length_c   5.50541200
_cell_angle_alpha   90.00000000
_cell_angle_beta   90.00000000
_cell_angle_gamma   119.99999745
_symmetry_Int_Tables_number   1
_chemical_formula_structural   In2Te6Pt3Rh
_chemical_formula_sum   'In2 Te6 Pt3 Rh1'
_cell_volume   307.09658103
_cell_formula_units_Z   1
loop_
 _symmetry_equiv_pos_site_id
 _symmetry_equiv_pos_as_xyz
  1  'x, y, z'
loop_
 _atom_site_type_symbol
 _atom_site_label
 _atom_site_symmetry_multiplicity
 _atom_site_fract_x
 _atom_site_fract_y
 _atom_site_fract_z
 _atom_site_occupancy
  In  In0  1  0.333333  0.666666  0.200879  1
  In  In1  1  0.666666  0.333333  0.799121  1
  Te  Te2  1  0.335631  0.167815  0.255805  1
  Te  Te3  1  0.832184  0.167815  0.255805  1
  Te  Te4  1  0.832184  0.664369  0.255805  1
  Te  Te5  1  0.167815  0.335630  0.744195  1
  Te  Te6  1  0.167815  0.832184  0.744195  1
  Te  Te7  1  0.664369  0.832184  0.744195  1
  Pt  Pt8  1  0.500000  0.000000  0.500000  1
  Pt  Pt9  1  0.000000  0.500000  0.500000  1
  Pt  Pt10  1  0.500000  0.500000  0.500000  1
  Rh  Rh11  1  0.000000  0.000000  0.500000  1
