# generated using pymatgen
data_Hf6Ti2Ga5SiMo2
_symmetry_space_group_name_H-M   'P 1'
_cell_length_a   7.85392079
_cell_length_b   7.83843450
_cell_length_c   5.32822855
_cell_angle_alpha   89.97416108
_cell_angle_beta   90.05158324
_cell_angle_gamma   120.06537674
_symmetry_Int_Tables_number   1
_chemical_formula_structural   Hf6Ti2Ga5SiMo2
_chemical_formula_sum   'Hf6 Ti2 Ga5 Si1 Mo2'
_cell_volume   283.88514618
_cell_formula_units_Z   1
loop_
 _symmetry_equiv_pos_site_id
 _symmetry_equiv_pos_as_xyz
  1  'x, y, z'
loop_
 _atom_site_type_symbol
 _atom_site_label
 _atom_site_symmetry_multiplicity
 _atom_site_fract_x
 _atom_site_fract_y
 _atom_site_fract_z
 _atom_site_occupancy
  Hf  Hf0  1  0.250461  0.000000  0.243382  1
  Hf  Hf1  1  0.750554  0.000000  0.754551  1
  Hf  Hf2  1  0.996840  0.243132  0.243859  1
  Hf  Hf3  1  0.998636  0.755106  0.756236  1
  Hf  Hf4  1  0.753706  0.756868  0.243859  1
  Hf  Hf5  1  0.243530  0.244894  0.756236  1
  Ti  Ti6  1  0.666126  0.329569  0.499866  1
  Ti  Ti7  1  0.336556  0.670431  0.499866  1
  Ga  Ga8  1  0.398517  0.000000  0.750742  1
  Ga  Ga9  1  0.999892  0.599122  0.248989  1
  Ga  Ga10  1  0.001674  0.403629  0.751552  1
  Ga  Ga11  1  0.400770  0.400878  0.248989  1
  Ga  Ga12  1  0.598045  0.596371  0.751552  1
  Si  Si13  1  0.601337  0.000000  0.244889  1
  Mo  Mo14  1  0.337620  0.671886  0.002716  1
  Mo  Mo15  1  0.665735  0.328114  0.002716  1
