# generated using pymatgen
data_Nd13Th3Mg2(CdIr2)2
_symmetry_space_group_name_H-M   'P 1'
_cell_length_a   9.98819478
_cell_length_b   10.02836802
_cell_length_c   10.01257700
_cell_angle_alpha   60.05207816
_cell_angle_beta   59.91921935
_cell_angle_gamma   59.94164825
_symmetry_Int_Tables_number   1
_chemical_formula_structural   Nd13Th3Mg2(CdIr2)2
_chemical_formula_sum   'Nd13 Th3 Mg2 Cd2 Ir4'
_cell_volume   708.69753662
_cell_formula_units_Z   1
loop_
 _symmetry_equiv_pos_site_id
 _symmetry_equiv_pos_as_xyz
  1  'x, y, z'
loop_
 _atom_site_type_symbol
 _atom_site_label
 _atom_site_symmetry_multiplicity
 _atom_site_fract_x
 _atom_site_fract_y
 _atom_site_fract_z
 _atom_site_occupancy
  Nd  Nd0  1  0.953814  0.348490  0.348848  1
  Nd  Nd1  1  0.810441  0.189518  0.190317  1
  Nd  Nd2  1  0.190331  0.810011  0.810096  1
  Nd  Nd3  1  0.190331  0.810011  0.189561  1
  Nd  Nd4  1  0.810441  0.189518  0.809725  1
  Nd  Nd5  1  0.191269  0.191065  0.808833  1
  Nd  Nd6  1  0.811373  0.810930  0.188849  1
  Nd  Nd7  1  0.941496  0.562104  0.562725  1
  Nd  Nd8  1  0.561259  0.940213  0.936033  1
  Nd  Nd9  1  0.561259  0.940213  0.562495  1
  Nd  Nd10  1  0.941496  0.562104  0.933675  1
  Nd  Nd11  1  0.562289  0.562963  0.937374  1
  Nd  Nd12  1  0.939474  0.936782  0.561872  1
  Th  Th13  1  0.344460  0.346474  0.346405  1
  Th  Th14  1  0.344460  0.346474  0.962661  1
  Th  Th15  1  0.344147  0.961894  0.346979  1
  Mg  Mg16  1  0.575266  0.577511  0.579987  1
  Mg  Mg17  1  0.575266  0.577511  0.267235  1
  Cd  Cd18  1  0.579552  0.259271  0.580588  1
  Cd  Cd19  1  0.257289  0.581321  0.580694  1
  Ir  Ir20  1  0.150532  0.141645  0.141203  1
  Ir  Ir21  1  0.150532  0.141645  0.566619  1
  Ir  Ir22  1  0.150085  0.566590  0.141662  1
  Ir  Ir23  1  0.563134  0.145741  0.145562  1
