# generated using pymatgen
data_La3Pr9(RhBr3)4
_symmetry_space_group_name_H-M   'P 1'
_cell_length_a   10.58553778
_cell_length_b   10.59146652
_cell_length_c   10.55776485
_cell_angle_alpha   108.84107378
_cell_angle_beta   109.70185417
_cell_angle_gamma   109.83005867
_symmetry_Int_Tables_number   1
_chemical_formula_structural   La3Pr9(RhBr3)4
_chemical_formula_sum   'La3 Pr9 Rh4 Br12'
_cell_volume   911.60836394
_cell_formula_units_Z   1
loop_
 _symmetry_equiv_pos_site_id
 _symmetry_equiv_pos_as_xyz
  1  'x, y, z'
loop_
 _atom_site_type_symbol
 _atom_site_label
 _atom_site_symmetry_multiplicity
 _atom_site_fract_x
 _atom_site_fract_y
 _atom_site_fract_z
 _atom_site_occupancy
  La  La0  1  0.463529  0.481765  0.231765  1
  La  La1  1  0.751328  0.234406  0.266811  1
  La  La2  1  0.751328  0.016922  0.484517  1
  Pr  Pr3  1  0.231007  0.467839  0.485930  1
  Pr  Pr4  1  0.267635  0.753787  0.236099  1
  Pr  Pr5  1  0.029565  0.264782  0.014782  1
  Pr  Pr6  1  0.021104  0.031969  0.261996  1
  Pr  Pr7  1  0.483960  0.747418  0.012427  1
  Pr  Pr8  1  0.483960  0.236542  0.471533  1
  Pr  Pr9  1  0.021104  0.489136  0.759108  1
  Pr  Pr10  1  0.267635  0.013848  0.031536  1
  Pr  Pr11  1  0.231007  0.263166  0.745077  1
  Rh  Rh12  1  0.252072  0.252495  0.249714  1
  Rh  Rh13  1  0.506352  0.003176  0.253176  1
  Rh  Rh14  1  0.994434  0.247217  0.497217  1
  Rh  Rh15  1  0.252072  0.499577  0.002358  1
  Br  Br16  1  0.249975  0.755558  0.744603  1
  Br  Br17  1  0.510054  0.505027  0.755027  1
  Br  Br18  1  0.989516  0.744758  0.994758  1
  Br  Br19  1  0.745601  0.252989  0.755825  1
  Br  Br20  1  0.996529  0.991600  0.747559  1
  Br  Br21  1  0.249975  0.994417  0.505371  1
  Br  Br22  1  0.754685  0.507380  0.507959  1
  Br  Br23  1  0.499381  0.246620  0.991100  1
  Br  Br24  1  0.754685  0.747303  0.246725  1
  Br  Br25  1  0.745601  0.992612  0.989777  1
  Br  Br26  1  0.996529  0.504930  0.248969  1
  Br  Br27  1  0.499381  0.752760  0.508279  1
