# generated using pymatgen
data_Y4Ga2MoRu5
_symmetry_space_group_name_H-M   'P 1'
_cell_length_a   5.50859800
_cell_length_b   5.25471613
_cell_length_c   8.93830100
_cell_angle_alpha   90.00000000
_cell_angle_beta   90.00000000
_cell_angle_gamma   121.77325285
_symmetry_Int_Tables_number   1
_chemical_formula_structural   Y4Ga2MoRu5
_chemical_formula_sum   'Y4 Ga2 Mo1 Ru5'
_cell_volume   219.95561311
_cell_formula_units_Z   1
loop_
 _symmetry_equiv_pos_site_id
 _symmetry_equiv_pos_as_xyz
  1  'x, y, z'
loop_
 _atom_site_type_symbol
 _atom_site_label
 _atom_site_symmetry_multiplicity
 _atom_site_fract_x
 _atom_site_fract_y
 _atom_site_fract_z
 _atom_site_occupancy
  Y  Y0  1  0.671654  0.342366  0.564963  1
  Y  Y1  1  0.338164  0.668963  0.439710  1
  Y  Y2  1  0.338164  0.668963  0.060290  1
  Y  Y3  1  0.671654  0.342366  0.935037  1
  Ga  Ga4  1  0.822337  0.660676  0.250000  1
  Ga  Ga5  1  0.826114  0.163638  0.250000  1
  Mo  Mo6  1  0.158518  0.318011  0.750000  1
  Ru  Ru7  1  0.010266  0.017080  0.497439  1
  Ru  Ru8  1  0.010266  0.017080  0.002561  1
  Ru  Ru9  1  0.169682  0.823454  0.750000  1
  Ru  Ru10  1  0.646678  0.816855  0.750000  1
  Ru  Ru11  1  0.336500  0.160544  0.250000  1
