# generated using pymatgen
data_Hf16Mn3NiPt4
_symmetry_space_group_name_H-M   'P 1'
_cell_length_a   8.62956718
_cell_length_b   8.62956800
_cell_length_c   8.62956788
_cell_angle_alpha   59.96205683
_cell_angle_beta   59.96205371
_cell_angle_gamma   59.96205953
_symmetry_Int_Tables_number   1
_chemical_formula_structural   Hf16Mn3NiPt4
_chemical_formula_sum   'Hf16 Mn3 Ni1 Pt4'
_cell_volume   454.02342509
_cell_formula_units_Z   1
loop_
 _symmetry_equiv_pos_site_id
 _symmetry_equiv_pos_as_xyz
  1  'x, y, z'
loop_
 _atom_site_type_symbol
 _atom_site_label
 _atom_site_symmetry_multiplicity
 _atom_site_fract_x
 _atom_site_fract_y
 _atom_site_fract_z
 _atom_site_occupancy
  Hf  Hf0  1  0.678257  0.106865  0.106865  1
  Hf  Hf1  1  0.106865  0.678257  0.106865  1
  Hf  Hf2  1  0.106865  0.106865  0.678257  1
  Hf  Hf3  1  0.108694  0.108694  0.108694  1
  Hf  Hf4  1  0.307849  0.307849  0.692650  1
  Hf  Hf5  1  0.689948  0.689948  0.312914  1
  Hf  Hf6  1  0.307849  0.692650  0.307849  1
  Hf  Hf7  1  0.689948  0.312914  0.689948  1
  Hf  Hf8  1  0.692650  0.307849  0.307849  1
  Hf  Hf9  1  0.312914  0.689948  0.689948  1
  Hf  Hf10  1  0.940385  0.940385  0.554712  1
  Hf  Hf11  1  0.558907  0.558907  0.941173  1
  Hf  Hf12  1  0.940385  0.554712  0.940385  1
  Hf  Hf13  1  0.558907  0.941173  0.558907  1
  Hf  Hf14  1  0.554712  0.940385  0.940385  1
  Hf  Hf15  1  0.941173  0.558907  0.558907  1
  Mn  Mn16  1  0.316072  0.895600  0.895600  1
  Mn  Mn17  1  0.895600  0.316072  0.895600  1
  Mn  Mn18  1  0.895600  0.895600  0.316072  1
  Ni  Ni19  1  0.894162  0.894162  0.894162  1
  Pt  Pt20  1  0.989795  0.337797  0.337797  1
  Pt  Pt21  1  0.337797  0.989795  0.337797  1
  Pt  Pt22  1  0.337797  0.337797  0.989795  1
  Pt  Pt23  1  0.336864  0.336864  0.336864  1
