# generated using pymatgen
data_Y2Ho16Sc2Cd6FeRu
_symmetry_space_group_name_H-M   'P 1'
_cell_length_a   9.49012100
_cell_length_b   9.49012004
_cell_length_c   9.73849600
_cell_angle_alpha   90.00000000
_cell_angle_beta   90.00000000
_cell_angle_gamma   119.99752504
_symmetry_Int_Tables_number   1
_chemical_formula_structural   Y2Ho16Sc2Cd6FeRu
_chemical_formula_sum   'Y2 Ho16 Sc2 Cd6 Fe1 Ru1'
_cell_volume   759.58574872
_cell_formula_units_Z   1
loop_
 _symmetry_equiv_pos_site_id
 _symmetry_equiv_pos_as_xyz
  1  'x, y, z'
loop_
 _atom_site_type_symbol
 _atom_site_label
 _atom_site_symmetry_multiplicity
 _atom_site_fract_x
 _atom_site_fract_y
 _atom_site_fract_z
 _atom_site_occupancy
  Y  Y0  1  0.460191  0.920059  0.750000  1
  Y  Y1  1  0.079941  0.539809  0.750000  1
  Ho  Ho2  1  0.208491  0.791509  0.440482  1
  Ho  Ho3  1  0.208860  0.417196  0.440773  1
  Ho  Ho4  1  0.582804  0.791140  0.440773  1
  Ho  Ho5  1  0.788989  0.211011  0.561893  1
  Ho  Ho6  1  0.788645  0.578034  0.562070  1
  Ho  Ho7  1  0.421966  0.211355  0.562070  1
  Ho  Ho8  1  0.788989  0.211011  0.938107  1
  Ho  Ho9  1  0.788645  0.578034  0.937930  1
  Ho  Ho10  1  0.421966  0.211355  0.937930  1
  Ho  Ho11  1  0.208491  0.791509  0.059518  1
  Ho  Ho12  1  0.208860  0.417196  0.059227  1
  Ho  Ho13  1  0.582804  0.791140  0.059227  1
  Ho  Ho14  1  0.541010  0.458990  0.250000  1
  Ho  Ho15  1  0.541037  0.081933  0.250000  1
  Ho  Ho16  1  0.918067  0.458963  0.250000  1
  Ho  Ho17  1  0.460480  0.539520  0.750000  1
  Sc  Sc18  1  0.999943  0.000057  0.500372  1
  Sc  Sc19  1  0.999943  0.000057  0.999628  1
  Cd  Cd20  1  0.889122  0.110878  0.250000  1
  Cd  Cd21  1  0.889089  0.778243  0.250000  1
  Cd  Cd22  1  0.221757  0.110911  0.250000  1
  Cd  Cd23  1  0.110396  0.889604  0.750000  1
  Cd  Cd24  1  0.110889  0.221205  0.750000  1
  Cd  Cd25  1  0.778795  0.889111  0.750000  1
  Fe  Fe26  1  0.666513  0.333487  0.750000  1
  Ru  Ru27  1  0.333322  0.666678  0.250000  1
