# generated using pymatgen
data_Ca2YbGa8Ag3
_symmetry_space_group_name_H-M   'P 1'
_cell_length_a   4.43059760
_cell_length_b   8.38889231
_cell_length_c   8.38889313
_cell_angle_alpha   72.00302434
_cell_angle_beta   74.68799013
_cell_angle_gamma   74.68798139
_symmetry_Int_Tables_number   1
_chemical_formula_structural   Ca2YbGa8Ag3
_chemical_formula_sum   'Ca2 Yb1 Ga8 Ag3'
_cell_volume   280.29818224
_cell_formula_units_Z   1
loop_
 _symmetry_equiv_pos_site_id
 _symmetry_equiv_pos_as_xyz
  1  'x, y, z'
loop_
 _atom_site_type_symbol
 _atom_site_label
 _atom_site_symmetry_multiplicity
 _atom_site_fract_x
 _atom_site_fract_y
 _atom_site_fract_z
 _atom_site_occupancy
  Ca  Ca0  1  0.499795  0.500205  0.500205  1
  Ca  Ca1  1  0.200162  0.799838  0.799838  1
  Yb  Yb2  1  0.799768  0.200232  0.200232  1
  Ga  Ga3  1  0.357892  0.361951  0.922264  1
  Ga  Ga4  1  0.642098  0.633880  0.081924  1
  Ga  Ga5  1  0.357892  0.922264  0.361951  1
  Ga  Ga6  1  0.642098  0.081924  0.633880  1
  Ga  Ga7  1  0.161667  0.469488  0.207177  1
  Ga  Ga8  1  0.839049  0.528492  0.793410  1
  Ga  Ga9  1  0.161667  0.207177  0.469488  1
  Ga  Ga10  1  0.839049  0.793410  0.528492  1
  Ag  Ag11  1  0.499892  0.000108  0.000108  1
  Ag  Ag12  1  0.999486  0.806707  0.194322  1
  Ag  Ag13  1  0.999486  0.194322  0.806707  1
