# generated using pymatgen
data_Dy2Y9ThCo4
_symmetry_space_group_name_H-M   'P 1'
_cell_length_a   6.30968503
_cell_length_b   6.95646190
_cell_length_c   9.54910000
_cell_angle_alpha   90.00000000
_cell_angle_beta   90.00000000
_cell_angle_gamma   91.05512610
_symmetry_Int_Tables_number   1
_chemical_formula_structural   Dy2Y9ThCo4
_chemical_formula_sum   'Dy2 Y9 Th1 Co4'
_cell_volume   419.06837475
_cell_formula_units_Z   1
loop_
 _symmetry_equiv_pos_site_id
 _symmetry_equiv_pos_as_xyz
  1  'x, y, z'
loop_
 _atom_site_type_symbol
 _atom_site_label
 _atom_site_symmetry_multiplicity
 _atom_site_fract_x
 _atom_site_fract_y
 _atom_site_fract_z
 _atom_site_occupancy
  Dy  Dy0  1  0.143132  0.452801  0.750000  1
  Dy  Dy1  1  0.357107  0.954831  0.750000  1
  Y  Y2  1  0.325249  0.672743  0.066333  1
  Y  Y3  1  0.174485  0.174244  0.430943  1
  Y  Y4  1  0.677804  0.326054  0.568950  1
  Y  Y5  1  0.822339  0.828755  0.929484  1
  Y  Y6  1  0.677804  0.326054  0.931050  1
  Y  Y7  1  0.822339  0.828755  0.570516  1
  Y  Y8  1  0.325249  0.672743  0.433667  1
  Y  Y9  1  0.174485  0.174244  0.069057  1
  Y  Y10  1  0.640940  0.043597  0.250000  1
  Th  Th11  1  0.846582  0.557426  0.250000  1
  Co  Co12  1  0.040633  0.869788  0.250000  1
  Co  Co13  1  0.474022  0.390669  0.250000  1
  Co  Co14  1  0.957989  0.114786  0.750000  1
  Co  Co15  1  0.539839  0.612512  0.750000  1
