# generated using pymatgen
data_Ce2Ga5Pd3
_symmetry_space_group_name_H-M   'P 1'
_cell_length_a   8.67775313
_cell_length_b   8.67775400
_cell_length_c   8.67775377
_cell_angle_alpha   139.94554078
_cell_angle_beta   106.37174439
_cell_angle_gamma   87.28881453
_symmetry_Int_Tables_number   1
_chemical_formula_structural   Ce2Ga5Pd3
_chemical_formula_sum   'Ce4 Ga10 Pd6'
_cell_volume   388.15767048
_cell_formula_units_Z   2
loop_
 _symmetry_equiv_pos_site_id
 _symmetry_equiv_pos_as_xyz
  1  'x, y, z'
loop_
 _atom_site_type_symbol
 _atom_site_label
 _atom_site_symmetry_multiplicity
 _atom_site_fract_x
 _atom_site_fract_y
 _atom_site_fract_z
 _atom_site_occupancy
  Ce  Ce0  1  0.638286  0.364888  0.273399  1
  Ce  Ce1  1  0.361714  0.635112  0.726601  1
  Ce  Ce2  1  0.091488  0.864888  0.226601  1
  Ce  Ce3  1  0.908512  0.135112  0.773399  1
  Ga  Ga4  1  0.445880  0.102443  0.343436  1
  Ga  Ga5  1  0.554120  0.897557  0.656564  1
  Ga  Ga6  1  0.759007  0.602443  0.156564  1
  Ga  Ga7  1  0.240993  0.397557  0.843436  1
  Ga  Ga8  1  0.281513  0.531513  0.250000  1
  Ga  Ga9  1  0.718487  0.468487  0.750000  1
  Ga  Ga10  1  0.718487  0.968487  0.250000  1
  Ga  Ga11  1  0.281513  0.031513  0.750000  1
  Ga  Ga12  1  0.000000  0.250000  0.250000  1
  Ga  Ga13  1  0.000000  0.750000  0.750000  1
  Pd  Pd14  1  0.500000  0.250000  0.750000  1
  Pd  Pd15  1  0.500000  0.750000  0.250000  1
  Pd  Pd16  1  0.248142  0.140022  0.108121  1
  Pd  Pd17  1  0.751858  0.859978  0.891879  1
  Pd  Pd18  1  0.031901  0.640022  0.391879  1
  Pd  Pd19  1  0.968099  0.359978  0.608121  1
