# generated using pymatgen
data_Sr6Ti2RhO12
_symmetry_space_group_name_H-M   'P 1'
_cell_length_a   8.83066017
_cell_length_b   8.83066058
_cell_length_c   6.89999114
_cell_angle_alpha   67.39010167
_cell_angle_beta   67.39009436
_cell_angle_gamma   36.79595854
_symmetry_Int_Tables_number   1
_chemical_formula_structural   Sr6Ti2RhO12
_chemical_formula_sum   'Sr6 Ti2 Rh1 O12'
_cell_volume   294.64563827
_cell_formula_units_Z   1
loop_
 _symmetry_equiv_pos_site_id
 _symmetry_equiv_pos_as_xyz
  1  'x, y, z'
loop_
 _atom_site_type_symbol
 _atom_site_label
 _atom_site_symmetry_multiplicity
 _atom_site_fract_x
 _atom_site_fract_y
 _atom_site_fract_z
 _atom_site_occupancy
  Sr  Sr0  1  0.881448  0.881448  0.711958  1
  Sr  Sr1  1  0.214922  0.214922  0.709372  1
  Sr  Sr2  1  0.548134  0.548134  0.711019  1
  Sr  Sr3  1  0.451866  0.451866  0.288981  1
  Sr  Sr4  1  0.785078  0.785078  0.290628  1
  Sr  Sr5  1  0.118552  0.118552  0.288042  1
  Ti  Ti6  1  0.667061  0.667061  0.999755  1
  Ti  Ti7  1  0.332939  0.332939  0.000245  1
  Rh  Rh8  1  0.000000  0.000000  0.000000  1
  O  O9  1  0.946094  0.946094  0.323775  1
  O  O10  1  0.278799  0.278799  0.318123  1
  O  O11  1  0.614827  0.614827  0.318935  1
  O  O12  1  0.385173  0.385173  0.681065  1
  O  O13  1  0.721201  0.721201  0.681877  1
  O  O14  1  0.053906  0.053906  0.676225  1
  O  O15  1  0.500000  0.000000  0.000000  1
  O  O16  1  0.831755  0.337546  0.999655  1
  O  O17  1  0.168245  0.662454  0.000345  1
  O  O18  1  0.000000  0.500000  0.000000  1
  O  O19  1  0.337546  0.831755  0.999655  1
  O  O20  1  0.662454  0.168245  0.000345  1
