# generated using pymatgen
data_Y3Er3Tm10Cd4NiRu3
_symmetry_space_group_name_H-M   'P 1'
_cell_length_a   9.51169009
_cell_length_b   9.56947736
_cell_length_c   9.58346319
_cell_angle_alpha   59.57783453
_cell_angle_beta   59.45136054
_cell_angle_gamma   59.46815394
_symmetry_Int_Tables_number   1
_chemical_formula_structural   Y3Er3Tm10Cd4NiRu3
_chemical_formula_sum   'Y3 Er3 Tm10 Cd4 Ni1 Ru3'
_cell_volume   609.78461702
_cell_formula_units_Z   1
loop_
 _symmetry_equiv_pos_site_id
 _symmetry_equiv_pos_as_xyz
  1  'x, y, z'
loop_
 _atom_site_type_symbol
 _atom_site_label
 _atom_site_symmetry_multiplicity
 _atom_site_fract_x
 _atom_site_fract_y
 _atom_site_fract_z
 _atom_site_occupancy
  Y  Y0  1  0.938513  0.560154  0.561711  1
  Y  Y1  1  0.561652  0.934997  0.936328  1
  Y  Y2  1  0.557597  0.938176  0.566139  1
  Er  Er3  1  0.940807  0.557212  0.940361  1
  Er  Er4  1  0.555007  0.563066  0.941764  1
  Er  Er5  1  0.942898  0.941638  0.556600  1
  Tm  Tm6  1  0.349449  0.346128  0.347532  1
  Tm  Tm7  1  0.350374  0.344908  0.960557  1
  Tm  Tm8  1  0.351668  0.962031  0.343981  1
  Tm  Tm9  1  0.960868  0.347731  0.345705  1
  Tm  Tm10  1  0.811355  0.187712  0.187080  1
  Tm  Tm11  1  0.183061  0.811471  0.811975  1
  Tm  Tm12  1  0.187115  0.811343  0.188427  1
  Tm  Tm13  1  0.809720  0.189014  0.810607  1
  Tm  Tm14  1  0.186548  0.187548  0.812219  1
  Tm  Tm15  1  0.810621  0.811354  0.187693  1
  Cd  Cd16  1  0.577866  0.581083  0.580893  1
  Cd  Cd17  1  0.580496  0.580537  0.258062  1
  Cd  Cd18  1  0.580419  0.258375  0.580474  1
  Cd  Cd19  1  0.256863  0.581220  0.581673  1
  Ni  Ni20  1  0.578068  0.145198  0.140622  1
  Ru  Ru21  1  0.140386  0.140488  0.140980  1
  Ru  Ru22  1  0.142701  0.140749  0.578247  1
  Ru  Ru23  1  0.145950  0.577870  0.140372  1
