# generated using pymatgen
data_La8Nd11TmSi16
_symmetry_space_group_name_H-M   'P 1'
_cell_length_a   7.90897581
_cell_length_b   7.90897581
_cell_length_c   15.29727857
_cell_angle_alpha   89.97780266
_cell_angle_beta   90.02219734
_cell_angle_gamma   90.04681546
_symmetry_Int_Tables_number   1
_chemical_formula_structural   La8Nd11TmSi16
_chemical_formula_sum   'La8 Nd11 Tm1 Si16'
_cell_volume   956.87335125
_cell_formula_units_Z   1
loop_
 _symmetry_equiv_pos_site_id
 _symmetry_equiv_pos_as_xyz
  1  'x, y, z'
loop_
 _atom_site_type_symbol
 _atom_site_label
 _atom_site_symmetry_multiplicity
 _atom_site_fract_x
 _atom_site_fract_y
 _atom_site_fract_z
 _atom_site_occupancy
  La  La0  1  0.986792  0.622735  0.052136  1
  La  La1  1  0.013681  0.377168  0.552245  1
  La  La2  1  0.622735  0.986792  0.947864  1
  La  La3  1  0.122751  0.513053  0.802073  1
  La  La4  1  0.877216  0.487630  0.302780  1
  La  La5  1  0.513053  0.122751  0.197927  1
  La  La6  1  0.487630  0.877216  0.697220  1
  La  La7  1  0.377168  0.013681  0.447755  1
  Nd  Nd8  1  0.372840  0.481618  0.373636  1
  Nd  Nd9  1  0.873117  0.018887  0.377320  1
  Nd  Nd10  1  0.981179  0.126660  0.123300  1
  Nd  Nd11  1  0.018887  0.873117  0.622680  1
  Nd  Nd12  1  0.626457  0.519236  0.872702  1
  Nd  Nd13  1  0.481618  0.372840  0.626364  1
  Nd  Nd14  1  0.519236  0.626457  0.127298  1
  Nd  Nd15  1  0.126660  0.981179  0.876700  1
  Nd  Nd16  1  0.808195  0.190946  0.749969  1
  Nd  Nd17  1  0.190946  0.808195  0.250031  1
  Nd  Nd18  1  0.308007  0.308007  0.000000  1
  Tm  Tm19  1  0.689368  0.689368  0.500000  1
  Si  Si20  1  0.076085  0.713211  0.439982  1
  Si  Si21  1  0.920396  0.286247  0.939286  1
  Si  Si22  1  0.713211  0.076085  0.560018  1
  Si  Si23  1  0.214266  0.420870  0.189638  1
  Si  Si24  1  0.784772  0.581728  0.686081  1
  Si  Si25  1  0.420870  0.214266  0.810362  1
  Si  Si26  1  0.581728  0.784772  0.313919  1
  Si  Si27  1  0.286247  0.920396  0.060714  1
  Si  Si28  1  0.830779  0.805768  0.795465  1
  Si  Si29  1  0.169439  0.194198  0.296482  1
  Si  Si30  1  0.805768  0.830779  0.204535  1
  Si  Si31  1  0.309131  0.670366  0.545586  1
  Si  Si32  1  0.694051  0.331157  0.046475  1
  Si  Si33  1  0.670366  0.309131  0.454414  1
  Si  Si34  1  0.331157  0.694051  0.953525  1
  Si  Si35  1  0.194198  0.169439  0.703518  1
