# generated using pymatgen
data_Cs4Bi3(PO7)2
_symmetry_space_group_name_H-M   'P 1'
_cell_length_a   7.74449266
_cell_length_b   7.74871143
_cell_length_c   10.72871106
_cell_angle_alpha   111.18744489
_cell_angle_beta   68.86319528
_cell_angle_gamma   119.99026268
_symmetry_Int_Tables_number   1
_chemical_formula_structural   Cs4Bi3(PO7)2
_chemical_formula_sum   'Cs4 Bi3 P2 O14'
_cell_volume   506.86147326
_cell_formula_units_Z   1
loop_
 _symmetry_equiv_pos_site_id
 _symmetry_equiv_pos_as_xyz
  1  'x, y, z'
loop_
 _atom_site_type_symbol
 _atom_site_label
 _atom_site_symmetry_multiplicity
 _atom_site_fract_x
 _atom_site_fract_y
 _atom_site_fract_z
 _atom_site_occupancy
  Cs  Cs0  1  0.920586  0.079426  0.238362  1
  Cs  Cs1  1  0.560905  0.439150  0.317550  1
  Cs  Cs2  1  0.439094  0.560848  0.682449  1
  Cs  Cs3  1  0.079411  0.920572  0.761637  1
  Bi  Bi4  1  0.499996  0.999996  0.000004  1
  Bi  Bi5  1  0.499996  0.500003  0.000004  1
  Bi  Bi6  1  0.000003  0.500003  0.000003  1
  P  P7  1  0.240854  0.759421  0.277809  1
  P  P8  1  0.759150  0.240573  0.722173  1
  O  O9  1  0.777170  0.621175  0.066824  1
  O  O10  1  0.378910  0.222810  0.066757  1
  O  O11  1  0.777181  0.222754  0.066750  1
  O  O12  1  0.370319  0.960989  0.220269  1
  O  O13  1  0.038820  0.629598  0.220235  1
  O  O14  1  0.370422  0.629638  0.220247  1
  O  O15  1  0.189255  0.810913  0.432449  1
  O  O16  1  0.810738  0.189101  0.567576  1
  O  O17  1  0.629576  0.370364  0.779754  1
  O  O18  1  0.961188  0.370407  0.779766  1
  O  O19  1  0.629681  0.039009  0.779734  1
  O  O20  1  0.222818  0.777245  0.933244  1
  O  O21  1  0.621093  0.777188  0.933237  1
  O  O22  1  0.222829  0.378818  0.933171  1
