# generated using pymatgen
data_Dy9Ho7(Ga3Fe)2
_symmetry_space_group_name_H-M   'P 1'
_cell_length_a   9.97803100
_cell_length_b   9.97803220
_cell_length_c   6.96695700
_cell_angle_alpha   90.00000000
_cell_angle_beta   90.00000000
_cell_angle_gamma   119.99999271
_symmetry_Int_Tables_number   1
_chemical_formula_structural   Dy9Ho7(Ga3Fe)2
_chemical_formula_sum   'Dy9 Ho7 Ga6 Fe2'
_cell_volume   600.70817695
_cell_formula_units_Z   1
loop_
 _symmetry_equiv_pos_site_id
 _symmetry_equiv_pos_as_xyz
  1  'x, y, z'
loop_
 _atom_site_type_symbol
 _atom_site_label
 _atom_site_symmetry_multiplicity
 _atom_site_fract_x
 _atom_site_fract_y
 _atom_site_fract_z
 _atom_site_occupancy
  Dy  Dy0  1  0.666667  0.333333  0.328902  1
  Dy  Dy1  1  0.462863  0.537137  0.207246  1
  Dy  Dy2  1  0.074273  0.537137  0.207246  1
  Dy  Dy3  1  0.462863  0.925727  0.207246  1
  Dy  Dy4  1  0.537010  0.462990  0.707810  1
  Dy  Dy5  1  0.925981  0.462990  0.707810  1
  Dy  Dy6  1  0.537010  0.074019  0.707810  1
  Dy  Dy7  1  0.000000  0.000000  0.231778  1
  Dy  Dy8  1  0.000000  0.000000  0.731288  1
  Ho  Ho9  1  0.173237  0.826763  0.511648  1
  Ho  Ho10  1  0.653524  0.826763  0.511648  1
  Ho  Ho11  1  0.173237  0.346476  0.511648  1
  Ho  Ho12  1  0.827050  0.172950  0.011452  1
  Ho  Ho13  1  0.345900  0.172950  0.011452  1
  Ho  Ho14  1  0.827050  0.654100  0.011452  1
  Ho  Ho15  1  0.333333  0.666667  0.828414  1
  Ga  Ga16  1  0.163992  0.836008  0.957280  1
  Ga  Ga17  1  0.672018  0.836008  0.957280  1
  Ga  Ga18  1  0.163992  0.327982  0.957280  1
  Ga  Ga19  1  0.836583  0.163417  0.458008  1
  Ga  Ga20  1  0.326833  0.163417  0.458008  1
  Ga  Ga21  1  0.836583  0.673167  0.458008  1
  Fe  Fe22  1  0.333333  0.666667  0.446559  1
  Fe  Fe23  1  0.666667  0.333333  0.947563  1
