# generated using pymatgen
data_Zr9CrRe3Pt
_symmetry_space_group_name_H-M   'P 1'
_cell_length_a   8.78403600
_cell_length_b   8.78402958
_cell_length_c   8.50017100
_cell_angle_alpha   90.00010185
_cell_angle_beta   89.99999000
_cell_angle_gamma   120.00025781
_symmetry_Int_Tables_number   1
_chemical_formula_structural   Zr9CrRe3Pt
_chemical_formula_sum   'Zr18 Cr2 Re6 Pt2'
_cell_volume   567.99571919
_cell_formula_units_Z   2
loop_
 _symmetry_equiv_pos_site_id
 _symmetry_equiv_pos_as_xyz
  1  'x, y, z'
loop_
 _atom_site_type_symbol
 _atom_site_label
 _atom_site_symmetry_multiplicity
 _atom_site_fract_x
 _atom_site_fract_y
 _atom_site_fract_z
 _atom_site_occupancy
  Zr  Zr0  1  0.192326  0.807680  0.447228  1
  Zr  Zr1  1  0.192321  0.384639  0.447229  1
  Zr  Zr2  1  0.615358  0.807681  0.447225  1
  Zr  Zr3  1  0.807687  0.192316  0.552779  1
  Zr  Zr4  1  0.807685  0.615369  0.552777  1
  Zr  Zr5  1  0.384636  0.192319  0.552776  1
  Zr  Zr6  1  0.807581  0.192420  0.947214  1
  Zr  Zr7  1  0.807578  0.615160  0.947214  1
  Zr  Zr8  1  0.384838  0.192419  0.947211  1
  Zr  Zr9  1  0.192425  0.807579  0.052776  1
  Zr  Zr10  1  0.192423  0.384845  0.052777  1
  Zr  Zr11  1  0.615150  0.807578  0.052778  1
  Zr  Zr12  1  0.542940  0.457062  0.250001  1
  Zr  Zr13  1  0.542940  0.085880  0.250002  1
  Zr  Zr14  1  0.914124  0.457062  0.250003  1
  Zr  Zr15  1  0.457064  0.542945  0.749994  1
  Zr  Zr16  1  0.457065  0.914121  0.749995  1
  Zr  Zr17  1  0.085880  0.542941  0.749994  1
  Cr  Cr18  1  0.000015  0.000001  0.500068  1
  Cr  Cr19  1  0.999990  0.000000  0.999975  1
  Re  Re20  1  0.894945  0.105049  0.250110  1
  Re  Re21  1  0.894939  0.789881  0.250111  1
  Re  Re22  1  0.210112  0.105054  0.250110  1
  Re  Re23  1  0.105032  0.894963  0.749890  1
  Re  Re24  1  0.105035  0.210076  0.749886  1
  Re  Re25  1  0.789910  0.894958  0.749886  1
  Pt  Pt26  1  0.333329  0.666663  0.250024  1
  Pt  Pt27  1  0.666673  0.333340  0.749972  1
