# generated using pymatgen
data_Sc3B4Os10W3
_symmetry_space_group_name_H-M   'P 1'
_cell_length_a   9.52780632
_cell_length_b   9.52780743
_cell_length_c   3.02582900
_cell_angle_alpha   90.00000000
_cell_angle_beta   90.00000000
_cell_angle_gamma   90.25174491
_symmetry_Int_Tables_number   1
_chemical_formula_structural   Sc3B4Os10W3
_chemical_formula_sum   'Sc3 B4 Os10 W3'
_cell_volume   274.67939350
_cell_formula_units_Z   1
loop_
 _symmetry_equiv_pos_site_id
 _symmetry_equiv_pos_as_xyz
  1  'x, y, z'
loop_
 _atom_site_type_symbol
 _atom_site_label
 _atom_site_symmetry_multiplicity
 _atom_site_fract_x
 _atom_site_fract_y
 _atom_site_fract_z
 _atom_site_occupancy
  Sc  Sc0  1  0.176494  0.823506  0.000000  1
  Sc  Sc1  1  0.323681  0.325125  0.000000  1
  Sc  Sc2  1  0.674875  0.676319  0.000000  1
  B  B3  1  0.619523  0.380477  0.000000  1
  B  B4  1  0.381053  0.618947  0.000000  1
  B  B5  1  0.123214  0.121231  0.000000  1
  B  B6  1  0.878769  0.876786  0.000000  1
  Os  Os7  1  0.502435  0.497565  0.500000  1
  Os  Os8  1  0.993038  0.006962  0.500000  1
  Os  Os9  1  0.580258  0.213225  0.500000  1
  Os  Os10  1  0.431456  0.781954  0.500000  1
  Os  Os11  1  0.060755  0.281560  0.500000  1
  Os  Os12  1  0.928310  0.718171  0.500000  1
  Os  Os13  1  0.281829  0.071690  0.500000  1
  Os  Os14  1  0.718440  0.939245  0.500000  1
  Os  Os15  1  0.218046  0.568544  0.500000  1
  Os  Os16  1  0.786775  0.419742  0.500000  1
  W  W17  1  0.495245  0.997451  0.000000  1
  W  W18  1  0.002549  0.504755  0.000000  1
  W  W19  1  0.823254  0.176746  0.000000  1
