# generated using pymatgen
data_TiV2(CrP)3
_symmetry_space_group_name_H-M   'P 1'
_cell_length_a   6.33817516
_cell_length_b   6.29808956
_cell_length_c   3.19111100
_cell_angle_alpha   90.00000000
_cell_angle_beta   90.00000000
_cell_angle_gamma   119.79100043
_symmetry_Int_Tables_number   1
_chemical_formula_structural   TiV2(CrP)3
_chemical_formula_sum   'Ti1 V2 Cr3 P3'
_cell_volume   110.54940180
_cell_formula_units_Z   1
loop_
 _symmetry_equiv_pos_site_id
 _symmetry_equiv_pos_as_xyz
  1  'x, y, z'
loop_
 _atom_site_type_symbol
 _atom_site_label
 _atom_site_symmetry_multiplicity
 _atom_site_fract_x
 _atom_site_fract_y
 _atom_site_fract_z
 _atom_site_occupancy
  Ti  Ti0  1  0.000000  0.595782  0.500000  1
  V  V1  1  0.403472  0.402098  0.500000  1
  V  V2  1  0.596528  0.998626  0.500000  1
  Cr  Cr3  1  0.000000  0.255307  0.000000  1
  Cr  Cr4  1  0.257537  0.003033  0.000000  1
  Cr  Cr5  1  0.742463  0.745496  0.000000  1
  P  P6  1  0.662560  0.330071  0.000000  1
  P  P7  1  0.337440  0.667512  0.000000  1
  P  P8  1  0.000000  0.002075  0.500000  1
