# generated using pymatgen
data_Sc8V7Si16Mo5
_symmetry_space_group_name_H-M   'P 1'
_cell_length_a   6.66933313
_cell_length_b   6.67180505
_cell_length_c   12.36588202
_cell_angle_alpha   90.08979785
_cell_angle_beta   89.97808628
_cell_angle_gamma   90.00430325
_symmetry_Int_Tables_number   1
_chemical_formula_structural   Sc8V7Si16Mo5
_chemical_formula_sum   'Sc8 V7 Si16 Mo5'
_cell_volume   550.23763385
_cell_formula_units_Z   1
loop_
 _symmetry_equiv_pos_site_id
 _symmetry_equiv_pos_as_xyz
  1  'x, y, z'
loop_
 _atom_site_type_symbol
 _atom_site_label
 _atom_site_symmetry_multiplicity
 _atom_site_fract_x
 _atom_site_fract_y
 _atom_site_fract_z
 _atom_site_occupancy
  Sc  Sc0  1  0.002249  0.662000  0.029939  1
  Sc  Sc1  1  0.836693  0.500994  0.280305  1
  Sc  Sc2  1  0.163355  0.498524  0.779231  1
  Sc  Sc3  1  0.502104  0.836987  0.720088  1
  Sc  Sc4  1  0.497789  0.163035  0.220167  1
  Sc  Sc5  1  0.997890  0.337210  0.530066  1
  Sc  Sc6  1  0.663338  0.001902  0.969787  1
  Sc  Sc7  1  0.337213  0.997391  0.470613  1
  V  V8  1  0.342643  0.503858  0.376612  1
  V  V9  1  0.657349  0.495754  0.875992  1
  V  V10  1  0.504434  0.342473  0.623480  1
  V  V11  1  0.495602  0.658266  0.123549  1
  V  V12  1  0.995672  0.842466  0.626570  1
  V  V13  1  0.157799  0.004507  0.873682  1
  V  V14  1  0.843094  0.996070  0.373207  1
  Si  Si15  1  0.296834  0.958876  0.063287  1
  Si  Si16  1  0.539617  0.794279  0.314622  1
  Si  Si17  1  0.459866  0.205606  0.813326  1
  Si  Si18  1  0.794214  0.540012  0.686020  1
  Si  Si19  1  0.208106  0.462114  0.187018  1
  Si  Si20  1  0.705780  0.039793  0.563710  1
  Si  Si21  1  0.959709  0.296638  0.933947  1
  Si  Si22  1  0.039797  0.705826  0.436616  1
  Si  Si23  1  0.702689  0.374473  0.069755  1
  Si  Si24  1  0.130150  0.206331  0.323199  1
  Si  Si25  1  0.871526  0.794154  0.820937  1
  Si  Si26  1  0.205972  0.128610  0.678677  1
  Si  Si27  1  0.792228  0.866501  0.180138  1
  Si  Si28  1  0.294080  0.628258  0.571297  1
  Si  Si29  1  0.371479  0.705775  0.928495  1
  Si  Si30  1  0.628594  0.293726  0.429066  1
  Mo  Mo31  1  0.333639  0.333632  0.999037  1
  Mo  Mo32  1  0.168186  0.831208  0.251104  1
  Mo  Mo33  1  0.832575  0.167071  0.749711  1
  Mo  Mo34  1  0.667112  0.666913  0.500168  1
  Mo  Mo35  1  0.000626  0.158763  0.126583  1
