# generated using pymatgen
data_BeI13
_symmetry_space_group_name_H-M   'P 1'
_cell_length_a   13.35464183
_cell_length_b   11.98861113
_cell_length_c   18.01959607
_cell_angle_alpha   131.53343058
_cell_angle_beta   65.17752681
_cell_angle_gamma   115.60175343
_symmetry_Int_Tables_number   1
_chemical_formula_structural   BeI13
_chemical_formula_sum   'Be2 I26'
_cell_volume   1909.24821587
_cell_formula_units_Z   2
loop_
 _symmetry_equiv_pos_site_id
 _symmetry_equiv_pos_as_xyz
  1  'x, y, z'
loop_
 _atom_site_type_symbol
 _atom_site_label
 _atom_site_symmetry_multiplicity
 _atom_site_fract_x
 _atom_site_fract_y
 _atom_site_fract_z
 _atom_site_occupancy
  Be  Be0  1  0.393656  0.880396  0.994701  1
  Be  Be1  1  0.606344  0.119604  0.005299  1
  I  I2  1  0.403292  0.651825  0.960431  1
  I  I3  1  0.596708  0.348175  0.039569  1
  I  I4  1  0.604335  0.759498  0.371631  1
  I  I5  1  0.395665  0.240502  0.628369  1
  I  I6  1  0.755140  0.742242  0.027314  1
  I  I7  1  0.244860  0.257758  0.972686  1
  I  I8  1  0.754743  0.045245  0.195261  1
  I  I9  1  0.245257  0.954755  0.804739  1
  I  I10  1  0.465146  0.113091  0.144054  1
  I  I11  1  0.534854  0.886909  0.855946  1
  I  I12  1  0.202402  0.603084  0.634365  1
  I  I13  1  0.797598  0.396916  0.365635  1
  I  I14  1  0.206661  0.857719  0.992720  1
  I  I15  1  0.793339  0.142281  0.007280  1
  I  I16  1  0.120395  0.117093  0.204717  1
  I  I17  1  0.879605  0.882907  0.795283  1
  I  I18  1  0.270007  0.954741  0.476828  1
  I  I19  1  0.729993  0.045259  0.523172  1
  I  I20  1  0.303266  0.439803  0.639072  1
  I  I21  1  0.696734  0.560197  0.360928  1
  I  I22  1  0.861362  0.326667  0.675789  1
  I  I23  1  0.138638  0.673333  0.324211  1
  I  I24  1  0.970983  0.671096  0.590620  1
  I  I25  1  0.029017  0.328904  0.409380  1
  I  I26  1  0.266629  0.666181  0.143444  1
  I  I27  1  0.733371  0.333819  0.856556  1
