# generated using pymatgen
data_DyY3(SiAu2)8
_symmetry_space_group_name_H-M   'P 1'
_cell_length_a   4.41739000
_cell_length_b   4.41739000
_cell_length_c   27.03254000
_cell_angle_alpha   90.00000000
_cell_angle_beta   90.00000000
_cell_angle_gamma   90.00000000
_symmetry_Int_Tables_number   1
_chemical_formula_structural   DyY3(SiAu2)8
_chemical_formula_sum   'Dy1 Y3 Si8 Au16'
_cell_volume   527.49499303
_cell_formula_units_Z   1
loop_
 _symmetry_equiv_pos_site_id
 _symmetry_equiv_pos_as_xyz
  1  'x, y, z'
loop_
 _atom_site_type_symbol
 _atom_site_label
 _atom_site_symmetry_multiplicity
 _atom_site_fract_x
 _atom_site_fract_y
 _atom_site_fract_z
 _atom_site_occupancy
  Dy  Dy0  1  0.500000  0.500000  0.500000  1
  Y  Y1  1  0.000000  0.500000  0.749317  1
  Y  Y2  1  0.500000  0.000000  0.250683  1
  Y  Y3  1  0.500000  0.500000  0.000000  1
  Si  Si4  1  0.000000  0.000000  0.956778  1
  Si  Si5  1  0.000000  0.000000  0.456966  1
  Si  Si6  1  0.500000  0.000000  0.792631  1
  Si  Si7  1  0.500000  0.000000  0.706078  1
  Si  Si8  1  0.000000  0.500000  0.207369  1
  Si  Si9  1  0.000000  0.500000  0.293922  1
  Si  Si10  1  0.000000  0.000000  0.043222  1
  Si  Si11  1  0.000000  0.000000  0.543034  1
  Au  Au12  1  0.500000  0.000000  0.086004  1
  Au  Au13  1  0.500000  0.500000  0.663165  1
  Au  Au14  1  0.500000  0.500000  0.835686  1
  Au  Au15  1  0.000000  0.500000  0.085422  1
  Au  Au16  1  0.500000  0.000000  0.914578  1
  Au  Au17  1  0.000000  0.000000  0.664272  1
  Au  Au18  1  0.000000  0.500000  0.415200  1
  Au  Au19  1  0.500000  0.500000  0.336835  1
  Au  Au20  1  0.500000  0.000000  0.414603  1
  Au  Au21  1  0.000000  0.000000  0.335728  1
  Au  Au22  1  0.000000  0.000000  0.165367  1
  Au  Au23  1  0.500000  0.000000  0.584800  1
  Au  Au24  1  0.000000  0.000000  0.834633  1
  Au  Au25  1  0.500000  0.500000  0.164314  1
  Au  Au26  1  0.000000  0.500000  0.585397  1
  Au  Au27  1  0.000000  0.500000  0.913996  1
