# generated using pymatgen
data_Ba4Nd5Bi3Se16
_symmetry_space_group_name_H-M   'P 1'
_cell_length_a   4.35956200
_cell_length_b   12.94679324
_cell_length_c   15.57751865
_cell_angle_alpha   89.93806621
_cell_angle_beta   90.00000000
_cell_angle_gamma   90.00000000
_symmetry_Int_Tables_number   1
_chemical_formula_structural   Ba4Nd5Bi3Se16
_chemical_formula_sum   'Ba4 Nd5 Bi3 Se16'
_cell_volume   879.23121256
_cell_formula_units_Z   1
loop_
 _symmetry_equiv_pos_site_id
 _symmetry_equiv_pos_as_xyz
  1  'x, y, z'
loop_
 _atom_site_type_symbol
 _atom_site_label
 _atom_site_symmetry_multiplicity
 _atom_site_fract_x
 _atom_site_fract_y
 _atom_site_fract_z
 _atom_site_occupancy
  Ba  Ba0  1  0.250000  0.755468  0.336778  1
  Ba  Ba1  1  0.250000  0.255554  0.164656  1
  Ba  Ba2  1  0.750000  0.245323  0.662445  1
  Ba  Ba3  1  0.750000  0.740985  0.836966  1
  Nd  Nd4  1  0.250000  0.427959  0.394084  1
  Nd  Nd5  1  0.250000  0.927252  0.105551  1
  Nd  Nd6  1  0.750000  0.572433  0.606581  1
  Nd  Nd7  1  0.750000  0.072048  0.892434  1
  Nd  Nd8  1  0.250000  0.422609  0.899532  1
  Bi  Bi9  1  0.250000  0.924953  0.600652  1
  Bi  Bi10  1  0.750000  0.576838  0.101742  1
  Bi  Bi11  1  0.750000  0.074158  0.399096  1
  Se  Se12  1  0.250000  0.207904  0.826099  1
  Se  Se13  1  0.250000  0.706199  0.671234  1
  Se  Se14  1  0.750000  0.794157  0.172320  1
  Se  Se15  1  0.750000  0.294327  0.328779  1
  Se  Se16  1  0.250000  0.130918  0.528998  1
  Se  Se17  1  0.250000  0.630867  0.973753  1
  Se  Se18  1  0.750000  0.868760  0.470965  1
  Se  Se19  1  0.750000  0.368249  0.028569  1
  Se  Se20  1  0.250000  0.522948  0.216298  1
  Se  Se21  1  0.250000  0.020996  0.284110  1
  Se  Se22  1  0.750000  0.479483  0.783697  1
  Se  Se23  1  0.750000  0.977585  0.715861  1
  Se  Se24  1  0.250000  0.416602  0.581135  1
  Se  Se25  1  0.250000  0.917779  0.918681  1
  Se  Se26  1  0.750000  0.583800  0.418462  1
  Se  Se27  1  0.750000  0.083848  0.080522  1
