# generated using pymatgen
data_Ce10BiPb5O2
_symmetry_space_group_name_H-M   'P 1'
_cell_length_a   9.57847045
_cell_length_b   9.57847068
_cell_length_c   9.57847100
_cell_angle_alpha   128.51559257
_cell_angle_beta   128.51559368
_cell_angle_gamma   75.79126694
_symmetry_Int_Tables_number   1
_chemical_formula_structural   Ce10BiPb5O2
_chemical_formula_sum   'Ce10 Bi1 Pb5 O2'
_cell_volume   523.26610432
_cell_formula_units_Z   1
loop_
 _symmetry_equiv_pos_site_id
 _symmetry_equiv_pos_as_xyz
  1  'x, y, z'
loop_
 _atom_site_type_symbol
 _atom_site_label
 _atom_site_symmetry_multiplicity
 _atom_site_fract_x
 _atom_site_fract_y
 _atom_site_fract_z
 _atom_site_occupancy
  Ce  Ce0  1  0.500927  0.500927  0.000000  1
  Ce  Ce1  1  0.999073  0.999073  0.000000  1
  Ce  Ce2  1  0.502786  0.002097  0.811760  1
  Ce  Ce3  1  0.190338  0.691027  0.188240  1
  Ce  Ce4  1  0.002097  0.190338  0.499312  1
  Ce  Ce5  1  0.691027  0.502786  0.500688  1
  Ce  Ce6  1  0.497903  0.997214  0.188240  1
  Ce  Ce7  1  0.808973  0.309662  0.811760  1
  Ce  Ce8  1  0.997214  0.808973  0.499312  1
  Ce  Ce9  1  0.309662  0.497903  0.500688  1
  Bi  Bi10  1  0.250000  0.250000  0.000000  1
  Pb  Pb11  1  0.750000  0.750000  0.000000  1
  Pb  Pb12  1  0.859735  0.359735  0.219472  1
  Pb  Pb13  1  0.140265  0.640265  0.780529  1
  Pb  Pb14  1  0.359735  0.140265  0.500000  1
  Pb  Pb15  1  0.640265  0.859735  0.500000  1
  O  O16  1  0.250000  0.750000  0.500000  1
  O  O17  1  0.750000  0.250000  0.500000  1
