# generated using pymatgen
data_V9Mo2Ru5
_symmetry_space_group_name_H-M   'P 1'
_cell_length_a   6.04086800
_cell_length_b   6.04360200
_cell_length_c   6.04360200
_cell_angle_alpha   90.00000000
_cell_angle_beta   90.00000000
_cell_angle_gamma   90.00000000
_symmetry_Int_Tables_number   1
_chemical_formula_structural   V9Mo2Ru5
_chemical_formula_sum   'V9 Mo2 Ru5'
_cell_volume   220.64345962
_cell_formula_units_Z   1
loop_
 _symmetry_equiv_pos_site_id
 _symmetry_equiv_pos_as_xyz
  1  'x, y, z'
loop_
 _atom_site_type_symbol
 _atom_site_label
 _atom_site_symmetry_multiplicity
 _atom_site_fract_x
 _atom_site_fract_y
 _atom_site_fract_z
 _atom_site_occupancy
  V  V0  1  0.250491  0.252759  0.252759  1
  V  V1  1  0.749509  0.252759  0.252759  1
  V  V2  1  0.250491  0.747241  0.252759  1
  V  V3  1  0.749509  0.747241  0.252759  1
  V  V4  1  0.500000  0.500000  0.500000  1
  V  V5  1  0.250491  0.252759  0.747241  1
  V  V6  1  0.749509  0.252759  0.747241  1
  V  V7  1  0.250491  0.747241  0.747241  1
  V  V8  1  0.749509  0.747241  0.747241  1
  Mo  Mo9  1  0.000000  0.500000  0.000000  1
  Mo  Mo10  1  0.000000  0.000000  0.500000  1
  Ru  Ru11  1  0.000000  0.000000  0.000000  1
  Ru  Ru12  1  0.500000  0.000000  0.000000  1
  Ru  Ru13  1  0.500000  0.500000  0.000000  1
  Ru  Ru14  1  0.500000  0.000000  0.500000  1
  Ru  Ru15  1  0.000000  0.500000  0.500000  1
