# generated using pymatgen
data_Dy7Co2Sn23Rh4
_symmetry_space_group_name_H-M   'P 1'
_cell_length_a   9.81090520
_cell_length_b   9.81091284
_cell_length_c   10.06399127
_cell_angle_alpha   90.00000066
_cell_angle_beta   90.02298044
_cell_angle_gamma   120.00001986
_symmetry_Int_Tables_number   1
_chemical_formula_structural   Dy7Co2Sn23Rh4
_chemical_formula_sum   'Dy7 Co2 Sn23 Rh4'
_cell_volume   838.91748532
_cell_formula_units_Z   1
loop_
 _symmetry_equiv_pos_site_id
 _symmetry_equiv_pos_as_xyz
  1  'x, y, z'
loop_
 _atom_site_type_symbol
 _atom_site_label
 _atom_site_symmetry_multiplicity
 _atom_site_fract_x
 _atom_site_fract_y
 _atom_site_fract_z
 _atom_site_occupancy
  Dy  Dy0  1  0.000000  0.000000  0.000000  1
  Dy  Dy1  1  0.478725  0.521124  0.306763  1
  Dy  Dy2  1  0.521275  0.478876  0.693237  1
  Dy  Dy3  1  0.478725  0.957601  0.306763  1
  Dy  Dy4  1  0.521275  0.042399  0.693237  1
  Dy  Dy5  1  0.043209  0.521605  0.307002  1
  Dy  Dy6  1  0.956791  0.478395  0.692998  1
  Co  Co7  1  0.336216  0.168107  0.198168  1
  Co  Co8  1  0.663784  0.831893  0.801832  1
  Sn  Sn9  1  0.350447  0.004403  0.004567  1
  Sn  Sn10  1  0.649553  0.995597  0.995433  1
  Sn  Sn11  1  0.000000  0.351093  0.000000  1
  Sn  Sn12  1  0.000000  0.648907  0.000000  1
  Sn  Sn13  1  0.649553  0.653956  0.995433  1
  Sn  Sn14  1  0.350447  0.346044  0.004567  1
  Sn  Sn15  1  0.338104  0.669052  0.818701  1
  Sn  Sn16  1  0.661896  0.330948  0.181299  1
  Sn  Sn17  1  0.000000  0.000000  0.500000  1
  Sn  Sn18  1  0.779091  0.221095  0.455953  1
  Sn  Sn19  1  0.220909  0.778905  0.544047  1
  Sn  Sn20  1  0.779091  0.557995  0.455953  1
  Sn  Sn21  1  0.220909  0.442005  0.544047  1
  Sn  Sn22  1  0.438643  0.219321  0.450857  1
  Sn  Sn23  1  0.561357  0.780679  0.549143  1
  Sn  Sn24  1  0.333475  0.666738  0.118371  1
  Sn  Sn25  1  0.666525  0.333262  0.881629  1
  Sn  Sn26  1  0.123389  0.886779  0.276384  1
  Sn  Sn27  1  0.876611  0.113221  0.723616  1
  Sn  Sn28  1  0.123389  0.236610  0.276384  1
  Sn  Sn29  1  0.876611  0.763390  0.723616  1
  Sn  Sn30  1  0.759451  0.879725  0.280936  1
  Sn  Sn31  1  0.240549  0.120275  0.719064  1
  Rh  Rh32  1  0.831467  0.167665  0.197555  1
  Rh  Rh33  1  0.168533  0.832335  0.802445  1
  Rh  Rh34  1  0.831467  0.663802  0.197555  1
  Rh  Rh35  1  0.168533  0.336198  0.802445  1
