# generated using pymatgen
data_Y2B6(Ir2Rh)3
_symmetry_space_group_name_H-M   'P 1'
_cell_length_a   5.63120554
_cell_length_b   5.62487227
_cell_length_c   8.63560700
_cell_angle_alpha   90.00000000
_cell_angle_beta   90.00000000
_cell_angle_gamma   119.87636729
_symmetry_Int_Tables_number   1
_chemical_formula_structural   Y2B6(Ir2Rh)3
_chemical_formula_sum   'Y2 B6 Ir6 Rh3'
_cell_volume   237.17955242
_cell_formula_units_Z   1
loop_
 _symmetry_equiv_pos_site_id
 _symmetry_equiv_pos_as_xyz
  1  'x, y, z'
loop_
 _atom_site_type_symbol
 _atom_site_label
 _atom_site_symmetry_multiplicity
 _atom_site_fract_x
 _atom_site_fract_y
 _atom_site_fract_z
 _atom_site_occupancy
  Y  Y0  1  0.000000  0.000000  0.700950  1
  Y  Y1  1  0.000000  0.000000  0.299884  1
  B  B2  1  0.667427  0.332921  0.999880  1
  B  B3  1  0.332573  0.667079  0.999880  1
  B  B4  1  0.666783  0.333129  0.668014  1
  B  B5  1  0.333217  0.666871  0.668014  1
  B  B6  1  0.332662  0.666116  0.331797  1
  B  B7  1  0.667338  0.333884  0.331797  1
  Ir  Ir8  1  0.500000  0.000000  0.836818  1
  Ir  Ir9  1  0.000000  0.500000  0.836409  1
  Ir  Ir10  1  0.000000  0.500000  0.163781  1
  Ir  Ir11  1  0.500000  0.500000  0.499701  1
  Ir  Ir12  1  0.500000  0.000000  0.498975  1
  Ir  Ir13  1  0.000000  0.500000  0.499969  1
  Rh  Rh14  1  0.500000  0.500000  0.836647  1
  Rh  Rh15  1  0.500000  0.500000  0.163461  1
  Rh  Rh16  1  0.500000  0.000000  0.164023  1
