# generated using pymatgen
data_LiNd19(IrPt2)4
_symmetry_space_group_name_H-M   'P 1'
_cell_length_a   11.42167500
_cell_length_b   11.42167500
_cell_length_c   6.51074300
_cell_angle_alpha   90.00000000
_cell_angle_beta   90.00000000
_cell_angle_gamma   90.00000000
_symmetry_Int_Tables_number   1
_chemical_formula_structural   LiNd19(IrPt2)4
_chemical_formula_sum   'Li1 Nd19 Ir4 Pt8'
_cell_volume   849.35676315
_cell_formula_units_Z   1
loop_
 _symmetry_equiv_pos_site_id
 _symmetry_equiv_pos_as_xyz
  1  'x, y, z'
loop_
 _atom_site_type_symbol
 _atom_site_label
 _atom_site_symmetry_multiplicity
 _atom_site_fract_x
 _atom_site_fract_y
 _atom_site_fract_z
 _atom_site_occupancy
  Li  Li0  1  0.500000  0.500000  0.500000  1
  Nd  Nd1  1  0.294782  0.087354  0.373149  1
  Nd  Nd2  1  0.295094  0.910030  0.874966  1
  Nd  Nd3  1  0.704906  0.089970  0.874966  1
  Nd  Nd4  1  0.705218  0.912646  0.373149  1
  Nd  Nd5  1  0.588644  0.794667  0.875551  1
  Nd  Nd6  1  0.585865  0.212676  0.377011  1
  Nd  Nd7  1  0.414135  0.787324  0.377011  1
  Nd  Nd8  1  0.411356  0.205333  0.875551  1
  Nd  Nd9  1  0.212676  0.414135  0.622989  1
  Nd  Nd10  1  0.205333  0.588644  0.124449  1
  Nd  Nd11  1  0.794667  0.411356  0.124449  1
  Nd  Nd12  1  0.787324  0.585865  0.622989  1
  Nd  Nd13  1  0.910030  0.704906  0.125034  1
  Nd  Nd14  1  0.912646  0.294782  0.626851  1
  Nd  Nd15  1  0.087354  0.705218  0.626851  1
  Nd  Nd16  1  0.089970  0.295094  0.125034  1
  Nd  Nd17  1  0.000000  0.000000  0.500000  1
  Nd  Nd18  1  0.000000  0.000000  0.000000  1
  Nd  Nd19  1  0.500000  0.500000  0.000000  1
  Ir  Ir20  1  0.500000  0.000000  0.115084  1
  Ir  Ir21  1  0.500000  0.000000  0.610670  1
  Ir  Ir22  1  0.000000  0.500000  0.884916  1
  Ir  Ir23  1  0.000000  0.500000  0.389330  1
  Pt  Pt24  1  0.845202  0.154376  0.250851  1
  Pt  Pt25  1  0.845624  0.845202  0.749149  1
  Pt  Pt26  1  0.154376  0.154798  0.749149  1
  Pt  Pt27  1  0.154798  0.845624  0.250851  1
  Pt  Pt28  1  0.652604  0.347466  0.751273  1
  Pt  Pt29  1  0.652534  0.652604  0.248727  1
  Pt  Pt30  1  0.347466  0.347396  0.248727  1
  Pt  Pt31  1  0.347396  0.652534  0.751273  1
