# generated using pymatgen
data_Nb2Fe6Co6P7
_symmetry_space_group_name_H-M   'P 1'
_cell_length_a   8.84812600
_cell_length_b   8.84812609
_cell_length_c   3.55364500
_cell_angle_alpha   90.00000000
_cell_angle_beta   90.00000000
_cell_angle_gamma   119.99999965
_symmetry_Int_Tables_number   1
_chemical_formula_structural   Nb2Fe6Co6P7
_chemical_formula_sum   'Nb2 Fe6 Co6 P7'
_cell_volume   240.93909544
_cell_formula_units_Z   1
loop_
 _symmetry_equiv_pos_site_id
 _symmetry_equiv_pos_as_xyz
  1  'x, y, z'
loop_
 _atom_site_type_symbol
 _atom_site_label
 _atom_site_symmetry_multiplicity
 _atom_site_fract_x
 _atom_site_fract_y
 _atom_site_fract_z
 _atom_site_occupancy
  Nb  Nb0  1  0.666667  0.333333  0.500000  1
  Nb  Nb1  1  0.333333  0.666667  0.000000  1
  Fe  Fe2  1  0.389410  0.440514  0.500000  1
  Fe  Fe3  1  0.559486  0.948896  0.500000  1
  Fe  Fe4  1  0.218554  0.092147  0.500000  1
  Fe  Fe5  1  0.873594  0.781446  0.500000  1
  Fe  Fe6  1  0.907853  0.126406  0.500000  1
  Fe  Fe7  1  0.051104  0.610590  0.500000  1
  Co  Co8  1  0.117600  0.838667  0.000000  1
  Co  Co9  1  0.721067  0.882400  0.000000  1
  Co  Co10  1  0.933744  0.368378  0.000000  1
  Co  Co11  1  0.631622  0.565366  0.000000  1
  Co  Co12  1  0.434634  0.066256  0.000000  1
  Co  Co13  1  0.161333  0.278933  0.000000  1
  P  P14  1  0.000000  0.000000  0.000000  1
  P  P15  1  0.592065  0.712894  0.500000  1
  P  P16  1  0.701892  0.117382  0.000000  1
  P  P17  1  0.882618  0.584510  0.000000  1
  P  P18  1  0.415490  0.298108  0.000000  1
  P  P19  1  0.287106  0.879172  0.500000  1
  P  P20  1  0.120828  0.407935  0.500000  1
