# generated using pymatgen
data_Er7Tm3IrRu3
_symmetry_space_group_name_H-M   'P 1'
_cell_length_a   6.28276844
_cell_length_b   7.28125916
_cell_length_c   8.36953000
_cell_angle_alpha   96.84918959
_cell_angle_beta   111.91610810
_cell_angle_gamma   90.09970779
_symmetry_Int_Tables_number   1
_chemical_formula_structural   Er7Tm3IrRu3
_chemical_formula_sum   'Er7 Tm3 Ir1 Ru3'
_cell_volume   352.22662074
_cell_formula_units_Z   1
loop_
 _symmetry_equiv_pos_site_id
 _symmetry_equiv_pos_as_xyz
  1  'x, y, z'
loop_
 _atom_site_type_symbol
 _atom_site_label
 _atom_site_symmetry_multiplicity
 _atom_site_fract_x
 _atom_site_fract_y
 _atom_site_fract_z
 _atom_site_occupancy
  Er  Er0  1  0.792204  0.081902  0.814998  1
  Er  Er1  1  0.978081  0.415228  0.186907  1
  Er  Er2  1  0.208431  0.915592  0.185799  1
  Er  Er3  1  0.024954  0.585465  0.814973  1
  Er  Er4  1  0.204863  0.183599  0.564387  1
  Er  Er5  1  0.642076  0.316312  0.434495  1
  Er  Er6  1  0.793692  0.815253  0.434880  1
  Tm  Tm7  1  0.356792  0.685351  0.563781  1
  Tm  Tm8  1  0.419782  0.249642  0.000359  1
  Tm  Tm9  1  0.580161  0.751282  0.000527  1
  Ir  Ir10  1  0.601348  0.423426  0.779197  1
  Ru  Ru11  1  0.823463  0.076782  0.219469  1
  Ru  Ru12  1  0.395773  0.576167  0.220297  1
  Ru  Ru13  1  0.178381  0.924000  0.779931  1
