# generated using pymatgen
data_Er4Ga5SnIr7
_symmetry_space_group_name_H-M   'P 1'
_cell_length_a   7.33412674
_cell_length_b   7.31741538
_cell_length_c   7.31741701
_cell_angle_alpha   109.47661101
_cell_angle_beta   109.53813245
_cell_angle_gamma   109.53814378
_symmetry_Int_Tables_number   1
_chemical_formula_structural   Er4Ga5SnIr7
_chemical_formula_sum   'Er4 Ga5 Sn1 Ir7'
_cell_volume   301.78207645
_cell_formula_units_Z   1
loop_
 _symmetry_equiv_pos_site_id
 _symmetry_equiv_pos_as_xyz
  1  'x, y, z'
loop_
 _atom_site_type_symbol
 _atom_site_label
 _atom_site_symmetry_multiplicity
 _atom_site_fract_x
 _atom_site_fract_y
 _atom_site_fract_z
 _atom_site_occupancy
  Er  Er0  1  0.000026  0.006323  0.482767  1
  Er  Er1  1  0.000026  0.482767  0.006323  1
  Er  Er2  1  0.523562  0.006269  0.006269  1
  Er  Er3  1  0.476424  0.482754  0.482754  1
  Ga  Ga4  1  0.685930  0.680291  0.994365  1
  Ga  Ga5  1  0.314051  0.994372  0.308449  1
  Ga  Ga6  1  0.000063  0.328122  0.328122  1
  Ga  Ga7  1  0.314051  0.308449  0.994372  1
  Ga  Ga8  1  0.685930  0.994365  0.680291  1
  Sn  Sn9  1  0.999990  0.699864  0.699864  1
  Ir  Ir10  1  0.745436  0.245555  0.500118  1
  Ir  Ir11  1  0.745436  0.500118  0.245555  1
  Ir  Ir12  1  0.500014  0.247496  0.747500  1
  Ir  Ir13  1  0.254524  0.500127  0.754653  1
  Ir  Ir14  1  0.254524  0.754653  0.500127  1
  Ir  Ir15  1  0.500014  0.747500  0.247496  1
  Ir  Ir16  1  0.999999  0.020975  0.020975  1
