# generated using pymatgen
data_Y2Si5GePRh12
_symmetry_space_group_name_H-M   'P 1'
_cell_length_a   9.78238639
_cell_length_b   9.75885012
_cell_length_c   3.86080004
_cell_angle_alpha   89.99627250
_cell_angle_beta   90.01623343
_cell_angle_gamma   120.05181192
_symmetry_Int_Tables_number   1
_chemical_formula_structural   Y2Si5GePRh12
_chemical_formula_sum   'Y2 Si5 Ge1 P1 Rh12'
_cell_volume   319.02477021
_cell_formula_units_Z   1
loop_
 _symmetry_equiv_pos_site_id
 _symmetry_equiv_pos_as_xyz
  1  'x, y, z'
loop_
 _atom_site_type_symbol
 _atom_site_label
 _atom_site_symmetry_multiplicity
 _atom_site_fract_x
 _atom_site_fract_y
 _atom_site_fract_z
 _atom_site_occupancy
  Y  Y0  1  0.332428  0.666108  0.748427  1
  Y  Y1  1  0.665390  0.332485  0.251060  1
  Si  Si2  1  0.400842  0.289246  0.749288  1
  Si  Si3  1  0.708989  0.110324  0.750503  1
  Si  Si4  1  0.887181  0.597666  0.750370  1
  Si  Si5  1  0.599614  0.710290  0.250339  1
  Si  Si6  1  0.291163  0.889442  0.249385  1
  Ge  Ge7  1  0.000303  0.999629  0.505560  1
  P  P8  1  0.112273  0.401734  0.247809  1
  Rh  Rh9  1  0.444634  0.063326  0.751230  1
  Rh  Rh10  1  0.934933  0.381043  0.750999  1
  Rh  Rh11  1  0.616326  0.554840  0.751113  1
  Rh  Rh12  1  0.556761  0.937356  0.248948  1
  Rh  Rh13  1  0.064416  0.614603  0.248720  1
  Rh  Rh14  1  0.378333  0.445690  0.248080  1
  Rh  Rh15  1  0.147405  0.272479  0.747906  1
  Rh  Rh16  1  0.733505  0.878733  0.749214  1
  Rh  Rh17  1  0.122006  0.851668  0.747950  1
  Rh  Rh18  1  0.854497  0.730079  0.251456  1
  Rh  Rh19  1  0.266541  0.122105  0.249837  1
  Rh  Rh20  1  0.882459  0.151153  0.251807  1
