# generated using pymatgen
data_Zr2Sc5P12Ir16Rh
_symmetry_space_group_name_H-M   'P 1'
_cell_length_a   12.82772000
_cell_length_b   12.82771972
_cell_length_c   3.91366100
_cell_angle_alpha   90.00000000
_cell_angle_beta   90.00000000
_cell_angle_gamma   121.17855231
_symmetry_Int_Tables_number   1
_chemical_formula_structural   Zr2Sc5P12Ir16Rh
_chemical_formula_sum   'Zr2 Sc5 P12 Ir16 Rh1'
_cell_volume   550.97469526
_cell_formula_units_Z   1
loop_
 _symmetry_equiv_pos_site_id
 _symmetry_equiv_pos_as_xyz
  1  'x, y, z'
loop_
 _atom_site_type_symbol
 _atom_site_label
 _atom_site_symmetry_multiplicity
 _atom_site_fract_x
 _atom_site_fract_y
 _atom_site_fract_z
 _atom_site_occupancy
  Zr  Zr0  1  0.449328  0.002425  0.000000  1
  Zr  Zr1  1  0.002425  0.449328  0.000000  1
  Sc  Sc2  1  0.329070  0.669176  0.000000  1
  Sc  Sc3  1  0.669176  0.329070  0.000000  1
  Sc  Sc4  1  0.819481  0.002433  0.500000  1
  Sc  Sc5  1  0.002433  0.819481  0.500000  1
  Sc  Sc6  1  0.188916  0.188916  0.500000  1
  P  P7  1  0.172880  0.001161  0.000000  1
  P  P8  1  0.001161  0.172880  0.000000  1
  P  P9  1  0.819505  0.819505  0.000000  1
  P  P10  1  0.173405  0.486146  0.500000  1
  P  P11  1  0.514922  0.688630  0.500000  1
  P  P12  1  0.315580  0.833609  0.500000  1
  P  P13  1  0.688630  0.514922  0.500000  1
  P  P14  1  0.833609  0.315580  0.500000  1
  P  P15  1  0.486146  0.173405  0.500000  1
  P  P16  1  0.648235  0.993249  0.000000  1
  P  P17  1  0.993249  0.648235  0.000000  1
  P  P18  1  0.354759  0.354759  0.000000  1
  Ir  Ir19  1  0.358716  0.495384  0.500000  1
  Ir  Ir20  1  0.512746  0.869494  0.500000  1
  Ir  Ir21  1  0.142137  0.644672  0.500000  1
  Ir  Ir22  1  0.869494  0.512746  0.500000  1
  Ir  Ir23  1  0.644672  0.142137  0.500000  1
  Ir  Ir24  1  0.495384  0.358716  0.500000  1
  Ir  Ir25  1  0.183636  0.372729  0.000000  1
  Ir  Ir26  1  0.624096  0.799674  0.000000  1
  Ir  Ir27  1  0.185012  0.821550  0.000000  1
  Ir  Ir28  1  0.799674  0.624096  0.000000  1
  Ir  Ir29  1  0.821550  0.185012  0.000000  1
  Ir  Ir30  1  0.372729  0.183636  0.000000  1
  Ir  Ir31  1  0.277711  0.002744  0.500000  1
  Ir  Ir32  1  0.002744  0.277711  0.500000  1
  Ir  Ir33  1  0.715644  0.715644  0.500000  1
  Ir  Ir34  1  0.996022  0.996022  0.000000  1
  Rh  Rh35  1  0.535125  0.535125  0.000000  1
