# generated using pymatgen
data_Tb2Ho(NpAl6)3
_symmetry_space_group_name_H-M   'P 1'
_cell_length_a   14.41607342
_cell_length_b   14.41607342
_cell_length_c   14.41607400
_cell_angle_alpha   24.94543310
_cell_angle_beta   24.94543307
_cell_angle_gamma   24.94543245
_symmetry_Int_Tables_number   1
_chemical_formula_structural   Tb2Ho(NpAl6)3
_chemical_formula_sum   'Tb2 Ho1 Np3 Al18'
_cell_volume   468.80685014
_cell_formula_units_Z   1
loop_
 _symmetry_equiv_pos_site_id
 _symmetry_equiv_pos_as_xyz
  1  'x, y, z'
loop_
 _atom_site_type_symbol
 _atom_site_label
 _atom_site_symmetry_multiplicity
 _atom_site_fract_x
 _atom_site_fract_y
 _atom_site_fract_z
 _atom_site_occupancy
  Tb  Tb0  1  0.999578  0.999578  0.999578  1
  Tb  Tb1  1  0.500516  0.500516  0.500516  1
  Ho  Ho2  1  0.609268  0.609268  0.609268  1
  Np  Np3  1  0.109034  0.109034  0.109034  1
  Np  Np4  1  0.890929  0.890929  0.890929  1
  Np  Np5  1  0.391249  0.391249  0.391249  1
  Al  Al6  1  0.924387  0.371014  0.371014  1
  Al  Al7  1  0.418352  0.873391  0.873391  1
  Al  Al8  1  0.371014  0.371014  0.924387  1
  Al  Al9  1  0.873391  0.873391  0.418352  1
  Al  Al10  1  0.371014  0.924387  0.371014  1
  Al  Al11  1  0.873391  0.418352  0.873391  1
  Al  Al12  1  0.576616  0.128488  0.128488  1
  Al  Al13  1  0.080393  0.626662  0.626662  1
  Al  Al14  1  0.128488  0.128488  0.576616  1
  Al  Al15  1  0.626662  0.626662  0.080393  1
  Al  Al16  1  0.128488  0.576616  0.128488  1
  Al  Al17  1  0.626662  0.080393  0.626662  1
  Al  Al18  1  0.497550  0.497550  0.005411  1
  Al  Al19  1  0.000198  0.000198  0.499662  1
  Al  Al20  1  0.497550  0.005411  0.497550  1
  Al  Al21  1  0.000198  0.499662  0.000198  1
  Al  Al22  1  0.005411  0.497550  0.497550  1
  Al  Al23  1  0.499662  0.000198  0.000198  1
