# generated using pymatgen
data_Ho9TmZn3Bi2Au
_symmetry_space_group_name_H-M   'P 1'
_cell_length_a   8.62960727
_cell_length_b   8.62960835
_cell_length_c   8.63395101
_cell_angle_alpha   123.93174012
_cell_angle_beta   123.92890240
_cell_angle_gamma   83.28500839
_symmetry_Int_Tables_number   1
_chemical_formula_structural   Ho9TmZn3Bi2Au
_chemical_formula_sum   'Ho9 Tm1 Zn3 Bi2 Au1'
_cell_volume   424.58123713
_cell_formula_units_Z   1
loop_
 _symmetry_equiv_pos_site_id
 _symmetry_equiv_pos_as_xyz
  1  'x, y, z'
loop_
 _atom_site_type_symbol
 _atom_site_label
 _atom_site_symmetry_multiplicity
 _atom_site_fract_x
 _atom_site_fract_y
 _atom_site_fract_z
 _atom_site_occupancy
  Ho  Ho0  1  0.500415  0.500222  0.000638  1
  Ho  Ho1  1  0.009036  0.510960  0.804708  1
  Ho  Ho2  1  0.704774  0.205824  0.195287  1
  Ho  Ho3  1  0.511815  0.705633  0.500459  1
  Ho  Ho4  1  0.205441  0.010703  0.499613  1
  Ho  Ho5  1  0.989464  0.490513  0.195287  1
  Ho  Ho6  1  0.293748  0.795673  0.804708  1
  Ho  Ho7  1  0.488910  0.294172  0.499613  1
  Ho  Ho8  1  0.794827  0.988644  0.500459  1
  Tm  Tm9  1  0.999687  0.999460  0.999147  1
  Zn  Zn10  1  0.638900  0.140221  0.779119  1
  Zn  Zn11  1  0.359323  0.861494  0.220818  1
  Zn  Zn12  1  0.140352  0.359212  0.499565  1
  Bi  Bi13  1  0.749407  0.751419  0.000004  1
  Bi  Bi14  1  0.248584  0.250597  0.000004  1
  Au  Au15  1  0.865318  0.635254  0.500571  1
