# generated using pymatgen
data_Er4CdRh
_symmetry_space_group_name_H-M   'P 1'
_cell_length_a   9.54643729
_cell_length_b   9.54643711
_cell_length_c   9.54643800
_cell_angle_alpha   59.99999693
_cell_angle_beta   59.99999753
_cell_angle_gamma   59.99999776
_symmetry_Int_Tables_number   1
_chemical_formula_structural   Er4CdRh
_chemical_formula_sum   'Er16 Cd4 Rh4'
_cell_volume   615.18958299
_cell_formula_units_Z   4
loop_
 _symmetry_equiv_pos_site_id
 _symmetry_equiv_pos_as_xyz
  1  'x, y, z'
loop_
 _atom_site_type_symbol
 _atom_site_label
 _atom_site_symmetry_multiplicity
 _atom_site_fract_x
 _atom_site_fract_y
 _atom_site_fract_z
 _atom_site_occupancy
  Er  Er0  1  0.349705  0.349705  0.349705  1
  Er  Er1  1  0.349705  0.349705  0.950886  1
  Er  Er2  1  0.349705  0.950886  0.349705  1
  Er  Er3  1  0.950886  0.349705  0.349705  1
  Er  Er4  1  0.811127  0.188873  0.188873  1
  Er  Er5  1  0.188873  0.811127  0.811127  1
  Er  Er6  1  0.188873  0.811127  0.188873  1
  Er  Er7  1  0.811127  0.188873  0.811127  1
  Er  Er8  1  0.188873  0.188873  0.811127  1
  Er  Er9  1  0.811127  0.811127  0.188873  1
  Er  Er10  1  0.936249  0.563751  0.563751  1
  Er  Er11  1  0.563751  0.936249  0.936249  1
  Er  Er12  1  0.563751  0.936249  0.563751  1
  Er  Er13  1  0.936249  0.563751  0.936249  1
  Er  Er14  1  0.563751  0.563751  0.936249  1
  Er  Er15  1  0.936249  0.936249  0.563751  1
  Cd  Cd16  1  0.581223  0.581223  0.581223  1
  Cd  Cd17  1  0.581223  0.581223  0.256329  1
  Cd  Cd18  1  0.581223  0.256329  0.581223  1
  Cd  Cd19  1  0.256329  0.581223  0.581223  1
  Rh  Rh20  1  0.142610  0.142610  0.142610  1
  Rh  Rh21  1  0.142610  0.142610  0.572171  1
  Rh  Rh22  1  0.142610  0.572171  0.142610  1
  Rh  Rh23  1  0.572171  0.142610  0.142610  1
