# generated using pymatgen
data_Zr20Si9Sb7
_symmetry_space_group_name_H-M   'P 1'
_cell_length_a   7.22913888
_cell_length_b   7.23439639
_cell_length_c   14.24439597
_cell_angle_alpha   90.03321918
_cell_angle_beta   85.91658399
_cell_angle_gamma   89.87312306
_symmetry_Int_Tables_number   1
_chemical_formula_structural   Zr20Si9Sb7
_chemical_formula_sum   'Zr20 Si9 Sb7'
_cell_volume   743.06676548
_cell_formula_units_Z   1
loop_
 _symmetry_equiv_pos_site_id
 _symmetry_equiv_pos_as_xyz
  1  'x, y, z'
loop_
 _atom_site_type_symbol
 _atom_site_label
 _atom_site_symmetry_multiplicity
 _atom_site_fract_x
 _atom_site_fract_y
 _atom_site_fract_z
 _atom_site_occupancy
  Zr  Zr0  1  0.224741  0.999889  0.753412  1
  Zr  Zr1  1  0.775698  0.999941  0.245721  1
  Zr  Zr2  1  0.275229  0.497730  0.244076  1
  Zr  Zr3  1  0.724570  0.500998  0.753612  1
  Zr  Zr4  1  0.076352  0.673776  0.628853  1
  Zr  Zr5  1  0.925549  0.325957  0.369817  1
  Zr  Zr6  1  0.423164  0.174284  0.370078  1
  Zr  Zr7  1  0.972965  0.328566  0.105798  1
  Zr  Zr8  1  0.576433  0.828653  0.629637  1
  Zr  Zr9  1  0.048749  0.671082  0.894083  1
  Zr  Zr10  1  0.539745  0.820987  0.890579  1
  Zr  Zr11  1  0.456667  0.186682  0.109048  1
  Zr  Zr12  1  0.408512  0.336736  0.624108  1
  Zr  Zr13  1  0.589922  0.664712  0.375419  1
  Zr  Zr14  1  0.090316  0.834991  0.374983  1
  Zr  Zr15  1  0.609804  0.669925  0.130411  1
  Zr  Zr16  1  0.907174  0.163051  0.624940  1
  Zr  Zr17  1  0.373740  0.337912  0.874621  1
  Zr  Zr18  1  0.883401  0.171335  0.869690  1
  Zr  Zr19  1  0.125336  0.817379  0.127427  1
  Si  Si20  1  0.100769  0.382228  0.751040  1
  Si  Si21  1  0.897649  0.617666  0.247391  1
  Si  Si22  1  0.398183  0.882813  0.248738  1
  Si  Si23  1  0.598573  0.120347  0.753609  1
  Si  Si24  1  0.348745  0.629329  0.754904  1
  Si  Si25  1  0.653398  0.371296  0.244300  1
  Si  Si26  1  0.150657  0.125440  0.243404  1
  Si  Si27  1  0.849481  0.870210  0.756137  1
  Si  Si28  1  0.292615  0.524878  0.040899  1
  Sb  Sb29  1  0.256545  0.997596  0.541334  1
  Sb  Sb30  1  0.741587  0.003081  0.457748  1
  Sb  Sb31  1  0.242589  0.497531  0.457285  1
  Sb  Sb32  1  0.789339  0.971376  0.037334  1
  Sb  Sb33  1  0.757575  0.502637  0.541541  1
  Sb  Sb34  1  0.211640  0.027917  0.963623  1
  Sb  Sb35  1  0.702590  0.471069  0.964401  1
