# generated using pymatgen
data_LaNd2Cu5(Ni4B)2
_symmetry_space_group_name_H-M   'P 1'
_cell_length_a   5.13622203
_cell_length_b   5.11343191
_cell_length_c   10.91545001
_cell_angle_alpha   89.99762644
_cell_angle_beta   90.00474836
_cell_angle_gamma   120.14753038
_symmetry_Int_Tables_number   1
_chemical_formula_structural   LaNd2Cu5(Ni4B)2
_chemical_formula_sum   'La1 Nd2 Cu5 Ni8 B2'
_cell_volume   247.90254914
_cell_formula_units_Z   1
loop_
 _symmetry_equiv_pos_site_id
 _symmetry_equiv_pos_as_xyz
  1  'x, y, z'
loop_
 _atom_site_type_symbol
 _atom_site_label
 _atom_site_symmetry_multiplicity
 _atom_site_fract_x
 _atom_site_fract_y
 _atom_site_fract_z
 _atom_site_occupancy
  La  La0  1  0.000012  0.000000  0.672413  1
  Nd  Nd1  1  0.000009  0.000000  0.000473  1
  Nd  Nd2  1  0.999988  0.000000  0.326684  1
  Cu  Cu3  1  0.499992  0.000000  0.499281  1
  Cu  Cu4  1  0.331877  0.663779  0.315941  1
  Cu  Cu5  1  0.668098  0.336221  0.315941  1
  Cu  Cu6  1  0.668122  0.336250  0.684190  1
  Cu  Cu7  1  0.331872  0.663750  0.684190  1
  Ni  Ni8  1  0.499976  0.499987  0.499575  1
  Ni  Ni9  1  0.999988  0.500013  0.499575  1
  Ni  Ni10  1  0.500028  0.000000  0.129017  1
  Ni  Ni11  1  0.500042  0.500001  0.128921  1
  Ni  Ni12  1  0.000041  0.499999  0.128921  1
  Ni  Ni13  1  0.499956  0.000000  0.871495  1
  Ni  Ni14  1  0.499951  0.499999  0.871590  1
  Ni  Ni15  1  0.999952  0.500001  0.871590  1
  B  B16  1  0.333296  0.666593  0.000099  1
  B  B17  1  0.666703  0.333407  0.000099  1
