# generated using pymatgen
data_Lu9Mg(BiAu2)2
_symmetry_space_group_name_H-M   'P 1'
_cell_length_a   8.58375375
_cell_length_b   8.58375502
_cell_length_c   8.58375544
_cell_angle_alpha   125.67128882
_cell_angle_beta   125.67128680
_cell_angle_gamma   80.42907624
_symmetry_Int_Tables_number   1
_chemical_formula_structural   Lu9Mg(BiAu2)2
_chemical_formula_sum   'Lu9 Mg1 Bi2 Au4'
_cell_volume   402.66365058
_cell_formula_units_Z   1
loop_
 _symmetry_equiv_pos_site_id
 _symmetry_equiv_pos_as_xyz
  1  'x, y, z'
loop_
 _atom_site_type_symbol
 _atom_site_label
 _atom_site_symmetry_multiplicity
 _atom_site_fract_x
 _atom_site_fract_y
 _atom_site_fract_z
 _atom_site_occupancy
  Lu  Lu0  1  0.000000  0.000000  0.000000  1
  Lu  Lu1  1  0.507673  0.023657  0.811689  1
  Lu  Lu2  1  0.211968  0.695984  0.188311  1
  Lu  Lu3  1  0.023657  0.211968  0.515984  1
  Lu  Lu4  1  0.695984  0.507673  0.484016  1
  Lu  Lu5  1  0.492327  0.976343  0.188311  1
  Lu  Lu6  1  0.788032  0.304016  0.811689  1
  Lu  Lu7  1  0.976343  0.788032  0.484016  1
  Lu  Lu8  1  0.304016  0.492327  0.515984  1
  Mg  Mg9  1  0.500000  0.500000  0.000000  1
  Bi  Bi10  1  0.245175  0.245175  0.000000  1
  Bi  Bi11  1  0.754825  0.754825  0.000000  1
  Au  Au12  1  0.134335  0.641785  0.776121  1
  Au  Au13  1  0.865665  0.358215  0.223879  1
  Au  Au14  1  0.641785  0.865665  0.507450  1
  Au  Au15  1  0.358215  0.134335  0.492550  1
