# generated using pymatgen
data_DyY3Fe4(WO6)4
_symmetry_space_group_name_H-M   'P 1'
_cell_length_a   5.24369809
_cell_length_b   7.44648701
_cell_length_c   11.11151022
_cell_angle_alpha   90.00647774
_cell_angle_beta   89.97827945
_cell_angle_gamma   90.00194257
_symmetry_Int_Tables_number   1
_chemical_formula_structural   DyY3Fe4(WO6)4
_chemical_formula_sum   'Dy1 Y3 Fe4 W4 O24'
_cell_volume   433.87254713
_cell_formula_units_Z   1
loop_
 _symmetry_equiv_pos_site_id
 _symmetry_equiv_pos_as_xyz
  1  'x, y, z'
loop_
 _atom_site_type_symbol
 _atom_site_label
 _atom_site_symmetry_multiplicity
 _atom_site_fract_x
 _atom_site_fract_y
 _atom_site_fract_z
 _atom_site_occupancy
  Dy  Dy0  1  0.545445  0.251109  0.045108  1
  Y  Y1  1  0.045280  0.751095  0.455059  1
  Y  Y2  1  0.954718  0.251111  0.544893  1
  Y  Y3  1  0.454873  0.751133  0.955127  1
  Fe  Fe4  1  0.043480  0.996165  0.139372  1
  Fe  Fe5  1  0.543522  0.495955  0.360426  1
  Fe  Fe6  1  0.456575  0.996016  0.639476  1
  Fe  Fe7  1  0.956506  0.495918  0.860693  1
  W  W8  1  0.051774  0.506737  0.142040  1
  W  W9  1  0.551617  0.007037  0.357650  1
  W  W10  1  0.448386  0.507015  0.642232  1
  W  W11  1  0.948365  0.007157  0.858007  1
  O  O12  1  0.756845  0.961304  0.020490  1
  O  O13  1  0.763366  0.545428  0.028511  1
  O  O14  1  0.175704  0.748786  0.117184  1
  O  O15  1  0.934242  0.258546  0.143405  1
  O  O16  1  0.374426  0.433796  0.206639  1
  O  O17  1  0.390762  0.067719  0.212618  1
  O  O18  1  0.890395  0.567294  0.287032  1
  O  O19  1  0.874250  0.934240  0.293003  1
  O  O20  1  0.435126  0.758599  0.356357  1
  O  O21  1  0.675913  0.248862  0.382692  1
  O  O22  1  0.263647  0.045962  0.471431  1
  O  O23  1  0.257249  0.460951  0.479599  1
  O  O24  1  0.742765  0.960985  0.520299  1
  O  O25  1  0.736344  0.545963  0.528452  1
  O  O26  1  0.324056  0.748882  0.617311  1
  O  O27  1  0.564876  0.258603  0.643492  1
  O  O28  1  0.125846  0.434230  0.707016  1
  O  O29  1  0.109784  0.067586  0.713047  1
  O  O30  1  0.609901  0.567465  0.787088  1
  O  O31  1  0.626059  0.934246  0.793074  1
  O  O32  1  0.064885  0.758684  0.856791  1
  O  O33  1  0.823299  0.248867  0.883185  1
  O  O34  1  0.236589  0.046462  0.971585  1
  O  O35  1  0.243130  0.460495  0.979621  1
