# generated using pymatgen
data_Ta8VCuTe8
_symmetry_space_group_name_H-M   'P 1'
_cell_length_a   4.84473500
_cell_length_b   11.10141800
_cell_length_c   19.40491500
_cell_angle_alpha   90.00000000
_cell_angle_beta   90.00000000
_cell_angle_gamma   90.00000000
_symmetry_Int_Tables_number   1
_chemical_formula_structural   Ta8VCuTe8
_chemical_formula_sum   'Ta16 V2 Cu2 Te16'
_cell_volume   1043.66285523
_cell_formula_units_Z   2
loop_
 _symmetry_equiv_pos_site_id
 _symmetry_equiv_pos_as_xyz
  1  'x, y, z'
loop_
 _atom_site_type_symbol
 _atom_site_label
 _atom_site_symmetry_multiplicity
 _atom_site_fract_x
 _atom_site_fract_y
 _atom_site_fract_z
 _atom_site_occupancy
  Ta  Ta0  1  0.499260  0.563988  0.383909  1
  Ta  Ta1  1  0.499260  0.436012  0.616091  1
  Ta  Ta2  1  0.500740  0.063988  0.116091  1
  Ta  Ta3  1  0.500740  0.936012  0.883909  1
  Ta  Ta4  1  0.499802  0.703667  0.536374  1
  Ta  Ta5  1  0.499802  0.296333  0.463626  1
  Ta  Ta6  1  0.500198  0.203667  0.963626  1
  Ta  Ta7  1  0.500198  0.796333  0.036374  1
  Ta  Ta8  1  0.000728  0.689330  0.443549  1
  Ta  Ta9  1  0.000728  0.310670  0.556451  1
  Ta  Ta10  1  0.999272  0.189330  0.056451  1
  Ta  Ta11  1  0.999272  0.810670  0.943549  1
  Ta  Ta12  1  0.000256  0.401410  0.392135  1
  Ta  Ta13  1  0.000256  0.598590  0.607865  1
  Ta  Ta14  1  0.999744  0.901410  0.107865  1
  Ta  Ta15  1  0.999744  0.098590  0.892135  1
  V  V16  1  0.750026  0.500000  0.500000  1
  V  V17  1  0.249974  0.000000  0.000000  1
  Cu  Cu18  1  0.249935  0.500000  0.500000  1
  Cu  Cu19  1  0.750065  0.000000  0.000000  1
  Te  Te20  1  0.000857  0.845066  0.562124  1
  Te  Te21  1  0.000857  0.154934  0.437876  1
  Te  Te22  1  0.999143  0.345066  0.937876  1
  Te  Te23  1  0.999143  0.654934  0.062124  1
  Te  Te24  1  0.498806  0.333194  0.317098  1
  Te  Te25  1  0.498806  0.666806  0.682902  1
  Te  Te26  1  0.501194  0.833194  0.182902  1
  Te  Te27  1  0.501194  0.166806  0.817098  1
  Te  Te28  1  0.499132  0.820807  0.404152  1
  Te  Te29  1  0.499132  0.179193  0.595848  1
  Te  Te30  1  0.500868  0.320807  0.095848  1
  Te  Te31  1  0.500868  0.679193  0.904152  1
  Te  Te32  1  0.001152  0.607968  0.303017  1
  Te  Te33  1  0.001152  0.392032  0.696983  1
  Te  Te34  1  0.998848  0.107968  0.196983  1
  Te  Te35  1  0.998848  0.892032  0.803017  1
