# generated using pymatgen
data_Lu6B14OsW
_symmetry_space_group_name_H-M   'P 1'
_cell_length_a   7.94381237
_cell_length_b   7.94381234
_cell_length_c   9.26551800
_cell_angle_alpha   90.00000000
_cell_angle_beta   90.00000000
_cell_angle_gamma   154.96640835
_symmetry_Int_Tables_number   1
_chemical_formula_structural   Lu6B14OsW
_chemical_formula_sum   'Lu6 B14 Os1 W1'
_cell_volume   247.41244123
_cell_formula_units_Z   1
loop_
 _symmetry_equiv_pos_site_id
 _symmetry_equiv_pos_as_xyz
  1  'x, y, z'
loop_
 _atom_site_type_symbol
 _atom_site_label
 _atom_site_symmetry_multiplicity
 _atom_site_fract_x
 _atom_site_fract_y
 _atom_site_fract_z
 _atom_site_occupancy
  Lu  Lu0  1  0.893524  0.106476  0.438479  1
  Lu  Lu1  1  0.107558  0.892442  0.558012  1
  Lu  Lu2  1  0.893524  0.106476  0.061521  1
  Lu  Lu3  1  0.107558  0.892442  0.941988  1
  Lu  Lu4  1  0.244384  0.755616  0.250000  1
  Lu  Lu5  1  0.754176  0.245824  0.750000  1
  B  B6  1  0.727004  0.272996  0.464128  1
  B  B7  1  0.271230  0.728770  0.532163  1
  B  B8  1  0.727004  0.272996  0.035872  1
  B  B9  1  0.271230  0.728770  0.967837  1
  B  B10  1  0.632292  0.367708  0.150133  1
  B  B11  1  0.364799  0.635201  0.853475  1
  B  B12  1  0.632292  0.367708  0.349867  1
  B  B13  1  0.364799  0.635201  0.646525  1
  B  B14  1  0.519881  0.480119  0.095557  1
  B  B15  1  0.481713  0.518287  0.910375  1
  B  B16  1  0.519881  0.480119  0.404443  1
  B  B17  1  0.481713  0.518287  0.589625  1
  B  B18  1  0.453607  0.546393  0.250000  1
  B  B19  1  0.550246  0.449754  0.750000  1
  Os  Os20  1  0.053375  0.946625  0.250000  1
  W  W21  1  0.948209  0.051791  0.750000  1
