# generated using pymatgen
data_Gd5(PaH10)3
_symmetry_space_group_name_H-M   'P 1'
_cell_length_a   7.56071462
_cell_length_b   7.61331451
_cell_length_c   7.58612872
_cell_angle_alpha   109.32339691
_cell_angle_beta   109.53035484
_cell_angle_gamma   109.36849307
_symmetry_Int_Tables_number   1
_chemical_formula_structural   Gd5(PaH10)3
_chemical_formula_sum   'Gd5 Pa3 H30'
_cell_volume   336.94226016
_cell_formula_units_Z   1
loop_
 _symmetry_equiv_pos_site_id
 _symmetry_equiv_pos_as_xyz
  1  'x, y, z'
loop_
 _atom_site_type_symbol
 _atom_site_label
 _atom_site_symmetry_multiplicity
 _atom_site_fract_x
 _atom_site_fract_y
 _atom_site_fract_z
 _atom_site_occupancy
  Gd  Gd0  1  0.084265  0.500217  0.004457  1
  Gd  Gd1  1  0.001732  0.580955  0.495913  1
  Gd  Gd2  1  0.583575  0.495195  0.998773  1
  Gd  Gd3  1  0.495630  0.999521  0.581097  1
  Gd  Gd4  1  0.420725  0.423810  0.419776  1
  Pa  Pa5  1  0.917841  0.917672  0.915413  1
  Pa  Pa6  1  0.499485  0.002823  0.083805  1
  Pa  Pa7  1  0.001025  0.082506  0.499817  1
  H  H8  1  0.652525  0.966578  0.362213  1
  H  H9  1  0.212517  0.306661  0.834988  1
  H  H10  1  0.177356  0.389888  0.531316  1
  H  H11  1  0.085908  0.265777  0.118066  1
  H  H12  1  0.276247  0.120888  0.093042  1
  H  H13  1  0.117114  0.088480  0.274690  1
  H  H14  1  0.462952  0.146883  0.877496  1
  H  H15  1  0.714545  0.342766  0.805903  1
  H  H16  1  0.618030  0.356451  0.243966  1
  H  H17  1  0.250227  0.624483  0.378542  1
  H  H18  1  0.758050  0.893051  0.128711  1
  H  H19  1  0.134308  0.774831  0.888029  1
  H  H20  1  0.352716  0.235957  0.615346  1
  H  H21  1  0.883413  0.112363  0.745890  1
  H  H22  1  0.791750  0.608336  0.645431  1
  H  H23  1  0.321723  0.854829  0.213559  1
  H  H24  1  0.375152  0.666735  0.967997  1
  H  H25  1  0.965380  0.356477  0.645809  1
  H  H26  1  0.530927  0.178011  0.391832  1
  H  H27  1  0.404405  0.526624  0.183385  1
  H  H28  1  0.846273  0.211254  0.316664  1
  H  H29  1  0.909714  0.701905  0.039706  1
  H  H30  1  0.814351  0.729644  0.349376  1
  H  H31  1  0.147031  0.878322  0.466729  1
  H  H32  1  0.688931  0.031843  0.909687  1
  H  H33  1  0.349737  0.817786  0.733490  1
  H  H34  1  0.870373  0.462520  0.153427  1
  H  H35  1  0.643477  0.789146  0.606444  1
  H  H36  1  0.606949  0.646966  0.790568  1
  H  H37  1  0.033636  0.911847  0.688646  1
