# generated using pymatgen
data_Y4TmRh5
_symmetry_space_group_name_H-M   'P 1'
_cell_length_a   3.43367100
_cell_length_b   3.43367100
_cell_length_c   17.15055000
_cell_angle_alpha   90.00000000
_cell_angle_beta   90.00000000
_cell_angle_gamma   90.00000000
_symmetry_Int_Tables_number   1
_chemical_formula_structural   Y4TmRh5
_chemical_formula_sum   'Y4 Tm1 Rh5'
_cell_volume   202.20664015
_cell_formula_units_Z   1
loop_
 _symmetry_equiv_pos_site_id
 _symmetry_equiv_pos_as_xyz
  1  'x, y, z'
loop_
 _atom_site_type_symbol
 _atom_site_label
 _atom_site_symmetry_multiplicity
 _atom_site_fract_x
 _atom_site_fract_y
 _atom_site_fract_z
 _atom_site_occupancy
  Y  Y0  1  0.000000  0.000000  0.198327  1
  Y  Y1  1  0.000000  0.000000  0.399308  1
  Y  Y2  1  0.000000  0.000000  0.600692  1
  Y  Y3  1  0.000000  0.000000  0.801673  1
  Tm  Tm4  1  0.000000  0.000000  0.000000  1
  Rh  Rh5  1  0.500000  0.500000  0.095895  1
  Rh  Rh6  1  0.500000  0.500000  0.298045  1
  Rh  Rh7  1  0.500000  0.500000  0.500000  1
  Rh  Rh8  1  0.500000  0.500000  0.701955  1
  Rh  Rh9  1  0.500000  0.500000  0.904105  1
