# generated using pymatgen
data_PrTl(PO3)4
_symmetry_space_group_name_H-M   'P 1'
_cell_length_a   8.61801900
_cell_length_b   7.50820517
_cell_length_c   8.20392800
_cell_angle_alpha   88.45369268
_cell_angle_beta   90.00000000
_cell_angle_gamma   90.00000000
_symmetry_Int_Tables_number   1
_chemical_formula_structural   PrTl(PO3)4
_chemical_formula_sum   'Pr2 Tl2 P8 O24'
_cell_volume   530.64886383
_cell_formula_units_Z   2
loop_
 _symmetry_equiv_pos_site_id
 _symmetry_equiv_pos_as_xyz
  1  'x, y, z'
loop_
 _atom_site_type_symbol
 _atom_site_label
 _atom_site_symmetry_multiplicity
 _atom_site_fract_x
 _atom_site_fract_y
 _atom_site_fract_z
 _atom_site_occupancy
  Pr  Pr0  1  0.739844  0.762999  0.241101  1
  Pr  Pr1  1  0.239844  0.237001  0.758899  1
  Tl  Tl2  1  0.044897  0.732366  0.716678  1
  Tl  Tl3  1  0.544897  0.267634  0.283322  1
  P  P4  1  0.994993  0.383540  0.392354  1
  P  P5  1  0.494993  0.616460  0.607646  1
  P  P6  1  0.092226  0.007235  0.376700  1
  P  P7  1  0.592226  0.992765  0.623300  1
  P  P8  1  0.317842  0.898052  0.102607  1
  P  P9  1  0.817842  0.101948  0.897393  1
  P  P10  1  0.115991  0.567228  0.097090  1
  P  P11  1  0.615991  0.432772  0.902910  1
  O  O12  1  0.054442  0.388597  0.564025  1
  O  O13  1  0.554442  0.611403  0.435975  1
  O  O14  1  0.841933  0.468394  0.351360  1
  O  O15  1  0.341933  0.531606  0.648640  1
  O  O16  1  0.986678  0.179913  0.334190  1
  O  O17  1  0.486678  0.820087  0.665810  1
  O  O18  1  0.187322  0.035805  0.527438  1
  O  O19  1  0.687322  0.964195  0.472562  1
  O  O20  1  0.987581  0.847239  0.378304  1
  O  O21  1  0.487581  0.152761  0.621696  1
  O  O22  1  0.202509  0.008305  0.219061  1
  O  O23  1  0.702509  0.991695  0.780939  1
  O  O24  1  0.471675  0.322833  0.922927  1
  O  O25  1  0.971675  0.677167  0.077073  1
  O  O26  1  0.648185  0.563858  0.033870  1
  O  O27  1  0.148185  0.436142  0.966130  1
  O  O28  1  0.766391  0.307643  0.882329  1
  O  O29  1  0.266391  0.692357  0.117671  1
  O  O30  1  0.628541  0.534124  0.726721  1
  O  O31  1  0.128541  0.465876  0.273279  1
  O  O32  1  0.787359  0.029445  0.066810  1
  O  O33  1  0.287359  0.970555  0.933190  1
  O  O34  1  0.978421  0.095190  0.827623  1
  O  O35  1  0.478421  0.904810  0.172377  1
