# generated using pymatgen
data_Pr8Tc(IrO8)3
_symmetry_space_group_name_H-M   'P 1'
_cell_length_a   5.48244127
_cell_length_b   9.47663090
_cell_length_c   10.24226903
_cell_angle_alpha   90.12283049
_cell_angle_beta   90.14579232
_cell_angle_gamma   89.76901141
_symmetry_Int_Tables_number   1
_chemical_formula_structural   Pr8Tc(IrO8)3
_chemical_formula_sum   'Pr8 Tc1 Ir3 O24'
_cell_volume   532.13057054
_cell_formula_units_Z   1
loop_
 _symmetry_equiv_pos_site_id
 _symmetry_equiv_pos_as_xyz
  1  'x, y, z'
loop_
 _atom_site_type_symbol
 _atom_site_label
 _atom_site_symmetry_multiplicity
 _atom_site_fract_x
 _atom_site_fract_y
 _atom_site_fract_z
 _atom_site_occupancy
  Pr  Pr0  1  0.033043  0.218397  0.134758  1
  Pr  Pr1  1  0.466332  0.782803  0.631960  1
  Pr  Pr2  1  0.968197  0.717990  0.365542  1
  Pr  Pr3  1  0.532535  0.277223  0.870148  1
  Pr  Pr4  1  0.026156  0.098891  0.537476  1
  Pr  Pr5  1  0.475416  0.898773  0.038375  1
  Pr  Pr6  1  0.974472  0.605453  0.966154  1
  Pr  Pr7  1  0.526203  0.398257  0.458051  1
  Tc  Tc8  1  0.042016  0.494670  0.647110  1
  Ir  Ir9  1  0.544345  0.003760  0.357620  1
  Ir  Ir10  1  0.955801  0.996901  0.856633  1
  Ir  Ir11  1  0.455946  0.503592  0.140965  1
  O  O12  1  0.435424  0.150445  0.480852  1
  O  O13  1  0.064552  0.852280  0.980697  1
  O  O14  1  0.563099  0.649838  0.018813  1
  O  O15  1  0.939145  0.351517  0.524911  1
  O  O16  1  0.725467  0.388135  0.062763  1
  O  O17  1  0.781625  0.606688  0.564276  1
  O  O18  1  0.275016  0.888567  0.434772  1
  O  O19  1  0.224723  0.113253  0.933941  1
  O  O20  1  0.247056  0.412753  0.003735  1
  O  O21  1  0.249869  0.588219  0.510735  1
  O  O22  1  0.751266  0.909825  0.494965  1
  O  O23  1  0.747462  0.089457  0.993396  1
  O  O24  1  0.182823  0.633361  0.178523  1
  O  O25  1  0.306831  0.368557  0.676801  1
  O  O26  1  0.815116  0.133948  0.322142  1
  O  O27  1  0.686020  0.867318  0.819475  1
  O  O28  1  0.338045  0.058149  0.215108  1
  O  O29  1  0.161116  0.938499  0.714563  1
  O  O30  1  0.663617  0.556886  0.284642  1
  O  O31  1  0.835929  0.447832  0.781479  1
  O  O32  1  0.322970  0.361844  0.256917  1
  O  O33  1  0.177220  0.632782  0.757741  1
  O  O34  1  0.678824  0.861594  0.242224  1
  O  O35  1  0.826321  0.141542  0.741743  1
