# generated using pymatgen
data_BeCu(SiRh2)2
_symmetry_space_group_name_H-M   'P 1'
_cell_length_a   4.09866900
_cell_length_b   4.09866900
_cell_length_c   5.88359500
_cell_angle_alpha   90.00000000
_cell_angle_beta   90.00000000
_cell_angle_gamma   90.00000000
_symmetry_Int_Tables_number   1
_chemical_formula_structural   BeCu(SiRh2)2
_chemical_formula_sum   'Be1 Cu1 Si2 Rh4'
_cell_volume   98.83902764
_cell_formula_units_Z   1
loop_
 _symmetry_equiv_pos_site_id
 _symmetry_equiv_pos_as_xyz
  1  'x, y, z'
loop_
 _atom_site_type_symbol
 _atom_site_label
 _atom_site_symmetry_multiplicity
 _atom_site_fract_x
 _atom_site_fract_y
 _atom_site_fract_z
 _atom_site_occupancy
  Be  Be0  1  0.499999  0.499999  0.000000  1
  Cu  Cu1  1  0.000000  0.000000  0.500000  1
  Si  Si2  1  0.000000  0.000000  0.000000  1
  Si  Si3  1  0.499999  0.499999  0.500000  1
  Rh  Rh4  1  0.499999  0.000000  0.240342  1
  Rh  Rh5  1  0.000000  0.499999  0.240342  1
  Rh  Rh6  1  0.499999  0.000000  0.759660  1
  Rh  Rh7  1  0.000000  0.499999  0.759660  1
