# generated using pymatgen
data_HoEr2Ni9
_symmetry_space_group_name_H-M   'P 1'
_cell_length_a   8.56743358
_cell_length_b   8.56743355
_cell_length_c   8.56743254
_cell_angle_alpha   33.47734277
_cell_angle_beta   33.47734501
_cell_angle_gamma   33.47734373
_symmetry_Int_Tables_number   1
_chemical_formula_structural   HoEr2Ni9
_chemical_formula_sum   'Ho1 Er2 Ni9'
_cell_volume   170.41111745
_cell_formula_units_Z   1
loop_
 _symmetry_equiv_pos_site_id
 _symmetry_equiv_pos_as_xyz
  1  'x, y, z'
loop_
 _atom_site_type_symbol
 _atom_site_label
 _atom_site_symmetry_multiplicity
 _atom_site_fract_x
 _atom_site_fract_y
 _atom_site_fract_z
 _atom_site_occupancy
  Ho  Ho0  1  0.000000  0.000000  0.000000  1
  Er  Er1  1  0.861053  0.861053  0.861053  1
  Er  Er2  1  0.138947  0.138947  0.138947  1
  Ni  Ni3  1  0.500000  0.500000  0.500000  1
  Ni  Ni4  1  0.666816  0.666816  0.666816  1
  Ni  Ni5  1  0.333184  0.333184  0.333184  1
  Ni  Ni6  1  0.416894  0.919345  0.416894  1
  Ni  Ni7  1  0.416894  0.416894  0.919345  1
  Ni  Ni8  1  0.919345  0.416894  0.416894  1
  Ni  Ni9  1  0.583106  0.080655  0.583106  1
  Ni  Ni10  1  0.583106  0.583106  0.080655  1
  Ni  Ni11  1  0.080655  0.583106  0.583106  1
