# generated using pymatgen
data_NaSm2GdB24
_symmetry_space_group_name_H-M   'P 1'
_cell_length_a   7.11825793
_cell_length_b   7.11825826
_cell_length_c   5.86607900
_cell_angle_alpha   90.00000000
_cell_angle_beta   90.00000000
_cell_angle_gamma   109.17574763
_symmetry_Int_Tables_number   1
_chemical_formula_structural   NaSm2GdB24
_chemical_formula_sum   'Na1 Sm2 Gd1 B24'
_cell_volume   280.74010199
_cell_formula_units_Z   1
loop_
 _symmetry_equiv_pos_site_id
 _symmetry_equiv_pos_as_xyz
  1  'x, y, z'
loop_
 _atom_site_type_symbol
 _atom_site_label
 _atom_site_symmetry_multiplicity
 _atom_site_fract_x
 _atom_site_fract_y
 _atom_site_fract_z
 _atom_site_occupancy
  Na  Na0  1  0.749281  0.250719  0.500000  1
  Sm  Sm1  1  0.501471  0.498529  0.000000  1
  Sm  Sm2  1  0.251230  0.748770  0.500000  1
  Gd  Gd3  1  0.997176  0.002824  0.000000  1
  B  B4  1  0.174699  0.325691  0.648701  1
  B  B5  1  0.925373  0.575598  0.149657  1
  B  B6  1  0.674309  0.825301  0.648701  1
  B  B7  1  0.424402  0.074627  0.149657  1
  B  B8  1  0.174699  0.325691  0.351299  1
  B  B9  1  0.925373  0.575598  0.850343  1
  B  B10  1  0.674309  0.825301  0.351299  1
  B  B11  1  0.424402  0.074627  0.850343  1
  B  B12  1  0.401390  0.398424  0.500000  1
  B  B13  1  0.150154  0.650342  0.000000  1
  B  B14  1  0.898719  0.901260  0.500000  1
  B  B15  1  0.649627  0.149485  0.000000  1
  B  B16  1  0.325149  0.174065  0.648770  1
  B  B17  1  0.075583  0.425217  0.149644  1
  B  B18  1  0.825935  0.674851  0.648770  1
  B  B19  1  0.574783  0.924417  0.149644  1
  B  B20  1  0.098740  0.101281  0.500000  1
  B  B21  1  0.850515  0.350373  0.000000  1
  B  B22  1  0.601576  0.598610  0.500000  1
  B  B23  1  0.349658  0.849846  0.000000  1
  B  B24  1  0.325149  0.174065  0.351230  1
  B  B25  1  0.075583  0.425217  0.850356  1
  B  B26  1  0.825935  0.674851  0.351230  1
  B  B27  1  0.574783  0.924417  0.850356  1
