# generated using pymatgen
data_Pr2CdSi4(PPd10)2
_symmetry_space_group_name_H-M   'P 1'
_cell_length_a   8.73636015
_cell_length_b   8.73635933
_cell_length_c   8.73364300
_cell_angle_alpha   60.01028849
_cell_angle_beta   60.01029159
_cell_angle_gamma   59.97941671
_symmetry_Int_Tables_number   1
_chemical_formula_structural   Pr2CdSi4(PPd10)2
_chemical_formula_sum   'Pr2 Cd1 Si4 P2 Pd20'
_cell_volume   471.34766584
_cell_formula_units_Z   1
loop_
 _symmetry_equiv_pos_site_id
 _symmetry_equiv_pos_as_xyz
  1  'x, y, z'
loop_
 _atom_site_type_symbol
 _atom_site_label
 _atom_site_symmetry_multiplicity
 _atom_site_fract_x
 _atom_site_fract_y
 _atom_site_fract_z
 _atom_site_occupancy
  Pr  Pr0  1  0.250000  0.250000  0.250000  1
  Pr  Pr1  1  0.750000  0.750000  0.750000  1
  Cd  Cd2  1  0.000000  0.000000  0.000000  1
  Si  Si3  1  0.734993  0.265007  0.265007  1
  Si  Si4  1  0.265007  0.734993  0.734993  1
  Si  Si5  1  0.265007  0.734993  0.265007  1
  Si  Si6  1  0.734993  0.265007  0.734993  1
  P  P7  1  0.265471  0.265471  0.734529  1
  P  P8  1  0.734529  0.734529  0.265471  1
  Pd  Pd9  1  0.385555  0.385555  0.387288  1
  Pd  Pd10  1  0.614445  0.614445  0.612712  1
  Pd  Pd11  1  0.385555  0.385555  0.841602  1
  Pd  Pd12  1  0.387288  0.841602  0.385555  1
  Pd  Pd13  1  0.614445  0.614445  0.158398  1
  Pd  Pd14  1  0.612712  0.158398  0.614445  1
  Pd  Pd15  1  0.841602  0.387288  0.385555  1
  Pd  Pd16  1  0.158398  0.612712  0.614445  1
  Pd  Pd17  1  0.343967  0.001995  0.998005  1
  Pd  Pd18  1  0.656033  0.998005  0.001995  1
  Pd  Pd19  1  0.001995  0.343967  0.656033  1
  Pd  Pd20  1  0.998005  0.656033  0.343967  1
  Pd  Pd21  1  0.001995  0.343967  0.998005  1
  Pd  Pd22  1  0.656033  0.998005  0.343967  1
  Pd  Pd23  1  0.998005  0.656033  0.001995  1
  Pd  Pd24  1  0.343967  0.001995  0.656033  1
  Pd  Pd25  1  0.000000  0.000000  0.345542  1
  Pd  Pd26  1  0.000000  0.000000  0.654458  1
  Pd  Pd27  1  0.654458  0.345542  0.000000  1
  Pd  Pd28  1  0.345542  0.654458  0.000000  1
