# generated using pymatgen
data_HfRe6SnO24
_symmetry_space_group_name_H-M   'P 1'
_cell_length_a   10.34457200
_cell_length_b   10.34457088
_cell_length_c   6.11442100
_cell_angle_alpha   90.00000000
_cell_angle_beta   90.00000000
_cell_angle_gamma   119.99999080
_symmetry_Int_Tables_number   1
_chemical_formula_structural   HfRe6SnO24
_chemical_formula_sum   'Hf1 Re6 Sn1 O24'
_cell_volume   566.64494180
_cell_formula_units_Z   1
loop_
 _symmetry_equiv_pos_site_id
 _symmetry_equiv_pos_as_xyz
  1  'x, y, z'
loop_
 _atom_site_type_symbol
 _atom_site_label
 _atom_site_symmetry_multiplicity
 _atom_site_fract_x
 _atom_site_fract_y
 _atom_site_fract_z
 _atom_site_occupancy
  Hf  Hf0  1  0.666667  0.333333  0.750000  1
  Re  Re1  1  0.062603  0.380073  0.750000  1
  Re  Re2  1  0.411620  0.297875  0.250000  1
  Re  Re3  1  0.619927  0.682528  0.750000  1
  Re  Re4  1  0.886254  0.588380  0.250000  1
  Re  Re5  1  0.317472  0.937397  0.750000  1
  Re  Re6  1  0.702125  0.113746  0.250000  1
  Sn  Sn7  1  0.333333  0.666667  0.250000  1
  O  O8  1  0.506577  0.646695  0.518951  1
  O  O9  1  0.353305  0.859882  0.518951  1
  O  O10  1  0.805847  0.699713  0.250000  1
  O  O11  1  0.132496  0.891517  0.750000  1
  O  O12  1  0.300287  0.106134  0.250000  1
  O  O13  1  0.108483  0.240979  0.750000  1
  O  O14  1  0.526477  0.354109  0.012736  1
  O  O15  1  0.893866  0.194153  0.250000  1
  O  O16  1  0.078869  0.701665  0.250000  1
  O  O17  1  0.140118  0.493423  0.981049  1
  O  O18  1  0.140118  0.493423  0.518951  1
  O  O19  1  0.864810  0.301650  0.750000  1
  O  O20  1  0.298335  0.377206  0.250000  1
  O  O21  1  0.698350  0.563160  0.750000  1
  O  O22  1  0.827633  0.473523  0.487264  1
  O  O23  1  0.436840  0.135190  0.750000  1
  O  O24  1  0.645891  0.172367  0.012736  1
  O  O25  1  0.506577  0.646695  0.981049  1
  O  O26  1  0.353305  0.859882  0.981049  1
  O  O27  1  0.645891  0.172367  0.487264  1
  O  O28  1  0.526477  0.354109  0.487264  1
  O  O29  1  0.827633  0.473523  0.012736  1
  O  O30  1  0.759021  0.867504  0.750000  1
  O  O31  1  0.622794  0.921131  0.250000  1
