# generated using pymatgen
data_TmLuCuSi3
_symmetry_space_group_name_H-M   'P 1'
_cell_length_a   7.94239168
_cell_length_b   7.92164653
_cell_length_c   5.59251574
_cell_angle_alpha   69.61642046
_cell_angle_beta   69.15924295
_cell_angle_gamma   41.28375823
_symmetry_Int_Tables_number   1
_chemical_formula_structural   TmLuCuSi3
_chemical_formula_sum   'Tm2 Lu2 Cu2 Si6'
_cell_volume   215.08799668
_cell_formula_units_Z   2
loop_
 _symmetry_equiv_pos_site_id
 _symmetry_equiv_pos_as_xyz
  1  'x, y, z'
loop_
 _atom_site_type_symbol
 _atom_site_label
 _atom_site_symmetry_multiplicity
 _atom_site_fract_x
 _atom_site_fract_y
 _atom_site_fract_z
 _atom_site_occupancy
  Tm  Tm0  1  0.255204  0.744797  0.744796  1
  Tm  Tm1  1  0.750054  0.749945  0.749946  1
  Lu  Lu2  1  0.250171  0.249830  0.249828  1
  Lu  Lu3  1  0.744489  0.255511  0.255511  1
  Cu  Cu4  1  0.831850  0.834224  0.164908  1
  Cu  Cu5  1  0.169017  0.164908  0.834226  1
  Si  Si6  1  0.328789  0.839584  0.161580  1
  Si  Si7  1  0.158560  0.671604  0.328563  1
  Si  Si8  1  0.669430  0.667851  0.331610  1
  Si  Si9  1  0.331111  0.331609  0.667851  1
  Si  Si10  1  0.841276  0.328562  0.671601  1
  Si  Si11  1  0.670050  0.161579  0.839583  1
