# generated using pymatgen
data_Zr3AlPd2C
_symmetry_space_group_name_H-M   'P 1'
_cell_length_a   8.70300352
_cell_length_b   8.70300403
_cell_length_c   8.70300400
_cell_angle_alpha   60.00000013
_cell_angle_beta   59.99999818
_cell_angle_gamma   59.99999855
_symmetry_Int_Tables_number   1
_chemical_formula_structural   Zr3AlPd2C
_chemical_formula_sum   'Zr12 Al4 Pd8 C4'
_cell_volume   466.11439890
_cell_formula_units_Z   4
loop_
 _symmetry_equiv_pos_site_id
 _symmetry_equiv_pos_as_xyz
  1  'x, y, z'
loop_
 _atom_site_type_symbol
 _atom_site_label
 _atom_site_symmetry_multiplicity
 _atom_site_fract_x
 _atom_site_fract_y
 _atom_site_fract_z
 _atom_site_occupancy
  Zr  Zr0  1  0.441115  0.441115  0.058885  1
  Zr  Zr1  1  0.058885  0.441115  0.058885  1
  Zr  Zr2  1  0.441115  0.058885  0.058885  1
  Zr  Zr3  1  0.058885  0.058885  0.441115  1
  Zr  Zr4  1  0.441115  0.058885  0.441115  1
  Zr  Zr5  1  0.058885  0.441115  0.441115  1
  Zr  Zr6  1  0.808885  0.808885  0.191115  1
  Zr  Zr7  1  0.191115  0.808885  0.191115  1
  Zr  Zr8  1  0.808885  0.191115  0.191115  1
  Zr  Zr9  1  0.191115  0.191115  0.808885  1
  Zr  Zr10  1  0.808885  0.191115  0.808885  1
  Zr  Zr11  1  0.191115  0.808885  0.808885  1
  Al  Al12  1  0.625000  0.625000  0.125000  1
  Al  Al13  1  0.625000  0.125000  0.625000  1
  Al  Al14  1  0.125000  0.625000  0.625000  1
  Al  Al15  1  0.625000  0.625000  0.625000  1
  Pd  Pd16  1  0.834848  0.834848  0.495454  1
  Pd  Pd17  1  0.834848  0.495454  0.834848  1
  Pd  Pd18  1  0.495454  0.834848  0.834848  1
  Pd  Pd19  1  0.834848  0.834848  0.834848  1
  Pd  Pd20  1  0.415152  0.415152  0.754546  1
  Pd  Pd21  1  0.415152  0.754546  0.415152  1
  Pd  Pd22  1  0.754546  0.415152  0.415152  1
  Pd  Pd23  1  0.415152  0.415152  0.415152  1
  C  C24  1  0.125000  0.125000  0.625000  1
  C  C25  1  0.125000  0.625000  0.125000  1
  C  C26  1  0.625000  0.125000  0.125000  1
  C  C27  1  0.125000  0.125000  0.125000  1
