# generated using pymatgen
data_Sc12Fe3Si12Os
_symmetry_space_group_name_H-M   'P 1'
_cell_length_a   3.98270600
_cell_length_b   10.11802166
_cell_length_c   11.66117119
_cell_angle_alpha   90.12453141
_cell_angle_beta   90.00000000
_cell_angle_gamma   90.00000000
_symmetry_Int_Tables_number   1
_chemical_formula_structural   Sc12Fe3Si12Os
_chemical_formula_sum   'Sc12 Fe3 Si12 Os1'
_cell_volume   469.91033636
_cell_formula_units_Z   1
loop_
 _symmetry_equiv_pos_site_id
 _symmetry_equiv_pos_as_xyz
  1  'x, y, z'
loop_
 _atom_site_type_symbol
 _atom_site_label
 _atom_site_symmetry_multiplicity
 _atom_site_fract_x
 _atom_site_fract_y
 _atom_site_fract_z
 _atom_site_occupancy
  Sc  Sc0  1  0.250000  0.879799  0.025935  1
  Sc  Sc1  1  0.250000  0.623351  0.520841  1
  Sc  Sc2  1  0.750000  0.117934  0.977422  1
  Sc  Sc3  1  0.750000  0.380625  0.477201  1
  Sc  Sc4  1  0.250000  0.922168  0.600083  1
  Sc  Sc5  1  0.250000  0.577707  0.101215  1
  Sc  Sc6  1  0.750000  0.078823  0.397273  1
  Sc  Sc7  1  0.750000  0.420399  0.894471  1
  Sc  Sc8  1  0.250000  0.668155  0.800505  1
  Sc  Sc9  1  0.250000  0.840487  0.298939  1
  Sc  Sc10  1  0.750000  0.340274  0.200969  1
  Sc  Sc11  1  0.750000  0.153872  0.701379  1
  Fe  Fe12  1  0.250000  0.109467  0.176859  1
  Fe  Fe13  1  0.750000  0.609777  0.322973  1
  Fe  Fe14  1  0.750000  0.888374  0.824297  1
  Si  Si15  1  0.250000  0.001917  0.821864  1
  Si  Si16  1  0.250000  0.494406  0.320424  1
  Si  Si17  1  0.750000  0.993545  0.179085  1
  Si  Si18  1  0.750000  0.517395  0.677756  1
  Si  Si19  1  0.250000  0.247008  0.843283  1
  Si  Si20  1  0.250000  0.245915  0.337770  1
  Si  Si21  1  0.750000  0.745267  0.162283  1
  Si  Si22  1  0.750000  0.757920  0.660134  1
  Si  Si23  1  0.250000  0.195485  0.543885  1
  Si  Si24  1  0.250000  0.299365  0.047279  1
  Si  Si25  1  0.750000  0.801641  0.452537  1
  Si  Si26  1  0.750000  0.698982  0.955342  1
  Os  Os27  1  0.250000  0.389942  0.677998  1
