# generated using pymatgen
data_Li3Pr8Dy8ScSi16
_symmetry_space_group_name_H-M   'P 1'
_cell_length_a   7.30276302
_cell_length_b   7.79510701
_cell_length_c   14.83707600
_cell_angle_alpha   90.00000000
_cell_angle_beta   90.00000000
_cell_angle_gamma   89.99235724
_symmetry_Int_Tables_number   1
_chemical_formula_structural   Li3Pr8Dy8ScSi16
_chemical_formula_sum   'Li3 Pr8 Dy8 Sc1 Si16'
_cell_volume   844.61269885
_cell_formula_units_Z   1
loop_
 _symmetry_equiv_pos_site_id
 _symmetry_equiv_pos_as_xyz
  1  'x, y, z'
loop_
 _atom_site_type_symbol
 _atom_site_label
 _atom_site_symmetry_multiplicity
 _atom_site_fract_x
 _atom_site_fract_y
 _atom_site_fract_z
 _atom_site_occupancy
  Li  Li0  1  0.654990  0.984636  0.750000  1
  Li  Li1  1  0.846089  0.485445  0.250000  1
  Li  Li2  1  0.345300  0.013252  0.250000  1
  Pr  Pr3  1  0.024697  0.186574  0.397382  1
  Pr  Pr4  1  0.525324  0.314819  0.396439  1
  Pr  Pr5  1  0.482665  0.686320  0.899267  1
  Pr  Pr6  1  0.482665  0.686320  0.600733  1
  Pr  Pr7  1  0.974521  0.822645  0.600629  1
  Pr  Pr8  1  0.974521  0.822645  0.899371  1
  Pr  Pr9  1  0.525324  0.314819  0.103561  1
  Pr  Pr10  1  0.024697  0.186574  0.102618  1
  Dy  Dy11  1  0.329292  0.176000  0.626383  1
  Dy  Dy12  1  0.674682  0.817780  0.372648  1
  Dy  Dy13  1  0.172892  0.679727  0.374225  1
  Dy  Dy14  1  0.819499  0.313971  0.873743  1
  Dy  Dy15  1  0.819499  0.313971  0.626257  1
  Dy  Dy16  1  0.329292  0.176000  0.873617  1
  Dy  Dy17  1  0.172892  0.679727  0.125775  1
  Dy  Dy18  1  0.674682  0.817780  0.127352  1
  Sc  Sc19  1  0.151297  0.508391  0.750000  1
  Si  Si20  1  0.268846  0.875542  0.750000  1
  Si  Si21  1  0.473212  0.594673  0.250000  1
  Si  Si22  1  0.030156  0.105258  0.750000  1
  Si  Si23  1  0.518757  0.407721  0.750000  1
  Si  Si24  1  0.146879  0.470838  0.541428  1
  Si  Si25  1  0.974975  0.904851  0.250000  1
  Si  Si26  1  0.730839  0.113884  0.250000  1
  Si  Si27  1  0.849048  0.534966  0.032438  1
  Si  Si28  1  0.349123  0.965184  0.035433  1
  Si  Si29  1  0.146879  0.470838  0.958572  1
  Si  Si30  1  0.648797  0.035294  0.531937  1
  Si  Si31  1  0.349123  0.965184  0.464567  1
  Si  Si32  1  0.849048  0.534966  0.467562  1
  Si  Si33  1  0.782109  0.611812  0.750000  1
  Si  Si34  1  0.228588  0.386299  0.250000  1
  Si  Si35  1  0.648797  0.035294  0.968063  1
