# generated using pymatgen
data_K3Lu(SbAu)4
_symmetry_space_group_name_H-M   'P 1'
_cell_length_a   4.63167800
_cell_length_b   4.63167816
_cell_length_c   19.95407200
_cell_angle_alpha   90.00000000
_cell_angle_beta   90.00000000
_cell_angle_gamma   119.99999883
_symmetry_Int_Tables_number   1
_chemical_formula_structural   K3Lu(SbAu)4
_chemical_formula_sum   'K3 Lu1 Sb4 Au4'
_cell_volume   370.71392992
_cell_formula_units_Z   1
loop_
 _symmetry_equiv_pos_site_id
 _symmetry_equiv_pos_as_xyz
  1  'x, y, z'
loop_
 _atom_site_type_symbol
 _atom_site_label
 _atom_site_symmetry_multiplicity
 _atom_site_fract_x
 _atom_site_fract_y
 _atom_site_fract_z
 _atom_site_occupancy
  K  K0  1  0.000000  0.000000  0.500000  1
  K  K1  1  0.000000  0.000000  0.236841  1
  K  K2  1  0.000000  0.000000  0.763159  1
  Lu  Lu3  1  0.000000  0.000000  0.000000  1
  Sb  Sb4  1  0.333333  0.666667  0.366865  1
  Sb  Sb5  1  0.666667  0.333333  0.633135  1
  Sb  Sb6  1  0.666667  0.333333  0.894560  1
  Sb  Sb7  1  0.333333  0.666667  0.105440  1
  Au  Au8  1  0.666667  0.333333  0.365963  1
  Au  Au9  1  0.333333  0.666667  0.634037  1
  Au  Au10  1  0.333333  0.666667  0.926847  1
  Au  Au11  1  0.666667  0.333333  0.073153  1
