# generated using pymatgen
data_Zr6VRe4W7
_symmetry_space_group_name_H-M   'P 1'
_cell_length_a   5.34268475
_cell_length_b   5.37375949
_cell_length_c   13.21672863
_cell_angle_alpha   90.25247967
_cell_angle_beta   89.54796565
_cell_angle_gamma   119.85920878
_symmetry_Int_Tables_number   1
_chemical_formula_structural   Zr6VRe4W7
_chemical_formula_sum   'Zr6 V1 Re4 W7'
_cell_volume   329.07370877
_cell_formula_units_Z   1
loop_
 _symmetry_equiv_pos_site_id
 _symmetry_equiv_pos_as_xyz
  1  'x, y, z'
loop_
 _atom_site_type_symbol
 _atom_site_label
 _atom_site_symmetry_multiplicity
 _atom_site_fract_x
 _atom_site_fract_y
 _atom_site_fract_z
 _atom_site_occupancy
  Zr  Zr0  1  0.334046  0.664633  0.919050  1
  Zr  Zr1  1  0.003568  0.003084  0.248319  1
  Zr  Zr2  1  0.667177  0.332765  0.583480  1
  Zr  Zr3  1  0.332823  0.667235  0.666520  1
  Zr  Zr4  1  0.996432  0.996916  0.001680  1
  Zr  Zr5  1  0.665954  0.335367  0.330950  1
  V  V6  1  0.000000  0.500000  0.125000  1
  Re  Re7  1  0.500000  0.500000  0.125000  1
  Re  Re8  1  0.166643  0.834180  0.457133  1
  Re  Re9  1  0.833357  0.165820  0.792867  1
  Re  Re10  1  0.500000  0.000000  0.125000  1
  W  W11  1  0.166185  0.334165  0.456924  1
  W  W12  1  0.833815  0.665835  0.793076  1
  W  W13  1  0.330780  0.667441  0.288207  1
  W  W14  1  0.000000  0.000000  0.625000  1
  W  W15  1  0.669220  0.332559  0.961793  1
  W  W16  1  0.665982  0.833943  0.457329  1
  W  W17  1  0.334018  0.166057  0.792671  1
