# generated using pymatgen
data_Ho12InCo3NiOs
_symmetry_space_group_name_H-M   'P 1'
_cell_length_a   8.25509433
_cell_length_b   8.26310206
_cell_length_c   8.25509497
_cell_angle_alpha   111.68262126
_cell_angle_beta   110.69153459
_cell_angle_gamma   106.05570548
_symmetry_Int_Tables_number   1
_chemical_formula_structural   Ho12InCo3NiOs
_chemical_formula_sum   'Ho12 In1 Co3 Ni1 Os1'
_cell_volume   432.50741512
_cell_formula_units_Z   1
loop_
 _symmetry_equiv_pos_site_id
 _symmetry_equiv_pos_as_xyz
  1  'x, y, z'
loop_
 _atom_site_type_symbol
 _atom_site_label
 _atom_site_symmetry_multiplicity
 _atom_site_fract_x
 _atom_site_fract_y
 _atom_site_fract_z
 _atom_site_occupancy
  Ho  Ho0  1  0.321427  0.625192  0.303765  1
  Ho  Ho1  1  0.684553  0.376791  0.692238  1
  Ho  Ho2  1  0.320931  0.016623  0.695694  1
  Ho  Ho3  1  0.684508  0.992788  0.308279  1
  Ho  Ho4  1  0.179263  0.277305  0.460881  1
  Ho  Ho5  1  0.816863  0.718527  0.539293  1
  Ho  Ho6  1  0.179233  0.718527  0.901663  1
  Ho  Ho7  1  0.816423  0.277305  0.098042  1
  Ho  Ho8  1  0.411285  0.218960  0.192222  1
  Ho  Ho9  1  0.584594  0.777914  0.807065  1
  Ho  Ho10  1  0.026738  0.218960  0.807675  1
  Ho  Ho11  1  0.970850  0.777914  0.193321  1
  In  In12  1  0.498908  0.498813  0.999905  1
  Co  Co13  1  0.890807  0.390800  0.499994  1
  Co  Co14  1  0.370618  0.998802  0.372452  1
  Co  Co15  1  0.626350  0.998802  0.628183  1
  Ni  Ni16  1  0.119428  0.618685  0.499258  1
  Os  Os17  1  0.997220  0.997290  0.000070  1
