# generated using pymatgen
data_DyNb8CoSe16
_symmetry_space_group_name_H-M   'P 1'
_cell_length_a   6.99123800
_cell_length_b   6.99123652
_cell_length_c   13.52687300
_cell_angle_alpha   90.00000000
_cell_angle_beta   90.00000000
_cell_angle_gamma   120.00000701
_symmetry_Int_Tables_number   1
_chemical_formula_structural   DyNb8CoSe16
_chemical_formula_sum   'Dy1 Nb8 Co1 Se16'
_cell_volume   572.57989593
_cell_formula_units_Z   1
loop_
 _symmetry_equiv_pos_site_id
 _symmetry_equiv_pos_as_xyz
  1  'x, y, z'
loop_
 _atom_site_type_symbol
 _atom_site_label
 _atom_site_symmetry_multiplicity
 _atom_site_fract_x
 _atom_site_fract_y
 _atom_site_fract_z
 _atom_site_occupancy
  Dy  Dy0  1  0.000000  0.000000  0.500000  1
  Nb  Nb1  1  0.000000  0.000000  0.233663  1
  Nb  Nb2  1  0.000000  0.000000  0.766337  1
  Nb  Nb3  1  0.507321  0.014643  0.232016  1
  Nb  Nb4  1  0.985357  0.492679  0.232016  1
  Nb  Nb5  1  0.507321  0.492679  0.232016  1
  Nb  Nb6  1  0.492679  0.985357  0.767984  1
  Nb  Nb7  1  0.014643  0.507321  0.767984  1
  Nb  Nb8  1  0.492679  0.507321  0.767984  1
  Co  Co9  1  0.000000  0.000000  0.000000  1
  Se  Se10  1  0.333333  0.666667  0.894874  1
  Se  Se11  1  0.666667  0.333333  0.105126  1
  Se  Se12  1  0.666667  0.333333  0.361686  1
  Se  Se13  1  0.333333  0.666667  0.638314  1
  Se  Se14  1  0.169853  0.830147  0.356352  1
  Se  Se15  1  0.169853  0.339706  0.356352  1
  Se  Se16  1  0.660294  0.830147  0.356352  1
  Se  Se17  1  0.830147  0.169853  0.643648  1
  Se  Se18  1  0.830147  0.660294  0.643648  1
  Se  Se19  1  0.339706  0.169853  0.643648  1
  Se  Se20  1  0.832968  0.167032  0.889169  1
  Se  Se21  1  0.832968  0.665935  0.889169  1
  Se  Se22  1  0.334065  0.167032  0.889169  1
  Se  Se23  1  0.167032  0.832968  0.110831  1
  Se  Se24  1  0.167032  0.334065  0.110831  1
  Se  Se25  1  0.665935  0.832968  0.110831  1
