# generated using pymatgen
data_Ac2Zn21Ni
_symmetry_space_group_name_H-M   'P 1'
_cell_length_a   8.36021076
_cell_length_b   8.34016498
_cell_length_c   8.34016493
_cell_angle_alpha   99.60861482
_cell_angle_beta   100.07651104
_cell_angle_gamma   131.00480036
_symmetry_Int_Tables_number   1
_chemical_formula_structural   Ac2Zn21Ni
_chemical_formula_sum   'Ac2 Zn21 Ni1'
_cell_volume   399.81817031
_cell_formula_units_Z   1
loop_
 _symmetry_equiv_pos_site_id
 _symmetry_equiv_pos_as_xyz
  1  'x, y, z'
loop_
 _atom_site_type_symbol
 _atom_site_label
 _atom_site_symmetry_multiplicity
 _atom_site_fract_x
 _atom_site_fract_y
 _atom_site_fract_z
 _atom_site_occupancy
  Ac  Ac0  1  0.254767  0.751725  0.503043  1
  Ac  Ac1  1  0.995233  0.998275  0.996957  1
  Zn  Zn2  1  0.897532  0.568396  0.089434  1
  Zn  Zn3  1  0.625000  0.875000  0.250000  1
  Zn  Zn4  1  0.435063  0.508505  0.324716  1
  Zn  Zn5  1  0.486547  0.569396  0.670296  1
  Zn  Zn6  1  0.435063  0.110346  0.926558  1
  Zn  Zn7  1  0.763453  0.180604  0.829704  1
  Zn  Zn8  1  0.486547  0.816250  0.917151  1
  Zn  Zn9  1  0.503357  0.492494  0.010862  1
  Zn  Zn10  1  0.763453  0.933750  0.582849  1
  Zn  Zn11  1  0.746643  0.257506  0.489138  1
  Zn  Zn12  1  0.067261  0.653503  0.832173  1
  Zn  Zn13  1  0.125000  0.375000  0.750000  1
  Zn  Zn14  1  0.352468  0.181604  0.410566  1
  Zn  Zn15  1  0.814937  0.639654  0.573442  1
  Zn  Zn16  1  0.897532  0.808098  0.329136  1
  Zn  Zn17  1  0.182739  0.096497  0.667827  1
  Zn  Zn18  1  0.067261  0.235088  0.413758  1
  Zn  Zn19  1  0.352468  0.941902  0.170864  1
  Zn  Zn20  1  0.814937  0.241495  0.175284  1
  Zn  Zn21  1  0.182739  0.514912  0.086242  1
  Zn  Zn22  1  0.625000  0.375000  0.750000  1
  Ni  Ni23  1  0.625000  0.375000  0.250000  1
