# generated using pymatgen
data_HoTm7(Si4Tc3)4
_symmetry_space_group_name_H-M   'P 1'
_cell_length_a   6.83350897
_cell_length_b   6.82891518
_cell_length_c   12.68644400
_cell_angle_alpha   89.87184839
_cell_angle_beta   90.30991899
_cell_angle_gamma   89.99116208
_symmetry_Int_Tables_number   1
_chemical_formula_structural   HoTm7(Si4Tc3)4
_chemical_formula_sum   'Ho1 Tm7 Si16 Tc12'
_cell_volume   592.00850774
_cell_formula_units_Z   1
loop_
 _symmetry_equiv_pos_site_id
 _symmetry_equiv_pos_as_xyz
  1  'x, y, z'
loop_
 _atom_site_type_symbol
 _atom_site_label
 _atom_site_symmetry_multiplicity
 _atom_site_fract_x
 _atom_site_fract_y
 _atom_site_fract_z
 _atom_site_occupancy
  Ho  Ho0  1  0.003612  0.658225  0.030832  1
  Tm  Tm1  1  0.342270  0.995476  0.469139  1
  Tm  Tm2  1  0.503003  0.839065  0.720128  1
  Tm  Tm3  1  0.495036  0.157458  0.218908  1
  Tm  Tm4  1  0.839094  0.502016  0.279908  1
  Tm  Tm5  1  0.157741  0.494181  0.781153  1
  Tm  Tm6  1  0.659413  0.001944  0.970434  1
  Tm  Tm7  1  0.997245  0.340148  0.529743  1
  Si  Si8  1  0.194188  0.119382  0.686070  1
  Si  Si9  1  0.384785  0.691612  0.935911  1
  Si  Si10  1  0.617481  0.308235  0.437763  1
  Si  Si11  1  0.689563  0.385436  0.062764  1
  Si  Si12  1  0.306784  0.619561  0.563209  1
  Si  Si13  1  0.808281  0.885640  0.187976  1
  Si  Si14  1  0.117267  0.192637  0.314140  1
  Si  Si15  1  0.883545  0.808567  0.811873  1
  Si  Si16  1  0.267549  0.981265  0.061258  1
  Si  Si17  1  0.521382  0.769871  0.313302  1
  Si  Si18  1  0.475619  0.221022  0.814388  1
  Si  Si19  1  0.779073  0.527143  0.683819  1
  Si  Si20  1  0.230408  0.479738  0.189142  1
  Si  Si21  1  0.720667  0.027870  0.566214  1
  Si  Si22  1  0.979517  0.265549  0.937522  1
  Si  Si23  1  0.025770  0.721119  0.434730  1
  Tc  Tc24  1  0.332786  0.330727  0.999951  1
  Tc  Tc25  1  0.167041  0.831572  0.250919  1
  Tc  Tc26  1  0.833118  0.165609  0.749861  1
  Tc  Tc27  1  0.666643  0.666284  0.499793  1
  Tc  Tc28  1  0.188914  0.973088  0.867072  1
  Tc  Tc29  1  0.522551  0.687941  0.120478  1
  Tc  Tc30  1  0.479357  0.324419  0.624017  1
  Tc  Tc31  1  0.677282  0.518669  0.873750  1
  Tc  Tc32  1  0.313888  0.473781  0.381777  1
  Tc  Tc33  1  0.824079  0.020342  0.376039  1
  Tc  Tc34  1  0.974008  0.188591  0.131417  1
  Tc  Tc35  1  0.021039  0.825813  0.624600  1
