# generated using pymatgen
data_Rb8PrNp3Br20
_symmetry_space_group_name_H-M   'P 1'
_cell_length_a   8.80961623
_cell_length_b   9.39776200
_cell_length_c   14.18196300
_cell_angle_alpha   90.00000000
_cell_angle_beta   90.21535357
_cell_angle_gamma   90.00000000
_symmetry_Int_Tables_number   1
_chemical_formula_structural   Rb8PrNp3Br20
_chemical_formula_sum   'Rb8 Pr1 Np3 Br20'
_cell_volume   1174.12601893
_cell_formula_units_Z   1
loop_
 _symmetry_equiv_pos_site_id
 _symmetry_equiv_pos_as_xyz
  1  'x, y, z'
loop_
 _atom_site_type_symbol
 _atom_site_label
 _atom_site_symmetry_multiplicity
 _atom_site_fract_x
 _atom_site_fract_y
 _atom_site_fract_z
 _atom_site_occupancy
  Rb  Rb0  1  0.947176  0.005005  0.827381  1
  Rb  Rb1  1  0.053439  0.995912  0.172410  1
  Rb  Rb2  1  0.446556  0.995767  0.672047  1
  Rb  Rb3  1  0.053439  0.504088  0.172410  1
  Rb  Rb4  1  0.553214  0.004746  0.328164  1
  Rb  Rb5  1  0.947176  0.494995  0.827381  1
  Rb  Rb6  1  0.553214  0.495254  0.328164  1
  Rb  Rb7  1  0.446556  0.504233  0.672047  1
  Pr  Pr8  1  0.573449  0.750000  0.003777  1
  Np  Np9  1  0.928122  0.750000  0.503318  1
  Np  Np10  1  0.071129  0.250000  0.496803  1
  Np  Np11  1  0.428487  0.250000  0.996659  1
  Br  Br12  1  0.118784  0.750000  0.673471  1
  Br  Br13  1  0.880032  0.250000  0.326286  1
  Br  Br14  1  0.620348  0.250000  0.826171  1
  Br  Br15  1  0.379384  0.750000  0.174239  1
  Br  Br16  1  0.840750  0.042390  0.573597  1
  Br  Br17  1  0.160116  0.958114  0.426434  1
  Br  Br18  1  0.337829  0.958517  0.925975  1
  Br  Br19  1  0.160116  0.541886  0.426434  1
  Br  Br20  1  0.660351  0.043276  0.073908  1
  Br  Br21  1  0.840750  0.457610  0.573597  1
  Br  Br22  1  0.660351  0.456724  0.073908  1
  Br  Br23  1  0.337829  0.541483  0.925975  1
  Br  Br24  1  0.588870  0.750000  0.509968  1
  Br  Br25  1  0.411617  0.250000  0.490173  1
  Br  Br26  1  0.088350  0.250000  0.990018  1
  Br  Br27  1  0.912707  0.750000  0.010377  1
  Br  Br28  1  0.657803  0.750000  0.801734  1
  Br  Br29  1  0.342004  0.250000  0.197357  1
  Br  Br30  1  0.157843  0.250000  0.696825  1
  Br  Br31  1  0.842213  0.750000  0.302993  1
