# generated using pymatgen
data_HoCo4P3W
_symmetry_space_group_name_H-M   'P 1'
_cell_length_a   3.70786000
_cell_length_b   10.42855600
_cell_length_c   11.87167500
_cell_angle_alpha   90.00000000
_cell_angle_beta   90.00000000
_cell_angle_gamma   90.00000000
_symmetry_Int_Tables_number   1
_chemical_formula_structural   HoCo4P3W
_chemical_formula_sum   'Ho4 Co16 P12 W4'
_cell_volume   459.04948474
_cell_formula_units_Z   4
loop_
 _symmetry_equiv_pos_site_id
 _symmetry_equiv_pos_as_xyz
  1  'x, y, z'
loop_
 _atom_site_type_symbol
 _atom_site_label
 _atom_site_symmetry_multiplicity
 _atom_site_fract_x
 _atom_site_fract_y
 _atom_site_fract_z
 _atom_site_occupancy
  Ho  Ho0  1  0.250000  0.582788  0.704297  1
  Ho  Ho1  1  0.250000  0.917212  0.204297  1
  Ho  Ho2  1  0.750000  0.417212  0.295703  1
  Ho  Ho3  1  0.750000  0.082788  0.795703  1
  Co  Co4  1  0.250000  0.405389  0.488942  1
  Co  Co5  1  0.250000  0.094611  0.988942  1
  Co  Co6  1  0.750000  0.594611  0.511058  1
  Co  Co7  1  0.750000  0.905389  0.011058  1
  Co  Co8  1  0.250000  0.222368  0.177686  1
  Co  Co9  1  0.250000  0.277632  0.677686  1
  Co  Co10  1  0.750000  0.777632  0.822314  1
  Co  Co11  1  0.750000  0.722368  0.322314  1
  Co  Co12  1  0.250000  0.887551  0.700293  1
  Co  Co13  1  0.250000  0.612449  0.200293  1
  Co  Co14  1  0.750000  0.112449  0.299707  1
  Co  Co15  1  0.750000  0.387551  0.799707  1
  Co  Co16  1  0.250000  0.465627  0.933195  1
  Co  Co17  1  0.250000  0.034373  0.433195  1
  Co  Co18  1  0.750000  0.534373  0.066805  1
  Co  Co19  1  0.750000  0.965627  0.566805  1
  P  P20  1  0.250000  0.420086  0.115953  1
  P  P21  1  0.250000  0.079914  0.615953  1
  P  P22  1  0.750000  0.579914  0.884047  1
  P  P23  1  0.750000  0.920086  0.384047  1
  P  P24  1  0.250000  0.268577  0.864748  1
  P  P25  1  0.250000  0.231423  0.364748  1
  P  P26  1  0.750000  0.731423  0.135252  1
  P  P27  1  0.750000  0.768577  0.635252  1
  P  P28  1  0.250000  0.594780  0.390919  1
  P  P29  1  0.250000  0.905220  0.890919  1
  P  P30  1  0.750000  0.405220  0.609081  1
  P  P31  1  0.750000  0.094780  0.109081  1
  W  W32  1  0.250000  0.708808  0.987618  1
  W  W33  1  0.250000  0.791192  0.487618  1
  W  W34  1  0.750000  0.291192  0.012382  1
  W  W35  1  0.750000  0.208808  0.512382  1
