# generated using pymatgen
data_RbNi9P5
_symmetry_space_group_name_H-M   'P 1'
_cell_length_a   6.52199800
_cell_length_b   6.52199804
_cell_length_c   10.87017200
_cell_angle_alpha   90.00000000
_cell_angle_beta   90.00000000
_cell_angle_gamma   119.99999979
_symmetry_Int_Tables_number   1
_chemical_formula_structural   RbNi9P5
_chemical_formula_sum   'Rb2 Ni18 P10'
_cell_volume   400.43162914
_cell_formula_units_Z   2
loop_
 _symmetry_equiv_pos_site_id
 _symmetry_equiv_pos_as_xyz
  1  'x, y, z'
loop_
 _atom_site_type_symbol
 _atom_site_label
 _atom_site_symmetry_multiplicity
 _atom_site_fract_x
 _atom_site_fract_y
 _atom_site_fract_z
 _atom_site_occupancy
  Rb  Rb0  1  0.000000  0.000000  0.000000  1
  Rb  Rb1  1  0.000000  0.000000  0.500000  1
  Ni  Ni2  1  0.536237  0.072474  0.108015  1
  Ni  Ni3  1  0.463763  0.536237  0.608015  1
  Ni  Ni4  1  0.072474  0.536237  0.608015  1
  Ni  Ni5  1  0.927526  0.463763  0.108015  1
  Ni  Ni6  1  0.536237  0.463763  0.108015  1
  Ni  Ni7  1  0.463763  0.927526  0.891985  1
  Ni  Ni8  1  0.463763  0.536237  0.891985  1
  Ni  Ni9  1  0.463763  0.927526  0.608015  1
  Ni  Ni10  1  0.072474  0.536237  0.891985  1
  Ni  Ni11  1  0.927526  0.463763  0.391985  1
  Ni  Ni12  1  0.536237  0.072474  0.391985  1
  Ni  Ni13  1  0.536237  0.463763  0.391985  1
  Ni  Ni14  1  0.203515  0.407030  0.250000  1
  Ni  Ni15  1  0.796485  0.203515  0.750000  1
  Ni  Ni16  1  0.407030  0.203515  0.750000  1
  Ni  Ni17  1  0.592970  0.796485  0.250000  1
  Ni  Ni18  1  0.203515  0.796485  0.250000  1
  Ni  Ni19  1  0.796485  0.592970  0.750000  1
  P  P20  1  0.825000  0.650000  0.250000  1
  P  P21  1  0.175000  0.825000  0.750000  1
  P  P22  1  0.650000  0.825000  0.750000  1
  P  P23  1  0.350000  0.175000  0.250000  1
  P  P24  1  0.825000  0.175000  0.250000  1
  P  P25  1  0.175000  0.350000  0.750000  1
  P  P26  1  0.333333  0.666667  0.062121  1
  P  P27  1  0.666667  0.333333  0.562121  1
  P  P28  1  0.666667  0.333333  0.937879  1
  P  P29  1  0.333333  0.666667  0.437879  1
