# generated using pymatgen
data_YFeB6Mo
_symmetry_space_group_name_H-M   'P 1'
_cell_length_a   3.31611100
_cell_length_b   8.86467100
_cell_length_c   11.20002500
_cell_angle_alpha   90.00000000
_cell_angle_beta   90.00000000
_cell_angle_gamma   90.00000000
_symmetry_Int_Tables_number   1
_chemical_formula_structural   YFeB6Mo
_chemical_formula_sum   'Y4 Fe4 B24 Mo4'
_cell_volume   329.23854467
_cell_formula_units_Z   4
loop_
 _symmetry_equiv_pos_site_id
 _symmetry_equiv_pos_as_xyz
  1  'x, y, z'
loop_
 _atom_site_type_symbol
 _atom_site_label
 _atom_site_symmetry_multiplicity
 _atom_site_fract_x
 _atom_site_fract_y
 _atom_site_fract_z
 _atom_site_occupancy
  Y  Y0  1  0.000000  0.821230  0.085792  1
  Y  Y1  1  0.000000  0.178770  0.914208  1
  Y  Y2  1  0.000000  0.321230  0.414208  1
  Y  Y3  1  0.000000  0.678770  0.585792  1
  Fe  Fe4  1  0.000000  0.143488  0.184173  1
  Fe  Fe5  1  0.000000  0.856512  0.815827  1
  Fe  Fe6  1  0.000000  0.643488  0.315827  1
  Fe  Fe7  1  0.000000  0.356512  0.684173  1
  B  B8  1  0.500000  0.055658  0.067683  1
  B  B9  1  0.500000  0.944342  0.932317  1
  B  B10  1  0.500000  0.555658  0.432317  1
  B  B11  1  0.500000  0.444342  0.567683  1
  B  B12  1  0.500000  0.253683  0.083556  1
  B  B13  1  0.500000  0.746317  0.916444  1
  B  B14  1  0.500000  0.753683  0.416444  1
  B  B15  1  0.500000  0.246317  0.583556  1
  B  B16  1  0.500000  0.297408  0.236163  1
  B  B17  1  0.500000  0.702592  0.763837  1
  B  B18  1  0.500000  0.797408  0.263837  1
  B  B19  1  0.500000  0.202592  0.736163  1
  B  B20  1  0.500000  0.128812  0.317987  1
  B  B21  1  0.500000  0.871188  0.682013  1
  B  B22  1  0.500000  0.628812  0.182013  1
  B  B23  1  0.500000  0.371188  0.817987  1
  B  B24  1  0.500000  0.482878  0.286486  1
  B  B25  1  0.500000  0.517122  0.713514  1
  B  B26  1  0.500000  0.982878  0.213514  1
  B  B27  1  0.500000  0.017122  0.786486  1
  B  B28  1  0.500000  0.099044  0.474290  1
  B  B29  1  0.500000  0.900956  0.525710  1
  B  B30  1  0.500000  0.599044  0.025710  1
  B  B31  1  0.500000  0.400956  0.974290  1
  Mo  Mo32  1  0.000000  0.445108  0.127681  1
  Mo  Mo33  1  0.000000  0.554892  0.872319  1
  Mo  Mo34  1  0.000000  0.945108  0.372319  1
  Mo  Mo35  1  0.000000  0.054892  0.627681  1
