# generated using pymatgen
data_Lu2Co8Si5PRu2
_symmetry_space_group_name_H-M   'P 1'
_cell_length_a   3.70850600
_cell_length_b   10.43946000
_cell_length_c   11.86507200
_cell_angle_alpha   90.00000000
_cell_angle_beta   90.00000000
_cell_angle_gamma   90.00000000
_symmetry_Int_Tables_number   1
_chemical_formula_structural   Lu2Co8Si5PRu2
_chemical_formula_sum   'Lu4 Co16 Si10 P2 Ru4'
_cell_volume   459.35389002
_cell_formula_units_Z   2
loop_
 _symmetry_equiv_pos_site_id
 _symmetry_equiv_pos_as_xyz
  1  'x, y, z'
loop_
 _atom_site_type_symbol
 _atom_site_label
 _atom_site_symmetry_multiplicity
 _atom_site_fract_x
 _atom_site_fract_y
 _atom_site_fract_z
 _atom_site_occupancy
  Lu  Lu0  1  0.250000  0.581541  0.702440  1
  Lu  Lu1  1  0.250000  0.918459  0.202440  1
  Lu  Lu2  1  0.750000  0.418912  0.295962  1
  Lu  Lu3  1  0.750000  0.081088  0.795962  1
  Co  Co4  1  0.250000  0.407509  0.491710  1
  Co  Co5  1  0.250000  0.092491  0.991710  1
  Co  Co6  1  0.750000  0.588755  0.513642  1
  Co  Co7  1  0.750000  0.911245  0.013642  1
  Co  Co8  1  0.250000  0.213047  0.174148  1
  Co  Co9  1  0.250000  0.286953  0.674148  1
  Co  Co10  1  0.750000  0.786392  0.825934  1
  Co  Co11  1  0.750000  0.713608  0.325934  1
  Co  Co12  1  0.250000  0.886261  0.700843  1
  Co  Co13  1  0.250000  0.613739  0.200843  1
  Co  Co14  1  0.750000  0.113772  0.295630  1
  Co  Co15  1  0.750000  0.386228  0.795630  1
  Co  Co16  1  0.250000  0.467252  0.929904  1
  Co  Co17  1  0.250000  0.032748  0.429904  1
  Co  Co18  1  0.750000  0.530158  0.068488  1
  Co  Co19  1  0.750000  0.969842  0.568488  1
  Si  Si20  1  0.250000  0.416284  0.112894  1
  Si  Si21  1  0.250000  0.083716  0.612894  1
  Si  Si22  1  0.750000  0.583999  0.886552  1
  Si  Si23  1  0.750000  0.916001  0.386552  1
  Si  Si24  1  0.250000  0.268671  0.865961  1
  Si  Si25  1  0.250000  0.231329  0.365961  1
  Si  Si26  1  0.750000  0.729153  0.133888  1
  Si  Si27  1  0.750000  0.770847  0.633888  1
  Si  Si28  1  0.250000  0.597567  0.392349  1
  Si  Si29  1  0.250000  0.902433  0.892349  1
  P  P30  1  0.750000  0.402503  0.608781  1
  P  P31  1  0.750000  0.097497  0.108781  1
  Ru  Ru32  1  0.250000  0.706588  0.990890  1
  Ru  Ru33  1  0.250000  0.793412  0.490890  1
  Ru  Ru34  1  0.750000  0.289757  0.009984  1
  Ru  Ru35  1  0.750000  0.210243  0.509984  1
