# generated using pymatgen
data_Er3Mn6V(CoP3)2
_symmetry_space_group_name_H-M   'P 1'
_cell_length_a   3.64400200
_cell_length_b   10.83926300
_cell_length_c   12.52562200
_cell_angle_alpha   90.00000000
_cell_angle_beta   90.00000000
_cell_angle_gamma   90.00000000
_symmetry_Int_Tables_number   1
_chemical_formula_structural   Er3Mn6V(CoP3)2
_chemical_formula_sum   'Er6 Mn12 V2 Co4 P12'
_cell_volume   494.74072597
_cell_formula_units_Z   2
loop_
 _symmetry_equiv_pos_site_id
 _symmetry_equiv_pos_as_xyz
  1  'x, y, z'
loop_
 _atom_site_type_symbol
 _atom_site_label
 _atom_site_symmetry_multiplicity
 _atom_site_fract_x
 _atom_site_fract_y
 _atom_site_fract_z
 _atom_site_occupancy
  Er  Er0  1  0.750000  0.250000  0.467888  1
  Er  Er1  1  0.250000  0.750000  0.532112  1
  Er  Er2  1  0.250000  0.926776  0.795986  1
  Er  Er3  1  0.250000  0.573224  0.795986  1
  Er  Er4  1  0.750000  0.073224  0.204014  1
  Er  Er5  1  0.750000  0.426776  0.204014  1
  Mn  Mn6  1  0.250000  0.420394  0.003793  1
  Mn  Mn7  1  0.250000  0.079606  0.003793  1
  Mn  Mn8  1  0.750000  0.579606  0.996207  1
  Mn  Mn9  1  0.750000  0.920394  0.996207  1
  Mn  Mn10  1  0.250000  0.452406  0.567358  1
  Mn  Mn11  1  0.250000  0.047594  0.567358  1
  Mn  Mn12  1  0.750000  0.547594  0.432642  1
  Mn  Mn13  1  0.750000  0.952406  0.432642  1
  Mn  Mn14  1  0.250000  0.869871  0.298148  1
  Mn  Mn15  1  0.250000  0.630129  0.298148  1
  Mn  Mn16  1  0.750000  0.130129  0.701852  1
  Mn  Mn17  1  0.750000  0.369871  0.701852  1
  V  V18  1  0.250000  0.250000  0.841575  1
  V  V19  1  0.750000  0.750000  0.158425  1
  Co  Co20  1  0.250000  0.250000  0.292683  1
  Co  Co21  1  0.750000  0.750000  0.707317  1
  Co  Co22  1  0.750000  0.250000  0.008882  1
  Co  Co23  1  0.250000  0.750000  0.991118  1
  P  P24  1  0.250000  0.250000  0.115054  1
  P  P25  1  0.750000  0.750000  0.884946  1
  P  P26  1  0.250000  0.250000  0.642281  1
  P  P27  1  0.750000  0.750000  0.357719  1
  P  P28  1  0.250000  0.431538  0.380601  1
  P  P29  1  0.250000  0.068462  0.380601  1
  P  P30  1  0.750000  0.568462  0.619399  1
  P  P31  1  0.750000  0.931538  0.619399  1
  P  P32  1  0.250000  0.903621  0.112945  1
  P  P33  1  0.250000  0.596379  0.112945  1
  P  P34  1  0.750000  0.096379  0.887055  1
  P  P35  1  0.750000  0.403621  0.887055  1
