# generated using pymatgen
data_Dy2Ho3Tm15Pt16
_symmetry_space_group_name_H-M   'P 1'
_cell_length_a   7.40851201
_cell_length_b   7.48976284
_cell_length_c   14.60202700
_cell_angle_alpha   90.01520796
_cell_angle_beta   89.99661261
_cell_angle_gamma   89.97751025
_symmetry_Int_Tables_number   1
_chemical_formula_structural   Dy2Ho3Tm15Pt16
_chemical_formula_sum   'Dy2 Ho3 Tm15 Pt16'
_cell_volume   810.23715231
_cell_formula_units_Z   1
loop_
 _symmetry_equiv_pos_site_id
 _symmetry_equiv_pos_as_xyz
  1  'x, y, z'
loop_
 _atom_site_type_symbol
 _atom_site_label
 _atom_site_symmetry_multiplicity
 _atom_site_fract_x
 _atom_site_fract_y
 _atom_site_fract_z
 _atom_site_occupancy
  Dy  Dy0  1  0.999238  0.179067  0.407082  1
  Dy  Dy1  1  0.499432  0.321721  0.407533  1
  Ho  Ho2  1  0.998891  0.178769  0.092446  1
  Ho  Ho3  1  0.500874  0.678978  0.907546  1
  Ho  Ho4  1  0.001213  0.820357  0.592841  1
  Tm  Tm5  1  0.656044  0.167373  0.622798  1
  Tm  Tm6  1  0.156001  0.332760  0.877523  1
  Tm  Tm7  1  0.344005  0.832782  0.122350  1
  Tm  Tm8  1  0.844047  0.667310  0.377256  1
  Tm  Tm9  1  0.344922  0.831970  0.377567  1
  Tm  Tm10  1  0.844149  0.667499  0.121914  1
  Tm  Tm11  1  0.655835  0.167494  0.877864  1
  Tm  Tm12  1  0.156441  0.332802  0.622570  1
  Tm  Tm13  1  0.501581  0.680201  0.593217  1
  Tm  Tm14  1  0.001625  0.819923  0.906937  1
  Tm  Tm15  1  0.498321  0.319947  0.092939  1
  Tm  Tm16  1  0.818979  0.510180  0.750131  1
  Tm  Tm17  1  0.318955  0.989742  0.750230  1
  Tm  Tm18  1  0.180955  0.489938  0.249447  1
  Tm  Tm19  1  0.680906  0.010147  0.249548  1
  Pt  Pt20  1  0.682912  0.964943  0.458885  1
  Pt  Pt21  1  0.185010  0.533238  0.041597  1
  Pt  Pt22  1  0.315072  0.033149  0.958412  1
  Pt  Pt23  1  0.815161  0.467898  0.542105  1
  Pt  Pt24  1  0.316870  0.032023  0.542337  1
  Pt  Pt25  1  0.816682  0.467017  0.958297  1
  Pt  Pt26  1  0.683353  0.967113  0.041695  1
  Pt  Pt27  1  0.183179  0.535218  0.459052  1
  Pt  Pt28  1  0.453567  0.386737  0.749887  1
  Pt  Pt29  1  0.953458  0.113362  0.750312  1
  Pt  Pt30  1  0.546331  0.613840  0.249403  1
  Pt  Pt31  1  0.046752  0.885921  0.249804  1
  Pt  Pt32  1  0.681520  0.855981  0.749903  1
  Pt  Pt33  1  0.181537  0.644095  0.750467  1
  Pt  Pt34  1  0.318644  0.143753  0.248974  1
  Pt  Pt35  1  0.817537  0.356755  0.249128  1
