# generated using pymatgen
data_Er8Al2IrPd
_symmetry_space_group_name_H-M   'P 1'
_cell_length_a   9.48356969
_cell_length_b   9.48356955
_cell_length_c   9.42804900
_cell_angle_alpha   60.19347704
_cell_angle_beta   60.19347753
_cell_angle_gamma   60.52805129
_symmetry_Int_Tables_number   1
_chemical_formula_structural   Er8Al2IrPd
_chemical_formula_sum   'Er16 Al4 Ir2 Pd2'
_cell_volume   603.70919614
_cell_formula_units_Z   2
loop_
 _symmetry_equiv_pos_site_id
 _symmetry_equiv_pos_as_xyz
  1  'x, y, z'
loop_
 _atom_site_type_symbol
 _atom_site_label
 _atom_site_symmetry_multiplicity
 _atom_site_fract_x
 _atom_site_fract_y
 _atom_site_fract_z
 _atom_site_occupancy
  Er  Er0  1  0.604037  0.604037  0.597265  1
  Er  Er1  1  0.604037  0.604037  0.194661  1
  Er  Er2  1  0.611082  0.180338  0.604290  1
  Er  Er3  1  0.180338  0.611082  0.604290  1
  Er  Er4  1  0.052694  0.445330  0.441596  1
  Er  Er5  1  0.445330  0.052694  0.060379  1
  Er  Er6  1  0.445330  0.052694  0.441596  1
  Er  Er7  1  0.052694  0.445330  0.060379  1
  Er  Er8  1  0.444329  0.444329  0.055671  1
  Er  Er9  1  0.058143  0.058143  0.441857  1
  Er  Er10  1  0.188052  0.817222  0.808948  1
  Er  Er11  1  0.817222  0.188052  0.185778  1
  Er  Er12  1  0.817222  0.188052  0.808948  1
  Er  Er13  1  0.188052  0.817222  0.185778  1
  Er  Er14  1  0.814950  0.814950  0.185050  1
  Er  Er15  1  0.186651  0.186651  0.813349  1
  Al  Al16  1  0.826741  0.826741  0.829993  1
  Al  Al17  1  0.826741  0.826741  0.516525  1
  Al  Al18  1  0.824935  0.518086  0.828489  1
  Al  Al19  1  0.518086  0.824935  0.828489  1
  Ir  Ir20  1  0.387911  0.821905  0.395091  1
  Ir  Ir21  1  0.821905  0.387911  0.395091  1
  Pd  Pd22  1  0.391756  0.391756  0.399329  1
  Pd  Pd23  1  0.391756  0.391756  0.817159  1
