# generated using pymatgen
data_Hf18TiRe6SiWSe
_symmetry_space_group_name_H-M   'P 1'
_cell_length_a   8.62814300
_cell_length_b   8.62814236
_cell_length_c   8.61315600
_cell_angle_alpha   90.00000000
_cell_angle_beta   90.00000000
_cell_angle_gamma   120.00000628
_symmetry_Int_Tables_number   1
_chemical_formula_structural   Hf18TiRe6SiWSe
_chemical_formula_sum   'Hf18 Ti1 Re6 Si1 W1 Se1'
_cell_volume   555.29984716
_cell_formula_units_Z   1
loop_
 _symmetry_equiv_pos_site_id
 _symmetry_equiv_pos_as_xyz
  1  'x, y, z'
loop_
 _atom_site_type_symbol
 _atom_site_label
 _atom_site_symmetry_multiplicity
 _atom_site_fract_x
 _atom_site_fract_y
 _atom_site_fract_z
 _atom_site_occupancy
  Hf  Hf0  1  0.193837  0.806163  0.452616  1
  Hf  Hf1  1  0.193837  0.387674  0.452616  1
  Hf  Hf2  1  0.612326  0.806163  0.452616  1
  Hf  Hf3  1  0.805156  0.194844  0.549491  1
  Hf  Hf4  1  0.805156  0.610310  0.549491  1
  Hf  Hf5  1  0.389690  0.194844  0.549491  1
  Hf  Hf6  1  0.805138  0.194862  0.951649  1
  Hf  Hf7  1  0.805138  0.610276  0.951649  1
  Hf  Hf8  1  0.389724  0.194862  0.951649  1
  Hf  Hf9  1  0.193913  0.806087  0.046361  1
  Hf  Hf10  1  0.193913  0.387826  0.046361  1
  Hf  Hf11  1  0.612174  0.806087  0.046361  1
  Hf  Hf12  1  0.543804  0.456196  0.250933  1
  Hf  Hf13  1  0.543804  0.087607  0.250933  1
  Hf  Hf14  1  0.912393  0.456196  0.250933  1
  Hf  Hf15  1  0.461225  0.538775  0.748911  1
  Hf  Hf16  1  0.461225  0.922450  0.748911  1
  Hf  Hf17  1  0.077550  0.538775  0.748911  1
  Ti  Ti18  1  0.000000  0.000000  0.999717  1
  Re  Re19  1  0.889242  0.110758  0.248270  1
  Re  Re20  1  0.889242  0.778484  0.248270  1
  Re  Re21  1  0.221516  0.110758  0.248270  1
  Re  Re22  1  0.110527  0.889473  0.751698  1
  Re  Re23  1  0.110527  0.221055  0.751698  1
  Re  Re24  1  0.778945  0.889473  0.751698  1
  Si  Si25  1  0.666667  0.333333  0.750538  1
  W  W26  1  0.000000  0.000000  0.500229  1
  Se  Se27  1  0.333333  0.666667  0.249730  1
