# generated using pymatgen
data_CsRbNaCrH6
_symmetry_space_group_name_H-M   'P 1'
_cell_length_a   10.56702210
_cell_length_b   10.56702009
_cell_length_c   10.56702144
_cell_angle_alpha   33.89614537
_cell_angle_beta   33.89616233
_cell_angle_gamma   33.89614459
_symmetry_Int_Tables_number   1
_chemical_formula_structural   CsRbNaCrH6
_chemical_formula_sum   'Cs2 Rb2 Na2 Cr2 H12'
_cell_volume   327.06078707
_cell_formula_units_Z   2
loop_
 _symmetry_equiv_pos_site_id
 _symmetry_equiv_pos_as_xyz
  1  'x, y, z'
loop_
 _atom_site_type_symbol
 _atom_site_label
 _atom_site_symmetry_multiplicity
 _atom_site_fract_x
 _atom_site_fract_y
 _atom_site_fract_z
 _atom_site_occupancy
  Cs  Cs0  1  0.281723  0.281723  0.281723  1
  Cs  Cs1  1  0.718277  0.718277  0.718277  1
  Rb  Rb2  1  0.128533  0.128533  0.128533  1
  Rb  Rb3  1  0.871467  0.871467  0.871467  1
  Na  Na4  1  0.402689  0.402689  0.402689  1
  Na  Na5  1  0.597311  0.597311  0.597311  1
  Cr  Cr6  1  0.000000  0.000000  0.000000  1
  Cr  Cr7  1  0.500000  0.500000  0.500000  1
  H  H8  1  0.170161  0.170161  0.760772  1
  H  H9  1  0.760772  0.170161  0.170161  1
  H  H10  1  0.170161  0.760772  0.170161  1
  H  H11  1  0.829839  0.239228  0.829839  1
  H  H12  1  0.829839  0.829839  0.239228  1
  H  H13  1  0.239228  0.829839  0.829839  1
  H  H14  1  0.401339  0.401339  0.801370  1
  H  H15  1  0.801370  0.401339  0.401339  1
  H  H16  1  0.198630  0.598661  0.598661  1
  H  H17  1  0.598661  0.598661  0.198630  1
  H  H18  1  0.598661  0.198630  0.598661  1
  H  H19  1  0.401339  0.801370  0.401339  1
