# generated using pymatgen
data_Er4AlOs7
_symmetry_space_group_name_H-M   'P 1'
_cell_length_a   5.35499600
_cell_length_b   5.35499637
_cell_length_c   8.65934800
_cell_angle_alpha   90.00000000
_cell_angle_beta   90.00000000
_cell_angle_gamma   119.99999772
_symmetry_Int_Tables_number   1
_chemical_formula_structural   Er4AlOs7
_chemical_formula_sum   'Er4 Al1 Os7'
_cell_volume   215.04738533
_cell_formula_units_Z   1
loop_
 _symmetry_equiv_pos_site_id
 _symmetry_equiv_pos_as_xyz
  1  'x, y, z'
loop_
 _atom_site_type_symbol
 _atom_site_label
 _atom_site_symmetry_multiplicity
 _atom_site_fract_x
 _atom_site_fract_y
 _atom_site_fract_z
 _atom_site_occupancy
  Er  Er0  1  0.333333  0.666667  0.428859  1
  Er  Er1  1  0.666667  0.333333  0.571141  1
  Er  Er2  1  0.666667  0.333333  0.935819  1
  Er  Er3  1  0.333333  0.666667  0.064181  1
  Al  Al4  1  0.000000  0.000000  0.500000  1
  Os  Os5  1  0.000000  0.000000  0.000000  1
  Os  Os6  1  0.828619  0.171381  0.251057  1
  Os  Os7  1  0.828619  0.657237  0.251057  1
  Os  Os8  1  0.342763  0.171381  0.251057  1
  Os  Os9  1  0.171381  0.828619  0.748943  1
  Os  Os10  1  0.171381  0.342763  0.748943  1
  Os  Os11  1  0.657237  0.828619  0.748943  1
