# generated using pymatgen
data_Ho2Lu6Tc3B24Rh
_symmetry_space_group_name_H-M   'P 1'
_cell_length_a   3.62417900
_cell_length_b   9.06285194
_cell_length_c   11.43585500
_cell_angle_alpha   90.11907126
_cell_angle_beta   90.00000000
_cell_angle_gamma   90.00000000
_symmetry_Int_Tables_number   1
_chemical_formula_structural   Ho2Lu6Tc3B24Rh
_chemical_formula_sum   'Ho2 Lu6 Tc3 B24 Rh1'
_cell_volume   375.61439424
_cell_formula_units_Z   1
loop_
 _symmetry_equiv_pos_site_id
 _symmetry_equiv_pos_as_xyz
  1  'x, y, z'
loop_
 _atom_site_type_symbol
 _atom_site_label
 _atom_site_symmetry_multiplicity
 _atom_site_fract_x
 _atom_site_fract_y
 _atom_site_fract_z
 _atom_site_occupancy
  Ho  Ho0  1  0.500000  0.317700  0.415708  1
  Ho  Ho1  1  0.500000  0.678729  0.590986  1
  Lu  Lu2  1  0.500000  0.177888  0.912857  1
  Lu  Lu3  1  0.500000  0.826972  0.080580  1
  Lu  Lu4  1  0.500000  0.440391  0.128220  1
  Lu  Lu5  1  0.500000  0.557229  0.871455  1
  Lu  Lu6  1  0.500000  0.056267  0.629823  1
  Lu  Lu7  1  0.500000  0.943782  0.369726  1
  Tc  Tc8  1  0.500000  0.137847  0.179924  1
  Tc  Tc9  1  0.500000  0.862149  0.821049  1
  Tc  Tc10  1  0.500000  0.361875  0.678989  1
  B  B11  1  0.000000  0.099397  0.472005  1
  B  B12  1  0.000000  0.897543  0.527563  1
  B  B13  1  0.000000  0.398296  0.972271  1
  B  B14  1  0.000000  0.602847  0.028899  1
  B  B15  1  0.000000  0.129567  0.315494  1
  B  B16  1  0.000000  0.869786  0.685030  1
  B  B17  1  0.000000  0.369911  0.815546  1
  B  B18  1  0.000000  0.631059  0.182812  1
  B  B19  1  0.000000  0.053184  0.065871  1
  B  B20  1  0.000000  0.947790  0.933348  1
  B  B21  1  0.000000  0.446253  0.566620  1
  B  B22  1  0.000000  0.554084  0.433873  1
  B  B23  1  0.000000  0.482132  0.287314  1
  B  B24  1  0.000000  0.518954  0.713000  1
  B  B25  1  0.000000  0.019332  0.787411  1
  B  B26  1  0.000000  0.980912  0.211772  1
  B  B27  1  0.000000  0.249958  0.080465  1
  B  B28  1  0.000000  0.750977  0.919722  1
  B  B29  1  0.000000  0.248983  0.581155  1
  B  B30  1  0.000000  0.750057  0.420092  1
  B  B31  1  0.000000  0.292172  0.235388  1
  B  B32  1  0.000000  0.708002  0.765879  1
  B  B33  1  0.000000  0.207679  0.735315  1
  B  B34  1  0.000000  0.791837  0.263927  1
  Rh  Rh35  1  0.500000  0.638459  0.319914  1
