# generated using pymatgen
data_Yb2YPa(FeB4)4
_symmetry_space_group_name_H-M   'P 1'
_cell_length_a   3.38428100
_cell_length_b   5.90796200
_cell_length_c   11.41740900
_cell_angle_alpha   89.99830706
_cell_angle_beta   90.00004202
_cell_angle_gamma   90.00000970
_symmetry_Int_Tables_number   1
_chemical_formula_structural   Yb2YPa(FeB4)4
_chemical_formula_sum   'Yb2 Y1 Pa1 Fe4 B16'
_cell_volume   228.28199948
_cell_formula_units_Z   1
loop_
 _symmetry_equiv_pos_site_id
 _symmetry_equiv_pos_as_xyz
  1  'x, y, z'
loop_
 _atom_site_type_symbol
 _atom_site_label
 _atom_site_symmetry_multiplicity
 _atom_site_fract_x
 _atom_site_fract_y
 _atom_site_fract_z
 _atom_site_occupancy
  Yb  Yb0  1  0.000000  0.625608  0.852511  1
  Yb  Yb1  1  0.000000  0.373796  0.149448  1
  Y  Y2  1  0.999999  0.872715  0.346582  1
  Pa  Pa3  1  0.000000  0.127359  0.651904  1
  Fe  Fe4  1  0.000000  0.129696  0.911367  1
  Fe  Fe5  1  0.000001  0.869384  0.086603  1
  Fe  Fe6  1  0.000000  0.634829  0.590651  1
  Fe  Fe7  1  0.000001  0.364529  0.414057  1
  B  B8  1  0.500000  0.360335  0.968521  1
  B  B9  1  0.500000  0.638639  0.031680  1
  B  B10  1  0.500000  0.861368  0.532413  1
  B  B11  1  0.499999  0.140192  0.466785  1
  B  B12  1  0.500000  0.477205  0.690160  1
  B  B13  1  0.500000  0.523865  0.309032  1
  B  B14  1  0.500000  0.975651  0.812020  1
  B  B15  1  0.500000  0.024719  0.188907  1
  B  B16  1  0.500000  0.281164  0.818151  1
  B  B17  1  0.500000  0.717801  0.181673  1
  B  B18  1  0.500000  0.780392  0.683992  1
  B  B19  1  0.500000  0.220391  0.314762  1
  B  B20  1  0.500000  0.390604  0.545589  1
  B  B21  1  0.500000  0.610984  0.452586  1
  B  B22  1  0.500000  0.886562  0.955328  1
  B  B23  1  0.499999  0.112214  0.045278  1
