# generated using pymatgen
data_DyLu19Ir12
_symmetry_space_group_name_H-M   'P 1'
_cell_length_a   10.67659506
_cell_length_b   10.68182438
_cell_length_c   6.27153221
_cell_angle_alpha   89.97119172
_cell_angle_beta   90.00620491
_cell_angle_gamma   90.00989953
_symmetry_Int_Tables_number   1
_chemical_formula_structural   DyLu19Ir12
_chemical_formula_sum   'Dy1 Lu19 Ir12'
_cell_volume   715.24000469
_cell_formula_units_Z   1
loop_
 _symmetry_equiv_pos_site_id
 _symmetry_equiv_pos_as_xyz
  1  'x, y, z'
loop_
 _atom_site_type_symbol
 _atom_site_label
 _atom_site_symmetry_multiplicity
 _atom_site_fract_x
 _atom_site_fract_y
 _atom_site_fract_z
 _atom_site_occupancy
  Dy  Dy0  1  0.088124  0.290522  0.123518  1
  Lu  Lu1  1  0.292401  0.086880  0.378123  1
  Lu  Lu2  1  0.291771  0.912359  0.877981  1
  Lu  Lu3  1  0.708206  0.087605  0.877412  1
  Lu  Lu4  1  0.708209  0.912289  0.377760  1
  Lu  Lu5  1  0.587662  0.791832  0.877783  1
  Lu  Lu6  1  0.587650  0.208197  0.377738  1
  Lu  Lu7  1  0.412366  0.791735  0.377647  1
  Lu  Lu8  1  0.412504  0.208170  0.877496  1
  Lu  Lu9  1  0.208436  0.412864  0.622265  1
  Lu  Lu10  1  0.208353  0.588348  0.122229  1
  Lu  Lu11  1  0.791202  0.412674  0.122316  1
  Lu  Lu12  1  0.791473  0.587791  0.622386  1
  Lu  Lu13  1  0.912227  0.708367  0.122477  1
  Lu  Lu14  1  0.911817  0.291954  0.622322  1
  Lu  Lu15  1  0.087760  0.708445  0.622378  1
  Lu  Lu16  1  0.999808  0.999827  0.500057  1
  Lu  Lu17  1  0.999585  0.999086  0.999707  1
  Lu  Lu18  1  0.500063  0.500139  0.999617  1
  Lu  Lu19  1  0.500214  0.500098  0.499872  1
  Ir  Ir20  1  0.845514  0.153048  0.250532  1
  Ir  Ir21  1  0.846472  0.846335  0.750058  1
  Ir  Ir22  1  0.154012  0.152720  0.747479  1
  Ir  Ir23  1  0.153527  0.846440  0.249957  1
  Ir  Ir24  1  0.653545  0.346436  0.750083  1
  Ir  Ir25  1  0.653566  0.653503  0.250041  1
  Ir  Ir26  1  0.347850  0.346718  0.250755  1
  Ir  Ir27  1  0.346539  0.653537  0.750070  1
  Ir  Ir28  1  0.500136  0.999963  0.124183  1
  Ir  Ir29  1  0.499991  0.999936  0.624291  1
  Ir  Ir30  1  0.999530  0.501135  0.874650  1
  Ir  Ir31  1  0.999485  0.501047  0.376818  1
