# generated using pymatgen
data_Sr6TmLu(BO3)6
_symmetry_space_group_name_H-M   'P 1'
_cell_length_a   7.87958830
_cell_length_b   7.87958703
_cell_length_c   7.87958688
_cell_angle_alpha   105.06008475
_cell_angle_beta   105.06008339
_cell_angle_gamma   105.06009677
_symmetry_Int_Tables_number   1
_chemical_formula_structural   Sr6TmLu(BO3)6
_chemical_formula_sum   'Sr6 Tm1 Lu1 B6 O18'
_cell_volume   427.16502617
_cell_formula_units_Z   1
loop_
 _symmetry_equiv_pos_site_id
 _symmetry_equiv_pos_as_xyz
  1  'x, y, z'
loop_
 _atom_site_type_symbol
 _atom_site_label
 _atom_site_symmetry_multiplicity
 _atom_site_fract_x
 _atom_site_fract_y
 _atom_site_fract_z
 _atom_site_occupancy
  Sr  Sr0  1  0.358588  0.735394  0.856820  1
  Sr  Sr1  1  0.856820  0.358588  0.735394  1
  Sr  Sr2  1  0.735394  0.856820  0.358588  1
  Sr  Sr3  1  0.641412  0.264606  0.143180  1
  Sr  Sr4  1  0.143180  0.641412  0.264606  1
  Sr  Sr5  1  0.264606  0.143180  0.641412  1
  Tm  Tm6  1  0.000000  0.000000  0.000000  1
  Lu  Lu7  1  0.500000  0.500000  0.500000  1
  B  B8  1  0.709335  0.613873  0.957783  1
  B  B9  1  0.957783  0.709335  0.613873  1
  B  B10  1  0.613873  0.957783  0.709335  1
  B  B11  1  0.042217  0.290665  0.386127  1
  B  B12  1  0.386127  0.042217  0.290665  1
  B  B13  1  0.290665  0.386127  0.042217  1
  O  O14  1  0.047430  0.810632  0.524392  1
  O  O15  1  0.524392  0.047430  0.810632  1
  O  O16  1  0.441528  0.491395  0.210698  1
  O  O17  1  0.491395  0.210698  0.441528  1
  O  O18  1  0.210698  0.441528  0.491395  1
  O  O19  1  0.789302  0.558472  0.508605  1
  O  O20  1  0.558472  0.508605  0.789302  1
  O  O21  1  0.508605  0.789302  0.558472  1
  O  O22  1  0.250539  0.193220  0.970050  1
  O  O23  1  0.193220  0.970050  0.250539  1
  O  O24  1  0.970050  0.250539  0.193220  1
  O  O25  1  0.749461  0.806780  0.029950  1
  O  O26  1  0.806780  0.029950  0.749461  1
  O  O27  1  0.029950  0.749461  0.806780  1
  O  O28  1  0.189368  0.475608  0.952570  1
  O  O29  1  0.475608  0.952570  0.189368  1
  O  O30  1  0.952570  0.189368  0.475608  1
  O  O31  1  0.810632  0.524392  0.047430  1
