# generated using pymatgen
data_Ho3Pu5(BeB14)2
_symmetry_space_group_name_H-M   'P 1'
_cell_length_a   7.19782386
_cell_length_b   7.19924991
_cell_length_c   7.40146800
_cell_angle_alpha   90.00000000
_cell_angle_beta   90.00000000
_cell_angle_gamma   90.31895602
_symmetry_Int_Tables_number   1
_chemical_formula_structural   Ho3Pu5(BeB14)2
_chemical_formula_sum   'Ho3 Pu5 Be2 B28'
_cell_volume   383.53022993
_cell_formula_units_Z   1
loop_
 _symmetry_equiv_pos_site_id
 _symmetry_equiv_pos_as_xyz
  1  'x, y, z'
loop_
 _atom_site_type_symbol
 _atom_site_label
 _atom_site_symmetry_multiplicity
 _atom_site_fract_x
 _atom_site_fract_y
 _atom_site_fract_z
 _atom_site_occupancy
  Ho  Ho0  1  0.805113  0.671445  0.000000  1
  Ho  Ho1  1  0.827914  0.695950  0.500000  1
  Ho  Ho2  1  0.171787  0.304037  0.500000  1
  Pu  Pu3  1  0.197680  0.326789  0.000000  1
  Pu  Pu4  1  0.675037  0.198723  0.000000  1
  Pu  Pu5  1  0.324859  0.801031  0.000000  1
  Pu  Pu6  1  0.698210  0.174045  0.500000  1
  Pu  Pu7  1  0.301561  0.826141  0.500000  1
  Be  Be8  1  0.999487  0.999779  0.000000  1
  Be  Be9  1  0.500585  0.500314  0.500000  1
  B  B10  1  0.174395  0.038854  0.227254  1
  B  B11  1  0.960359  0.174009  0.227361  1
  B  B12  1  0.039891  0.825358  0.228680  1
  B  B13  1  0.674646  0.459770  0.272223  1
  B  B14  1  0.325622  0.540940  0.271251  1
  B  B15  1  0.824456  0.960820  0.228518  1
  B  B16  1  0.538946  0.675429  0.272389  1
  B  B17  1  0.461743  0.324911  0.271276  1
  B  B18  1  0.824456  0.960820  0.771482  1
  B  B19  1  0.039891  0.825358  0.771320  1
  B  B20  1  0.960359  0.174009  0.772639  1
  B  B21  1  0.325622  0.540940  0.728749  1
  B  B22  1  0.674646  0.459770  0.727777  1
  B  B23  1  0.174395  0.038854  0.772746  1
  B  B24  1  0.461743  0.324911  0.728724  1
  B  B25  1  0.538946  0.675429  0.727611  1
  B  B26  1  0.089821  0.590145  0.248489  1
  B  B27  1  0.411645  0.088121  0.247859  1
  B  B28  1  0.587273  0.912493  0.250213  1
  B  B29  1  0.910501  0.409937  0.247853  1
  B  B30  1  0.910501  0.409937  0.752147  1
  B  B31  1  0.587273  0.912493  0.749787  1
  B  B32  1  0.411645  0.088121  0.752141  1
  B  B33  1  0.089821  0.590145  0.751511  1
  B  B34  1  0.999727  0.999679  0.388147  1
  B  B35  1  0.499860  0.500411  0.111968  1
  B  B36  1  0.999727  0.999679  0.611853  1
  B  B37  1  0.499860  0.500411  0.888032  1
