# generated using pymatgen
data_Er3ThInCo
_symmetry_space_group_name_H-M   'P 1'
_cell_length_a   9.58196156
_cell_length_b   9.58196259
_cell_length_c   9.58196200
_cell_angle_alpha   60.00000205
_cell_angle_beta   59.99999847
_cell_angle_gamma   60.00000256
_symmetry_Int_Tables_number   1
_chemical_formula_structural   Er3ThInCo
_chemical_formula_sum   'Er12 Th4 In4 Co4'
_cell_volume   622.08302658
_cell_formula_units_Z   4
loop_
 _symmetry_equiv_pos_site_id
 _symmetry_equiv_pos_as_xyz
  1  'x, y, z'
loop_
 _atom_site_type_symbol
 _atom_site_label
 _atom_site_symmetry_multiplicity
 _atom_site_fract_x
 _atom_site_fract_y
 _atom_site_fract_z
 _atom_site_occupancy
  Er  Er0  1  0.062487  0.437513  0.437513  1
  Er  Er1  1  0.437513  0.062487  0.062487  1
  Er  Er2  1  0.437513  0.062487  0.437513  1
  Er  Er3  1  0.062487  0.437513  0.062487  1
  Er  Er4  1  0.437513  0.437513  0.062487  1
  Er  Er5  1  0.062487  0.062487  0.437513  1
  Er  Er6  1  0.186829  0.813171  0.813171  1
  Er  Er7  1  0.813171  0.186829  0.186829  1
  Er  Er8  1  0.813171  0.186829  0.813171  1
  Er  Er9  1  0.186829  0.813171  0.186829  1
  Er  Er10  1  0.813171  0.813171  0.186829  1
  Er  Er11  1  0.186829  0.186829  0.813171  1
  Th  Th12  1  0.595419  0.595419  0.595419  1
  Th  Th13  1  0.595419  0.595419  0.213744  1
  Th  Th14  1  0.595419  0.213744  0.595419  1
  Th  Th15  1  0.213744  0.595419  0.595419  1
  In  In16  1  0.833680  0.833680  0.833680  1
  In  In17  1  0.833680  0.833680  0.498960  1
  In  In18  1  0.833680  0.498960  0.833680  1
  In  In19  1  0.498960  0.833680  0.833680  1
  Co  Co20  1  0.393827  0.393827  0.393827  1
  Co  Co21  1  0.393827  0.393827  0.818520  1
  Co  Co22  1  0.393827  0.818520  0.393827  1
  Co  Co23  1  0.818520  0.393827  0.393827  1
