# generated using pymatgen
data_PrEr19(FeBi5)2
_symmetry_space_group_name_H-M   'P 1'
_cell_length_a   8.02107784
_cell_length_b   9.37061800
_cell_length_c   12.09299800
_cell_angle_alpha   90.00000000
_cell_angle_beta   90.33589437
_cell_angle_gamma   90.00000000
_symmetry_Int_Tables_number   1
_chemical_formula_structural   PrEr19(FeBi5)2
_chemical_formula_sum   'Pr1 Er19 Fe2 Bi10'
_cell_volume   908.92381489
_cell_formula_units_Z   1
loop_
 _symmetry_equiv_pos_site_id
 _symmetry_equiv_pos_as_xyz
  1  'x, y, z'
loop_
 _atom_site_type_symbol
 _atom_site_label
 _atom_site_symmetry_multiplicity
 _atom_site_fract_x
 _atom_site_fract_y
 _atom_site_fract_z
 _atom_site_occupancy
  Pr  Pr0  1  0.580019  0.500000  0.774924  1
  Er  Er1  1  0.433965  0.177265  0.562477  1
  Er  Er2  1  0.565694  0.822587  0.062361  1
  Er  Er3  1  0.076508  0.731435  0.435814  1
  Er  Er4  1  0.921589  0.269275  0.936450  1
  Er  Er5  1  0.076508  0.268565  0.435814  1
  Er  Er6  1  0.921589  0.730725  0.936450  1
  Er  Er7  1  0.433965  0.822735  0.562477  1
  Er  Er8  1  0.565694  0.177413  0.062361  1
  Er  Er9  1  0.425235  0.500000  0.272679  1
  Er  Er10  1  0.904226  0.000000  0.201359  1
  Er  Er11  1  0.096819  0.000000  0.698990  1
  Er  Er12  1  0.254498  0.500000  0.993415  1
  Er  Er13  1  0.746225  0.500000  0.493617  1
  Er  Er14  1  0.187535  0.000000  0.995211  1
  Er  Er15  1  0.809217  0.000000  0.492197  1
  Er  Er16  1  0.090327  0.500000  0.718637  1
  Er  Er17  1  0.911553  0.500000  0.222829  1
  Er  Er18  1  0.367764  0.000000  0.308627  1
  Er  Er19  1  0.633546  0.000000  0.808960  1
  Fe  Fe20  1  0.178310  0.000000  0.487291  1
  Fe  Fe21  1  0.821612  0.000000  0.989663  1
  Bi  Bi22  1  0.822288  0.745835  0.667834  1
  Bi  Bi23  1  0.182935  0.259191  0.170852  1
  Bi  Bi24  1  0.678180  0.242017  0.325871  1
  Bi  Bi25  1  0.316011  0.760885  0.826984  1
  Bi  Bi26  1  0.678180  0.757983  0.325871  1
  Bi  Bi27  1  0.316011  0.239115  0.826984  1
  Bi  Bi28  1  0.822288  0.254165  0.667834  1
  Bi  Bi29  1  0.182935  0.740809  0.170852  1
  Bi  Bi30  1  0.347859  0.500000  0.527288  1
  Bi  Bi31  1  0.650919  0.500000  0.037034  1
