# generated using pymatgen
data_Na10TiSnP6
_symmetry_space_group_name_H-M   'P 1'
_cell_length_a   7.42568400
_cell_length_b   8.22118995
_cell_length_c   15.69575376
_cell_angle_alpha   57.81377648
_cell_angle_beta   90.00000000
_cell_angle_gamma   90.00000000
_symmetry_Int_Tables_number   1
_chemical_formula_structural   Na10TiSnP6
_chemical_formula_sum   'Na20 Ti2 Sn2 P12'
_cell_volume   810.93973069
_cell_formula_units_Z   2
loop_
 _symmetry_equiv_pos_site_id
 _symmetry_equiv_pos_as_xyz
  1  'x, y, z'
loop_
 _atom_site_type_symbol
 _atom_site_label
 _atom_site_symmetry_multiplicity
 _atom_site_fract_x
 _atom_site_fract_y
 _atom_site_fract_z
 _atom_site_occupancy
  Na  Na0  1  0.489526  0.081247  0.240357  1
  Na  Na1  1  0.989526  0.918753  0.259643  1
  Na  Na2  1  0.506914  0.912006  0.759818  1
  Na  Na3  1  0.006914  0.087994  0.740182  1
  Na  Na4  1  0.036437  0.418721  0.414404  1
  Na  Na5  1  0.536437  0.581279  0.085596  1
  Na  Na6  1  0.966272  0.590900  0.585499  1
  Na  Na7  1  0.466272  0.409100  0.914501  1
  Na  Na8  1  0.516655  0.258823  0.408023  1
  Na  Na9  1  0.016655  0.741177  0.091977  1
  Na  Na10  1  0.478713  0.747774  0.587623  1
  Na  Na11  1  0.978713  0.252226  0.912377  1
  Na  Na12  1  0.657998  0.990578  0.084940  1
  Na  Na13  1  0.157998  0.009422  0.415060  1
  Na  Na14  1  0.337936  0.002793  0.920905  1
  Na  Na15  1  0.837936  0.997207  0.579095  1
  Na  Na16  1  0.851800  0.316448  0.261438  1
  Na  Na17  1  0.351800  0.683552  0.238562  1
  Na  Na18  1  0.147155  0.686168  0.742955  1
  Na  Na19  1  0.647155  0.313832  0.757045  1
  Ti  Ti20  1  0.639048  0.651905  0.417311  1
  Ti  Ti21  1  0.139048  0.348095  0.082689  1
  Sn  Sn22  1  0.361915  0.346907  0.583317  1
  Sn  Sn23  1  0.861915  0.653093  0.916683  1
  P  P24  1  0.711631  0.340968  0.568248  1
  P  P25  1  0.211631  0.659032  0.931752  1
  P  P26  1  0.309190  0.676252  0.421022  1
  P  P27  1  0.809190  0.323748  0.078978  1
  P  P28  1  0.757497  0.922148  0.419716  1
  P  P29  1  0.257497  0.077852  0.080284  1
  P  P30  1  0.237052  0.064542  0.578307  1
  P  P31  1  0.737052  0.935458  0.921693  1
  P  P32  1  0.733606  0.639532  0.275023  1
  P  P33  1  0.233606  0.360468  0.224977  1
  P  P34  1  0.260655  0.364708  0.732200  1
  P  P35  1  0.760655  0.635292  0.767800  1
