# generated using pymatgen
data_Ho9Sc(SiB4)4
_symmetry_space_group_name_H-M   'P 1'
_cell_length_a   7.17934200
_cell_length_b   7.17934200
_cell_length_c   7.98183900
_cell_angle_alpha   90.00000000
_cell_angle_beta   90.00000000
_cell_angle_gamma   90.00000000
_symmetry_Int_Tables_number   1
_chemical_formula_structural   Ho9Sc(SiB4)4
_chemical_formula_sum   'Ho9 Sc1 Si4 B16'
_cell_volume   411.40754088
_cell_formula_units_Z   1
loop_
 _symmetry_equiv_pos_site_id
 _symmetry_equiv_pos_as_xyz
  1  'x, y, z'
loop_
 _atom_site_type_symbol
 _atom_site_label
 _atom_site_symmetry_multiplicity
 _atom_site_fract_x
 _atom_site_fract_y
 _atom_site_fract_z
 _atom_site_occupancy
  Ho  Ho0  1  0.680933  0.179697  0.225723  1
  Ho  Ho1  1  0.319067  0.820303  0.774277  1
  Ho  Ho2  1  0.319067  0.820303  0.225723  1
  Ho  Ho3  1  0.820303  0.680933  0.225723  1
  Ho  Ho4  1  0.820303  0.680933  0.774277  1
  Ho  Ho5  1  0.680933  0.179697  0.774277  1
  Ho  Ho6  1  0.179697  0.319067  0.774277  1
  Ho  Ho7  1  0.179697  0.319067  0.225723  1
  Ho  Ho8  1  0.500000  0.500000  0.500000  1
  Sc  Sc9  1  0.000000  0.000000  0.500000  1
  Si  Si10  1  0.111385  0.621907  0.500000  1
  Si  Si11  1  0.888615  0.378093  0.500000  1
  Si  Si12  1  0.378093  0.111385  0.500000  1
  Si  Si13  1  0.621907  0.888615  0.500000  1
  B  B14  1  0.172954  0.038898  0.000000  1
  B  B15  1  0.827046  0.961102  0.000000  1
  B  B16  1  0.961102  0.172954  0.000000  1
  B  B17  1  0.327183  0.539171  0.000000  1
  B  B18  1  0.038898  0.827046  0.000000  1
  B  B19  1  0.672817  0.460829  0.000000  1
  B  B20  1  0.539171  0.672817  0.000000  1
  B  B21  1  0.460829  0.327183  0.000000  1
  B  B22  1  0.089566  0.589460  0.000000  1
  B  B23  1  0.910434  0.410540  0.000000  1
  B  B24  1  0.410540  0.089566  0.000000  1
  B  B25  1  0.589460  0.910434  0.000000  1
  B  B26  1  0.000000  0.000000  0.165782  1
  B  B27  1  0.000000  0.000000  0.834218  1
  B  B28  1  0.500000  0.500000  0.835732  1
  B  B29  1  0.500000  0.500000  0.164268  1
