# generated using pymatgen
data_CsGd3S5
_symmetry_space_group_name_H-M   'P 1'
_cell_length_a   4.08387919
_cell_length_b   11.32492727
_cell_length_c   12.31914340
_cell_angle_alpha   104.23282542
_cell_angle_beta   99.54100773
_cell_angle_gamma   100.38752187
_symmetry_Int_Tables_number   1
_chemical_formula_structural   CsGd3S5
_chemical_formula_sum   'Cs2 Gd6 S10'
_cell_volume   529.86428249
_cell_formula_units_Z   2
loop_
 _symmetry_equiv_pos_site_id
 _symmetry_equiv_pos_as_xyz
  1  'x, y, z'
loop_
 _atom_site_type_symbol
 _atom_site_label
 _atom_site_symmetry_multiplicity
 _atom_site_fract_x
 _atom_site_fract_y
 _atom_site_fract_z
 _atom_site_occupancy
  Cs  Cs0  1  0.434703  0.683267  0.186138  1
  Cs  Cs1  1  0.565298  0.316733  0.813862  1
  Gd  Gd2  1  0.000000  0.000000  0.000000  1
  Gd  Gd3  1  0.748988  0.286241  0.211735  1
  Gd  Gd4  1  0.734707  0.073508  0.395905  1
  Gd  Gd5  1  0.500000  0.500000  0.500000  1
  Gd  Gd6  1  0.265292  0.926492  0.604095  1
  Gd  Gd7  1  0.251012  0.713759  0.788266  1
  S  S8  1  0.163698  0.267838  0.059557  1
  S  S9  1  0.589783  0.023071  0.156495  1
  S  S10  1  0.937346  0.523950  0.350741  1
  S  S11  1  0.142238  0.907290  0.377187  1
  S  S12  1  0.309581  0.247089  0.372072  1
  S  S13  1  0.690419  0.752911  0.627928  1
  S  S14  1  0.857762  0.092710  0.622813  1
  S  S15  1  0.062655  0.476050  0.649259  1
  S  S16  1  0.410217  0.976929  0.843505  1
  S  S17  1  0.836302  0.732162  0.940442  1
