# generated using pymatgen
data_TbTm4(SiSb)2
_symmetry_space_group_name_H-M   'P 1'
_cell_length_a   8.44389585
_cell_length_b   8.44389577
_cell_length_c   7.79353453
_cell_angle_alpha   90.06392956
_cell_angle_beta   89.93607205
_cell_angle_gamma   125.24071759
_symmetry_Int_Tables_number   1
_chemical_formula_structural   TbTm4(SiSb)2
_chemical_formula_sum   'Tb2 Tm8 Si4 Sb4'
_cell_volume   453.83819680
_cell_formula_units_Z   2
loop_
 _symmetry_equiv_pos_site_id
 _symmetry_equiv_pos_as_xyz
  1  'x, y, z'
loop_
 _atom_site_type_symbol
 _atom_site_label
 _atom_site_symmetry_multiplicity
 _atom_site_fract_x
 _atom_site_fract_y
 _atom_site_fract_z
 _atom_site_occupancy
  Tb  Tb0  1  0.539896  0.793295  0.166089  1
  Tb  Tb1  1  0.293295  0.039896  0.333911  1
  Tm  Tm2  1  0.209130  0.459090  0.834636  1
  Tm  Tm3  1  0.959090  0.709130  0.665364  1
  Tm  Tm4  1  0.709113  0.958985  0.665367  1
  Tm  Tm5  1  0.458985  0.209113  0.834633  1
  Tm  Tm6  1  0.790304  0.540681  0.164977  1
  Tm  Tm7  1  0.040681  0.290304  0.335023  1
  Tm  Tm8  1  0.500467  0.500280  0.501041  1
  Tm  Tm9  1  0.000280  0.000467  0.998959  1
  Si  Si10  1  0.632739  0.631943  0.867109  1
  Si  Si11  1  0.131943  0.132739  0.632891  1
  Si  Si12  1  0.867649  0.866711  0.369600  1
  Si  Si13  1  0.366711  0.367649  0.130400  1
  Sb  Sb14  1  0.292339  0.702795  0.503435  1
  Sb  Sb15  1  0.202795  0.792339  0.996565  1
  Sb  Sb16  1  0.708722  0.295860  0.501429  1
  Sb  Sb17  1  0.795860  0.208722  0.998571  1
