# generated using pymatgen
data_HoEr2Co3(PRu)6
_symmetry_space_group_name_H-M   'P 1'
_cell_length_a   3.87306000
_cell_length_b   10.76877900
_cell_length_c   12.55189600
_cell_angle_alpha   90.00000000
_cell_angle_beta   90.00000000
_cell_angle_gamma   90.00000000
_symmetry_Int_Tables_number   1
_chemical_formula_structural   HoEr2Co3(PRu)6
_chemical_formula_sum   'Ho2 Er4 Co6 P12 Ru12'
_cell_volume   523.51607489
_cell_formula_units_Z   2
loop_
 _symmetry_equiv_pos_site_id
 _symmetry_equiv_pos_as_xyz
  1  'x, y, z'
loop_
 _atom_site_type_symbol
 _atom_site_label
 _atom_site_symmetry_multiplicity
 _atom_site_fract_x
 _atom_site_fract_y
 _atom_site_fract_z
 _atom_site_occupancy
  Ho  Ho0  1  0.000000  0.500000  0.528235  1
  Ho  Ho1  1  0.500000  0.000000  0.470706  1
  Er  Er2  1  0.500000  0.822986  0.203629  1
  Er  Er3  1  0.500000  0.177014  0.203629  1
  Er  Er4  1  0.000000  0.680249  0.797595  1
  Er  Er5  1  0.000000  0.319751  0.797595  1
  Co  Co6  1  0.000000  0.500000  0.985886  1
  Co  Co7  1  0.500000  0.000000  0.015293  1
  Co  Co8  1  0.000000  0.161346  0.012953  1
  Co  Co9  1  0.000000  0.838654  0.012953  1
  Co  Co10  1  0.500000  0.500000  0.700472  1
  Co  Co11  1  0.000000  0.000000  0.298646  1
  P  P12  1  0.500000  0.314161  0.618026  1
  P  P13  1  0.500000  0.685839  0.618026  1
  P  P14  1  0.000000  0.186492  0.382060  1
  P  P15  1  0.000000  0.813508  0.382060  1
  P  P16  1  0.500000  0.500000  0.878633  1
  P  P17  1  0.000000  0.000000  0.120415  1
  P  P18  1  0.500000  0.852162  0.895800  1
  P  P19  1  0.500000  0.147838  0.895800  1
  P  P20  1  0.000000  0.656227  0.101318  1
  P  P21  1  0.000000  0.343773  0.101318  1
  P  P22  1  0.500000  0.500000  0.339295  1
  P  P23  1  0.000000  0.000000  0.660684  1
  Ru  Ru24  1  0.500000  0.297970  0.428368  1
  Ru  Ru25  1  0.500000  0.702030  0.428368  1
  Ru  Ru26  1  0.000000  0.201794  0.571514  1
  Ru  Ru27  1  0.000000  0.798206  0.571514  1
  Ru  Ru28  1  0.500000  0.876268  0.714722  1
  Ru  Ru29  1  0.500000  0.123732  0.714722  1
  Ru  Ru30  1  0.000000  0.625206  0.282900  1
  Ru  Ru31  1  0.000000  0.374794  0.282900  1
  Ru  Ru32  1  0.500000  0.327896  0.990113  1
  Ru  Ru33  1  0.500000  0.672104  0.990113  1
  Ru  Ru34  1  0.500000  0.500000  0.152956  1
  Ru  Ru35  1  0.000000  0.000000  0.850782  1
