# generated using pymatgen
data_LaTm2AuO7
_symmetry_space_group_name_H-M   'P 1'
_cell_length_a   6.46632531
_cell_length_b   6.46632634
_cell_length_c   7.52975000
_cell_angle_alpha   90.00000000
_cell_angle_beta   90.00000000
_cell_angle_gamma   108.46591148
_symmetry_Int_Tables_number   1
_chemical_formula_structural   LaTm2AuO7
_chemical_formula_sum   'La2 Tm4 Au2 O14'
_cell_volume   298.63360621
_cell_formula_units_Z   2
loop_
 _symmetry_equiv_pos_site_id
 _symmetry_equiv_pos_as_xyz
  1  'x, y, z'
loop_
 _atom_site_type_symbol
 _atom_site_label
 _atom_site_symmetry_multiplicity
 _atom_site_fract_x
 _atom_site_fract_y
 _atom_site_fract_z
 _atom_site_occupancy
  La  La0  1  0.000000  0.000000  0.000000  1
  La  La1  1  0.000000  0.000000  0.500000  1
  Tm  Tm2  1  0.511184  0.052748  0.250000  1
  Tm  Tm3  1  0.947252  0.488816  0.750000  1
  Tm  Tm4  1  0.488816  0.947252  0.750000  1
  Tm  Tm5  1  0.052748  0.511184  0.250000  1
  Au  Au6  1  0.500000  0.500000  0.000000  1
  Au  Au7  1  0.500000  0.500000  0.500000  1
  O  O8  1  0.871389  0.162633  0.250000  1
  O  O9  1  0.837367  0.128611  0.750000  1
  O  O10  1  0.828628  0.560875  0.029070  1
  O  O11  1  0.828628  0.560875  0.470930  1
  O  O12  1  0.439125  0.171372  0.970930  1
  O  O13  1  0.439125  0.171372  0.529070  1
  O  O14  1  0.606729  0.606729  0.750000  1
  O  O15  1  0.393271  0.393271  0.250000  1
  O  O16  1  0.560875  0.828628  0.029070  1
  O  O17  1  0.171372  0.439125  0.529070  1
  O  O18  1  0.171372  0.439125  0.970930  1
  O  O19  1  0.560875  0.828628  0.470930  1
  O  O20  1  0.128611  0.837367  0.750000  1
  O  O21  1  0.162633  0.871389  0.250000  1
