# generated using pymatgen
data_Ac6Zn4IrPd12
_symmetry_space_group_name_H-M   'P 1'
_cell_length_a   8.59236029
_cell_length_b   8.59236066
_cell_length_c   8.59236100
_cell_angle_alpha   109.47121907
_cell_angle_beta   109.47121996
_cell_angle_gamma   109.47122375
_symmetry_Int_Tables_number   1
_chemical_formula_structural   Ac6Zn4IrPd12
_chemical_formula_sum   'Ac6 Zn4 Ir1 Pd12'
_cell_volume   488.33246439
_cell_formula_units_Z   1
loop_
 _symmetry_equiv_pos_site_id
 _symmetry_equiv_pos_as_xyz
  1  'x, y, z'
loop_
 _atom_site_type_symbol
 _atom_site_label
 _atom_site_symmetry_multiplicity
 _atom_site_fract_x
 _atom_site_fract_y
 _atom_site_fract_z
 _atom_site_occupancy
  Ac  Ac0  1  0.701666  0.701666  0.000000  1
  Ac  Ac1  1  0.298334  0.000000  0.298334  1
  Ac  Ac2  1  0.000000  0.298334  0.298334  1
  Ac  Ac3  1  0.298334  0.298334  0.000000  1
  Ac  Ac4  1  0.701666  0.000000  0.701666  1
  Ac  Ac5  1  0.000000  0.701666  0.701666  1
  Zn  Zn6  1  0.000000  0.000000  0.500000  1
  Zn  Zn7  1  0.000000  0.500000  0.000000  1
  Zn  Zn8  1  0.500000  0.000000  0.000000  1
  Zn  Zn9  1  0.500000  0.500000  0.500000  1
  Ir  Ir10  1  0.000000  0.000000  0.000000  1
  Pd  Pd11  1  0.330452  0.330452  0.660904  1
  Pd  Pd12  1  0.669548  0.000000  0.330452  1
  Pd  Pd13  1  0.000000  0.669548  0.330452  1
  Pd  Pd14  1  0.669548  0.330452  0.000000  1
  Pd  Pd15  1  0.330452  0.660904  0.330452  1
  Pd  Pd16  1  0.000000  0.330452  0.669548  1
  Pd  Pd17  1  0.330452  0.669548  0.000000  1
  Pd  Pd18  1  0.330452  0.000000  0.669548  1
  Pd  Pd19  1  0.660904  0.330452  0.330452  1
  Pd  Pd20  1  0.669548  0.669548  0.339096  1
  Pd  Pd21  1  0.669548  0.339096  0.669548  1
  Pd  Pd22  1  0.339096  0.669548  0.669548  1
