# generated using pymatgen
data_LiTm16Cd3Co4
_symmetry_space_group_name_H-M   'P 1'
_cell_length_a   9.33814222
_cell_length_b   9.33814301
_cell_length_c   9.36302682
_cell_angle_alpha   60.08788266
_cell_angle_beta   60.08787538
_cell_angle_gamma   60.00000495
_symmetry_Int_Tables_number   1
_chemical_formula_structural   LiTm16Cd3Co4
_chemical_formula_sum   'Li1 Tm16 Cd3 Co4'
_cell_volume   578.09323218
_cell_formula_units_Z   1
loop_
 _symmetry_equiv_pos_site_id
 _symmetry_equiv_pos_as_xyz
  1  'x, y, z'
loop_
 _atom_site_type_symbol
 _atom_site_label
 _atom_site_symmetry_multiplicity
 _atom_site_fract_x
 _atom_site_fract_y
 _atom_site_fract_z
 _atom_site_occupancy
  Li  Li0  1  0.822569  0.822569  0.532290  1
  Tm  Tm1  1  0.438386  0.438386  0.061157  1
  Tm  Tm2  1  0.594882  0.594882  0.596608  1
  Tm  Tm3  1  0.187326  0.812898  0.812448  1
  Tm  Tm4  1  0.063809  0.063809  0.437122  1
  Tm  Tm5  1  0.438386  0.062072  0.061157  1
  Tm  Tm6  1  0.812898  0.187326  0.812448  1
  Tm  Tm7  1  0.435259  0.063809  0.437122  1
  Tm  Tm8  1  0.594882  0.213629  0.596608  1
  Tm  Tm9  1  0.812148  0.812148  0.186959  1
  Tm  Tm10  1  0.213629  0.594882  0.596608  1
  Tm  Tm11  1  0.812148  0.188747  0.186959  1
  Tm  Tm12  1  0.063809  0.435259  0.437122  1
  Tm  Tm13  1  0.188747  0.812148  0.186959  1
  Tm  Tm14  1  0.597159  0.597159  0.208522  1
  Tm  Tm15  1  0.187326  0.187326  0.812448  1
  Tm  Tm16  1  0.062072  0.438386  0.061157  1
  Cd  Cd17  1  0.831613  0.831613  0.827215  1
  Cd  Cd18  1  0.509557  0.831613  0.827215  1
  Cd  Cd19  1  0.831613  0.509557  0.827215  1
  Co  Co20  1  0.391934  0.391934  0.389148  1
  Co  Co21  1  0.826984  0.391934  0.389148  1
  Co  Co22  1  0.391934  0.826984  0.389148  1
  Co  Co23  1  0.390928  0.390928  0.827216  1
