# generated using pymatgen
data_Dy13YTh2(CdNi)4
_symmetry_space_group_name_H-M   'P 1'
_cell_length_a   9.60448251
_cell_length_b   9.60448418
_cell_length_c   9.61349900
_cell_angle_alpha   59.96894289
_cell_angle_beta   59.96893712
_cell_angle_gamma   59.94156537
_symmetry_Int_Tables_number   1
_chemical_formula_structural   Dy13YTh2(CdNi)4
_chemical_formula_sum   'Dy13 Y1 Th2 Cd4 Ni4'
_cell_volume   626.49624851
_cell_formula_units_Z   1
loop_
 _symmetry_equiv_pos_site_id
 _symmetry_equiv_pos_as_xyz
  1  'x, y, z'
loop_
 _atom_site_type_symbol
 _atom_site_label
 _atom_site_symmetry_multiplicity
 _atom_site_fract_x
 _atom_site_fract_y
 _atom_site_fract_z
 _atom_site_occupancy
  Dy  Dy0  1  0.598826  0.200641  0.600266  1
  Dy  Dy1  1  0.200641  0.598826  0.600266  1
  Dy  Dy2  1  0.061928  0.439921  0.437600  1
  Dy  Dy3  1  0.439921  0.061928  0.060551  1
  Dy  Dy4  1  0.439921  0.061928  0.437600  1
  Dy  Dy5  1  0.061928  0.439921  0.060551  1
  Dy  Dy6  1  0.438937  0.438937  0.061063  1
  Dy  Dy7  1  0.062125  0.062125  0.437875  1
  Dy  Dy8  1  0.186850  0.814231  0.815897  1
  Dy  Dy9  1  0.814231  0.186850  0.183022  1
  Dy  Dy10  1  0.814231  0.186850  0.815897  1
  Dy  Dy11  1  0.186850  0.814231  0.183022  1
  Dy  Dy12  1  0.814510  0.814510  0.185490  1
  Y  Y13  1  0.185563  0.185563  0.814437  1
  Th  Th14  1  0.593609  0.593609  0.600496  1
  Th  Th15  1  0.593609  0.593609  0.212286  1
  Cd  Cd16  1  0.832463  0.832463  0.830161  1
  Cd  Cd17  1  0.832463  0.832463  0.504912  1
  Cd  Cd18  1  0.833078  0.505306  0.830808  1
  Cd  Cd19  1  0.505306  0.833078  0.830808  1
  Ni  Ni20  1  0.393401  0.393401  0.391391  1
  Ni  Ni21  1  0.393401  0.393401  0.821808  1
  Ni  Ni22  1  0.396603  0.819602  0.391898  1
  Ni  Ni23  1  0.819602  0.396603  0.391898  1
