# generated using pymatgen
data_CaTb3Cr2(SbO7)2
_symmetry_space_group_name_H-M   'P 1'
_cell_length_a   7.33211853
_cell_length_b   7.18720658
_cell_length_c   7.38283100
_cell_angle_alpha   89.99954150
_cell_angle_beta   59.77339195
_cell_angle_gamma   120.18915151
_symmetry_Int_Tables_number   1
_chemical_formula_structural   CaTb3Cr2(SbO7)2
_chemical_formula_sum   'Ca1 Tb3 Cr2 Sb2 O14'
_cell_volume   273.36533975
_cell_formula_units_Z   1
loop_
 _symmetry_equiv_pos_site_id
 _symmetry_equiv_pos_as_xyz
  1  'x, y, z'
loop_
 _atom_site_type_symbol
 _atom_site_label
 _atom_site_symmetry_multiplicity
 _atom_site_fract_x
 _atom_site_fract_y
 _atom_site_fract_z
 _atom_site_occupancy
  Ca  Ca0  1  0.500061  0.499985  0.000067  1
  Tb  Tb1  1  0.499994  0.999972  0.999931  1
  Tb  Tb2  1  0.000227  0.000161  0.499896  1
  Tb  Tb3  1  0.999994  0.999832  0.999900  1
  Cr  Cr4  1  0.499820  0.000007  0.499907  1
  Cr  Cr5  1  0.499948  0.499985  0.500416  1
  Sb  Sb6  1  0.999780  0.500034  0.000108  1
  Sb  Sb7  1  0.000193  0.499963  0.499854  1
  O  O8  1  0.242311  0.115587  0.128744  1
  O  O9  1  0.757698  0.884383  0.871051  1
  O  O10  1  0.650670  0.818780  0.424676  1
  O  O11  1  0.837805  0.416970  0.830998  1
  O  O12  1  0.249121  0.835368  0.833833  1
  O  O13  1  0.248454  0.420595  0.425621  1
  O  O14  1  0.248204  0.420608  0.826405  1
  O  O15  1  0.248963  0.835343  0.416924  1
  O  O16  1  0.349237  0.181353  0.575397  1
  O  O17  1  0.162239  0.582925  0.168792  1
  O  O18  1  0.751108  0.164646  0.165859  1
  O  O19  1  0.751708  0.579416  0.574594  1
  O  O20  1  0.751503  0.579450  0.174123  1
  O  O21  1  0.750966  0.164636  0.582906  1
