# generated using pymatgen
data_Ho3Lu7CoAu3
_symmetry_space_group_name_H-M   'P 1'
_cell_length_a   9.21929700
_cell_length_b   9.21929726
_cell_length_c   9.27739700
_cell_angle_alpha   90.00000000
_cell_angle_beta   90.00000000
_cell_angle_gamma   119.99999547
_symmetry_Int_Tables_number   1
_chemical_formula_structural   Ho3Lu7CoAu3
_chemical_formula_sum   'Ho6 Lu14 Co2 Au6'
_cell_volume   682.89261692
_cell_formula_units_Z   2
loop_
 _symmetry_equiv_pos_site_id
 _symmetry_equiv_pos_as_xyz
  1  'x, y, z'
loop_
 _atom_site_type_symbol
 _atom_site_label
 _atom_site_symmetry_multiplicity
 _atom_site_fract_x
 _atom_site_fract_y
 _atom_site_fract_z
 _atom_site_occupancy
  Ho  Ho0  1  0.541870  0.458130  0.250000  1
  Ho  Ho1  1  0.541870  0.083739  0.250000  1
  Ho  Ho2  1  0.916261  0.458130  0.250000  1
  Ho  Ho3  1  0.458130  0.541870  0.750000  1
  Ho  Ho4  1  0.458130  0.916261  0.750000  1
  Ho  Ho5  1  0.083739  0.541870  0.750000  1
  Lu  Lu6  1  0.000000  0.000000  0.500000  1
  Lu  Lu7  1  0.000000  0.000000  0.000000  1
  Lu  Lu8  1  0.209599  0.790401  0.437534  1
  Lu  Lu9  1  0.209599  0.419198  0.437534  1
  Lu  Lu10  1  0.580802  0.790401  0.437534  1
  Lu  Lu11  1  0.790401  0.209599  0.562466  1
  Lu  Lu12  1  0.790401  0.580802  0.562466  1
  Lu  Lu13  1  0.419198  0.209599  0.562466  1
  Lu  Lu14  1  0.790401  0.209599  0.937534  1
  Lu  Lu15  1  0.790401  0.580802  0.937534  1
  Lu  Lu16  1  0.419198  0.209599  0.937534  1
  Lu  Lu17  1  0.209599  0.790401  0.062466  1
  Lu  Lu18  1  0.209599  0.419198  0.062466  1
  Lu  Lu19  1  0.580802  0.790401  0.062466  1
  Co  Co20  1  0.333333  0.666667  0.250000  1
  Co  Co21  1  0.666667  0.333333  0.750000  1
  Au  Au22  1  0.883066  0.116934  0.250000  1
  Au  Au23  1  0.883066  0.766131  0.250000  1
  Au  Au24  1  0.233869  0.116934  0.250000  1
  Au  Au25  1  0.116934  0.883066  0.750000  1
  Au  Au26  1  0.116934  0.233869  0.750000  1
  Au  Au27  1  0.766131  0.883066  0.750000  1
