# generated using pymatgen
data_LiYLu2(Co4P3)2
_symmetry_space_group_name_H-M   'P 1'
_cell_length_a   3.70094400
_cell_length_b   10.57627400
_cell_length_c   12.16286400
_cell_angle_alpha   90.00000000
_cell_angle_beta   90.00000000
_cell_angle_gamma   90.00000000
_symmetry_Int_Tables_number   1
_chemical_formula_structural   LiYLu2(Co4P3)2
_chemical_formula_sum   'Li2 Y2 Lu4 Co16 P12'
_cell_volume   476.08122853
_cell_formula_units_Z   2
loop_
 _symmetry_equiv_pos_site_id
 _symmetry_equiv_pos_as_xyz
  1  'x, y, z'
loop_
 _atom_site_type_symbol
 _atom_site_label
 _atom_site_symmetry_multiplicity
 _atom_site_fract_x
 _atom_site_fract_y
 _atom_site_fract_z
 _atom_site_occupancy
  Li  Li0  1  0.500000  0.500000  0.152014  1
  Li  Li1  1  0.000000  0.000000  0.847986  1
  Y  Y2  1  0.000000  0.500000  0.522859  1
  Y  Y3  1  0.500000  0.000000  0.477141  1
  Lu  Lu4  1  0.500000  0.820981  0.205665  1
  Lu  Lu5  1  0.500000  0.179019  0.205665  1
  Lu  Lu6  1  0.000000  0.679019  0.794335  1
  Lu  Lu7  1  0.000000  0.320981  0.794335  1
  Co  Co8  1  0.500000  0.500000  0.706320  1
  Co  Co9  1  0.000000  0.000000  0.293680  1
  Co  Co10  1  0.000000  0.500000  0.988027  1
  Co  Co11  1  0.500000  0.000000  0.011973  1
  Co  Co12  1  0.500000  0.332772  0.996845  1
  Co  Co13  1  0.500000  0.667228  0.996845  1
  Co  Co14  1  0.000000  0.167228  0.003155  1
  Co  Co15  1  0.000000  0.832772  0.003155  1
  Co  Co16  1  0.500000  0.296099  0.430508  1
  Co  Co17  1  0.500000  0.703901  0.430508  1
  Co  Co18  1  0.000000  0.203901  0.569492  1
  Co  Co19  1  0.000000  0.796099  0.569492  1
  Co  Co20  1  0.500000  0.877621  0.708060  1
  Co  Co21  1  0.500000  0.122379  0.708060  1
  Co  Co22  1  0.000000  0.622379  0.291940  1
  Co  Co23  1  0.000000  0.377621  0.291940  1
  P  P24  1  0.500000  0.500000  0.885261  1
  P  P25  1  0.000000  0.000000  0.114739  1
  P  P26  1  0.500000  0.500000  0.344853  1
  P  P27  1  0.000000  0.000000  0.655147  1
  P  P28  1  0.500000  0.310211  0.617676  1
  P  P29  1  0.500000  0.689789  0.617676  1
  P  P30  1  0.000000  0.189789  0.382324  1
  P  P31  1  0.000000  0.810211  0.382324  1
  P  P32  1  0.500000  0.841607  0.892376  1
  P  P33  1  0.500000  0.158393  0.892376  1
  P  P34  1  0.000000  0.658393  0.107624  1
  P  P35  1  0.000000  0.341607  0.107624  1
