# generated using pymatgen
data_Li12Ca6TlIn3N
_symmetry_space_group_name_H-M   'P 1'
_cell_length_a   8.88993248
_cell_length_b   8.83936698
_cell_length_c   8.83936609
_cell_angle_alpha   109.35505242
_cell_angle_beta   109.58713894
_cell_angle_gamma   109.58714782
_symmetry_Int_Tables_number   1
_chemical_formula_structural   Li12Ca6TlIn3N
_chemical_formula_sum   'Li12 Ca6 Tl1 In3 N1'
_cell_volume   533.94376691
_cell_formula_units_Z   1
loop_
 _symmetry_equiv_pos_site_id
 _symmetry_equiv_pos_as_xyz
  1  'x, y, z'
loop_
 _atom_site_type_symbol
 _atom_site_label
 _atom_site_symmetry_multiplicity
 _atom_site_fract_x
 _atom_site_fract_y
 _atom_site_fract_z
 _atom_site_occupancy
  Li  Li0  1  0.669190  0.334149  0.334149  1
  Li  Li1  1  0.335043  0.000000  0.665851  1
  Li  Li2  1  0.334712  0.669423  0.334712  1
  Li  Li3  1  0.334712  0.334712  0.669423  1
  Li  Li4  1  0.335043  0.665851  0.000000  1
  Li  Li5  1  0.000000  0.334712  0.665288  1
  Li  Li6  1  0.000000  0.665288  0.334712  1
  Li  Li7  1  0.665288  0.665288  0.330577  1
  Li  Li8  1  0.664957  0.000000  0.334149  1
  Li  Li9  1  0.664957  0.334149  0.000000  1
  Li  Li10  1  0.665288  0.330577  0.665288  1
  Li  Li11  1  0.330810  0.665851  0.665851  1
  Ca  Ca12  1  0.001646  0.239551  0.239551  1
  Ca  Ca13  1  0.237906  0.000000  0.239551  1
  Ca  Ca14  1  0.762094  0.000000  0.760449  1
  Ca  Ca15  1  0.762094  0.760449  0.000000  1
  Ca  Ca16  1  0.237906  0.239551  0.000000  1
  Ca  Ca17  1  0.998354  0.760449  0.760449  1
  Tl  Tl18  1  0.500000  0.000000  0.000000  1
  In  In19  1  0.500000  0.500000  0.500000  1
  In  In20  1  0.000000  0.500000  0.000000  1
  In  In21  1  0.000000  0.000000  0.500000  1
  N  N22  1  0.000000  0.000000  0.000000  1
