# generated using pymatgen
data_TbTh3TlInAu4
_symmetry_space_group_name_H-M   'P 1'
_cell_length_a   8.11150202
_cell_length_b   8.10707380
_cell_length_c   3.91215000
_cell_angle_alpha   90.00000000
_cell_angle_beta   90.00000000
_cell_angle_gamma   89.86958052
_symmetry_Int_Tables_number   1
_chemical_formula_structural   TbTh3TlInAu4
_chemical_formula_sum   'Tb1 Th3 Tl1 In1 Au4'
_cell_volume   257.26445150
_cell_formula_units_Z   1
loop_
 _symmetry_equiv_pos_site_id
 _symmetry_equiv_pos_as_xyz
  1  'x, y, z'
loop_
 _atom_site_type_symbol
 _atom_site_label
 _atom_site_symmetry_multiplicity
 _atom_site_fract_x
 _atom_site_fract_y
 _atom_site_fract_z
 _atom_site_occupancy
  Tb  Tb0  1  0.825231  0.676313  0.500000  1
  Th  Th1  1  0.676895  0.172056  0.500000  1
  Th  Th2  1  0.326363  0.824553  0.500000  1
  Th  Th3  1  0.171243  0.326849  0.500000  1
  Tl  Tl4  1  0.503790  0.501087  0.000000  1
  In  In5  1  0.999086  0.995505  0.000000  1
  Au  Au6  1  0.119993  0.630740  0.000000  1
  Au  Au7  1  0.875039  0.374652  0.000000  1
  Au  Au8  1  0.631026  0.874501  0.000000  1
  Au  Au9  1  0.371333  0.123745  0.000000  1
