# generated using pymatgen
data_Y5Nb3Co16Si11P
_symmetry_space_group_name_H-M   'P 1'
_cell_length_a   12.37929048
_cell_length_b   12.39903576
_cell_length_c   3.79534400
_cell_angle_alpha   90.00000000
_cell_angle_beta   90.00000000
_cell_angle_gamma   120.08122009
_symmetry_Int_Tables_number   1
_chemical_formula_structural   Y5Nb3Co16Si11P
_chemical_formula_sum   'Y5 Nb3 Co16 Si11 P1'
_cell_volume   504.09155583
_cell_formula_units_Z   1
loop_
 _symmetry_equiv_pos_site_id
 _symmetry_equiv_pos_as_xyz
  1  'x, y, z'
loop_
 _atom_site_type_symbol
 _atom_site_label
 _atom_site_symmetry_multiplicity
 _atom_site_fract_x
 _atom_site_fract_y
 _atom_site_fract_z
 _atom_site_occupancy
  Y  Y0  1  0.815225  0.998998  0.500000  1
  Y  Y1  1  0.000037  0.813772  0.500000  1
  Y  Y2  1  0.183784  0.184581  0.500000  1
  Y  Y3  1  0.332822  0.666700  0.000000  1
  Y  Y4  1  0.669689  0.333300  0.000000  1
  Nb  Nb5  1  0.434931  0.000828  0.000000  1
  Nb  Nb6  1  0.998295  0.433118  0.000000  1
  Nb  Nb7  1  0.565239  0.565541  0.000000  1
  Co  Co8  1  0.281308  0.000632  0.500000  1
  Co  Co9  1  0.995965  0.280014  0.500000  1
  Co  Co10  1  0.719449  0.718792  0.500000  1
  Co  Co11  1  0.623691  0.804690  0.000000  1
  Co  Co12  1  0.195961  0.819003  0.000000  1
  Co  Co13  1  0.179218  0.376220  0.000000  1
  Co  Co14  1  0.377287  0.181787  0.000000  1
  Co  Co15  1  0.803926  0.621722  0.000000  1
  Co  Co16  1  0.818999  0.198275  0.000000  1
  Co  Co17  1  0.520820  0.881723  0.500000  1
  Co  Co18  1  0.120423  0.639746  0.500000  1
  Co  Co19  1  0.359552  0.480787  0.500000  1
  Co  Co20  1  0.480517  0.360408  0.500000  1
  Co  Co21  1  0.877577  0.514571  0.500000  1
  Co  Co22  1  0.644577  0.125692  0.500000  1
  Co  Co23  1  0.999956  0.999451  0.000000  1
  Si  Si24  1  0.184849  0.000179  0.000000  1
  Si  Si25  1  0.999233  0.183463  0.000000  1
  Si  Si26  1  0.815680  0.814638  0.000000  1
  Si  Si27  1  0.522477  0.694711  0.500000  1
  Si  Si28  1  0.306375  0.829036  0.500000  1
  Si  Si29  1  0.170623  0.477297  0.500000  1
  Si  Si30  1  0.478382  0.172538  0.500000  1
  Si  Si31  1  0.693682  0.521781  0.500000  1
  Si  Si32  1  0.640475  0.000927  0.000000  1
  Si  Si33  1  0.999993  0.638187  0.000000  1
  Si  Si34  1  0.359532  0.360412  0.000000  1
  P  P35  1  0.829451  0.306479  0.500000  1
