# generated using pymatgen
data_Ba3FeB5PO14
_symmetry_space_group_name_H-M   'P 1'
_cell_length_a   7.20415300
_cell_length_b   8.34289200
_cell_length_c   10.50277700
_cell_angle_alpha   90.00000000
_cell_angle_beta   90.00000000
_cell_angle_gamma   90.00000000
_symmetry_Int_Tables_number   1
_chemical_formula_structural   Ba3FeB5PO14
_chemical_formula_sum   'Ba6 Fe2 B10 P2 O28'
_cell_volume   631.25334686
_cell_formula_units_Z   2
loop_
 _symmetry_equiv_pos_site_id
 _symmetry_equiv_pos_as_xyz
  1  'x, y, z'
loop_
 _atom_site_type_symbol
 _atom_site_label
 _atom_site_symmetry_multiplicity
 _atom_site_fract_x
 _atom_site_fract_y
 _atom_site_fract_z
 _atom_site_occupancy
  Ba  Ba0  1  0.561407  0.437179  0.730758  1
  Ba  Ba1  1  0.561407  0.437179  0.269242  1
  Ba  Ba2  1  0.438593  0.937179  0.769242  1
  Ba  Ba3  1  0.438593  0.937179  0.230758  1
  Ba  Ba4  1  0.973437  0.227747  0.500000  1
  Ba  Ba5  1  0.026563  0.727747  0.000000  1
  Fe  Fe6  1  0.248553  0.328298  0.000000  1
  Fe  Fe7  1  0.751447  0.828298  0.500000  1
  B  B8  1  0.049637  0.428147  0.763714  1
  B  B9  1  0.049637  0.428147  0.236286  1
  B  B10  1  0.950363  0.928147  0.736286  1
  B  B11  1  0.950363  0.928147  0.263714  1
  B  B12  1  0.901493  0.175725  0.877539  1
  B  B13  1  0.901493  0.175725  0.122461  1
  B  B14  1  0.098507  0.675725  0.622461  1
  B  B15  1  0.098507  0.675725  0.377539  1
  B  B16  1  0.599650  0.156010  0.000000  1
  B  B17  1  0.400350  0.656010  0.500000  1
  P  P18  1  0.437660  0.160330  0.500000  1
  P  P19  1  0.562340  0.660330  0.000000  1
  O  O20  1  0.322972  0.199131  0.622590  1
  O  O21  1  0.322972  0.199131  0.377410  1
  O  O22  1  0.677028  0.699131  0.877410  1
  O  O23  1  0.677028  0.699131  0.122590  1
  O  O24  1  0.973633  0.232289  0.000000  1
  O  O25  1  0.026367  0.732289  0.500000  1
  O  O26  1  0.306723  0.657868  0.615476  1
  O  O27  1  0.306723  0.657868  0.384524  1
  O  O28  1  0.693277  0.157868  0.884524  1
  O  O29  1  0.693277  0.157868  0.115476  1
  O  O30  1  0.612139  0.270175  0.500000  1
  O  O31  1  0.387861  0.770175  0.000000  1
  O  O32  1  0.411478  0.135180  0.000000  1
  O  O33  1  0.588522  0.635180  0.500000  1
  O  O34  1  0.484090  0.978691  0.500000  1
  O  O35  1  0.515910  0.478691  0.000000  1
  O  O36  1  0.184834  0.467044  0.846990  1
  O  O37  1  0.184834  0.467044  0.153010  1
  O  O38  1  0.815166  0.967044  0.653010  1
  O  O39  1  0.815166  0.967044  0.346990  1
  O  O40  1  0.930282  0.295560  0.773538  1
  O  O41  1  0.930282  0.295560  0.226462  1
  O  O42  1  0.069718  0.795560  0.726462  1
  O  O43  1  0.069718  0.795560  0.273538  1
  O  O44  1  0.010152  0.519353  0.655062  1
  O  O45  1  0.010152  0.519353  0.344938  1
  O  O46  1  0.989848  0.019353  0.844938  1
  O  O47  1  0.989848  0.019353  0.155062  1
