# generated using pymatgen
data_LaNd(Lu2Rh9)2
_symmetry_space_group_name_H-M   'P 1'
_cell_length_a   5.28243300
_cell_length_b   5.28243310
_cell_length_c   17.46274000
_cell_angle_alpha   90.00000000
_cell_angle_beta   90.00000000
_cell_angle_gamma   120.00000563
_symmetry_Int_Tables_number   1
_chemical_formula_structural   LaNd(Lu2Rh9)2
_chemical_formula_sum   'La1 Nd1 Lu4 Rh18'
_cell_volume   421.99858820
_cell_formula_units_Z   1
loop_
 _symmetry_equiv_pos_site_id
 _symmetry_equiv_pos_as_xyz
  1  'x, y, z'
loop_
 _atom_site_type_symbol
 _atom_site_label
 _atom_site_symmetry_multiplicity
 _atom_site_fract_x
 _atom_site_fract_y
 _atom_site_fract_z
 _atom_site_occupancy
  La  La0  1  0.333333  0.666667  0.750029  1
  Nd  Nd1  1  0.666667  0.333333  0.249983  1
  Lu  Lu2  1  0.333333  0.666667  0.540707  1
  Lu  Lu3  1  0.666667  0.333333  0.040819  1
  Lu  Lu4  1  0.666667  0.333333  0.459161  1
  Lu  Lu5  1  0.333333  0.666667  0.959258  1
  Rh  Rh6  1  0.167781  0.335562  0.123897  1
  Rh  Rh7  1  0.832277  0.664555  0.623430  1
  Rh  Rh8  1  0.664438  0.832219  0.123897  1
  Rh  Rh9  1  0.167781  0.832219  0.123897  1
  Rh  Rh10  1  0.832277  0.167723  0.623430  1
  Rh  Rh11  1  0.335445  0.167723  0.623430  1
  Rh  Rh12  1  0.832279  0.664559  0.876579  1
  Rh  Rh13  1  0.832279  0.167721  0.876579  1
  Rh  Rh14  1  0.335441  0.167721  0.876579  1
  Rh  Rh15  1  0.664418  0.832209  0.376106  1
  Rh  Rh16  1  0.167791  0.832209  0.376106  1
  Rh  Rh17  1  0.167791  0.335582  0.376106  1
  Rh  Rh18  1  0.000000  0.000000  0.250014  1
  Rh  Rh19  1  0.000000  0.000000  0.749964  1
  Rh  Rh20  1  0.333333  0.666667  0.250020  1
  Rh  Rh21  1  0.666667  0.333333  0.749975  1
  Rh  Rh22  1  0.000000  0.000000  0.000079  1
  Rh  Rh23  1  0.000000  0.000000  0.499954  1
