# generated using pymatgen
data_Dy6Al16Os7
_symmetry_space_group_name_H-M   'P 1'
_cell_length_a   8.94909700
_cell_length_b   8.94909638
_cell_length_c   8.94909700
_cell_angle_alpha   119.99999861
_cell_angle_beta   90.00000000
_cell_angle_gamma   119.99999861
_symmetry_Int_Tables_number   1
_chemical_formula_structural   Dy6Al16Os7
_chemical_formula_sum   'Dy6 Al16 Os7'
_cell_volume   506.78369842
_cell_formula_units_Z   1
loop_
 _symmetry_equiv_pos_site_id
 _symmetry_equiv_pos_as_xyz
  1  'x, y, z'
loop_
 _atom_site_type_symbol
 _atom_site_label
 _atom_site_symmetry_multiplicity
 _atom_site_fract_x
 _atom_site_fract_y
 _atom_site_fract_z
 _atom_site_occupancy
  Dy  Dy0  1  0.287626  0.000000  0.287626  1
  Dy  Dy1  1  0.287626  0.575251  0.287626  1
  Dy  Dy2  1  0.712373  0.000000  0.287626  1
  Dy  Dy3  1  0.287626  0.000000  0.712373  1
  Dy  Dy4  1  0.712373  0.000000  0.712373  1
  Dy  Dy5  1  0.712373  0.424748  0.712373  1
  Al  Al6  1  0.332390  0.664780  0.997171  1
  Al  Al7  1  0.879133  0.758268  0.120865  1
  Al  Al8  1  0.362596  0.241730  0.120865  1
  Al  Al9  1  0.879133  0.241730  0.120865  1
  Al  Al10  1  0.667610  0.335219  0.332390  1
  Al  Al11  1  0.997171  0.664780  0.332390  1
  Al  Al12  1  0.667610  0.664780  0.332390  1
  Al  Al13  1  0.120865  0.241730  0.362596  1
  Al  Al14  1  0.879133  0.758268  0.637402  1
  Al  Al15  1  0.002829  0.335219  0.667609  1
  Al  Al16  1  0.332390  0.335219  0.667610  1
  Al  Al17  1  0.332390  0.664780  0.667610  1
  Al  Al18  1  0.120865  0.241730  0.879133  1
  Al  Al19  1  0.120865  0.758268  0.879133  1
  Al  Al20  1  0.637402  0.758268  0.879133  1
  Al  Al21  1  0.667609  0.335219  0.002829  1
  Os  Os22  1  0.000000  0.000000  0.000000  1
  Os  Os23  1  0.500000  0.000000  0.000000  1
  Os  Os24  1  0.000000  0.500000  0.000000  1
  Os  Os25  1  0.500000  0.500000  0.000000  1
  Os  Os26  1  0.000000  0.000000  0.500000  1
  Os  Os27  1  0.000000  0.500000  0.500000  1
  Os  Os28  1  0.500000  0.500000  0.500000  1
