# generated using pymatgen
data_Tb20SnBi7Os4
_symmetry_space_group_name_H-M   'P 1'
_cell_length_a   7.99893151
_cell_length_b   9.06811396
_cell_length_c   12.50914753
_cell_angle_alpha   90.02924353
_cell_angle_beta   90.05914672
_cell_angle_gamma   90.05993990
_symmetry_Int_Tables_number   1
_chemical_formula_structural   Tb20SnBi7Os4
_chemical_formula_sum   'Tb20 Sn1 Bi7 Os4'
_cell_volume   907.35270137
_cell_formula_units_Z   1
loop_
 _symmetry_equiv_pos_site_id
 _symmetry_equiv_pos_as_xyz
  1  'x, y, z'
loop_
 _atom_site_type_symbol
 _atom_site_label
 _atom_site_symmetry_multiplicity
 _atom_site_fract_x
 _atom_site_fract_y
 _atom_site_fract_z
 _atom_site_occupancy
  Tb  Tb0  1  0.839506  0.746116  0.790714  1
  Tb  Tb1  1  0.156836  0.250850  0.206342  1
  Tb  Tb2  1  0.345157  0.253546  0.710356  1
  Tb  Tb3  1  0.657030  0.750563  0.291551  1
  Tb  Tb4  1  0.379212  0.746489  0.695110  1
  Tb  Tb5  1  0.623746  0.249787  0.307742  1
  Tb  Tb6  1  0.870192  0.253332  0.806912  1
  Tb  Tb7  1  0.123682  0.749449  0.192461  1
  Tb  Tb8  1  0.943958  0.750394  0.504126  1
  Tb  Tb9  1  0.057485  0.249783  0.496034  1
  Tb  Tb10  1  0.445940  0.253355  0.993682  1
  Tb  Tb11  1  0.556926  0.746719  0.002242  1
  Tb  Tb12  1  0.675688  0.041004  0.564770  1
  Tb  Tb13  1  0.325310  0.958528  0.436272  1
  Tb  Tb14  1  0.174200  0.960115  0.935174  1
  Tb  Tb15  1  0.325570  0.540674  0.435761  1
  Tb  Tb16  1  0.823530  0.040024  0.063998  1
  Tb  Tb17  1  0.673578  0.459724  0.568865  1
  Tb  Tb18  1  0.823944  0.459031  0.062106  1
  Tb  Tb19  1  0.178279  0.539790  0.934813  1
  Sn  Sn20  1  0.569834  0.494489  0.829488  1
  Bi  Bi21  1  0.430031  0.506470  0.173147  1
  Bi  Bi22  1  0.070658  0.506277  0.671190  1
  Bi  Bi23  1  0.429217  0.993839  0.170814  1
  Bi  Bi24  1  0.929485  0.493414  0.328153  1
  Bi  Bi25  1  0.570118  0.005829  0.828321  1
  Bi  Bi26  1  0.930392  0.006841  0.327624  1
  Bi  Bi27  1  0.070256  0.994053  0.672833  1
  Os  Os28  1  0.576055  0.750003  0.510689  1
  Os  Os29  1  0.424731  0.249699  0.490575  1
  Os  Os30  1  0.073722  0.249771  0.988602  1
  Os  Os31  1  0.925729  0.750043  0.009535  1
