# generated using pymatgen
data_YSi2Ir2Rh
_symmetry_space_group_name_H-M   'P 1'
_cell_length_a   6.64660285
_cell_length_b   6.64660172
_cell_length_c   6.64660254
_cell_angle_alpha   130.16818348
_cell_angle_beta   114.25701870
_cell_angle_gamma   86.79757255
_symmetry_Int_Tables_number   1
_chemical_formula_structural   YSi2Ir2Rh
_chemical_formula_sum   'Y2 Si4 Ir4 Rh2'
_cell_volume   195.13351707
_cell_formula_units_Z   2
loop_
 _symmetry_equiv_pos_site_id
 _symmetry_equiv_pos_as_xyz
  1  'x, y, z'
loop_
 _atom_site_type_symbol
 _atom_site_label
 _atom_site_symmetry_multiplicity
 _atom_site_fract_x
 _atom_site_fract_y
 _atom_site_fract_z
 _atom_site_occupancy
  Y  Y0  1  0.250000  0.536289  0.286289  1
  Y  Y1  1  0.750000  0.463711  0.713711  1
  Si  Si2  1  0.078463  0.882949  0.804486  1
  Si  Si3  1  0.921537  0.117051  0.195514  1
  Si  Si4  1  0.578463  0.773978  0.195514  1
  Si  Si5  1  0.421537  0.226022  0.804486  1
  Ir  Ir6  1  0.716266  0.000000  0.716266  1
  Ir  Ir7  1  0.216266  0.500000  0.716266  1
  Ir  Ir8  1  0.283734  0.000000  0.283734  1
  Ir  Ir9  1  0.783734  0.500000  0.283734  1
  Rh  Rh10  1  0.000000  0.000000  0.500000  1
  Rh  Rh11  1  0.500000  0.000000  0.000000  1
