# generated using pymatgen
data_U2Sb4PdAu
_symmetry_space_group_name_H-M   'P 1'
_cell_length_a   4.39299900
_cell_length_b   4.38968400
_cell_length_c   9.80484000
_cell_angle_alpha   90.00000000
_cell_angle_beta   90.00000000
_cell_angle_gamma   90.00000000
_symmetry_Int_Tables_number   1
_chemical_formula_structural   U2Sb4PdAu
_chemical_formula_sum   'U2 Sb4 Pd1 Au1'
_cell_volume   189.07533271
_cell_formula_units_Z   1
loop_
 _symmetry_equiv_pos_site_id
 _symmetry_equiv_pos_as_xyz
  1  'x, y, z'
loop_
 _atom_site_type_symbol
 _atom_site_label
 _atom_site_symmetry_multiplicity
 _atom_site_fract_x
 _atom_site_fract_y
 _atom_site_fract_z
 _atom_site_occupancy
  U  U0  1  0.000000  0.500000  0.750863  1
  U  U1  1  0.500000  0.000000  0.249101  1
  Sb  Sb2  1  0.000000  0.500000  0.314130  1
  Sb  Sb3  1  0.500000  0.000000  0.685831  1
  Sb  Sb4  1  0.000000  0.000000  0.000037  1
  Sb  Sb5  1  0.500000  0.500000  0.000046  1
  Pd  Pd6  1  0.500000  0.500000  0.500012  1
  Au  Au7  1  0.000000  0.000000  0.499980  1
