# generated using pymatgen
data_Ca2Ga(SiPd2)6
_symmetry_space_group_name_H-M   'P 1'
_cell_length_a   10.07644300
_cell_length_b   10.07644135
_cell_length_c   3.91083400
_cell_angle_alpha   90.00000000
_cell_angle_beta   90.00000000
_cell_angle_gamma   120.00000214
_symmetry_Int_Tables_number   1
_chemical_formula_structural   Ca2Ga(SiPd2)6
_chemical_formula_sum   'Ca2 Ga1 Si6 Pd12'
_cell_volume   343.88595479
_cell_formula_units_Z   1
loop_
 _symmetry_equiv_pos_site_id
 _symmetry_equiv_pos_as_xyz
  1  'x, y, z'
loop_
 _atom_site_type_symbol
 _atom_site_label
 _atom_site_symmetry_multiplicity
 _atom_site_fract_x
 _atom_site_fract_y
 _atom_site_fract_z
 _atom_site_occupancy
  Ca  Ca0  1  0.666667  0.333333  0.247522  1
  Ca  Ca1  1  0.000000  0.000000  0.751277  1
  Ga  Ga2  1  0.333333  0.666667  0.463235  1
  Si  Si3  1  0.737527  0.782175  0.251167  1
  Si  Si4  1  0.044649  0.262473  0.251167  1
  Si  Si5  1  0.217825  0.955351  0.251167  1
  Si  Si6  1  0.929203  0.552201  0.747527  1
  Si  Si7  1  0.622998  0.070797  0.747527  1
  Si  Si8  1  0.447799  0.377002  0.747527  1
  Pd  Pd9  1  0.776651  0.047852  0.250206  1
  Pd  Pd10  1  0.271201  0.223349  0.250206  1
  Pd  Pd11  1  0.952148  0.728799  0.250206  1
  Pd  Pd12  1  0.890142  0.284161  0.748693  1
  Pd  Pd13  1  0.394020  0.109858  0.748693  1
  Pd  Pd14  1  0.715839  0.605980  0.748693  1
  Pd  Pd15  1  0.486682  0.547973  0.245720  1
  Pd  Pd16  1  0.061292  0.513318  0.245720  1
  Pd  Pd17  1  0.452027  0.938708  0.245720  1
  Pd  Pd18  1  0.183849  0.782099  0.753181  1
  Pd  Pd19  1  0.598250  0.816151  0.753181  1
  Pd  Pd20  1  0.217901  0.401750  0.753181  1
