# generated using pymatgen
data_Dy3Rh2Pb3Au
_symmetry_space_group_name_H-M   'P 1'
_cell_length_a   7.88991000
_cell_length_b   7.88991080
_cell_length_c   3.83022700
_cell_angle_alpha   90.00000000
_cell_angle_beta   90.00000000
_cell_angle_gamma   119.99998824
_symmetry_Int_Tables_number   1
_chemical_formula_structural   Dy3Rh2Pb3Au
_chemical_formula_sum   'Dy3 Rh2 Pb3 Au1'
_cell_volume   206.49014979
_cell_formula_units_Z   1
loop_
 _symmetry_equiv_pos_site_id
 _symmetry_equiv_pos_as_xyz
  1  'x, y, z'
loop_
 _atom_site_type_symbol
 _atom_site_label
 _atom_site_symmetry_multiplicity
 _atom_site_fract_x
 _atom_site_fract_y
 _atom_site_fract_z
 _atom_site_occupancy
  Dy  Dy0  1  0.017328  0.606542  0.500000  1
  Dy  Dy1  1  0.589214  0.982672  0.500000  1
  Dy  Dy2  1  0.393458  0.410786  0.500000  1
  Rh  Rh3  1  0.000000  0.000000  0.500000  1
  Rh  Rh4  1  0.333333  0.666667  0.000000  1
  Pb  Pb5  1  0.001352  0.261958  0.000000  1
  Pb  Pb6  1  0.260605  0.998648  0.000000  1
  Pb  Pb7  1  0.738042  0.739395  0.000000  1
  Au  Au8  1  0.666667  0.333333  0.000000  1
