# generated using pymatgen
data_Ho5Er13(TmPt8)2
_symmetry_space_group_name_H-M   'P 1'
_cell_length_a   7.42242327
_cell_length_b   7.50656301
_cell_length_c   14.64871017
_cell_angle_alpha   90.00930504
_cell_angle_beta   90.01048436
_cell_angle_gamma   89.98945859
_symmetry_Int_Tables_number   1
_chemical_formula_structural   Ho5Er13(TmPt8)2
_chemical_formula_sum   'Ho5 Er13 Tm2 Pt16'
_cell_volume   816.18050514
_cell_formula_units_Z   1
loop_
 _symmetry_equiv_pos_site_id
 _symmetry_equiv_pos_as_xyz
  1  'x, y, z'
loop_
 _atom_site_type_symbol
 _atom_site_label
 _atom_site_symmetry_multiplicity
 _atom_site_fract_x
 _atom_site_fract_y
 _atom_site_fract_z
 _atom_site_occupancy
  Ho  Ho0  1  0.998748  0.179369  0.406817  1
  Ho  Ho1  1  0.498893  0.321260  0.407201  1
  Ho  Ho2  1  0.998773  0.178904  0.092735  1
  Ho  Ho3  1  0.501076  0.679028  0.907496  1
  Ho  Ho4  1  0.001312  0.820522  0.592691  1
  Er  Er5  1  0.656071  0.167445  0.622423  1
  Er  Er6  1  0.156070  0.332674  0.877660  1
  Er  Er7  1  0.343958  0.832635  0.122437  1
  Er  Er8  1  0.843940  0.667366  0.377372  1
  Er  Er9  1  0.344560  0.832163  0.377604  1
  Er  Er10  1  0.844094  0.667617  0.122108  1
  Er  Er11  1  0.655933  0.167483  0.877915  1
  Er  Er12  1  0.156285  0.332655  0.622235  1
  Er  Er13  1  0.501516  0.679856  0.593039  1
  Er  Er14  1  0.001541  0.820159  0.907019  1
  Er  Er15  1  0.498429  0.320129  0.093100  1
  Er  Er16  1  0.818979  0.510802  0.750055  1
  Er  Er17  1  0.318949  0.989124  0.750120  1
  Tm  Tm18  1  0.180950  0.489257  0.249753  1
  Tm  Tm19  1  0.681070  0.010802  0.249861  1
  Pt  Pt20  1  0.684321  0.966704  0.458322  1
  Pt  Pt21  1  0.185274  0.532877  0.041790  1
  Pt  Pt22  1  0.314689  0.032893  0.958418  1
  Pt  Pt23  1  0.814754  0.467541  0.541704  1
  Pt  Pt24  1  0.315938  0.032381  0.541945  1
  Pt  Pt25  1  0.815919  0.467171  0.958310  1
  Pt  Pt26  1  0.683934  0.967326  0.041921  1
  Pt  Pt27  1  0.184271  0.533512  0.458469  1
  Pt  Pt28  1  0.453229  0.387011  0.749954  1
  Pt  Pt29  1  0.953200  0.113150  0.750139  1
  Pt  Pt30  1  0.546214  0.613141  0.249729  1
  Pt  Pt31  1  0.046511  0.886650  0.250009  1
  Pt  Pt32  1  0.681077  0.855634  0.749978  1
  Pt  Pt33  1  0.181027  0.644379  0.750261  1
  Pt  Pt34  1  0.319577  0.144914  0.249720  1
  Pt  Pt35  1  0.818918  0.355471  0.249687  1
