# generated using pymatgen
data_Tb7Tm13Si15P
_symmetry_space_group_name_H-M   'P 1'
_cell_length_a   7.58555034
_cell_length_b   7.53998742
_cell_length_c   13.94197500
_cell_angle_alpha   90.43262596
_cell_angle_beta   89.37497641
_cell_angle_gamma   90.24529517
_symmetry_Int_Tables_number   1
_chemical_formula_structural   Tb7Tm13Si15P
_chemical_formula_sum   'Tb7 Tm13 Si15 P1'
_cell_volume   797.33341428
_cell_formula_units_Z   1
loop_
 _symmetry_equiv_pos_site_id
 _symmetry_equiv_pos_as_xyz
  1  'x, y, z'
loop_
 _atom_site_type_symbol
 _atom_site_label
 _atom_site_symmetry_multiplicity
 _atom_site_fract_x
 _atom_site_fract_y
 _atom_site_fract_z
 _atom_site_occupancy
  Tb  Tb0  1  0.007033  0.360619  0.539101  1
  Tb  Tb1  1  0.646971  0.994627  0.960412  1
  Tb  Tb2  1  0.147003  0.508490  0.789225  1
  Tb  Tb3  1  0.851051  0.491597  0.288513  1
  Tb  Tb4  1  0.505051  0.142468  0.209320  1
  Tb  Tb5  1  0.498094  0.860028  0.711779  1
  Tb  Tb6  1  0.354751  0.003042  0.460068  1
  Tm  Tm7  1  0.348007  0.498214  0.381484  1
  Tm  Tm8  1  0.854977  0.003740  0.371731  1
  Tm  Tm9  1  0.993946  0.141190  0.125140  1
  Tm  Tm10  1  0.013475  0.856730  0.619587  1
  Tm  Tm11  1  0.644452  0.509759  0.877640  1
  Tm  Tm12  1  0.497813  0.353734  0.625026  1
  Tm  Tm13  1  0.506557  0.642141  0.123638  1
  Tm  Tm14  1  0.140756  0.992558  0.874545  1
  Tm  Tm15  1  0.998006  0.641183  0.041978  1
  Tm  Tm16  1  0.677210  0.680607  0.500272  1
  Tm  Tm17  1  0.822300  0.181680  0.750045  1
  Tm  Tm18  1  0.176812  0.817131  0.250105  1
  Tm  Tm19  1  0.320560  0.319540  0.000413  1
  Si  Si20  1  0.944507  0.296312  0.938514  1
  Si  Si21  1  0.709204  0.058141  0.560669  1
  Si  Si22  1  0.204701  0.441688  0.188828  1
  Si  Si23  1  0.799933  0.558311  0.687505  1
  Si  Si24  1  0.444058  0.208056  0.813217  1
  Si  Si25  1  0.550538  0.793372  0.312831  1
  Si  Si26  1  0.295251  0.941394  0.062628  1
  Si  Si27  1  0.850919  0.797321  0.811067  1
  Si  Si28  1  0.149625  0.202588  0.316127  1
  Si  Si29  1  0.796848  0.847860  0.181306  1
  Si  Si30  1  0.309488  0.648191  0.577105  1
  Si  Si31  1  0.705780  0.349964  0.065551  1
  Si  Si32  1  0.647972  0.296850  0.433995  1
  Si  Si33  1  0.348837  0.705518  0.936649  1
  Si  Si34  1  0.202917  0.152616  0.685557  1
  P  P35  1  0.034595  0.702737  0.428435  1
