# generated using pymatgen
data_Y3NbIn2Ir3
_symmetry_space_group_name_H-M   'P 1'
_cell_length_a   7.34818027
_cell_length_b   7.06900789
_cell_length_c   4.27226300
_cell_angle_alpha   90.00000000
_cell_angle_beta   90.00000000
_cell_angle_gamma   118.75098683
_symmetry_Int_Tables_number   1
_chemical_formula_structural   Y3NbIn2Ir3
_chemical_formula_sum   'Y3 Nb1 In2 Ir3'
_cell_volume   194.56127590
_cell_formula_units_Z   1
loop_
 _symmetry_equiv_pos_site_id
 _symmetry_equiv_pos_as_xyz
  1  'x, y, z'
loop_
 _atom_site_type_symbol
 _atom_site_label
 _atom_site_symmetry_multiplicity
 _atom_site_fract_x
 _atom_site_fract_y
 _atom_site_fract_z
 _atom_site_occupancy
  Y  Y0  1  0.587945  0.587116  0.000000  1
  Y  Y1  1  0.412055  0.999170  0.000000  1
  Y  Y2  1  0.000000  0.401725  0.000000  1
  Nb  Nb3  1  0.000000  0.753520  0.500000  1
  In  In4  1  0.250215  0.250785  0.500000  1
  In  In5  1  0.749785  0.000570  0.500000  1
  Ir  Ir6  1  0.000000  0.963226  0.000000  1
  Ir  Ir7  1  0.687271  0.365579  0.500000  1
  Ir  Ir8  1  0.312729  0.678310  0.500000  1
