# generated using pymatgen
data_Nd10SnBi5C2
_symmetry_space_group_name_H-M   'P 1'
_cell_length_a   9.42050998
_cell_length_b   9.41041326
_cell_length_c   6.74442900
_cell_angle_alpha   90.00000000
_cell_angle_beta   90.00000000
_cell_angle_gamma   119.96454808
_symmetry_Int_Tables_number   1
_chemical_formula_structural   Nd10SnBi5C2
_chemical_formula_sum   'Nd10 Sn1 Bi5 C2'
_cell_volume   517.98116030
_cell_formula_units_Z   1
loop_
 _symmetry_equiv_pos_site_id
 _symmetry_equiv_pos_as_xyz
  1  'x, y, z'
loop_
 _atom_site_type_symbol
 _atom_site_label
 _atom_site_symmetry_multiplicity
 _atom_site_fract_x
 _atom_site_fract_y
 _atom_site_fract_z
 _atom_site_occupancy
  Nd  Nd0  1  0.670600  0.334136  0.501779  1
  Nd  Nd1  1  0.329400  0.663537  0.501779  1
  Nd  Nd2  1  0.329400  0.663537  0.998221  1
  Nd  Nd3  1  0.670600  0.334136  0.998221  1
  Nd  Nd4  1  0.788742  0.789314  0.250000  1
  Nd  Nd5  1  0.211258  0.000572  0.250000  1
  Nd  Nd6  1  0.000000  0.213867  0.250000  1
  Nd  Nd7  1  0.209686  0.213304  0.750000  1
  Nd  Nd8  1  0.790314  0.003618  0.750000  1
  Nd  Nd9  1  0.000000  0.787412  0.750000  1
  Sn  Sn10  1  0.000000  0.403435  0.750000  1
  Bi  Bi11  1  0.402455  0.401587  0.250000  1
  Bi  Bi12  1  0.597545  0.999132  0.250000  1
  Bi  Bi13  1  0.000000  0.597121  0.250000  1
  Bi  Bi14  1  0.597614  0.597872  0.750000  1
  Bi  Bi15  1  0.402386  0.000258  0.750000  1
  C  C16  1  0.000000  0.998581  0.499175  1
  C  C17  1  0.000000  0.998581  0.000825  1
