# generated using pymatgen
data_Zr6Al16Cu2Tc4Rh
_symmetry_space_group_name_H-M   'P 1'
_cell_length_a   8.71490749
_cell_length_b   8.71472366
_cell_length_c   8.91436500
_cell_angle_alpha   59.24004086
_cell_angle_beta   59.23735584
_cell_angle_gamma   61.52038422
_symmetry_Int_Tables_number   1
_chemical_formula_structural   Zr6Al16Cu2Tc4Rh
_chemical_formula_sum   'Zr6 Al16 Cu2 Tc4 Rh1'
_cell_volume   478.20918125
_cell_formula_units_Z   1
loop_
 _symmetry_equiv_pos_site_id
 _symmetry_equiv_pos_as_xyz
  1  'x, y, z'
loop_
 _atom_site_type_symbol
 _atom_site_label
 _atom_site_symmetry_multiplicity
 _atom_site_fract_x
 _atom_site_fract_y
 _atom_site_fract_z
 _atom_site_occupancy
  Zr  Zr0  1  0.682599  0.682578  0.317351  1
  Zr  Zr1  1  0.284307  0.715743  0.284254  1
  Zr  Zr2  1  0.715762  0.284313  0.284238  1
  Zr  Zr3  1  0.317401  0.317422  0.682649  1
  Zr  Zr4  1  0.715693  0.284257  0.715746  1
  Zr  Zr5  1  0.284238  0.715687  0.715762  1
  Al  Al6  1  0.874518  0.874516  0.360294  1
  Al  Al7  1  0.890652  0.360343  0.874496  1
  Al  Al8  1  0.360331  0.890657  0.874498  1
  Al  Al9  1  0.874502  0.874492  0.890630  1
  Al  Al10  1  0.125482  0.125484  0.639706  1
  Al  Al11  1  0.109348  0.639657  0.125504  1
  Al  Al12  1  0.639669  0.109343  0.125502  1
  Al  Al13  1  0.125498  0.125508  0.109370  1
  Al  Al14  1  0.660756  0.660745  0.011994  1
  Al  Al15  1  0.666496  0.012069  0.660740  1
  Al  Al16  1  0.012052  0.666493  0.660745  1
  Al  Al17  1  0.660703  0.660690  0.666493  1
  Al  Al18  1  0.339244  0.339255  0.988006  1
  Al  Al19  1  0.333504  0.987931  0.339260  1
  Al  Al20  1  0.987948  0.333507  0.339255  1
  Al  Al21  1  0.339297  0.339310  0.333507  1
  Cu  Cu22  1  0.000000  0.000000  0.500000  1
  Cu  Cu23  1  0.500000  0.500000  0.000000  1
  Tc  Tc24  1  0.500000  0.000000  0.500000  1
  Tc  Tc25  1  0.000000  0.500000  0.500000  1
  Tc  Tc26  1  0.000000  0.500000  0.000000  1
  Tc  Tc27  1  0.500000  0.000000  0.000000  1
  Rh  Rh28  1  0.000000  0.000000  0.000000  1
