# generated using pymatgen
data_ZnBiIr4(PbO7)2
_symmetry_space_group_name_H-M   'P 1'
_cell_length_a   7.37035642
_cell_length_b   7.23461110
_cell_length_c   7.37035729
_cell_angle_alpha   59.28235247
_cell_angle_beta   59.84520914
_cell_angle_gamma   59.28235482
_symmetry_Int_Tables_number   1
_chemical_formula_structural   ZnBiIr4(PbO7)2
_chemical_formula_sum   'Zn1 Bi1 Ir4 Pb2 O14'
_cell_volume   274.52433650
_cell_formula_units_Z   1
loop_
 _symmetry_equiv_pos_site_id
 _symmetry_equiv_pos_as_xyz
  1  'x, y, z'
loop_
 _atom_site_type_symbol
 _atom_site_label
 _atom_site_symmetry_multiplicity
 _atom_site_fract_x
 _atom_site_fract_y
 _atom_site_fract_z
 _atom_site_occupancy
  Zn  Zn0  1  0.125000  0.625000  0.125000  1
  Bi  Bi1  1  0.125000  0.125000  0.125000  1
  Ir  Ir2  1  0.125000  0.625000  0.625000  1
  Ir  Ir3  1  0.625000  0.125000  0.625000  1
  Ir  Ir4  1  0.625000  0.625000  0.125000  1
  Ir  Ir5  1  0.625000  0.625000  0.625000  1
  Pb  Pb6  1  0.625000  0.125000  0.125000  1
  Pb  Pb7  1  0.125000  0.125000  0.625000  1
  O  O8  1  0.693831  0.705629  0.300229  1
  O  O9  1  0.295507  0.291330  0.707773  1
  O  O10  1  0.706261  0.291300  0.706261  1
  O  O11  1  0.299368  0.706432  0.299368  1
  O  O12  1  0.300229  0.705629  0.693831  1
  O  O13  1  0.707773  0.291330  0.295507  1
  O  O14  1  0.556169  0.544371  0.949771  1
  O  O15  1  0.954493  0.958670  0.542227  1
  O  O16  1  0.543739  0.958700  0.543739  1
  O  O17  1  0.950632  0.543568  0.950632  1
  O  O18  1  0.949771  0.544371  0.556169  1
  O  O19  1  0.542227  0.958670  0.954493  1
  O  O20  1  0.230182  0.298807  0.230182  1
  O  O21  1  0.019818  0.951193  0.019818  1
