# generated using pymatgen
data_Sc22Tc3Ir2Rh3
_symmetry_space_group_name_H-M   'P 1'
_cell_length_a   9.50630860
_cell_length_b   9.48212194
_cell_length_c   9.50828272
_cell_angle_alpha   60.07739447
_cell_angle_beta   60.09223256
_cell_angle_gamma   60.09865085
_symmetry_Int_Tables_number   1
_chemical_formula_structural   Sc22Tc3Ir2Rh3
_chemical_formula_sum   'Sc22 Tc3 Ir2 Rh3'
_cell_volume   607.27254978
_cell_formula_units_Z   1
loop_
 _symmetry_equiv_pos_site_id
 _symmetry_equiv_pos_as_xyz
  1  'x, y, z'
loop_
 _atom_site_type_symbol
 _atom_site_label
 _atom_site_symmetry_multiplicity
 _atom_site_fract_x
 _atom_site_fract_y
 _atom_site_fract_z
 _atom_site_occupancy
  Sc  Sc0  1  0.802538  0.803899  0.197465  1
  Sc  Sc1  1  0.196567  0.803432  0.196578  1
  Sc  Sc2  1  0.802951  0.195827  0.197053  1
  Sc  Sc3  1  0.197462  0.196101  0.802535  1
  Sc  Sc4  1  0.803433  0.196568  0.803422  1
  Sc  Sc5  1  0.197049  0.804173  0.802947  1
  Sc  Sc6  1  0.614873  0.619800  0.150142  1
  Sc  Sc7  1  0.614312  0.149347  0.619055  1
  Sc  Sc8  1  0.150139  0.615189  0.614873  1
  Sc  Sc9  1  0.619046  0.617293  0.614316  1
  Sc  Sc10  1  0.385127  0.380200  0.849858  1
  Sc  Sc11  1  0.385688  0.850653  0.380945  1
  Sc  Sc12  1  0.849861  0.384811  0.385127  1
  Sc  Sc13  1  0.380954  0.382707  0.385684  1
  Sc  Sc14  1  0.843113  0.843400  0.469661  1
  Sc  Sc15  1  0.843585  0.469754  0.843087  1
  Sc  Sc16  1  0.469660  0.843843  0.843117  1
  Sc  Sc17  1  0.843072  0.843574  0.843594  1
  Sc  Sc18  1  0.156887  0.156600  0.530339  1
  Sc  Sc19  1  0.156415  0.530246  0.156913  1
  Sc  Sc20  1  0.530340  0.156157  0.156883  1
  Sc  Sc21  1  0.156928  0.156426  0.156406  1
  Tc  Tc22  1  0.000000  0.000000  0.000000  1
  Tc  Tc23  1  0.000000  0.500000  0.500000  1
  Tc  Tc24  1  0.500000  0.000000  0.000000  1
  Ir  Ir25  1  0.500000  0.500000  0.500000  1
  Ir  Ir26  1  0.500000  0.000000  0.500000  1
  Rh  Rh27  1  0.000000  0.000000  0.500000  1
  Rh  Rh28  1  0.500000  0.500000  0.000000  1
  Rh  Rh29  1  0.000000  0.500000  0.000000  1
