# generated using pymatgen
data_GdThCCl
_symmetry_space_group_name_H-M   'P 1'
_cell_length_a   7.55119886
_cell_length_b   7.55119895
_cell_length_c   7.55119967
_cell_angle_alpha   28.20188649
_cell_angle_beta   28.20188471
_cell_angle_gamma   28.20188298
_symmetry_Int_Tables_number   1
_chemical_formula_structural   GdThCCl
_chemical_formula_sum   'Gd1 Th1 C1 Cl1'
_cell_volume   84.95713104
_cell_formula_units_Z   1
loop_
 _symmetry_equiv_pos_site_id
 _symmetry_equiv_pos_as_xyz
  1  'x, y, z'
loop_
 _atom_site_type_symbol
 _atom_site_label
 _atom_site_symmetry_multiplicity
 _atom_site_fract_x
 _atom_site_fract_y
 _atom_site_fract_z
 _atom_site_occupancy
  Gd  Gd0  1  0.229798  0.229798  0.229798  1
  Th  Th1  1  0.771531  0.771531  0.771531  1
  C  C2  1  0.503801  0.503801  0.503801  1
  Cl  Cl3  1  0.994871  0.994871  0.994871  1
