# generated using pymatgen
data_LaEu3P4IrRh3
_symmetry_space_group_name_H-M   'P 1'
_cell_length_a   6.28081553
_cell_length_b   6.27528850
_cell_length_c   6.27557262
_cell_angle_alpha   89.92070761
_cell_angle_beta   89.90031235
_cell_angle_gamma   90.07584211
_symmetry_Int_Tables_number   1
_chemical_formula_structural   LaEu3P4IrRh3
_chemical_formula_sum   'La1 Eu3 P4 Ir1 Rh3'
_cell_volume   247.34414836
_cell_formula_units_Z   1
loop_
 _symmetry_equiv_pos_site_id
 _symmetry_equiv_pos_as_xyz
  1  'x, y, z'
loop_
 _atom_site_type_symbol
 _atom_site_label
 _atom_site_symmetry_multiplicity
 _atom_site_fract_x
 _atom_site_fract_y
 _atom_site_fract_z
 _atom_site_occupancy
  La  La0  1  0.396009  0.892683  0.604644  1
  Eu  Eu1  1  0.894601  0.601837  0.396124  1
  Eu  Eu2  1  0.604511  0.396317  0.896253  1
  Eu  Eu3  1  0.102211  0.104916  0.104534  1
  P  P4  1  0.673754  0.174044  0.326527  1
  P  P5  1  0.174088  0.328085  0.674100  1
  P  P6  1  0.325793  0.674112  0.171825  1
  P  P7  1  0.827225  0.825285  0.825566  1
  Ir  Ir8  1  0.416171  0.417571  0.416588  1
  Rh  Rh9  1  0.084484  0.584501  0.916220  1
  Rh  Rh10  1  0.583668  0.916439  0.083473  1
  Rh  Rh11  1  0.917486  0.084210  0.584145  1
