# generated using pymatgen
data_Tb2Er3(In2Ir)2
_symmetry_space_group_name_H-M   'P 1'
_cell_length_a   3.65162400
_cell_length_b   7.99535511
_cell_length_c   18.21769000
_cell_angle_alpha   89.71184857
_cell_angle_beta   90.00000000
_cell_angle_gamma   90.00000000
_symmetry_Int_Tables_number   1
_chemical_formula_structural   Tb2Er3(In2Ir)2
_chemical_formula_sum   'Tb4 Er6 In8 Ir4'
_cell_volume   531.87750859
_cell_formula_units_Z   2
loop_
 _symmetry_equiv_pos_site_id
 _symmetry_equiv_pos_as_xyz
  1  'x, y, z'
loop_
 _atom_site_type_symbol
 _atom_site_label
 _atom_site_symmetry_multiplicity
 _atom_site_fract_x
 _atom_site_fract_y
 _atom_site_fract_z
 _atom_site_occupancy
  Tb  Tb0  1  0.000000  0.500000  0.500000  1
  Tb  Tb1  1  0.000000  0.000000  0.000000  1
  Tb  Tb2  1  0.000000  0.741300  0.278832  1
  Tb  Tb3  1  0.000000  0.258700  0.721168  1
  Er  Er4  1  0.000000  0.758531  0.778267  1
  Er  Er5  1  0.000000  0.241469  0.221733  1
  Er  Er6  1  0.000000  0.613353  0.089250  1
  Er  Er7  1  0.000000  0.386647  0.910750  1
  Er  Er8  1  0.000000  0.885454  0.588954  1
  Er  Er9  1  0.000000  0.114546  0.411046  1
  In  In10  1  0.500000  0.707777  0.932443  1
  In  In11  1  0.500000  0.292223  0.067557  1
  In  In12  1  0.500000  0.793766  0.432634  1
  In  In13  1  0.500000  0.206234  0.567366  1
  In  In14  1  0.500000  0.577870  0.649967  1
  In  In15  1  0.500000  0.422130  0.350033  1
  In  In16  1  0.500000  0.924965  0.150019  1
  In  In17  1  0.500000  0.075035  0.849981  1
  Ir  Ir18  1  0.500000  0.515084  0.194719  1
  Ir  Ir19  1  0.500000  0.484916  0.805281  1
  Ir  Ir20  1  0.500000  0.977414  0.695394  1
  Ir  Ir21  1  0.500000  0.022586  0.304606  1
