# generated using pymatgen
data_TbY3U2O12
_symmetry_space_group_name_H-M   'P 1'
_cell_length_a   6.52187587
_cell_length_b   6.52187403
_cell_length_c   6.67147010
_cell_angle_alpha   80.63658471
_cell_angle_beta   80.63658199
_cell_angle_gamma   120.61221515
_symmetry_Int_Tables_number   1
_chemical_formula_structural   TbY3U2O12
_chemical_formula_sum   'Tb1 Y3 U2 O12'
_cell_volume   230.67405715
_cell_formula_units_Z   1
loop_
 _symmetry_equiv_pos_site_id
 _symmetry_equiv_pos_as_xyz
  1  'x, y, z'
loop_
 _atom_site_type_symbol
 _atom_site_label
 _atom_site_symmetry_multiplicity
 _atom_site_fract_x
 _atom_site_fract_y
 _atom_site_fract_z
 _atom_site_occupancy
  Tb  Tb0  1  0.915061  0.084939  0.750000  1
  Y  Y1  1  0.249947  0.750053  0.750000  1
  Y  Y2  1  0.085031  0.914969  0.250000  1
  Y  Y3  1  0.750021  0.249979  0.250000  1
  U  U4  1  0.585671  0.414329  0.750000  1
  U  U5  1  0.414360  0.585640  0.250000  1
  O  O6  1  0.932949  0.769782  0.628373  1
  O  O7  1  0.626921  0.142479  0.625424  1
  O  O8  1  0.689229  0.534975  0.379814  1
  O  O9  1  0.465025  0.310771  0.120186  1
  O  O10  1  0.311125  0.465306  0.620009  1
  O  O11  1  0.142325  0.627244  0.125515  1
  O  O12  1  0.372756  0.857675  0.374485  1
  O  O13  1  0.230218  0.067051  0.871627  1
  O  O14  1  0.067065  0.229918  0.371257  1
  O  O15  1  0.770082  0.932935  0.128743  1
  O  O16  1  0.857521  0.373079  0.874576  1
  O  O17  1  0.534694  0.688875  0.879991  1
