# generated using pymatgen
data_Tm2AlRuRh
_symmetry_space_group_name_H-M   'P 1'
_cell_length_a   5.48491991
_cell_length_b   5.48492054
_cell_length_c   5.48492120
_cell_angle_alpha   137.26245770
_cell_angle_beta   115.09520295
_cell_angle_gamma   80.87472246
_symmetry_Int_Tables_number   1
_chemical_formula_structural   Tm2AlRuRh
_chemical_formula_sum   'Tm2 Al1 Ru1 Rh1'
_cell_volume   98.22294849
_cell_formula_units_Z   1
loop_
 _symmetry_equiv_pos_site_id
 _symmetry_equiv_pos_as_xyz
  1  'x, y, z'
loop_
 _atom_site_type_symbol
 _atom_site_label
 _atom_site_symmetry_multiplicity
 _atom_site_fract_x
 _atom_site_fract_y
 _atom_site_fract_z
 _atom_site_occupancy
  Tm  Tm0  1  0.697899  0.201212  0.496686  1
  Tm  Tm1  1  0.295476  0.798787  0.496686  1
  Al  Al2  1  0.004439  0.000000  0.004439  1
  Ru  Ru3  1  0.261630  0.499999  0.761629  1
  Rh  Rh4  1  0.740557  0.500001  0.240557  1
