# generated using pymatgen
data_Li28Al2Si7Ge
_symmetry_space_group_name_H-M   'P 1'
_cell_length_a   9.09910731
_cell_length_b   9.09159314
_cell_length_c   9.09646933
_cell_angle_alpha   108.97996281
_cell_angle_beta   109.05702541
_cell_angle_gamma   110.38782152
_symmetry_Int_Tables_number   1
_chemical_formula_structural   Li28Al2Si7Ge
_chemical_formula_sum   'Li28 Al2 Si7 Ge1'
_cell_volume   579.11869988
_cell_formula_units_Z   1
loop_
 _symmetry_equiv_pos_site_id
 _symmetry_equiv_pos_as_xyz
  1  'x, y, z'
loop_
 _atom_site_type_symbol
 _atom_site_label
 _atom_site_symmetry_multiplicity
 _atom_site_fract_x
 _atom_site_fract_y
 _atom_site_fract_z
 _atom_site_occupancy
  Li  Li0  1  0.065872  0.541482  0.279303  1
  Li  Li1  1  0.262759  0.788180  0.721163  1
  Li  Li2  1  0.183147  0.961837  0.974507  1
  Li  Li3  1  0.986024  0.207304  0.024757  1
  Li  Li4  1  0.038069  0.012734  0.221392  1
  Li  Li5  1  0.791461  0.816766  0.778603  1
  Li  Li6  1  0.459421  0.738197  0.526865  1
  Li  Li7  1  0.211952  0.933131  0.474574  1
  Li  Li8  1  0.716842  0.347783  0.059674  1
  Li  Li9  1  0.960525  0.401379  0.867621  1
  Li  Li10  1  0.288399  0.657218  0.939737  1
  Li  Li11  1  0.533357  0.092955  0.131340  1
  Li  Li12  1  0.689307  0.856177  0.090080  1
  Li  Li13  1  0.484747  0.895179  0.333911  1
  Li  Li14  1  0.560733  0.150857  0.666878  1
  Li  Li15  1  0.766505  0.599461  0.909843  1
  Li  Li16  1  0.848960  0.516002  0.409896  1
  Li  Li17  1  0.401259  0.310284  0.166836  1
  Li  Li18  1  0.143526  0.233096  0.832109  1
  Li  Li19  1  0.106050  0.439192  0.590073  1
  Li  Li20  1  0.906908  0.038316  0.440136  1
  Li  Li21  1  0.342999  0.283101  0.631066  1
  Li  Li22  1  0.598017  0.466766  0.559767  1
  Li  Li23  1  0.653120  0.712339  0.369219  1
  Li  Li24  1  0.999555  0.874870  0.624445  1
  Li  Li25  1  0.250422  0.374432  0.376425  1
  Li  Li26  1  0.124513  0.750308  0.124337  1
  Li  Li27  1  0.624908  0.000529  0.875647  1
  Al  Al28  1  0.501786  0.499617  0.998635  1
  Al  Al29  1  0.749923  0.250085  0.499882  1
  Si  Si30  1  0.376044  0.136658  0.841444  1
  Si  Si31  1  0.954696  0.613335  0.739004  1
  Si  Si32  1  0.874087  0.215609  0.260916  1
  Si  Si33  1  0.386746  0.126028  0.341549  1
  Si  Si34  1  0.784420  0.045235  0.658463  1
  Si  Si35  1  0.465655  0.623968  0.760799  1
  Si  Si36  1  0.863375  0.704804  0.239065  1
  Ge  Ge37  1  0.293913  0.534783  0.160040  1
