# generated using pymatgen
data_Ho3Tm2Co2Os
_symmetry_space_group_name_H-M   'P 1'
_cell_length_a   8.58819444
_cell_length_b   8.58552259
_cell_length_c   8.58801279
_cell_angle_alpha   131.43603600
_cell_angle_beta   131.44676785
_cell_angle_gamma   71.12026001
_symmetry_Int_Tables_number   1
_chemical_formula_structural   Ho3Tm2Co2Os
_chemical_formula_sum   'Ho6 Tm4 Co4 Os2'
_cell_volume   348.38259110
_cell_formula_units_Z   2
loop_
 _symmetry_equiv_pos_site_id
 _symmetry_equiv_pos_as_xyz
  1  'x, y, z'
loop_
 _atom_site_type_symbol
 _atom_site_label
 _atom_site_symmetry_multiplicity
 _atom_site_fract_x
 _atom_site_fract_y
 _atom_site_fract_z
 _atom_site_occupancy
  Ho  Ho0  1  0.820785  0.320908  0.856488  1
  Ho  Ho1  1  0.536074  0.035874  0.857470  1
  Ho  Ho2  1  0.035571  0.179110  0.499877  1
  Ho  Ho3  1  0.321578  0.464137  0.500201  1
  Ho  Ho4  1  0.178875  0.678678  0.142558  1
  Ho  Ho5  1  0.963892  0.821304  0.500198  1
  Tm  Tm6  1  0.678821  0.536087  0.499901  1
  Tm  Tm7  1  0.463804  0.963903  0.142707  1
  Tm  Tm8  1  0.000049  0.999555  0.999598  1
  Tm  Tm9  1  0.500044  0.500445  0.000495  1
  Co  Co10  1  0.112083  0.612550  0.724940  1
  Co  Co11  1  0.887491  0.387969  0.275716  1
  Co  Co12  1  0.612394  0.887446  0.499532  1
  Co  Co13  1  0.387742  0.112034  0.499522  1
  Os  Os14  1  0.251206  0.250000  0.001205  1
  Os  Os15  1  0.749592  0.750000  0.999592  1
