# generated using pymatgen
data_Dy14Ho2Cd4Ir3Os
_symmetry_space_group_name_H-M   'P 1'
_cell_length_a   9.67328311
_cell_length_b   9.67328304
_cell_length_c   9.67263377
_cell_angle_alpha   59.56700338
_cell_angle_beta   59.56700181
_cell_angle_gamma   59.56511665
_symmetry_Int_Tables_number   1
_chemical_formula_structural   Dy14Ho2Cd4Ir3Os
_chemical_formula_sum   'Dy14 Ho2 Cd4 Ir3 Os1'
_cell_volume   633.68743192
_cell_formula_units_Z   1
loop_
 _symmetry_equiv_pos_site_id
 _symmetry_equiv_pos_as_xyz
  1  'x, y, z'
loop_
 _atom_site_type_symbol
 _atom_site_label
 _atom_site_symmetry_multiplicity
 _atom_site_fract_x
 _atom_site_fract_y
 _atom_site_fract_z
 _atom_site_occupancy
  Dy  Dy0  1  0.598519  0.206567  0.598505  1
  Dy  Dy1  1  0.206567  0.598519  0.598505  1
  Dy  Dy2  1  0.062036  0.438900  0.438784  1
  Dy  Dy3  1  0.437891  0.059799  0.059892  1
  Dy  Dy4  1  0.438900  0.062036  0.438784  1
  Dy  Dy5  1  0.059799  0.437891  0.059892  1
  Dy  Dy6  1  0.438954  0.438954  0.062047  1
  Dy  Dy7  1  0.059952  0.059952  0.437724  1
  Dy  Dy8  1  0.187846  0.811700  0.811847  1
  Dy  Dy9  1  0.807269  0.188814  0.188790  1
  Dy  Dy10  1  0.811700  0.187846  0.811847  1
  Dy  Dy11  1  0.188814  0.807269  0.188790  1
  Dy  Dy12  1  0.811650  0.811650  0.187994  1
  Dy  Dy13  1  0.188648  0.188648  0.807503  1
  Ho  Ho14  1  0.599555  0.599555  0.599559  1
  Ho  Ho15  1  0.598420  0.598420  0.207066  1
  Cd  Cd16  1  0.829762  0.829762  0.829946  1
  Cd  Cd17  1  0.830303  0.830303  0.507520  1
  Cd  Cd18  1  0.830249  0.507567  0.830384  1
  Cd  Cd19  1  0.507567  0.830249  0.830384  1
  Ir  Ir20  1  0.393561  0.393561  0.826439  1
  Ir  Ir21  1  0.393920  0.826090  0.393227  1
  Ir  Ir22  1  0.826090  0.393920  0.393227  1
  Os  Os23  1  0.392031  0.392031  0.391345  1
