# generated using pymatgen
data_CeTh3Zn3Cu20Sn
_symmetry_space_group_name_H-M   'P 1'
_cell_length_a   5.08264100
_cell_length_b   8.17971544
_cell_length_c   10.32892082
_cell_angle_alpha   89.67123565
_cell_angle_beta   90.00000000
_cell_angle_gamma   90.00000000
_symmetry_Int_Tables_number   1
_chemical_formula_structural   CeTh3Zn3Cu20Sn
_chemical_formula_sum   'Ce1 Th3 Zn3 Cu20 Sn1'
_cell_volume   429.41323867
_cell_formula_units_Z   1
loop_
 _symmetry_equiv_pos_site_id
 _symmetry_equiv_pos_as_xyz
  1  'x, y, z'
loop_
 _atom_site_type_symbol
 _atom_site_label
 _atom_site_symmetry_multiplicity
 _atom_site_fract_x
 _atom_site_fract_y
 _atom_site_fract_z
 _atom_site_occupancy
  Ce  Ce0  1  0.750000  0.242192  0.929939  1
  Th  Th1  1  0.250000  0.752987  0.057951  1
  Th  Th2  1  0.750000  0.740830  0.561025  1
  Th  Th3  1  0.250000  0.263953  0.449106  1
  Zn  Zn4  1  0.750000  0.356986  0.638482  1
  Zn  Zn5  1  0.250000  0.644018  0.360789  1
  Zn  Zn6  1  0.750000  0.856157  0.860341  1
  Cu  Cu7  1  0.003664  0.437409  0.192015  1
  Cu  Cu8  1  0.505595  0.566445  0.806862  1
  Cu  Cu9  1  0.498874  0.929027  0.312342  1
  Cu  Cu10  1  0.994729  0.065413  0.691419  1
  Cu  Cu11  1  0.994405  0.566445  0.806862  1
  Cu  Cu12  1  0.496336  0.437409  0.192015  1
  Cu  Cu13  1  0.505271  0.065413  0.691419  1
  Cu  Cu14  1  0.001126  0.929027  0.312342  1
  Cu  Cu15  1  0.750000  0.437267  0.400915  1
  Cu  Cu16  1  0.250000  0.567397  0.599821  1
  Cu  Cu17  1  0.750000  0.932481  0.097565  1
  Cu  Cu18  1  0.250000  0.062137  0.897210  1
  Cu  Cu19  1  0.750000  0.181301  0.252044  1
  Cu  Cu20  1  0.250000  0.820312  0.752174  1
  Cu  Cu21  1  0.750000  0.680513  0.251224  1
  Cu  Cu22  1  0.250000  0.319954  0.747274  1
  Cu  Cu23  1  0.750000  0.092684  0.486216  1
  Cu  Cu24  1  0.250000  0.908409  0.515890  1
  Cu  Cu25  1  0.750000  0.587489  0.013195  1
  Cu  Cu26  1  0.250000  0.412264  0.981650  1
  Sn  Sn27  1  0.250000  0.144078  0.141911  1
