# generated using pymatgen
data_Ca(TmCu6)2
_symmetry_space_group_name_H-M   'P 1'
_cell_length_a   4.98602366
_cell_length_b   4.98602576
_cell_length_c   10.57842803
_cell_angle_alpha   95.00970029
_cell_angle_beta   95.00969132
_cell_angle_gamma   120.00087639
_symmetry_Int_Tables_number   1
_chemical_formula_structural   Ca(TmCu6)2
_chemical_formula_sum   'Ca1 Tm2 Cu12'
_cell_volume   224.24874931
_cell_formula_units_Z   1
loop_
 _symmetry_equiv_pos_site_id
 _symmetry_equiv_pos_as_xyz
  1  'x, y, z'
loop_
 _atom_site_type_symbol
 _atom_site_label
 _atom_site_symmetry_multiplicity
 _atom_site_fract_x
 _atom_site_fract_y
 _atom_site_fract_z
 _atom_site_occupancy
  Ca  Ca0  1  0.000000  0.000000  0.000000  1
  Tm  Tm1  1  0.135617  0.135617  0.359882  1
  Tm  Tm2  1  0.864383  0.864383  0.640118  1
  Cu  Cu3  1  0.663435  0.336566  0.000000  1
  Cu  Cu4  1  0.336566  0.663435  0.000000  1
  Cu  Cu5  1  0.571495  0.070477  0.198525  1
  Cu  Cu6  1  0.070477  0.571495  0.198525  1
  Cu  Cu7  1  0.572559  0.572559  0.203710  1
  Cu  Cu8  1  0.810656  0.477471  0.407223  1
  Cu  Cu9  1  0.477471  0.810656  0.407223  1
  Cu  Cu10  1  0.522531  0.189345  0.592777  1
  Cu  Cu11  1  0.189345  0.522531  0.592777  1
  Cu  Cu12  1  0.427440  0.427440  0.796290  1
  Cu  Cu13  1  0.929522  0.428504  0.801476  1
  Cu  Cu14  1  0.428504  0.929522  0.801476  1
