# generated using pymatgen
data_Ac3Ga2Ir7
_symmetry_space_group_name_H-M   'P 1'
_cell_length_a   5.66958583
_cell_length_b   5.66950406
_cell_length_c   9.01936229
_cell_angle_alpha   71.63854692
_cell_angle_beta   108.36182569
_cell_angle_gamma   120.01956443
_symmetry_Int_Tables_number   1
_chemical_formula_structural   Ac3Ga2Ir7
_chemical_formula_sum   'Ac3 Ga2 Ir7'
_cell_volume   233.83292710
_cell_formula_units_Z   1
loop_
 _symmetry_equiv_pos_site_id
 _symmetry_equiv_pos_as_xyz
  1  'x, y, z'
loop_
 _atom_site_type_symbol
 _atom_site_label
 _atom_site_symmetry_multiplicity
 _atom_site_fract_x
 _atom_site_fract_y
 _atom_site_fract_z
 _atom_site_occupancy
  Ac  Ac0  1  0.000011  0.000015  0.999977  1
  Ac  Ac1  1  0.140341  0.859644  0.421199  1
  Ac  Ac2  1  0.859672  0.140320  0.578892  1
  Ga  Ga3  1  0.335385  0.664629  0.005624  1
  Ga  Ga4  1  0.664605  0.335402  0.994297  1
  Ir  Ir5  1  0.076075  0.417891  0.240338  1
  Ir  Ir6  1  0.582147  0.417849  0.240395  1
  Ir  Ir7  1  0.582106  0.923926  0.240343  1
  Ir  Ir8  1  0.499975  0.500020  0.499927  1
  Ir  Ir9  1  0.417885  0.076051  0.759688  1
  Ir  Ir10  1  0.417855  0.582149  0.759631  1
  Ir  Ir11  1  0.923945  0.582105  0.759691  1
