# generated using pymatgen
data_Pr19HoSi15Rh
_symmetry_space_group_name_H-M   'P 1'
_cell_length_a   7.90484247
_cell_length_b   7.90681105
_cell_length_c   15.26469399
_cell_angle_alpha   90.11241215
_cell_angle_beta   89.74299955
_cell_angle_gamma   90.10537477
_symmetry_Int_Tables_number   1
_chemical_formula_structural   Pr19HoSi15Rh
_chemical_formula_sum   'Pr19 Ho1 Si15 Rh1'
_cell_volume   954.06233326
_cell_formula_units_Z   1
loop_
 _symmetry_equiv_pos_site_id
 _symmetry_equiv_pos_as_xyz
  1  'x, y, z'
loop_
 _atom_site_type_symbol
 _atom_site_label
 _atom_site_symmetry_multiplicity
 _atom_site_fract_x
 _atom_site_fract_y
 _atom_site_fract_z
 _atom_site_occupancy
  Pr  Pr0  1  0.190170  0.807219  0.249806  1
  Pr  Pr1  1  0.818471  0.187623  0.750221  1
  Pr  Pr2  1  0.693522  0.688451  0.500111  1
  Pr  Pr3  1  0.373310  0.010653  0.448540  1
  Pr  Pr4  1  0.489717  0.875512  0.698537  1
  Pr  Pr5  1  0.509580  0.123981  0.196979  1
  Pr  Pr6  1  0.876065  0.488151  0.299944  1
  Pr  Pr7  1  0.125491  0.508209  0.800975  1
  Pr  Pr8  1  0.626429  0.988530  0.949019  1
  Pr  Pr9  1  0.004414  0.377382  0.551638  1
  Pr  Pr10  1  0.988076  0.624865  0.051294  1
  Pr  Pr11  1  0.134771  0.985572  0.874371  1
  Pr  Pr12  1  0.516759  0.630935  0.125175  1
  Pr  Pr13  1  0.473307  0.362463  0.629323  1
  Pr  Pr14  1  0.628264  0.515774  0.874311  1
  Pr  Pr15  1  0.373122  0.482530  0.372954  1
  Pr  Pr16  1  0.872973  0.020493  0.376745  1
  Pr  Pr17  1  0.982249  0.127063  0.123709  1
  Pr  Pr18  1  0.025642  0.879841  0.625487  1
  Ho  Ho19  1  0.308371  0.308210  0.998732  1
  Si  Si20  1  0.331010  0.691756  0.951885  1
  Si  Si21  1  0.663777  0.303644  0.452243  1
  Si  Si22  1  0.693919  0.333091  0.048604  1
  Si  Si23  1  0.304672  0.667615  0.548134  1
  Si  Si24  1  0.804850  0.832744  0.202736  1
  Si  Si25  1  0.167839  0.197417  0.297063  1
  Si  Si26  1  0.834071  0.802916  0.799067  1
  Si  Si27  1  0.288855  0.926747  0.057901  1
  Si  Si28  1  0.578883  0.787474  0.309803  1
  Si  Si29  1  0.423190  0.210522  0.815932  1
  Si  Si30  1  0.783385  0.580851  0.690617  1
  Si  Si31  1  0.213653  0.419888  0.186713  1
  Si  Si32  1  0.704671  0.074688  0.559119  1
  Si  Si33  1  0.925007  0.289294  0.942342  1
  Si  Si34  1  0.079593  0.714962  0.441451  1
  Rh  Rh35  1  0.191918  0.172937  0.698518  1
