# generated using pymatgen
data_La5PrIn9Sn
_symmetry_space_group_name_H-M   'P 1'
_cell_length_a   6.69162200
_cell_length_b   6.71736491
_cell_length_c   10.59715700
_cell_angle_alpha   90.00000000
_cell_angle_beta   90.00000000
_cell_angle_gamma   102.52175618
_symmetry_Int_Tables_number   1
_chemical_formula_structural   La5PrIn9Sn
_chemical_formula_sum   'La5 Pr1 In9 Sn1'
_cell_volume   465.01250431
_cell_formula_units_Z   1
loop_
 _symmetry_equiv_pos_site_id
 _symmetry_equiv_pos_as_xyz
  1  'x, y, z'
loop_
 _atom_site_type_symbol
 _atom_site_label
 _atom_site_symmetry_multiplicity
 _atom_site_fract_x
 _atom_site_fract_y
 _atom_site_fract_z
 _atom_site_occupancy
  La  La0  1  0.637838  0.634554  0.250000  1
  La  La1  1  0.201515  0.791980  0.497984  1
  La  La2  1  0.201515  0.791980  0.002016  1
  La  La3  1  0.797493  0.204640  0.498303  1
  La  La4  1  0.797493  0.204640  0.001697  1
  Pr  Pr5  1  0.362591  0.366717  0.750000  1
  In  In6  1  0.017107  0.024245  0.250000  1
  In  In7  1  0.984951  0.984667  0.750000  1
  In  In8  1  0.310741  0.305275  0.048051  1
  In  In9  1  0.689124  0.692717  0.945431  1
  In  In10  1  0.310741  0.305275  0.451949  1
  In  In11  1  0.689124  0.692717  0.554569  1
  In  In12  1  0.494932  0.073676  0.250000  1
  In  In13  1  0.924827  0.503134  0.750000  1
  In  In14  1  0.500082  0.928983  0.750000  1
  Sn  Sn15  1  0.079922  0.494798  0.250000  1
