# generated using pymatgen
data_Sc10Sn6AsH
_symmetry_space_group_name_H-M   'P 1'
_cell_length_a   8.54650200
_cell_length_b   8.54650263
_cell_length_c   6.15077900
_cell_angle_alpha   90.00000000
_cell_angle_beta   90.00000000
_cell_angle_gamma   120.00000529
_symmetry_Int_Tables_number   1
_chemical_formula_structural   Sc10Sn6AsH
_chemical_formula_sum   'Sc10 Sn6 As1 H1'
_cell_volume   389.07879384
_cell_formula_units_Z   1
loop_
 _symmetry_equiv_pos_site_id
 _symmetry_equiv_pos_as_xyz
  1  'x, y, z'
loop_
 _atom_site_type_symbol
 _atom_site_label
 _atom_site_symmetry_multiplicity
 _atom_site_fract_x
 _atom_site_fract_y
 _atom_site_fract_z
 _atom_site_occupancy
  Sc  Sc0  1  0.666667  0.333333  0.000000  1
  Sc  Sc1  1  0.333333  0.666667  0.000000  1
  Sc  Sc2  1  0.333333  0.666667  0.500000  1
  Sc  Sc3  1  0.666667  0.333333  0.500000  1
  Sc  Sc4  1  0.754499  0.754499  0.759038  1
  Sc  Sc5  1  0.245501  0.000000  0.759038  1
  Sc  Sc6  1  0.000000  0.245501  0.759038  1
  Sc  Sc7  1  0.245501  0.245501  0.240962  1
  Sc  Sc8  1  0.754499  0.000000  0.240962  1
  Sc  Sc9  1  0.000000  0.754499  0.240962  1
  Sn  Sn10  1  0.394603  0.394603  0.751187  1
  Sn  Sn11  1  0.605397  0.000000  0.751187  1
  Sn  Sn12  1  0.000000  0.605397  0.751187  1
  Sn  Sn13  1  0.605397  0.605397  0.248813  1
  Sn  Sn14  1  0.394603  0.000000  0.248813  1
  Sn  Sn15  1  0.000000  0.394603  0.248813  1
  As  As16  1  0.000000  0.000000  0.500000  1
  H  H17  1  0.000000  0.000000  0.000000  1
