# generated using pymatgen
data_BaNdPPt8
_symmetry_space_group_name_H-M   'P 1'
_cell_length_a   9.42848335
_cell_length_b   9.40173548
_cell_length_c   4.30169600
_cell_angle_alpha   90.00000000
_cell_angle_beta   90.00000000
_cell_angle_gamma   145.94015123
_symmetry_Int_Tables_number   1
_chemical_formula_structural   BaNdPPt8
_chemical_formula_sum   'Ba1 Nd1 P1 Pt8'
_cell_volume   213.56153507
_cell_formula_units_Z   1
loop_
 _symmetry_equiv_pos_site_id
 _symmetry_equiv_pos_as_xyz
  1  'x, y, z'
loop_
 _atom_site_type_symbol
 _atom_site_label
 _atom_site_symmetry_multiplicity
 _atom_site_fract_x
 _atom_site_fract_y
 _atom_site_fract_z
 _atom_site_occupancy
  Ba  Ba0  1  0.618308  0.379315  0.500000  1
  Nd  Nd1  1  0.366575  0.621088  0.500000  1
  P  P2  1  0.213448  0.211970  0.000000  1
  Pt  Pt3  1  0.112669  0.889925  0.000000  1
  Pt  Pt4  1  0.894523  0.111902  0.000000  1
  Pt  Pt5  1  0.495405  0.980253  0.000000  1
  Pt  Pt6  1  0.000501  0.491289  0.000000  1
  Pt  Pt7  1  0.199298  0.789911  0.500000  1
  Pt  Pt8  1  0.795418  0.191866  0.500000  1
  Pt  Pt9  1  0.007848  0.012899  0.500000  1
  Pt  Pt10  1  0.609605  0.633182  0.000000  1
