# generated using pymatgen
data_Zn22NiRuRh
_symmetry_space_group_name_H-M   'P 1'
_cell_length_a   7.76242483
_cell_length_b   7.76242535
_cell_length_c   7.77481700
_cell_angle_alpha   72.19782752
_cell_angle_beta   72.19782621
_cell_angle_gamma   57.86465310
_symmetry_Int_Tables_number   1
_chemical_formula_structural   Zn22NiRuRh
_chemical_formula_sum   'Zn22 Ni1 Ru1 Rh1'
_cell_volume   371.70816258
_cell_formula_units_Z   1
loop_
 _symmetry_equiv_pos_site_id
 _symmetry_equiv_pos_as_xyz
  1  'x, y, z'
loop_
 _atom_site_type_symbol
 _atom_site_label
 _atom_site_symmetry_multiplicity
 _atom_site_fract_x
 _atom_site_fract_y
 _atom_site_fract_z
 _atom_site_occupancy
  Zn  Zn0  1  0.342854  0.739896  0.316053  1
  Zn  Zn1  1  0.650189  0.260939  0.690883  1
  Zn  Zn2  1  0.260939  0.650189  0.690883  1
  Zn  Zn3  1  0.739896  0.342854  0.316053  1
  Zn  Zn4  1  0.676109  0.321599  0.998922  1
  Zn  Zn5  1  0.321599  0.676109  0.998922  1
  Zn  Zn6  1  0.830919  0.830919  0.783097  1
  Zn  Zn7  1  0.171741  0.171741  0.211598  1
  Zn  Zn8  1  0.976248  0.976248  0.174452  1
  Zn  Zn9  1  0.023373  0.023373  0.826841  1
  Zn  Zn10  1  0.352248  0.352248  0.272831  1
  Zn  Zn11  1  0.647171  0.647171  0.723017  1
  Zn  Zn12  1  0.688872  0.688872  0.374921  1
  Zn  Zn13  1  0.313293  0.313293  0.624026  1
  Zn  Zn14  1  0.657854  0.025930  0.461833  1
  Zn  Zn15  1  0.340029  0.976105  0.538675  1
  Zn  Zn16  1  0.976105  0.340029  0.538675  1
  Zn  Zn17  1  0.025930  0.657854  0.461833  1
  Zn  Zn18  1  0.613147  0.004117  0.100775  1
  Zn  Zn19  1  0.379918  0.007478  0.897321  1
  Zn  Zn20  1  0.007478  0.379918  0.897321  1
  Zn  Zn21  1  0.004117  0.613147  0.100775  1
  Ni  Ni22  1  0.342419  0.342419  0.945585  1
  Ru  Ru23  1  0.000655  0.000655  0.500184  1
  Rh  Rh24  1  0.656897  0.656897  0.054523  1
