# generated using pymatgen
data_TbDy4Sc3Au4
_symmetry_space_group_name_H-M   'P 1'
_cell_length_a   4.80722900
_cell_length_b   7.06616064
_cell_length_c   8.66181286
_cell_angle_alpha   90.12503337
_cell_angle_beta   90.00000000
_cell_angle_gamma   90.00000000
_symmetry_Int_Tables_number   1
_chemical_formula_structural   TbDy4Sc3Au4
_chemical_formula_sum   'Tb1 Dy4 Sc3 Au4'
_cell_volume   294.22940934
_cell_formula_units_Z   1
loop_
 _symmetry_equiv_pos_site_id
 _symmetry_equiv_pos_as_xyz
  1  'x, y, z'
loop_
 _atom_site_type_symbol
 _atom_site_label
 _atom_site_symmetry_multiplicity
 _atom_site_fract_x
 _atom_site_fract_y
 _atom_site_fract_z
 _atom_site_occupancy
  Tb  Tb0  1  0.250000  0.479734  0.174268  1
  Dy  Dy1  1  0.750000  0.648005  0.420522  1
  Dy  Dy2  1  0.250000  0.990793  0.320893  1
  Dy  Dy3  1  0.750000  0.516200  0.822281  1
  Dy  Dy4  1  0.750000  0.020398  0.684333  1
  Sc  Sc5  1  0.250000  0.855024  0.925389  1
  Sc  Sc6  1  0.250000  0.353234  0.580330  1
  Sc  Sc7  1  0.750000  0.145890  0.075462  1
  Au  Au8  1  0.250000  0.241863  0.895947  1
  Au  Au9  1  0.250000  0.746862  0.610332  1
  Au  Au10  1  0.750000  0.757688  0.092903  1
  Au  Au11  1  0.750000  0.244308  0.397341  1
