# generated using pymatgen
data_Tb7Ce(ZrGa5)4
_symmetry_space_group_name_H-M   'P 1'
_cell_length_a   5.97697904
_cell_length_b   9.44554635
_cell_length_c   11.38384200
_cell_angle_alpha   90.02298371
_cell_angle_beta   89.94223429
_cell_angle_gamma   89.97971453
_symmetry_Int_Tables_number   1
_chemical_formula_structural   Tb7Ce(ZrGa5)4
_chemical_formula_sum   'Tb7 Ce1 Zr4 Ga20'
_cell_volume   642.68385905
_cell_formula_units_Z   1
loop_
 _symmetry_equiv_pos_site_id
 _symmetry_equiv_pos_as_xyz
  1  'x, y, z'
loop_
 _atom_site_type_symbol
 _atom_site_label
 _atom_site_symmetry_multiplicity
 _atom_site_fract_x
 _atom_site_fract_y
 _atom_site_fract_z
 _atom_site_occupancy
  Tb  Tb0  1  0.885043  0.506249  0.352261  1
  Tb  Tb1  1  0.615111  0.993953  0.852843  1
  Tb  Tb2  1  0.115546  0.006704  0.646966  1
  Tb  Tb3  1  0.385365  0.494078  0.147860  1
  Tb  Tb4  1  0.115546  0.493540  0.647556  1
  Tb  Tb5  1  0.384355  0.006135  0.147593  1
  Tb  Tb6  1  0.885002  0.993160  0.352489  1
  Ce  Ce7  1  0.616163  0.506316  0.853593  1
  Zr  Zr8  1  0.858221  0.749977  0.074881  1
  Zr  Zr9  1  0.642120  0.749487  0.574812  1
  Zr  Zr10  1  0.140366  0.251061  0.924985  1
  Zr  Zr11  1  0.357299  0.249421  0.424188  1
  Ga  Ga12  1  0.874776  0.052596  0.088448  1
  Ga  Ga13  1  0.624016  0.446228  0.587862  1
  Ga  Ga14  1  0.123318  0.553918  0.912250  1
  Ga  Ga15  1  0.375450  0.946906  0.411625  1
  Ga  Ga16  1  0.124703  0.948386  0.911408  1
  Ga  Ga17  1  0.375679  0.553016  0.411211  1
  Ga  Ga18  1  0.875483  0.446322  0.088450  1
  Ga  Ga19  1  0.624578  0.052551  0.588997  1
  Ga  Ga20  1  0.160082  0.750067  0.254795  1
  Ga  Ga21  1  0.340346  0.751183  0.755346  1
  Ga  Ga22  1  0.839449  0.249161  0.744263  1
  Ga  Ga23  1  0.660250  0.249534  0.245358  1
  Ga  Ga24  1  0.388582  0.750417  0.000663  1
  Ga  Ga25  1  0.109791  0.749804  0.501311  1
  Ga  Ga26  1  0.610742  0.249184  0.999669  1
  Ga  Ga27  1  0.891062  0.249442  0.498601  1
  Ga  Ga28  1  0.603152  0.749814  0.293760  1
  Ga  Ga29  1  0.897437  0.751210  0.793958  1
  Ga  Ga30  1  0.397701  0.250096  0.706437  1
  Ga  Ga31  1  0.103269  0.250086  0.205561  1
