# generated using pymatgen
data_LaYCo9Tc3As7
_symmetry_space_group_name_H-M   'P 1'
_cell_length_a   3.86892300
_cell_length_b   9.41017409
_cell_length_c   9.41017500
_cell_angle_alpha   119.99999779
_cell_angle_beta   90.00000000
_cell_angle_gamma   90.00000000
_symmetry_Int_Tables_number   1
_chemical_formula_structural   LaYCo9Tc3As7
_chemical_formula_sum   'La1 Y1 Co9 Tc3 As7'
_cell_volume   296.69900232
_cell_formula_units_Z   1
loop_
 _symmetry_equiv_pos_site_id
 _symmetry_equiv_pos_as_xyz
  1  'x, y, z'
loop_
 _atom_site_type_symbol
 _atom_site_label
 _atom_site_symmetry_multiplicity
 _atom_site_fract_x
 _atom_site_fract_y
 _atom_site_fract_z
 _atom_site_occupancy
  La  La0  1  0.500000  0.333333  0.666667  1
  Y  Y1  1  0.000000  0.666667  0.333333  1
  Co  Co2  1  0.000000  0.570067  0.943508  1
  Co  Co3  1  0.000000  0.373441  0.429933  1
  Co  Co4  1  0.000000  0.056492  0.626559  1
  Co  Co5  1  0.000000  0.873177  0.153547  1
  Co  Co6  1  0.000000  0.280370  0.126823  1
  Co  Co7  1  0.000000  0.846453  0.719630  1
  Co  Co8  1  0.500000  0.943066  0.376497  1
  Co  Co9  1  0.500000  0.433430  0.056934  1
  Co  Co10  1  0.500000  0.623503  0.566570  1
  Tc  Tc11  1  0.500000  0.784265  0.900445  1
  Tc  Tc12  1  0.500000  0.116180  0.215735  1
  Tc  Tc13  1  0.500000  0.099555  0.883820  1
  As  As14  1  0.000000  0.000000  0.000000  1
  As  As15  1  0.500000  0.704056  0.114036  1
  As  As16  1  0.500000  0.409981  0.295944  1
  As  As17  1  0.500000  0.885964  0.590019  1
  As  As18  1  0.000000  0.594518  0.702718  1
  As  As19  1  0.000000  0.108200  0.405482  1
  As  As20  1  0.000000  0.297282  0.891800  1
