# generated using pymatgen
data_CePr4IrOs
_symmetry_space_group_name_H-M   'P 1'
_cell_length_a   8.99718192
_cell_length_b   8.99718011
_cell_length_c   7.42843400
_cell_angle_alpha   83.62226815
_cell_angle_beta   83.62227585
_cell_angle_gamma   43.66655237
_symmetry_Int_Tables_number   1
_chemical_formula_structural   CePr4IrOs
_chemical_formula_sum   'Ce2 Pr8 Ir2 Os2'
_cell_volume   412.20839465
_cell_formula_units_Z   2
loop_
 _symmetry_equiv_pos_site_id
 _symmetry_equiv_pos_as_xyz
  1  'x, y, z'
loop_
 _atom_site_type_symbol
 _atom_site_label
 _atom_site_symmetry_multiplicity
 _atom_site_fract_x
 _atom_site_fract_y
 _atom_site_fract_z
 _atom_site_occupancy
  Ce  Ce0  1  0.567174  0.432826  0.750000  1
  Ce  Ce1  1  0.428202  0.571798  0.250000  1
  Pr  Pr2  1  0.023708  0.796230  0.917214  1
  Pr  Pr3  1  0.203770  0.976292  0.582786  1
  Pr  Pr4  1  0.977005  0.207711  0.079628  1
  Pr  Pr5  1  0.792289  0.022995  0.420372  1
  Pr  Pr6  1  0.352709  0.213946  0.814512  1
  Pr  Pr7  1  0.786054  0.647291  0.685488  1
  Pr  Pr8  1  0.642156  0.789418  0.183390  1
  Pr  Pr9  1  0.210582  0.357844  0.316610  1
  Ir  Ir10  1  0.795377  0.409558  0.429679  1
  Ir  Ir11  1  0.590442  0.204623  0.070321  1
  Os  Os12  1  0.219367  0.588832  0.562434  1
  Os  Os13  1  0.411168  0.780633  0.937566  1
