# generated using pymatgen
data_SrGdYZn11
_symmetry_space_group_name_H-M   'P 1'
_cell_length_a   8.19791796
_cell_length_b   8.19791816
_cell_length_c   8.19791800
_cell_angle_alpha   148.35052702
_cell_angle_beta   115.77134410
_cell_angle_gamma   73.37807546
_symmetry_Int_Tables_number   1
_chemical_formula_structural   SrGdYZn11
_chemical_formula_sum   'Sr1 Gd1 Y1 Zn11'
_cell_volume   256.18704249
_cell_formula_units_Z   1
loop_
 _symmetry_equiv_pos_site_id
 _symmetry_equiv_pos_as_xyz
  1  'x, y, z'
loop_
 _atom_site_type_symbol
 _atom_site_label
 _atom_site_symmetry_multiplicity
 _atom_site_fract_x
 _atom_site_fract_y
 _atom_site_fract_z
 _atom_site_occupancy
  Sr  Sr0  1  0.000345  0.000345  0.000000  1
  Gd  Gd1  1  0.299061  0.299061  0.000000  1
  Y  Y2  1  0.700984  0.700984  0.000000  1
  Zn  Zn3  1  0.499326  0.999326  0.500000  1
  Zn  Zn4  1  0.679841  0.500159  0.179682  1
  Zn  Zn5  1  0.320477  0.500159  0.820318  1
  Zn  Zn6  1  0.691861  0.336286  0.355575  1
  Zn  Zn7  1  0.308907  0.663704  0.645203  1
  Zn  Zn8  1  0.980712  0.336286  0.644425  1
  Zn  Zn9  1  0.018500  0.663704  0.354797  1
  Zn  Zn10  1  0.428676  0.138849  0.289827  1
  Zn  Zn11  1  0.573145  0.861146  0.711999  1
  Zn  Zn12  1  0.849021  0.138849  0.710173  1
  Zn  Zn13  1  0.149146  0.861146  0.288001  1
