# generated using pymatgen
data_YbY3Re4F28
_symmetry_space_group_name_H-M   'P 1'
_cell_length_a   5.65088231
_cell_length_b   8.95933945
_cell_length_c   12.06199796
_cell_angle_alpha   62.76174984
_cell_angle_beta   89.92921850
_cell_angle_gamma   89.85843706
_symmetry_Int_Tables_number   1
_chemical_formula_structural   YbY3Re4F28
_chemical_formula_sum   'Yb1 Y3 Re4 F28'
_cell_volume   542.95791645
_cell_formula_units_Z   1
loop_
 _symmetry_equiv_pos_site_id
 _symmetry_equiv_pos_as_xyz
  1  'x, y, z'
loop_
 _atom_site_type_symbol
 _atom_site_label
 _atom_site_symmetry_multiplicity
 _atom_site_fract_x
 _atom_site_fract_y
 _atom_site_fract_z
 _atom_site_occupancy
  Yb  Yb0  1  0.258912  0.817172  0.264866  1
  Y  Y1  1  0.741134  0.185730  0.734504  1
  Y  Y2  1  0.761418  0.177983  0.235382  1
  Y  Y3  1  0.240971  0.813568  0.765481  1
  Re  Re4  1  0.756227  0.724511  0.046360  1
  Re  Re5  1  0.243003  0.273152  0.955830  1
  Re  Re6  1  0.256554  0.275938  0.454850  1
  Re  Re7  1  0.741619  0.725358  0.543626  1
  F  F8  1  0.950146  0.706119  0.423314  1
  F  F9  1  0.048081  0.292785  0.579930  1
  F  F10  1  0.449260  0.297481  0.076687  1
  F  F11  1  0.547481  0.707047  0.921288  1
  F  F12  1  0.480688  0.729367  0.140125  1
  F  F13  1  0.523297  0.268367  0.858675  1
  F  F14  1  0.976362  0.270398  0.360920  1
  F  F15  1  0.018627  0.730783  0.643064  1
  F  F16  1  0.962163  0.743398  0.167741  1
  F  F17  1  0.041659  0.253415  0.828170  1
  F  F18  1  0.461100  0.255083  0.330186  1
  F  F19  1  0.538492  0.745091  0.671735  1
  F  F20  1  0.765413  0.479433  0.141900  1
  F  F21  1  0.234259  0.520714  0.856444  1
  F  F22  1  0.265673  0.517500  0.359306  1
  F  F23  1  0.734644  0.478230  0.643589  1
  F  F24  1  0.952466  0.285984  0.042595  1
  F  F25  1  0.042733  0.716829  0.952118  1
  F  F26  1  0.458258  0.716315  0.455422  1
  F  F27  1  0.545038  0.281822  0.547024  1
  F  F28  1  0.739160  0.971011  0.450861  1
  F  F29  1  0.258132  0.029367  0.552913  1
  F  F30  1  0.241432  0.031237  0.049550  1
  F  F31  1  0.759767  0.969900  0.947658  1
  F  F32  1  0.581774  0.974086  0.231027  1
  F  F33  1  0.422544  0.027736  0.767573  1
  F  F34  1  0.079622  0.035194  0.266673  1
  F  F35  1  0.921893  0.971894  0.732614  1
