# generated using pymatgen
data_Dy12GaCo4Hg
_symmetry_space_group_name_H-M   'P 1'
_cell_length_a   8.29767820
_cell_length_b   8.29767899
_cell_length_c   8.29767907
_cell_angle_alpha   111.99684057
_cell_angle_beta   109.69546222
_cell_angle_gamma   106.76361822
_symmetry_Int_Tables_number   1
_chemical_formula_structural   Dy12GaCo4Hg
_chemical_formula_sum   'Dy12 Ga1 Co4 Hg1'
_cell_volume   438.87407337
_cell_formula_units_Z   1
loop_
 _symmetry_equiv_pos_site_id
 _symmetry_equiv_pos_as_xyz
  1  'x, y, z'
loop_
 _atom_site_type_symbol
 _atom_site_label
 _atom_site_symmetry_multiplicity
 _atom_site_fract_x
 _atom_site_fract_y
 _atom_site_fract_z
 _atom_site_occupancy
  Dy  Dy0  1  0.960380  0.262688  0.697691  1
  Dy  Dy1  1  0.039620  0.737312  0.302309  1
  Dy  Dy2  1  0.673987  0.860735  0.186748  1
  Dy  Dy3  1  0.326013  0.512762  0.186748  1
  Dy  Dy4  1  0.326013  0.139265  0.813252  1
  Dy  Dy5  1  0.673987  0.487238  0.813252  1
  Dy  Dy6  1  0.564997  0.262688  0.302309  1
  Dy  Dy7  1  0.435003  0.737312  0.697691  1
  Dy  Dy8  1  0.180024  0.780213  0.960236  1
  Dy  Dy9  1  0.819976  0.780213  0.600190  1
  Dy  Dy10  1  0.180024  0.219787  0.399810  1
  Dy  Dy11  1  0.819976  0.219787  0.039764  1
  Ga  Ga12  1  0.000000  0.500000  0.500000  1
  Co  Co13  1  0.114214  0.114214  0.000000  1
  Co  Co14  1  0.885786  0.885786  0.000000  1
  Co  Co15  1  0.663645  0.500000  0.163645  1
  Co  Co16  1  0.336355  0.500000  0.836355  1
  Hg  Hg17  1  0.500000  0.000000  0.500000  1
