# generated using pymatgen
data_LiTa2Ru4W
_symmetry_space_group_name_H-M   'P 1'
_cell_length_a   6.17960255
_cell_length_b   6.17963968
_cell_length_c   6.25906400
_cell_angle_alpha   90.00039606
_cell_angle_beta   89.99983408
_cell_angle_gamma   89.99726499
_symmetry_Int_Tables_number   1
_chemical_formula_structural   LiTa2Ru4W
_chemical_formula_sum   'Li2 Ta4 Ru8 W2'
_cell_volume   239.01936493
_cell_formula_units_Z   2
loop_
 _symmetry_equiv_pos_site_id
 _symmetry_equiv_pos_as_xyz
  1  'x, y, z'
loop_
 _atom_site_type_symbol
 _atom_site_label
 _atom_site_symmetry_multiplicity
 _atom_site_fract_x
 _atom_site_fract_y
 _atom_site_fract_z
 _atom_site_occupancy
  Li  Li0  1  0.249942  0.749977  0.500013  1
  Li  Li1  1  0.750060  0.250026  0.500027  1
  Ta  Ta2  1  0.250044  0.249997  0.000001  1
  Ta  Ta3  1  0.749956  0.750004  0.000001  1
  Ta  Ta4  1  0.750081  0.750004  0.499992  1
  Ta  Ta5  1  0.249918  0.249994  0.499991  1
  Ru  Ru6  1  0.999999  0.499998  0.253448  1
  Ru  Ru7  1  0.999996  0.000003  0.253427  1
  Ru  Ru8  1  0.500001  0.499999  0.253532  1
  Ru  Ru9  1  0.499999  0.999999  0.253533  1
  Ru  Ru10  1  0.499999  0.499999  0.746446  1
  Ru  Ru11  1  0.500004  0.000002  0.746447  1
  Ru  Ru12  1  0.999998  0.500000  0.746551  1
  Ru  Ru13  1  0.000001  0.000001  0.746566  1
  W  W14  1  0.749992  0.249986  0.000009  1
  W  W15  1  0.250009  0.750013  0.000012  1
