# generated using pymatgen
data_Ac4ZnGaSi2
_symmetry_space_group_name_H-M   'P 1'
_cell_length_a   4.26720300
_cell_length_b   4.64520300
_cell_length_c   11.96481500
_cell_angle_alpha   90.00000000
_cell_angle_beta   90.00000000
_cell_angle_gamma   90.00000000
_symmetry_Int_Tables_number   1
_chemical_formula_structural   Ac4ZnGaSi2
_chemical_formula_sum   'Ac4 Zn1 Ga1 Si2'
_cell_volume   237.16685221
_cell_formula_units_Z   1
loop_
 _symmetry_equiv_pos_site_id
 _symmetry_equiv_pos_as_xyz
  1  'x, y, z'
loop_
 _atom_site_type_symbol
 _atom_site_label
 _atom_site_symmetry_multiplicity
 _atom_site_fract_x
 _atom_site_fract_y
 _atom_site_fract_z
 _atom_site_occupancy
  Ac  Ac0  1  0.000000  0.000000  0.358177  1
  Ac  Ac1  1  0.000000  0.500000  0.854116  1
  Ac  Ac2  1  0.500000  0.500000  0.142523  1
  Ac  Ac3  1  0.500000  0.000000  0.642612  1
  Zn  Zn4  1  0.500000  0.500000  0.440152  1
  Ga  Ga5  1  0.000000  0.000000  0.063306  1
  Si  Si6  1  0.000000  0.500000  0.565870  1
  Si  Si7  1  0.500000  0.000000  0.933243  1
