# generated using pymatgen
data_Sr3La(Al3Pd)6
_symmetry_space_group_name_H-M   'P 1'
_cell_length_a   7.72819143
_cell_length_b   7.73474373
_cell_length_c   9.67230500
_cell_angle_alpha   90.00000000
_cell_angle_beta   90.00000000
_cell_angle_gamma   119.46174832
_symmetry_Int_Tables_number   1
_chemical_formula_structural   Sr3La(Al3Pd)6
_chemical_formula_sum   'Sr3 La1 Al18 Pd6'
_cell_volume   503.40146278
_cell_formula_units_Z   1
loop_
 _symmetry_equiv_pos_site_id
 _symmetry_equiv_pos_as_xyz
  1  'x, y, z'
loop_
 _atom_site_type_symbol
 _atom_site_label
 _atom_site_symmetry_multiplicity
 _atom_site_fract_x
 _atom_site_fract_y
 _atom_site_fract_z
 _atom_site_occupancy
  Sr  Sr0  1  0.994512  0.669727  0.250000  1
  Sr  Sr1  1  0.003005  0.330254  0.750000  1
  Sr  Sr2  1  0.671266  0.995495  0.250000  1
  La  La3  1  0.330142  0.002354  0.750000  1
  Al  Al4  1  0.136632  0.136170  0.250000  1
  Al  Al5  1  0.867427  0.865295  0.750000  1
  Al  Al6  1  0.005427  0.334915  0.072927  1
  Al  Al7  1  0.995506  0.664304  0.924217  1
  Al  Al8  1  0.995506  0.664304  0.575783  1
  Al  Al9  1  0.334861  0.004700  0.427010  1
  Al  Al10  1  0.005427  0.334915  0.427073  1
  Al  Al11  1  0.666052  0.996915  0.575406  1
  Al  Al12  1  0.666052  0.996915  0.924594  1
  Al  Al13  1  0.334861  0.004700  0.072990  1
  Al  Al14  1  0.334517  0.334565  0.553642  1
  Al  Al15  1  0.663687  0.663750  0.453854  1
  Al  Al16  1  0.663687  0.663750  0.046146  1
  Al  Al17  1  0.334517  0.334565  0.946358  1
  Al  Al18  1  0.341590  0.543043  0.250000  1
  Al  Al19  1  0.655256  0.455463  0.750000  1
  Al  Al20  1  0.542032  0.341100  0.250000  1
  Al  Al21  1  0.458037  0.662729  0.750000  1
  Pd  Pd22  1  0.670375  0.328659  0.998721  1
  Pd  Pd23  1  0.328931  0.671177  0.998380  1
  Pd  Pd24  1  0.328931  0.671177  0.501620  1
  Pd  Pd25  1  0.670375  0.328659  0.501279  1
  Pd  Pd26  1  0.000694  0.000201  0.998387  1
  Pd  Pd27  1  0.000694  0.000201  0.501613  1
