# generated using pymatgen
data_Ho3Lu2ScFeSb2
_symmetry_space_group_name_H-M   'P 1'
_cell_length_a   7.99434100
_cell_length_b   7.99911305
_cell_length_c   4.12440900
_cell_angle_alpha   90.00000000
_cell_angle_beta   90.00000000
_cell_angle_gamma   119.98025510
_symmetry_Int_Tables_number   1
_chemical_formula_structural   Ho3Lu2ScFeSb2
_chemical_formula_sum   'Ho3 Lu2 Sc1 Fe1 Sb2'
_cell_volume   228.45635087
_cell_formula_units_Z   1
loop_
 _symmetry_equiv_pos_site_id
 _symmetry_equiv_pos_as_xyz
  1  'x, y, z'
loop_
 _atom_site_type_symbol
 _atom_site_label
 _atom_site_symmetry_multiplicity
 _atom_site_fract_x
 _atom_site_fract_y
 _atom_site_fract_z
 _atom_site_occupancy
  Ho  Ho0  1  0.602351  0.000000  0.500000  1
  Ho  Ho1  1  0.393079  0.391452  0.500000  1
  Ho  Ho2  1  0.001626  0.608548  0.500000  1
  Lu  Lu3  1  0.770067  0.768676  0.000000  1
  Lu  Lu4  1  0.001391  0.231324  0.000000  1
  Sc  Sc5  1  0.229410  0.000000  0.000000  1
  Fe  Fe6  1  0.005896  0.000000  0.500000  1
  Sb  Sb7  1  0.332792  0.669405  0.000000  1
  Sb  Sb8  1  0.663388  0.330595  0.000000  1
