# generated using pymatgen
data_Sm2Dy4TaRuO14
_symmetry_space_group_name_H-M   'P 1'
_cell_length_a   6.46847597
_cell_length_b   6.46847533
_cell_length_c   7.54494408
_cell_angle_alpha   90.01326508
_cell_angle_beta   89.98673987
_cell_angle_gamma   109.38377780
_symmetry_Int_Tables_number   1
_chemical_formula_structural   Sm2Dy4TaRuO14
_chemical_formula_sum   'Sm2 Dy4 Ta1 Ru1 O14'
_cell_volume   297.79500570
_cell_formula_units_Z   1
loop_
 _symmetry_equiv_pos_site_id
 _symmetry_equiv_pos_as_xyz
  1  'x, y, z'
loop_
 _atom_site_type_symbol
 _atom_site_label
 _atom_site_symmetry_multiplicity
 _atom_site_fract_x
 _atom_site_fract_y
 _atom_site_fract_z
 _atom_site_occupancy
  Sm  Sm0  1  0.500000  0.500000  0.500000  1
  Sm  Sm1  1  0.500000  0.500000  0.000000  1
  Dy  Dy2  1  0.535246  0.999967  0.750149  1
  Dy  Dy3  1  0.999967  0.535246  0.249851  1
  Dy  Dy4  1  0.464754  0.000033  0.249851  1
  Dy  Dy5  1  0.000033  0.464754  0.750149  1
  Ta  Ta6  1  0.000000  0.000000  0.000000  1
  Ru  Ru7  1  0.000000  0.000000  0.500000  1
  O  O8  1  0.680930  0.929284  0.469331  1
  O  O9  1  0.929284  0.680930  0.530669  1
  O  O10  1  0.678262  0.929437  0.031189  1
  O  O11  1  0.929437  0.678262  0.968811  1
  O  O12  1  0.319070  0.070716  0.530669  1
  O  O13  1  0.070716  0.319070  0.469331  1
  O  O14  1  0.321738  0.070563  0.968811  1
  O  O15  1  0.070563  0.321738  0.031189  1
  O  O16  1  0.934559  0.065441  0.748460  1
  O  O17  1  0.065441  0.934559  0.251540  1
  O  O18  1  0.366195  0.633804  0.750107  1
  O  O19  1  0.633804  0.366195  0.249893  1
  O  O20  1  0.639717  0.360283  0.749230  1
  O  O21  1  0.360283  0.639717  0.250770  1
