# generated using pymatgen
data_YTm5Al24(Os3Rh)2
_symmetry_space_group_name_H-M   'P 1'
_cell_length_a   8.76580527
_cell_length_b   8.76360913
_cell_length_c   9.56695600
_cell_angle_alpha   90.00000000
_cell_angle_beta   90.00000000
_cell_angle_gamma   119.63262752
_symmetry_Int_Tables_number   1
_chemical_formula_structural   YTm5Al24(Os3Rh)2
_chemical_formula_sum   'Y1 Tm5 Al24 Os6 Rh2'
_cell_volume   638.81493653
_cell_formula_units_Z   1
loop_
 _symmetry_equiv_pos_site_id
 _symmetry_equiv_pos_as_xyz
  1  'x, y, z'
loop_
 _atom_site_type_symbol
 _atom_site_label
 _atom_site_symmetry_multiplicity
 _atom_site_fract_x
 _atom_site_fract_y
 _atom_site_fract_z
 _atom_site_occupancy
  Y  Y0  1  0.185913  0.385186  0.250000  1
  Tm  Tm1  1  0.813840  0.612298  0.750000  1
  Tm  Tm2  1  0.612342  0.813900  0.250000  1
  Tm  Tm3  1  0.387722  0.186252  0.750000  1
  Tm  Tm4  1  0.194664  0.805739  0.250000  1
  Tm  Tm5  1  0.805448  0.194753  0.750000  1
  Al  Al6  1  0.333260  0.667150  0.023751  1
  Al  Al7  1  0.666746  0.333392  0.975646  1
  Al  Al8  1  0.666746  0.333392  0.524354  1
  Al  Al9  1  0.333260  0.667150  0.476249  1
  Al  Al10  1  0.162679  0.326082  0.577884  1
  Al  Al11  1  0.837359  0.674149  0.423008  1
  Al  Al12  1  0.674133  0.837267  0.577324  1
  Al  Al13  1  0.837359  0.674149  0.076992  1
  Al  Al14  1  0.326297  0.162454  0.423215  1
  Al  Al15  1  0.162679  0.326082  0.922116  1
  Al  Al16  1  0.164095  0.835916  0.576131  1
  Al  Al17  1  0.326297  0.162454  0.076785  1
  Al  Al18  1  0.835319  0.164043  0.424454  1
  Al  Al19  1  0.674133  0.837267  0.922676  1
  Al  Al20  1  0.835319  0.164043  0.075546  1
  Al  Al21  1  0.164095  0.835916  0.923869  1
  Al  Al22  1  0.560917  0.126264  0.250000  1
  Al  Al23  1  0.439077  0.873713  0.750000  1
  Al  Al24  1  0.873260  0.439326  0.250000  1
  Al  Al25  1  0.126373  0.561052  0.750000  1
  Al  Al26  1  0.560135  0.441015  0.250000  1
  Al  Al27  1  0.440958  0.559238  0.750000  1
  Al  Al28  1  0.997387  0.999532  0.250000  1
  Al  Al29  1  0.001601  0.998480  0.750000  1
  Os  Os30  1  0.500199  0.000333  0.999807  1
  Os  Os31  1  0.999522  0.500292  0.999270  1
  Os  Os32  1  0.500199  0.000333  0.500193  1
  Os  Os33  1  0.999522  0.500292  0.500730  1
  Os  Os34  1  0.000074  0.000189  0.000002  1
  Os  Os35  1  0.000074  0.000189  0.499998  1
  Rh  Rh36  1  0.500498  0.500360  0.999599  1
  Rh  Rh37  1  0.500498  0.500360  0.500401  1
