# generated using pymatgen
data_CaY4Lu2Co6Sn23
_symmetry_space_group_name_H-M   'P 1'
_cell_length_a   9.71817288
_cell_length_b   9.71817507
_cell_length_c   9.94109719
_cell_angle_alpha   89.98061617
_cell_angle_beta   90.01938265
_cell_angle_gamma   119.95515478
_symmetry_Int_Tables_number   1
_chemical_formula_structural   CaY4Lu2Co6Sn23
_chemical_formula_sum   'Ca1 Y4 Lu2 Co6 Sn23'
_cell_volume   813.44900790
_cell_formula_units_Z   1
loop_
 _symmetry_equiv_pos_site_id
 _symmetry_equiv_pos_as_xyz
  1  'x, y, z'
loop_
 _atom_site_type_symbol
 _atom_site_label
 _atom_site_symmetry_multiplicity
 _atom_site_fract_x
 _atom_site_fract_y
 _atom_site_fract_z
 _atom_site_occupancy
  Ca  Ca0  1  0.000277  0.999723  0.001082  1
  Y  Y1  1  0.478803  0.521197  0.306211  1
  Y  Y2  1  0.957520  0.478791  0.693451  1
  Y  Y3  1  0.521209  0.042480  0.693451  1
  Y  Y4  1  0.521128  0.478872  0.693204  1
  Lu  Lu5  1  0.038588  0.518837  0.304972  1
  Lu  Lu6  1  0.481163  0.961412  0.304972  1
  Co  Co7  1  0.168830  0.831170  0.801024  1
  Co  Co8  1  0.662537  0.831273  0.801691  1
  Co  Co9  1  0.168727  0.337463  0.801691  1
  Co  Co10  1  0.830591  0.169409  0.199117  1
  Co  Co11  1  0.337505  0.167138  0.198939  1
  Co  Co12  1  0.832862  0.662495  0.198939  1
  Sn  Sn13  1  0.000365  0.999635  0.499620  1
  Sn  Sn14  1  0.119032  0.880968  0.274822  1
  Sn  Sn15  1  0.764881  0.883075  0.274481  1
  Sn  Sn16  1  0.116925  0.235119  0.274481  1
  Sn  Sn17  1  0.882887  0.117113  0.725981  1
  Sn  Sn18  1  0.233847  0.116894  0.725947  1
  Sn  Sn19  1  0.883106  0.766153  0.725947  1
  Sn  Sn20  1  0.346076  0.999508  0.000117  1
  Sn  Sn21  1  0.653886  0.653786  0.000342  1
  Sn  Sn22  1  0.000011  0.346211  0.000281  1
  Sn  Sn23  1  0.346214  0.346114  0.000342  1
  Sn  Sn24  1  0.000492  0.653924  0.000117  1
  Sn  Sn25  1  0.653789  0.999989  0.000281  1
  Sn  Sn26  1  0.782365  0.562042  0.451266  1
  Sn  Sn27  1  0.781191  0.218809  0.451119  1
  Sn  Sn28  1  0.437958  0.217635  0.451266  1
  Sn  Sn29  1  0.218021  0.438068  0.547080  1
  Sn  Sn30  1  0.219302  0.780698  0.545981  1
  Sn  Sn31  1  0.561932  0.781979  0.547080  1
  Sn  Sn32  1  0.666813  0.333187  0.183877  1
  Sn  Sn33  1  0.333408  0.666592  0.816712  1
  Sn  Sn34  1  0.666585  0.333415  0.882243  1
  Sn  Sn35  1  0.331174  0.668826  0.121873  1
