# generated using pymatgen
data_Dy4ScRuPt2
_symmetry_space_group_name_H-M   'P 1'
_cell_length_a   10.92351400
_cell_length_b   10.92351400
_cell_length_c   6.24678400
_cell_angle_alpha   90.00000000
_cell_angle_beta   90.00000000
_cell_angle_gamma   90.00000000
_symmetry_Int_Tables_number   1
_chemical_formula_structural   Dy4ScRuPt2
_chemical_formula_sum   'Dy16 Sc4 Ru4 Pt8'
_cell_volume   745.38599490
_cell_formula_units_Z   4
loop_
 _symmetry_equiv_pos_site_id
 _symmetry_equiv_pos_as_xyz
  1  'x, y, z'
loop_
 _atom_site_type_symbol
 _atom_site_label
 _atom_site_symmetry_multiplicity
 _atom_site_fract_x
 _atom_site_fract_y
 _atom_site_fract_z
 _atom_site_occupancy
  Dy  Dy0  1  0.292929  0.085048  0.375214  1
  Dy  Dy1  1  0.292929  0.914952  0.875214  1
  Dy  Dy2  1  0.707071  0.085048  0.875214  1
  Dy  Dy3  1  0.707071  0.914952  0.375214  1
  Dy  Dy4  1  0.585048  0.792929  0.875214  1
  Dy  Dy5  1  0.585048  0.207071  0.375214  1
  Dy  Dy6  1  0.414952  0.792929  0.375214  1
  Dy  Dy7  1  0.414952  0.207071  0.875214  1
  Dy  Dy8  1  0.207071  0.414952  0.624786  1
  Dy  Dy9  1  0.207071  0.585048  0.124786  1
  Dy  Dy10  1  0.792929  0.414952  0.124786  1
  Dy  Dy11  1  0.792929  0.585048  0.624786  1
  Dy  Dy12  1  0.914952  0.707071  0.124786  1
  Dy  Dy13  1  0.914952  0.292929  0.624786  1
  Dy  Dy14  1  0.085048  0.707071  0.624786  1
  Dy  Dy15  1  0.085048  0.292929  0.124786  1
  Sc  Sc16  1  0.000000  0.000000  0.500000  1
  Sc  Sc17  1  0.000000  0.000000  0.000000  1
  Sc  Sc18  1  0.500000  0.500000  0.000000  1
  Sc  Sc19  1  0.500000  0.500000  0.500000  1
  Ru  Ru20  1  0.500000  0.000000  0.124217  1
  Ru  Ru21  1  0.500000  0.000000  0.624217  1
  Ru  Ru22  1  0.000000  0.500000  0.875783  1
  Ru  Ru23  1  0.000000  0.500000  0.375783  1
  Pt  Pt24  1  0.852963  0.147037  0.250000  1
  Pt  Pt25  1  0.852963  0.852963  0.750000  1
  Pt  Pt26  1  0.147037  0.147037  0.750000  1
  Pt  Pt27  1  0.147037  0.852963  0.250000  1
  Pt  Pt28  1  0.647037  0.352963  0.750000  1
  Pt  Pt29  1  0.647037  0.647037  0.250000  1
  Pt  Pt30  1  0.352963  0.352963  0.250000  1
  Pt  Pt31  1  0.352963  0.647037  0.750000  1
