# generated using pymatgen
data_PrNdGa9Ru5
_symmetry_space_group_name_H-M   'P 1'
_cell_length_a   8.17451679
_cell_length_b   8.17451589
_cell_length_c   8.17451696
_cell_angle_alpha   135.24347954
_cell_angle_beta   135.05847471
_cell_angle_gamma   65.29582307
_symmetry_Int_Tables_number   1
_chemical_formula_structural   PrNdGa9Ru5
_chemical_formula_sum   'Pr1 Nd1 Ga9 Ru5'
_cell_volume   267.71243884
_cell_formula_units_Z   1
loop_
 _symmetry_equiv_pos_site_id
 _symmetry_equiv_pos_as_xyz
  1  'x, y, z'
loop_
 _atom_site_type_symbol
 _atom_site_label
 _atom_site_symmetry_multiplicity
 _atom_site_fract_x
 _atom_site_fract_y
 _atom_site_fract_z
 _atom_site_occupancy
  Pr  Pr0  1  0.000000  0.500000  0.500000  1
  Nd  Nd1  1  0.500000  0.000000  0.500000  1
  Ga  Ga2  1  0.443612  0.861360  0.001143  1
  Ga  Ga3  1  0.139783  0.138640  0.582252  1
  Ga  Ga4  1  0.860217  0.442469  0.998857  1
  Ga  Ga5  1  0.860217  0.861360  0.417748  1
  Ga  Ga6  1  0.556388  0.138640  0.998857  1
  Ga  Ga7  1  0.139783  0.557531  0.001143  1
  Ga  Ga8  1  0.556388  0.557531  0.417748  1
  Ga  Ga9  1  0.000000  0.000000  0.000000  1
  Ga  Ga10  1  0.443612  0.442469  0.582252  1
  Ru  Ru11  1  0.178160  0.178160  0.000000  1
  Ru  Ru12  1  0.821840  0.821840  0.000000  1
  Ru  Ru13  1  0.249814  0.749814  0.500000  1
  Ru  Ru14  1  0.750186  0.250186  0.500000  1
  Ru  Ru15  1  0.500000  0.500000  0.000000  1
