# generated using pymatgen
data_Ce2Al9TcPd2
_symmetry_space_group_name_H-M   'P 1'
_cell_length_a   7.68579519
_cell_length_b   7.68579545
_cell_length_c   9.52187500
_cell_angle_alpha   90.00000000
_cell_angle_beta   90.00000000
_cell_angle_gamma   118.81100858
_symmetry_Int_Tables_number   1
_chemical_formula_structural   Ce2Al9TcPd2
_chemical_formula_sum   'Ce4 Al18 Tc2 Pd4'
_cell_volume   492.84498694
_cell_formula_units_Z   2
loop_
 _symmetry_equiv_pos_site_id
 _symmetry_equiv_pos_as_xyz
  1  'x, y, z'
loop_
 _atom_site_type_symbol
 _atom_site_label
 _atom_site_symmetry_multiplicity
 _atom_site_fract_x
 _atom_site_fract_y
 _atom_site_fract_z
 _atom_site_occupancy
  Ce  Ce0  1  0.995445  0.680819  0.250000  1
  Ce  Ce1  1  0.004555  0.319181  0.750000  1
  Ce  Ce2  1  0.680819  0.995445  0.250000  1
  Ce  Ce3  1  0.319181  0.004555  0.750000  1
  Al  Al4  1  0.134374  0.134374  0.250000  1
  Al  Al5  1  0.865626  0.865626  0.750000  1
  Al  Al6  1  0.003492  0.335634  0.077865  1
  Al  Al7  1  0.996508  0.664366  0.922135  1
  Al  Al8  1  0.996508  0.664366  0.577865  1
  Al  Al9  1  0.335634  0.003492  0.422135  1
  Al  Al10  1  0.003492  0.335634  0.422135  1
  Al  Al11  1  0.664366  0.996508  0.577865  1
  Al  Al12  1  0.664366  0.996508  0.922135  1
  Al  Al13  1  0.335634  0.003492  0.077865  1
  Al  Al14  1  0.330836  0.330836  0.548005  1
  Al  Al15  1  0.669164  0.669164  0.451995  1
  Al  Al16  1  0.669164  0.669164  0.048005  1
  Al  Al17  1  0.330836  0.330836  0.951995  1
  Al  Al18  1  0.346250  0.551644  0.250000  1
  Al  Al19  1  0.653750  0.448356  0.750000  1
  Al  Al20  1  0.551644  0.346250  0.250000  1
  Al  Al21  1  0.448356  0.653750  0.750000  1
  Tc  Tc22  1  0.000000  0.000000  0.000000  1
  Tc  Tc23  1  0.000000  0.000000  0.500000  1
  Pd  Pd24  1  0.671883  0.328117  0.000000  1
  Pd  Pd25  1  0.328117  0.671883  0.000000  1
  Pd  Pd26  1  0.328117  0.671883  0.500000  1
  Pd  Pd27  1  0.671883  0.328117  0.500000  1
