# generated using pymatgen
data_La3Nd6Y7(CdPd)4
_symmetry_space_group_name_H-M   'P 1'
_cell_length_a   9.95662972
_cell_length_b   9.92187214
_cell_length_c   9.92187100
_cell_angle_alpha   60.00000048
_cell_angle_beta   60.11541142
_cell_angle_gamma   60.11541930
_symmetry_Int_Tables_number   1
_chemical_formula_structural   La3Nd6Y7(CdPd)4
_chemical_formula_sum   'La3 Nd6 Y7 Cd4 Pd4'
_cell_volume   694.28853205
_cell_formula_units_Z   1
loop_
 _symmetry_equiv_pos_site_id
 _symmetry_equiv_pos_as_xyz
  1  'x, y, z'
loop_
 _atom_site_type_symbol
 _atom_site_label
 _atom_site_symmetry_multiplicity
 _atom_site_fract_x
 _atom_site_fract_y
 _atom_site_fract_z
 _atom_site_occupancy
  La  La0  1  0.350315  0.354392  0.354392  1
  La  La1  1  0.350315  0.354392  0.940901  1
  La  La2  1  0.350315  0.940901  0.354392  1
  Nd  Nd3  1  0.933573  0.565799  0.565799  1
  Nd  Nd4  1  0.565919  0.934479  0.934479  1
  Nd  Nd5  1  0.565919  0.934479  0.565124  1
  Nd  Nd6  1  0.933573  0.565799  0.934829  1
  Nd  Nd7  1  0.565919  0.565124  0.934479  1
  Nd  Nd8  1  0.933573  0.934829  0.565799  1
  Y  Y9  1  0.939559  0.353480  0.353480  1
  Y  Y10  1  0.814331  0.186607  0.186607  1
  Y  Y11  1  0.186297  0.814595  0.814595  1
  Y  Y12  1  0.186297  0.814595  0.184514  1
  Y  Y13  1  0.814331  0.186607  0.812454  1
  Y  Y14  1  0.186297  0.184514  0.814595  1
  Y  Y15  1  0.814331  0.812454  0.186607  1
  Cd  Cd16  1  0.584661  0.578900  0.578900  1
  Cd  Cd17  1  0.584661  0.578900  0.257540  1
  Cd  Cd18  1  0.584661  0.257540  0.578900  1
  Cd  Cd19  1  0.258800  0.580400  0.580400  1
  Pd  Pd20  1  0.139683  0.143429  0.143429  1
  Pd  Pd21  1  0.139683  0.143429  0.573458  1
  Pd  Pd22  1  0.139683  0.573458  0.143429  1
  Pd  Pd23  1  0.577304  0.140898  0.140898  1
