# generated using pymatgen
data_LiCa10CdSb9
_symmetry_space_group_name_H-M   'P 1'
_cell_length_a   11.96409900
_cell_length_b   11.96409900
_cell_length_c   17.18480800
_cell_angle_alpha   90.00000000
_cell_angle_beta   90.00000000
_cell_angle_gamma   90.00000000
_symmetry_Int_Tables_number   1
_chemical_formula_structural   LiCa10CdSb9
_chemical_formula_sum   'Li4 Ca40 Cd4 Sb36'
_cell_volume   2459.82765818
_cell_formula_units_Z   4
loop_
 _symmetry_equiv_pos_site_id
 _symmetry_equiv_pos_as_xyz
  1  'x, y, z'
loop_
 _atom_site_type_symbol
 _atom_site_label
 _atom_site_symmetry_multiplicity
 _atom_site_fract_x
 _atom_site_fract_y
 _atom_site_fract_z
 _atom_site_occupancy
  Li  Li0  1  0.776771  0.223229  0.500000  1
  Li  Li1  1  0.223229  0.776771  0.500000  1
  Li  Li2  1  0.723229  0.723229  0.000000  1
  Li  Li3  1  0.276771  0.276771  0.000000  1
  Ca  Ca4  1  0.484955  0.837547  0.103499  1
  Ca  Ca5  1  0.515045  0.162453  0.896501  1
  Ca  Ca6  1  0.248433  0.511796  0.689821  1
  Ca  Ca7  1  0.000000  0.000000  0.643724  1
  Ca  Ca8  1  0.751567  0.488204  0.310179  1
  Ca  Ca9  1  0.488204  0.751567  0.689821  1
  Ca  Ca10  1  0.015045  0.337547  0.396501  1
  Ca  Ca11  1  0.162453  0.515045  0.896501  1
  Ca  Ca12  1  0.011796  0.251567  0.189821  1
  Ca  Ca13  1  0.337547  0.015045  0.603499  1
  Ca  Ca14  1  0.511796  0.248433  0.689821  1
  Ca  Ca15  1  0.748433  0.988204  0.810179  1
  Ca  Ca16  1  0.837547  0.484955  0.103499  1
  Ca  Ca17  1  0.988204  0.748433  0.810179  1
  Ca  Ca18  1  0.662453  0.984955  0.396501  1
  Ca  Ca19  1  0.337547  0.015045  0.396501  1
  Ca  Ca20  1  0.500000  0.500000  0.856276  1
  Ca  Ca21  1  0.751567  0.488204  0.689821  1
  Ca  Ca22  1  0.984955  0.662453  0.396501  1
  Ca  Ca23  1  0.015045  0.337547  0.603499  1
  Ca  Ca24  1  0.248433  0.511796  0.310179  1
  Ca  Ca25  1  0.819193  0.180807  0.000000  1
  Ca  Ca26  1  0.511796  0.248433  0.310179  1
  Ca  Ca27  1  0.837547  0.484955  0.896501  1
  Ca  Ca28  1  0.500000  0.500000  0.143724  1
  Ca  Ca29  1  0.984955  0.662453  0.603499  1
  Ca  Ca30  1  0.748433  0.988204  0.189821  1
  Ca  Ca31  1  0.488204  0.751567  0.310179  1
  Ca  Ca32  1  0.988204  0.748433  0.189821  1
  Ca  Ca33  1  0.680807  0.680807  0.500000  1
  Ca  Ca34  1  0.251567  0.011796  0.189821  1
  Ca  Ca35  1  0.662453  0.984955  0.603499  1
  Ca  Ca36  1  0.011796  0.251567  0.810179  1
  Ca  Ca37  1  0.319193  0.319193  0.500000  1
  Ca  Ca38  1  0.515045  0.162453  0.103499  1
  Ca  Ca39  1  0.000000  0.000000  0.356276  1
  Ca  Ca40  1  0.251567  0.011796  0.810179  1
  Ca  Ca41  1  0.484955  0.837547  0.896501  1
  Ca  Ca42  1  0.162453  0.515045  0.103499  1
  Ca  Ca43  1  0.180807  0.819193  0.000000  1
  Cd  Cd44  1  0.103767  0.103767  0.000000  1
  Cd  Cd45  1  0.396233  0.603767  0.500000  1
  Cd  Cd46  1  0.603767  0.396233  0.500000  1
  Cd  Cd47  1  0.896233  0.896233  0.000000  1
  Sb  Sb48  1  0.223790  0.223790  0.319222  1
  Sb  Sb49  1  0.371368  0.628632  0.000000  1
  Sb  Sb50  1  0.185918  0.814082  0.671036  1
  Sb  Sb51  1  0.628632  0.371368  0.000000  1
  Sb  Sb52  1  0.314082  0.314082  0.828964  1
  Sb  Sb53  1  0.336718  0.030720  0.000000  1
  Sb  Sb54  1  0.500000  0.000000  0.750000  1
  Sb  Sb55  1  0.836718  0.469280  0.500000  1
  Sb  Sb56  1  0.314082  0.314082  0.171036  1
  Sb  Sb57  1  0.685918  0.685918  0.171036  1
  Sb  Sb58  1  0.500000  0.000000  0.250000  1
  Sb  Sb59  1  0.723790  0.276210  0.819222  1
  Sb  Sb60  1  0.814082  0.185918  0.328964  1
  Sb  Sb61  1  0.185918  0.814082  0.328964  1
  Sb  Sb62  1  0.871368  0.871368  0.500000  1
  Sb  Sb63  1  0.163282  0.530720  0.500000  1
  Sb  Sb64  1  0.776210  0.776210  0.680778  1
  Sb  Sb65  1  0.814082  0.185918  0.671036  1
  Sb  Sb66  1  0.000000  0.000000  0.861323  1
  Sb  Sb67  1  0.776210  0.776210  0.319222  1
  Sb  Sb68  1  0.500000  0.500000  0.361323  1
  Sb  Sb69  1  0.969280  0.663282  0.000000  1
  Sb  Sb70  1  0.685918  0.685918  0.828964  1
  Sb  Sb71  1  0.500000  0.500000  0.638677  1
  Sb  Sb72  1  0.276210  0.723790  0.180778  1
  Sb  Sb73  1  0.030720  0.336718  0.000000  1
  Sb  Sb74  1  0.530720  0.163282  0.500000  1
  Sb  Sb75  1  0.276210  0.723790  0.819222  1
  Sb  Sb76  1  0.663282  0.969280  0.000000  1
  Sb  Sb77  1  0.469280  0.836718  0.500000  1
  Sb  Sb78  1  0.223790  0.223790  0.680778  1
  Sb  Sb79  1  0.128632  0.128632  0.500000  1
  Sb  Sb80  1  0.723790  0.276210  0.180778  1
  Sb  Sb81  1  0.000000  0.000000  0.138677  1
  Sb  Sb82  1  0.000000  0.500000  0.750000  1
  Sb  Sb83  1  0.000000  0.500000  0.250000  1
