# generated using pymatgen
data_PuNp3F24
_symmetry_space_group_name_H-M   'P 1'
_cell_length_a   5.44096501
_cell_length_b   9.37055100
_cell_length_c   10.37697501
_cell_angle_alpha   90.00000000
_cell_angle_beta   90.00521653
_cell_angle_gamma   90.00000000
_symmetry_Int_Tables_number   1
_chemical_formula_structural   PuNp3F24
_chemical_formula_sum   'Pu1 Np3 F24'
_cell_volume   529.06840919
_cell_formula_units_Z   1
loop_
 _symmetry_equiv_pos_site_id
 _symmetry_equiv_pos_as_xyz
  1  'x, y, z'
loop_
 _atom_site_type_symbol
 _atom_site_label
 _atom_site_symmetry_multiplicity
 _atom_site_fract_x
 _atom_site_fract_y
 _atom_site_fract_z
 _atom_site_occupancy
  Pu  Pu0  1  0.919800  0.750000  0.629415  1
  Np  Np1  1  0.080221  0.250000  0.370725  1
  Np  Np2  1  0.419724  0.250000  0.870277  1
  Np  Np3  1  0.580287  0.750000  0.129677  1
  F  F4  1  0.217253  0.750000  0.517205  1
  F  F5  1  0.780418  0.250000  0.483606  1
  F  F6  1  0.719412  0.250000  0.983358  1
  F  F7  1  0.280787  0.750000  0.016488  1
  F  F8  1  0.622297  0.750000  0.742099  1
  F  F9  1  0.379971  0.250000  0.257141  1
  F  F10  1  0.119991  0.250000  0.756947  1
  F  F11  1  0.880102  0.750000  0.242945  1
  F  F12  1  0.766768  0.598975  0.517782  1
  F  F13  1  0.232945  0.401159  0.482043  1
  F  F14  1  0.267257  0.401217  0.981866  1
  F  F15  1  0.232945  0.098841  0.482043  1
  F  F16  1  0.732595  0.598869  0.017995  1
  F  F17  1  0.766768  0.901025  0.517782  1
  F  F18  1  0.732595  0.901131  0.017995  1
  F  F19  1  0.267257  0.098783  0.981866  1
  F  F20  1  0.072099  0.598642  0.740791  1
  F  F21  1  0.928279  0.401456  0.259496  1
  F  F22  1  0.571688  0.401542  0.759314  1
  F  F23  1  0.928279  0.098544  0.259496  1
  F  F24  1  0.428236  0.598536  0.240770  1
  F  F25  1  0.072099  0.901358  0.740791  1
  F  F26  1  0.428236  0.901464  0.240770  1
  F  F27  1  0.571688  0.098458  0.759314  1
