# generated using pymatgen
data_Yb9Pr2Ho9Sn16
_symmetry_space_group_name_H-M   'P 1'
_cell_length_a   7.85476418
_cell_length_b   8.42925756
_cell_length_c   15.91721769
_cell_angle_alpha   90.03038336
_cell_angle_beta   90.01447539
_cell_angle_gamma   89.80849103
_symmetry_Int_Tables_number   1
_chemical_formula_structural   Yb9Pr2Ho9Sn16
_chemical_formula_sum   'Yb9 Pr2 Ho9 Sn16'
_cell_volume   1053.87021437
_cell_formula_units_Z   1
loop_
 _symmetry_equiv_pos_site_id
 _symmetry_equiv_pos_as_xyz
  1  'x, y, z'
loop_
 _atom_site_type_symbol
 _atom_site_label
 _atom_site_symmetry_multiplicity
 _atom_site_fract_x
 _atom_site_fract_y
 _atom_site_fract_z
 _atom_site_occupancy
  Yb  Yb0  1  0.494621  0.312080  0.092505  1
  Yb  Yb1  1  0.996040  0.186854  0.407950  1
  Yb  Yb2  1  0.494214  0.312407  0.407448  1
  Yb  Yb3  1  0.995600  0.186561  0.092133  1
  Yb  Yb4  1  0.503877  0.687071  0.906119  1
  Yb  Yb5  1  0.004252  0.815934  0.591763  1
  Yb  Yb6  1  0.336192  0.990674  0.749844  1
  Yb  Yb7  1  0.163897  0.488163  0.250012  1
  Yb  Yb8  1  0.663612  0.009659  0.249999  1
  Pr  Pr9  1  0.504861  0.686761  0.594222  1
  Pr  Pr10  1  0.004739  0.816817  0.908221  1
  Ho  Ho11  1  0.673963  0.164259  0.622556  1
  Ho  Ho12  1  0.175030  0.333484  0.876654  1
  Ho  Ho13  1  0.325757  0.832819  0.122247  1
  Ho  Ho14  1  0.826160  0.664496  0.378016  1
  Ho  Ho15  1  0.325600  0.832936  0.377571  1
  Ho  Ho16  1  0.825836  0.664332  0.122196  1
  Ho  Ho17  1  0.674193  0.164246  0.877288  1
  Ho  Ho18  1  0.174995  0.334201  0.623405  1
  Ho  Ho19  1  0.837006  0.509491  0.750196  1
  Sn  Sn20  1  0.672265  0.962364  0.459719  1
  Sn  Sn21  1  0.172248  0.536955  0.039657  1
  Sn  Sn22  1  0.328836  0.037248  0.959332  1
  Sn  Sn23  1  0.828904  0.465088  0.543848  1
  Sn  Sn24  1  0.328698  0.036544  0.540745  1
  Sn  Sn25  1  0.828384  0.466225  0.956084  1
  Sn  Sn26  1  0.673018  0.962096  0.040429  1
  Sn  Sn27  1  0.172749  0.537342  0.460216  1
  Sn  Sn28  1  0.475613  0.380211  0.750025  1
  Sn  Sn29  1  0.972117  0.133341  0.750017  1
  Sn  Sn30  1  0.527625  0.624462  0.249982  1
  Sn  Sn31  1  0.027087  0.872827  0.249989  1
  Sn  Sn32  1  0.719968  0.863110  0.749864  1
  Sn  Sn33  1  0.209096  0.631922  0.749825  1
  Sn  Sn34  1  0.280951  0.126783  0.249875  1
  Sn  Sn35  1  0.781996  0.370239  0.250048  1
