# generated using pymatgen
data_Nb8FeNiTe8
_symmetry_space_group_name_H-M   'P 1'
_cell_length_a   4.85171000
_cell_length_b   10.70679100
_cell_length_c   18.62923000
_cell_angle_alpha   90.00000000
_cell_angle_beta   90.00000000
_cell_angle_gamma   90.00000000
_symmetry_Int_Tables_number   1
_chemical_formula_structural   Nb8FeNiTe8
_chemical_formula_sum   'Nb16 Fe2 Ni2 Te16'
_cell_volume   967.71854504
_cell_formula_units_Z   2
loop_
 _symmetry_equiv_pos_site_id
 _symmetry_equiv_pos_as_xyz
  1  'x, y, z'
loop_
 _atom_site_type_symbol
 _atom_site_label
 _atom_site_symmetry_multiplicity
 _atom_site_fract_x
 _atom_site_fract_y
 _atom_site_fract_z
 _atom_site_occupancy
  Nb  Nb0  1  0.498503  0.565899  0.381045  1
  Nb  Nb1  1  0.498503  0.434101  0.618955  1
  Nb  Nb2  1  0.501497  0.065899  0.118955  1
  Nb  Nb3  1  0.501497  0.934101  0.881045  1
  Nb  Nb4  1  0.498834  0.708384  0.537311  1
  Nb  Nb5  1  0.498834  0.291616  0.462689  1
  Nb  Nb6  1  0.501166  0.208384  0.962689  1
  Nb  Nb7  1  0.501166  0.791616  0.037311  1
  Nb  Nb8  1  0.001754  0.693594  0.441525  1
  Nb  Nb9  1  0.001754  0.306406  0.558475  1
  Nb  Nb10  1  0.998246  0.193594  0.058475  1
  Nb  Nb11  1  0.998246  0.806406  0.941525  1
  Nb  Nb12  1  0.001096  0.399347  0.389442  1
  Nb  Nb13  1  0.001096  0.600653  0.610558  1
  Nb  Nb14  1  0.998904  0.899347  0.110558  1
  Nb  Nb15  1  0.998904  0.100653  0.889442  1
  Fe  Fe16  1  0.749264  0.500000  0.500000  1
  Fe  Fe17  1  0.250736  0.000000  0.000000  1
  Ni  Ni18  1  0.249240  0.500000  0.500000  1
  Ni  Ni19  1  0.750760  0.000000  0.000000  1
  Te  Te20  1  0.999885  0.854671  0.564510  1
  Te  Te21  1  0.999885  0.145329  0.435490  1
  Te  Te22  1  0.000115  0.354671  0.935490  1
  Te  Te23  1  0.000115  0.645329  0.064510  1
  Te  Te24  1  0.500188  0.329108  0.311387  1
  Te  Te25  1  0.500188  0.670892  0.688613  1
  Te  Te26  1  0.499812  0.829108  0.188613  1
  Te  Te27  1  0.499812  0.170892  0.811387  1
  Te  Te28  1  0.500461  0.830948  0.400962  1
  Te  Te29  1  0.500461  0.169052  0.599038  1
  Te  Te30  1  0.499539  0.330948  0.099038  1
  Te  Te31  1  0.499539  0.669052  0.900962  1
  Te  Te32  1  0.999834  0.610313  0.296002  1
  Te  Te33  1  0.999834  0.389687  0.703998  1
  Te  Te34  1  0.000166  0.110313  0.203998  1
  Te  Te35  1  0.000166  0.889687  0.796002  1
