# generated using pymatgen
data_Hf18CoRe2NiMo6
_symmetry_space_group_name_H-M   'P 1'
_cell_length_a   8.66286101
_cell_length_b   8.66285980
_cell_length_c   8.48376800
_cell_angle_alpha   90.00000000
_cell_angle_beta   90.00000000
_cell_angle_gamma   119.98286240
_symmetry_Int_Tables_number   1
_chemical_formula_structural   Hf18CoRe2NiMo6
_chemical_formula_sum   'Hf18 Co1 Re2 Ni1 Mo6'
_cell_volume   551.46381393
_cell_formula_units_Z   1
loop_
 _symmetry_equiv_pos_site_id
 _symmetry_equiv_pos_as_xyz
  1  'x, y, z'
loop_
 _atom_site_type_symbol
 _atom_site_label
 _atom_site_symmetry_multiplicity
 _atom_site_fract_x
 _atom_site_fract_y
 _atom_site_fract_z
 _atom_site_occupancy
  Hf  Hf0  1  0.200139  0.799861  0.443367  1
  Hf  Hf1  1  0.199496  0.399062  0.444211  1
  Hf  Hf2  1  0.600938  0.800504  0.444211  1
  Hf  Hf3  1  0.799272  0.200728  0.560770  1
  Hf  Hf4  1  0.798685  0.597756  0.559390  1
  Hf  Hf5  1  0.402244  0.201315  0.559390  1
  Hf  Hf6  1  0.799272  0.200728  0.939230  1
  Hf  Hf7  1  0.798685  0.597756  0.940610  1
  Hf  Hf8  1  0.402244  0.201315  0.940610  1
  Hf  Hf9  1  0.200139  0.799861  0.056633  1
  Hf  Hf10  1  0.199496  0.399062  0.055789  1
  Hf  Hf11  1  0.600938  0.800504  0.055789  1
  Hf  Hf12  1  0.542219  0.457781  0.250000  1
  Hf  Hf13  1  0.542756  0.084594  0.250000  1
  Hf  Hf14  1  0.915406  0.457244  0.250000  1
  Hf  Hf15  1  0.457837  0.542163  0.750000  1
  Hf  Hf16  1  0.458729  0.915302  0.750000  1
  Hf  Hf17  1  0.084698  0.541271  0.750000  1
  Co  Co18  1  0.666473  0.333527  0.750000  1
  Re  Re19  1  0.111184  0.224990  0.750000  1
  Re  Re20  1  0.775010  0.888816  0.750000  1
  Ni  Ni21  1  0.333940  0.666060  0.250000  1
  Mo  Mo22  1  0.888182  0.111818  0.250000  1
  Mo  Mo23  1  0.887468  0.775385  0.250000  1
  Mo  Mo24  1  0.224615  0.112532  0.250000  1
  Mo  Mo25  1  0.110401  0.889599  0.750000  1
  Mo  Mo26  1  0.999768  0.000232  0.500425  1
  Mo  Mo27  1  0.999768  0.000232  0.999575  1
