# generated using pymatgen
data_Ho6Tm4(InBi)3
_symmetry_space_group_name_H-M   'P 1'
_cell_length_a   6.50738200
_cell_length_b   9.00115569
_cell_length_c   9.00232600
_cell_angle_alpha   119.99569677
_cell_angle_beta   89.99976557
_cell_angle_gamma   90.00046248
_symmetry_Int_Tables_number   1
_chemical_formula_structural   Ho6Tm4(InBi)3
_chemical_formula_sum   'Ho6 Tm4 In3 Bi3'
_cell_volume   456.67661476
_cell_formula_units_Z   1
loop_
 _symmetry_equiv_pos_site_id
 _symmetry_equiv_pos_as_xyz
  1  'x, y, z'
loop_
 _atom_site_type_symbol
 _atom_site_label
 _atom_site_symmetry_multiplicity
 _atom_site_fract_x
 _atom_site_fract_y
 _atom_site_fract_z
 _atom_site_occupancy
  Ho  Ho0  1  0.750002  0.236344  0.000000  1
  Ho  Ho1  1  0.749995  0.763420  0.763507  1
  Ho  Ho2  1  0.749995  0.999913  0.236493  1
  Ho  Ho3  1  0.249999  0.762003  0.000000  1
  Ho  Ho4  1  0.250000  0.238201  0.238111  1
  Ho  Ho5  1  0.250000  0.000090  0.761889  1
  Tm  Tm6  1  0.492393  0.333329  0.666659  1
  Tm  Tm7  1  0.492393  0.666670  0.333341  1
  Tm  Tm8  1  0.007610  0.666668  0.333343  1
  Tm  Tm9  1  0.007610  0.333326  0.666657  1
  In  In10  1  0.250000  0.394241  0.000000  1
  In  In11  1  0.250001  0.605975  0.605957  1
  In  In12  1  0.250001  0.000017  0.394043  1
  Bi  Bi13  1  0.750003  0.603444  0.000000  1
  Bi  Bi14  1  0.749997  0.396388  0.396415  1
  Bi  Bi15  1  0.749997  0.999974  0.603585  1
