# generated using pymatgen
data_Y4Tm6Ir3Os
_symmetry_space_group_name_H-M   'P 1'
_cell_length_a   6.42578575
_cell_length_b   7.24294022
_cell_length_c   8.40867891
_cell_angle_alpha   96.86350933
_cell_angle_beta   112.19566150
_cell_angle_gamma   89.99489157
_symmetry_Int_Tables_number   1
_chemical_formula_structural   Y4Tm6Ir3Os
_chemical_formula_sum   'Y4 Tm6 Ir3 Os1'
_cell_volume   359.32449607
_cell_formula_units_Z   1
loop_
 _symmetry_equiv_pos_site_id
 _symmetry_equiv_pos_as_xyz
  1  'x, y, z'
loop_
 _atom_site_type_symbol
 _atom_site_label
 _atom_site_symmetry_multiplicity
 _atom_site_fract_x
 _atom_site_fract_y
 _atom_site_fract_z
 _atom_site_occupancy
  Y  Y0  1  0.971402  0.918369  0.187169  1
  Y  Y1  1  0.786113  0.580401  0.816960  1
  Y  Y2  1  0.028406  0.080369  0.814094  1
  Y  Y3  1  0.214449  0.420136  0.187371  1
  Tm  Tm4  1  0.650380  0.815997  0.438452  1
  Tm  Tm5  1  0.206946  0.682699  0.558727  1
  Tm  Tm6  1  0.351589  0.182905  0.560550  1
  Tm  Tm7  1  0.790613  0.318155  0.438663  1
  Tm  Tm8  1  0.427291  0.749800  0.000354  1
  Tm  Tm9  1  0.574582  0.251308  0.000826  1
  Ir  Ir10  1  0.598190  0.926725  0.777747  1
  Ir  Ir11  1  0.179565  0.425404  0.778589  1
  Ir  Ir12  1  0.400381  0.073943  0.221648  1
  Os  Os13  1  0.820094  0.573788  0.218850  1
