# generated using pymatgen
data_BaFe2(Sb6Ir)2
_symmetry_space_group_name_H-M   'P 1'
_cell_length_a   8.10542185
_cell_length_b   8.07276886
_cell_length_c   8.07276914
_cell_angle_alpha   109.34231972
_cell_angle_beta   109.46233190
_cell_angle_gamma   109.44533185
_symmetry_Int_Tables_number   1
_chemical_formula_structural   BaFe2(Sb6Ir)2
_chemical_formula_sum   'Ba1 Fe2 Sb12 Ir2'
_cell_volume   407.44834018
_cell_formula_units_Z   1
loop_
 _symmetry_equiv_pos_site_id
 _symmetry_equiv_pos_as_xyz
  1  'x, y, z'
loop_
 _atom_site_type_symbol
 _atom_site_label
 _atom_site_symmetry_multiplicity
 _atom_site_fract_x
 _atom_site_fract_y
 _atom_site_fract_z
 _atom_site_occupancy
  Ba  Ba0  1  0.000000  0.000000  0.000000  1
  Fe  Fe1  1  0.500000  0.000000  0.000000  1
  Fe  Fe2  1  0.500000  0.500000  0.500000  1
  Sb  Sb3  1  0.347750  0.180249  0.847362  1
  Sb  Sb4  1  0.652250  0.819751  0.152638  1
  Sb  Sb5  1  0.652250  0.499612  0.832498  1
  Sb  Sb6  1  0.347750  0.500388  0.167502  1
  Sb  Sb7  1  0.190394  0.844412  0.345981  1
  Sb  Sb8  1  0.809606  0.155588  0.654019  1
  Sb  Sb9  1  0.501311  0.836460  0.664852  1
  Sb  Sb10  1  0.498689  0.163540  0.335148  1
  Sb  Sb11  1  0.832816  0.332839  0.180271  1
  Sb  Sb12  1  0.167184  0.667161  0.819729  1
  Sb  Sb13  1  0.832816  0.652546  0.499977  1
  Sb  Sb14  1  0.167184  0.347454  0.500023  1
  Ir  Ir15  1  0.000000  0.000000  0.500000  1
  Ir  Ir16  1  0.000000  0.500000  0.000000  1
