# generated using pymatgen
data_Li8Th(PaBr8)3
_symmetry_space_group_name_H-M   'P 1'
_cell_length_a   7.00434500
_cell_length_b   7.00434500
_cell_length_c   28.23549400
_cell_angle_alpha   90.00000000
_cell_angle_beta   90.00000000
_cell_angle_gamma   119.99999526
_symmetry_Int_Tables_number   1
_chemical_formula_structural   Li8Th(PaBr8)3
_chemical_formula_sum   'Li8 Th1 Pa3 Br24'
_cell_volume   1199.66807415
_cell_formula_units_Z   1
loop_
 _symmetry_equiv_pos_site_id
 _symmetry_equiv_pos_as_xyz
  1  'x, y, z'
loop_
 _atom_site_type_symbol
 _atom_site_label
 _atom_site_symmetry_multiplicity
 _atom_site_fract_x
 _atom_site_fract_y
 _atom_site_fract_z
 _atom_site_occupancy
  Li  Li0  1  0.000000  0.000000  0.250000  1
  Li  Li1  1  0.000000  0.000000  0.750000  1
  Li  Li2  1  0.333333  0.666667  0.000386  1
  Li  Li3  1  0.333333  0.666667  0.499614  1
  Li  Li4  1  0.333333  0.666667  0.250000  1
  Li  Li5  1  0.666667  0.333333  0.750000  1
  Li  Li6  1  0.666667  0.333333  0.999657  1
  Li  Li7  1  0.666667  0.333333  0.500343  1
  Th  Th8  1  0.333333  0.666667  0.750000  1
  Pa  Pa9  1  0.000000  0.000000  0.999992  1
  Pa  Pa10  1  0.000000  0.000000  0.500008  1
  Pa  Pa11  1  0.666667  0.333333  0.250000  1
  Br  Br12  1  0.331080  0.997805  0.305069  1
  Br  Br13  1  0.333324  0.008248  0.805426  1
  Br  Br14  1  0.000869  0.335883  0.055045  1
  Br  Br15  1  0.999225  0.335150  0.555027  1
  Br  Br16  1  0.002195  0.333275  0.305069  1
  Br  Br17  1  0.991752  0.325077  0.805426  1
  Br  Br18  1  0.331080  0.333275  0.194931  1
  Br  Br19  1  0.333324  0.325077  0.694574  1
  Br  Br20  1  0.335015  0.335883  0.444955  1
  Br  Br21  1  0.335925  0.335150  0.944973  1
  Br  Br22  1  0.664117  0.999131  0.444955  1
  Br  Br23  1  0.335015  0.999131  0.055045  1
  Br  Br24  1  0.335925  0.000775  0.555027  1
  Br  Br25  1  0.664117  0.664985  0.055045  1
  Br  Br26  1  0.664850  0.664075  0.555027  1
  Br  Br27  1  0.666725  0.668920  0.305069  1
  Br  Br28  1  0.674923  0.666676  0.805426  1
  Br  Br29  1  0.002195  0.668920  0.194931  1
  Br  Br30  1  0.991752  0.666676  0.694574  1
  Br  Br31  1  0.000869  0.664985  0.444955  1
  Br  Br32  1  0.999225  0.664075  0.944973  1
  Br  Br33  1  0.664850  0.000775  0.944973  1
  Br  Br34  1  0.666725  0.997805  0.194931  1
  Br  Br35  1  0.674923  0.008248  0.694574  1
