# generated using pymatgen
data_TbPr3PCl6
_symmetry_space_group_name_H-M   'P 1'
_cell_length_a   3.98992000
_cell_length_b   13.09027193
_cell_length_c   13.79833000
_cell_angle_alpha   90.15982979
_cell_angle_beta   90.00000000
_cell_angle_gamma   90.00000000
_symmetry_Int_Tables_number   1
_chemical_formula_structural   TbPr3PCl6
_chemical_formula_sum   'Tb2 Pr6 P2 Cl12'
_cell_volume   720.67207478
_cell_formula_units_Z   2
loop_
 _symmetry_equiv_pos_site_id
 _symmetry_equiv_pos_as_xyz
  1  'x, y, z'
loop_
 _atom_site_type_symbol
 _atom_site_label
 _atom_site_symmetry_multiplicity
 _atom_site_fract_x
 _atom_site_fract_y
 _atom_site_fract_z
 _atom_site_occupancy
  Tb  Tb0  1  0.000000  0.617043  0.922339  1
  Tb  Tb1  1  0.000000  0.382957  0.077661  1
  Pr  Pr2  1  0.500000  0.122358  0.335487  1
  Pr  Pr3  1  0.500000  0.877642  0.664513  1
  Pr  Pr4  1  0.500000  0.620788  0.162619  1
  Pr  Pr5  1  0.500000  0.379212  0.837381  1
  Pr  Pr6  1  0.000000  0.122263  0.581498  1
  Pr  Pr7  1  0.000000  0.877737  0.418502  1
  P  P8  1  0.500000  0.000000  0.500000  1
  P  P9  1  0.500000  0.500000  0.000000  1
  Cl  Cl10  1  0.500000  0.253446  0.158795  1
  Cl  Cl11  1  0.500000  0.746554  0.841205  1
  Cl  Cl12  1  0.500000  0.738118  0.337080  1
  Cl  Cl13  1  0.500000  0.261882  0.662920  1
  Cl  Cl14  1  0.000000  0.255778  0.411500  1
  Cl  Cl15  1  0.000000  0.744222  0.588500  1
  Cl  Cl16  1  0.000000  0.751539  0.080144  1
  Cl  Cl17  1  0.000000  0.248461  0.919856  1
  Cl  Cl18  1  0.000000  0.001487  0.241547  1
  Cl  Cl19  1  0.000000  0.998513  0.758453  1
  Cl  Cl20  1  0.000000  0.493711  0.250337  1
  Cl  Cl21  1  0.000000  0.506289  0.749663  1
