# generated using pymatgen
data_Dy2YEr17(Cd3Fe)2
_symmetry_space_group_name_H-M   'P 1'
_cell_length_a   9.48815366
_cell_length_b   9.47813873
_cell_length_c   9.75158800
_cell_angle_alpha   90.00000000
_cell_angle_beta   90.00000000
_cell_angle_gamma   119.96508238
_symmetry_Int_Tables_number   1
_chemical_formula_structural   Dy2YEr17(Cd3Fe)2
_chemical_formula_sum   'Dy2 Y1 Er17 Cd6 Fe2'
_cell_volume   759.73729621
_cell_formula_units_Z   1
loop_
 _symmetry_equiv_pos_site_id
 _symmetry_equiv_pos_as_xyz
  1  'x, y, z'
loop_
 _atom_site_type_symbol
 _atom_site_label
 _atom_site_symmetry_multiplicity
 _atom_site_fract_x
 _atom_site_fract_y
 _atom_site_fract_z
 _atom_site_occupancy
  Dy  Dy0  1  0.459730  0.540503  0.750000  1
  Dy  Dy1  1  0.459730  0.919227  0.750000  1
  Y  Y2  1  0.081691  0.540846  0.750000  1
  Er  Er3  1  0.999627  0.999814  0.499454  1
  Er  Er4  1  0.999627  0.999814  0.000546  1
  Er  Er5  1  0.540845  0.459129  0.250000  1
  Er  Er6  1  0.540845  0.081716  0.250000  1
  Er  Er7  1  0.917712  0.458856  0.250000  1
  Er  Er8  1  0.212242  0.788327  0.436010  1
  Er  Er9  1  0.212242  0.423915  0.436010  1
  Er  Er10  1  0.576285  0.788142  0.436428  1
  Er  Er11  1  0.787652  0.211948  0.562462  1
  Er  Er12  1  0.787652  0.575703  0.562462  1
  Er  Er13  1  0.423974  0.211986  0.562596  1
  Er  Er14  1  0.787652  0.211948  0.937538  1
  Er  Er15  1  0.787652  0.575703  0.937538  1
  Er  Er16  1  0.423974  0.211986  0.937404  1
  Er  Er17  1  0.212242  0.788327  0.063990  1
  Er  Er18  1  0.212242  0.423915  0.063990  1
  Er  Er19  1  0.576285  0.788142  0.063572  1
  Cd  Cd20  1  0.885340  0.114720  0.250000  1
  Cd  Cd21  1  0.885340  0.770621  0.250000  1
  Cd  Cd22  1  0.229074  0.114537  0.250000  1
  Cd  Cd23  1  0.114001  0.886802  0.750000  1
  Cd  Cd24  1  0.114001  0.227201  0.750000  1
  Cd  Cd25  1  0.772337  0.886169  0.750000  1
  Fe  Fe26  1  0.334452  0.667227  0.250000  1
  Fe  Fe27  1  0.665551  0.332775  0.750000  1
