# generated using pymatgen
data_NaSi4(IrRh2)2
_symmetry_space_group_name_H-M   'P 1'
_cell_length_a   7.09159128
_cell_length_b   7.09159169
_cell_length_c   3.70702700
_cell_angle_alpha   90.00000000
_cell_angle_beta   90.00000000
_cell_angle_gamma   119.96808350
_symmetry_Int_Tables_number   1
_chemical_formula_structural   NaSi4(IrRh2)2
_chemical_formula_sum   'Na1 Si4 Ir2 Rh4'
_cell_volume   161.50403791
_cell_formula_units_Z   1
loop_
 _symmetry_equiv_pos_site_id
 _symmetry_equiv_pos_as_xyz
  1  'x, y, z'
loop_
 _atom_site_type_symbol
 _atom_site_label
 _atom_site_symmetry_multiplicity
 _atom_site_fract_x
 _atom_site_fract_y
 _atom_site_fract_z
 _atom_site_occupancy
  Na  Na0  1  0.000042  0.999958  0.000000  1
  Si  Si1  1  0.801242  0.198758  0.500000  1
  Si  Si2  1  0.397517  0.198678  0.500000  1
  Si  Si3  1  0.333958  0.666042  0.000000  1
  Si  Si4  1  0.801322  0.602483  0.500000  1
  Ir  Ir5  1  0.531687  0.066635  0.000000  1
  Ir  Ir6  1  0.933365  0.468313  0.000000  1
  Rh  Rh7  1  0.195938  0.804062  0.500000  1
  Rh  Rh8  1  0.195658  0.390640  0.500000  1
  Rh  Rh9  1  0.533242  0.466758  0.000000  1
  Rh  Rh10  1  0.609360  0.804342  0.500000  1
