# generated using pymatgen
data_PuPa5(Co3P2)6
_symmetry_space_group_name_H-M   'P 1'
_cell_length_a   3.76790800
_cell_length_b   10.38621200
_cell_length_c   12.29941300
_cell_angle_alpha   90.00000000
_cell_angle_beta   90.00000000
_cell_angle_gamma   90.00000000
_symmetry_Int_Tables_number   1
_chemical_formula_structural   PuPa5(Co3P2)6
_chemical_formula_sum   'Pu1 Pa5 Co18 P12'
_cell_volume   481.32881097
_cell_formula_units_Z   1
loop_
 _symmetry_equiv_pos_site_id
 _symmetry_equiv_pos_as_xyz
  1  'x, y, z'
loop_
 _atom_site_type_symbol
 _atom_site_label
 _atom_site_symmetry_multiplicity
 _atom_site_fract_x
 _atom_site_fract_y
 _atom_site_fract_z
 _atom_site_occupancy
  Pu  Pu0  1  0.000000  0.500000  0.521147  1
  Pa  Pa1  1  0.500000  0.000000  0.477327  1
  Pa  Pa2  1  0.500000  0.815191  0.207992  1
  Pa  Pa3  1  0.500000  0.184809  0.207992  1
  Pa  Pa4  1  0.000000  0.684291  0.790554  1
  Pa  Pa5  1  0.000000  0.315709  0.790554  1
  Co  Co6  1  0.000000  0.500000  0.978180  1
  Co  Co7  1  0.500000  0.000000  0.021588  1
  Co  Co8  1  0.500000  0.298012  0.427315  1
  Co  Co9  1  0.500000  0.701988  0.427315  1
  Co  Co10  1  0.000000  0.195692  0.571188  1
  Co  Co11  1  0.000000  0.804308  0.571188  1
  Co  Co12  1  0.500000  0.877675  0.714024  1
  Co  Co13  1  0.500000  0.122325  0.714024  1
  Co  Co14  1  0.000000  0.622769  0.285437  1
  Co  Co15  1  0.000000  0.377231  0.285437  1
  Co  Co16  1  0.500000  0.333384  0.994338  1
  Co  Co17  1  0.500000  0.666616  0.994338  1
  Co  Co18  1  0.000000  0.166676  0.006052  1
  Co  Co19  1  0.000000  0.833324  0.006052  1
  Co  Co20  1  0.500000  0.500000  0.160400  1
  Co  Co21  1  0.000000  0.000000  0.841223  1
  Co  Co22  1  0.500000  0.500000  0.704267  1
  Co  Co23  1  0.000000  0.000000  0.299981  1
  P  P24  1  0.500000  0.310676  0.611258  1
  P  P25  1  0.500000  0.689324  0.611258  1
  P  P26  1  0.000000  0.190823  0.387267  1
  P  P27  1  0.000000  0.809177  0.387267  1
  P  P28  1  0.500000  0.500000  0.881757  1
  P  P29  1  0.000000  0.000000  0.120001  1
  P  P30  1  0.500000  0.849885  0.896956  1
  P  P31  1  0.500000  0.150115  0.896956  1
  P  P32  1  0.000000  0.649197  0.103045  1
  P  P33  1  0.000000  0.350803  0.103045  1
  P  P34  1  0.500000  0.500000  0.343468  1
  P  P35  1  0.000000  0.000000  0.659811  1
