# generated using pymatgen
data_Er4Tm6CoBi5
_symmetry_space_group_name_H-M   'P 1'
_cell_length_a   7.98146800
_cell_length_b   9.31491300
_cell_length_c   11.98525000
_cell_angle_alpha   90.00000000
_cell_angle_beta   90.00000000
_cell_angle_gamma   90.00000000
_symmetry_Int_Tables_number   1
_chemical_formula_structural   Er4Tm6CoBi5
_chemical_formula_sum   'Er8 Tm12 Co2 Bi10'
_cell_volume   891.06354686
_cell_formula_units_Z   2
loop_
 _symmetry_equiv_pos_site_id
 _symmetry_equiv_pos_as_xyz
  1  'x, y, z'
loop_
 _atom_site_type_symbol
 _atom_site_label
 _atom_site_symmetry_multiplicity
 _atom_site_fract_x
 _atom_site_fract_y
 _atom_site_fract_z
 _atom_site_occupancy
  Er  Er0  1  0.572807  0.500000  0.772476  1
  Er  Er1  1  0.427193  0.500000  0.272476  1
  Er  Er2  1  0.260603  0.500000  0.993725  1
  Er  Er3  1  0.739397  0.500000  0.493725  1
  Er  Er4  1  0.090163  0.500000  0.718157  1
  Er  Er5  1  0.909837  0.500000  0.218157  1
  Er  Er6  1  0.372319  0.000000  0.308570  1
  Er  Er7  1  0.627681  0.000000  0.808570  1
  Tm  Tm8  1  0.427694  0.175567  0.563192  1
  Tm  Tm9  1  0.572306  0.824433  0.063192  1
  Tm  Tm10  1  0.069832  0.728945  0.436397  1
  Tm  Tm11  1  0.930168  0.271055  0.936397  1
  Tm  Tm12  1  0.069832  0.271055  0.436397  1
  Tm  Tm13  1  0.930168  0.728945  0.936397  1
  Tm  Tm14  1  0.427694  0.824433  0.563192  1
  Tm  Tm15  1  0.572306  0.175567  0.063192  1
  Tm  Tm16  1  0.907967  0.000000  0.200918  1
  Tm  Tm17  1  0.092033  0.000000  0.700918  1
  Tm  Tm18  1  0.197975  0.000000  0.996734  1
  Tm  Tm19  1  0.802025  0.000000  0.496734  1
  Co  Co20  1  0.170955  0.000000  0.488043  1
  Co  Co21  1  0.829045  0.000000  0.988043  1
  Bi  Bi22  1  0.813460  0.741229  0.672363  1
  Bi  Bi23  1  0.186540  0.258771  0.172363  1
  Bi  Bi24  1  0.680443  0.241796  0.325337  1
  Bi  Bi25  1  0.319557  0.758204  0.825337  1
  Bi  Bi26  1  0.680443  0.758204  0.325337  1
  Bi  Bi27  1  0.319557  0.241796  0.825337  1
  Bi  Bi28  1  0.813460  0.258771  0.672363  1
  Bi  Bi29  1  0.186540  0.741229  0.172363  1
  Bi  Bi30  1  0.345945  0.500000  0.526800  1
  Bi  Bi31  1  0.654055  0.500000  0.026800  1
