# generated using pymatgen
data_Hf16Fe4Pd3Au
_symmetry_space_group_name_H-M   'P 1'
_cell_length_a   8.63736677
_cell_length_b   8.64281703
_cell_length_c   8.64281700
_cell_angle_alpha   60.00000394
_cell_angle_beta   59.97912814
_cell_angle_gamma   59.97913249
_symmetry_Int_Tables_number   1
_chemical_formula_structural   Hf16Fe4Pd3Au
_chemical_formula_sum   'Hf16 Fe4 Pd3 Au1'
_cell_volume   456.07886285
_cell_formula_units_Z   1
loop_
 _symmetry_equiv_pos_site_id
 _symmetry_equiv_pos_as_xyz
  1  'x, y, z'
loop_
 _atom_site_type_symbol
 _atom_site_label
 _atom_site_symmetry_multiplicity
 _atom_site_fract_x
 _atom_site_fract_y
 _atom_site_fract_z
 _atom_site_occupancy
  Hf  Hf0  1  0.182901  0.605699  0.605699  1
  Hf  Hf1  1  0.606388  0.183349  0.605131  1
  Hf  Hf2  1  0.606388  0.605131  0.183349  1
  Hf  Hf3  1  0.606388  0.605131  0.605131  1
  Hf  Hf4  1  0.809184  0.809862  0.190477  1
  Hf  Hf5  1  0.187088  0.194117  0.809398  1
  Hf  Hf6  1  0.809184  0.190477  0.809862  1
  Hf  Hf7  1  0.187088  0.809398  0.194117  1
  Hf  Hf8  1  0.187088  0.809398  0.809398  1
  Hf  Hf9  1  0.809184  0.190477  0.190477  1
  Hf  Hf10  1  0.438798  0.438194  0.061504  1
  Hf  Hf11  1  0.061116  0.061392  0.438746  1
  Hf  Hf12  1  0.438798  0.061504  0.438194  1
  Hf  Hf13  1  0.061116  0.438746  0.061392  1
  Hf  Hf14  1  0.061116  0.438746  0.438746  1
  Hf  Hf15  1  0.438798  0.061504  0.061504  1
  Fe  Fe16  1  0.818624  0.393792  0.393792  1
  Fe  Fe17  1  0.393993  0.818378  0.393814  1
  Fe  Fe18  1  0.393993  0.393814  0.818378  1
  Fe  Fe19  1  0.393993  0.393814  0.393814  1
  Pd  Pd20  1  0.838236  0.488436  0.836664  1
  Pd  Pd21  1  0.838236  0.836664  0.488436  1
  Pd  Pd22  1  0.838236  0.836664  0.836664  1
  Au  Au23  1  0.494062  0.835313  0.835313  1
