# generated using pymatgen
data_Tb9Er7(In3Fe)2
_symmetry_space_group_name_H-M   'P 1'
_cell_length_a   10.29527002
_cell_length_b   10.29601815
_cell_length_c   7.07553100
_cell_angle_alpha   90.00046463
_cell_angle_beta   89.99894602
_cell_angle_gamma   120.00168377
_symmetry_Int_Tables_number   1
_chemical_formula_structural   Tb9Er7(In3Fe)2
_chemical_formula_sum   'Tb9 Er7 In6 Fe2'
_cell_volume   649.51523439
_cell_formula_units_Z   1
loop_
 _symmetry_equiv_pos_site_id
 _symmetry_equiv_pos_as_xyz
  1  'x, y, z'
loop_
 _atom_site_type_symbol
 _atom_site_label
 _atom_site_symmetry_multiplicity
 _atom_site_fract_x
 _atom_site_fract_y
 _atom_site_fract_z
 _atom_site_occupancy
  Tb  Tb0  1  0.333350  0.666667  0.679242  1
  Tb  Tb1  1  0.536362  0.072700  0.787680  1
  Tb  Tb2  1  0.927284  0.463632  0.787680  1
  Tb  Tb3  1  0.536348  0.463644  0.787715  1
  Tb  Tb4  1  0.463946  0.927917  0.286855  1
  Tb  Tb5  1  0.072079  0.536034  0.286852  1
  Tb  Tb6  1  0.463953  0.536031  0.286852  1
  Tb  Tb7  1  0.999971  0.000019  0.774562  1
  Tb  Tb8  1  0.000022  0.999985  0.275087  1
  Er  Er9  1  0.820762  0.641557  0.491000  1
  Er  Er10  1  0.358423  0.179234  0.491030  1
  Er  Er11  1  0.820780  0.179230  0.491002  1
  Er  Er12  1  0.178305  0.356597  0.991031  1
  Er  Er13  1  0.643361  0.821675  0.991024  1
  Er  Er14  1  0.178315  0.821645  0.990991  1
  Er  Er15  1  0.666658  0.333348  0.179965  1
  In  In16  1  0.836629  0.673341  0.038315  1
  In  In17  1  0.326754  0.163355  0.038279  1
  In  In18  1  0.836635  0.163299  0.038428  1
  In  In19  1  0.162139  0.324317  0.538050  1
  In  In20  1  0.675796  0.837918  0.537899  1
  In  In21  1  0.162130  0.837877  0.538011  1
  Fe  Fe22  1  0.666650  0.333304  0.560542  1
  Fe  Fe23  1  0.333349  0.666671  0.057984  1
