# generated using pymatgen
data_YFeCo(PIr)3
_symmetry_space_group_name_H-M   'P 1'
_cell_length_a   3.85766100
_cell_length_b   10.55886900
_cell_length_c   12.23809400
_cell_angle_alpha   90.00000000
_cell_angle_beta   90.00000000
_cell_angle_gamma   90.00000000
_symmetry_Int_Tables_number   1
_chemical_formula_structural   YFeCo(PIr)3
_chemical_formula_sum   'Y4 Fe4 Co4 P12 Ir12'
_cell_volume   498.48861844
_cell_formula_units_Z   4
loop_
 _symmetry_equiv_pos_site_id
 _symmetry_equiv_pos_as_xyz
  1  'x, y, z'
loop_
 _atom_site_type_symbol
 _atom_site_label
 _atom_site_symmetry_multiplicity
 _atom_site_fract_x
 _atom_site_fract_y
 _atom_site_fract_z
 _atom_site_occupancy
  Y  Y0  1  0.250000  0.917124  0.210712  1
  Y  Y1  1  0.750000  0.082876  0.789288  1
  Y  Y2  1  0.750000  0.417124  0.289288  1
  Y  Y3  1  0.250000  0.582876  0.710712  1
  Fe  Fe4  1  0.250000  0.618106  0.195118  1
  Fe  Fe5  1  0.750000  0.381894  0.804882  1
  Fe  Fe6  1  0.750000  0.118106  0.304882  1
  Fe  Fe7  1  0.250000  0.881894  0.695118  1
  Co  Co8  1  0.250000  0.037528  0.434614  1
  Co  Co9  1  0.750000  0.962472  0.565386  1
  Co  Co10  1  0.750000  0.537528  0.065386  1
  Co  Co11  1  0.250000  0.462472  0.934614  1
  P  P12  1  0.250000  0.065813  0.611574  1
  P  P13  1  0.750000  0.934187  0.388426  1
  P  P14  1  0.750000  0.565813  0.888426  1
  P  P15  1  0.250000  0.434187  0.111574  1
  P  P16  1  0.250000  0.225220  0.368283  1
  P  P17  1  0.750000  0.774780  0.631717  1
  P  P18  1  0.750000  0.725220  0.131717  1
  P  P19  1  0.250000  0.274780  0.868283  1
  P  P20  1  0.250000  0.902072  0.875622  1
  P  P21  1  0.750000  0.097928  0.124378  1
  P  P22  1  0.750000  0.402072  0.624378  1
  P  P23  1  0.250000  0.597928  0.375622  1
  Ir  Ir24  1  0.250000  0.777206  0.490549  1
  Ir  Ir25  1  0.750000  0.222794  0.509451  1
  Ir  Ir26  1  0.750000  0.277206  0.009451  1
  Ir  Ir27  1  0.250000  0.722794  0.990549  1
  Ir  Ir28  1  0.250000  0.090295  0.976359  1
  Ir  Ir29  1  0.750000  0.909705  0.023641  1
  Ir  Ir30  1  0.750000  0.590295  0.523641  1
  Ir  Ir31  1  0.250000  0.409705  0.476359  1
  Ir  Ir32  1  0.250000  0.272069  0.677309  1
  Ir  Ir33  1  0.750000  0.727931  0.322691  1
  Ir  Ir34  1  0.750000  0.772069  0.822691  1
  Ir  Ir35  1  0.250000  0.227931  0.177309  1
