# generated using pymatgen
data_Dy2Lu3Tl4
_symmetry_space_group_name_H-M   'P 1'
_cell_length_a   7.84002400
_cell_length_b   8.24454400
_cell_length_c   15.55810100
_cell_angle_alpha   90.00000000
_cell_angle_beta   90.00000000
_cell_angle_gamma   90.00000000
_symmetry_Int_Tables_number   1
_chemical_formula_structural   Dy2Lu3Tl4
_chemical_formula_sum   'Dy8 Lu12 Tl16'
_cell_volume   1005.63555275
_cell_formula_units_Z   4
loop_
 _symmetry_equiv_pos_site_id
 _symmetry_equiv_pos_as_xyz
  1  'x, y, z'
loop_
 _atom_site_type_symbol
 _atom_site_label
 _atom_site_symmetry_multiplicity
 _atom_site_fract_x
 _atom_site_fract_y
 _atom_site_fract_z
 _atom_site_occupancy
  Dy  Dy0  1  0.006303  0.183918  0.093870  1
  Dy  Dy1  1  0.993697  0.816082  0.906130  1
  Dy  Dy2  1  0.493697  0.683918  0.906130  1
  Dy  Dy3  1  0.993697  0.816082  0.593870  1
  Dy  Dy4  1  0.506303  0.316082  0.093870  1
  Dy  Dy5  1  0.006303  0.183918  0.406130  1
  Dy  Dy6  1  0.506303  0.316082  0.406130  1
  Dy  Dy7  1  0.493697  0.683918  0.593870  1
  Lu  Lu8  1  0.161623  0.503719  0.750000  1
  Lu  Lu9  1  0.838377  0.496281  0.250000  1
  Lu  Lu10  1  0.338377  0.003719  0.250000  1
  Lu  Lu11  1  0.661623  0.996281  0.750000  1
  Lu  Lu12  1  0.329902  0.165297  0.623938  1
  Lu  Lu13  1  0.670098  0.834703  0.376062  1
  Lu  Lu14  1  0.170098  0.665297  0.376062  1
  Lu  Lu15  1  0.670098  0.834703  0.123938  1
  Lu  Lu16  1  0.829902  0.334703  0.623938  1
  Lu  Lu17  1  0.329902  0.165297  0.876062  1
  Lu  Lu18  1  0.829902  0.334703  0.876062  1
  Lu  Lu19  1  0.170098  0.665297  0.123938  1
  Tl  Tl20  1  0.024007  0.118134  0.750000  1
  Tl  Tl21  1  0.975993  0.881866  0.250000  1
  Tl  Tl22  1  0.475993  0.618134  0.250000  1
  Tl  Tl23  1  0.524007  0.381866  0.750000  1
  Tl  Tl24  1  0.292015  0.856984  0.750000  1
  Tl  Tl25  1  0.707985  0.143016  0.250000  1
  Tl  Tl26  1  0.207985  0.356984  0.250000  1
  Tl  Tl27  1  0.792015  0.643016  0.750000  1
  Tl  Tl28  1  0.178542  0.465519  0.542118  1
  Tl  Tl29  1  0.821458  0.534481  0.457882  1
  Tl  Tl30  1  0.321458  0.965519  0.457882  1
  Tl  Tl31  1  0.821458  0.534481  0.042118  1
  Tl  Tl32  1  0.678542  0.034481  0.542118  1
  Tl  Tl33  1  0.178542  0.465519  0.957882  1
  Tl  Tl34  1  0.678542  0.034481  0.957882  1
  Tl  Tl35  1  0.321458  0.965519  0.042118  1
