# generated using pymatgen
data_Er3Si6(Pd7Pt3)2
_symmetry_space_group_name_H-M   'P 1'
_cell_length_a   8.70832251
_cell_length_b   8.73109836
_cell_length_c   8.73120000
_cell_angle_alpha   59.99934723
_cell_angle_beta   59.91266749
_cell_angle_gamma   59.91281696
_symmetry_Int_Tables_number   1
_chemical_formula_structural   Er3Si6(Pd7Pt3)2
_chemical_formula_sum   'Er3 Si6 Pd14 Pt6'
_cell_volume   468.79841545
_cell_formula_units_Z   1
loop_
 _symmetry_equiv_pos_site_id
 _symmetry_equiv_pos_as_xyz
  1  'x, y, z'
loop_
 _atom_site_type_symbol
 _atom_site_label
 _atom_site_symmetry_multiplicity
 _atom_site_fract_x
 _atom_site_fract_y
 _atom_site_fract_z
 _atom_site_occupancy
  Er  Er0  1  0.251566  0.249479  0.249464  1
  Er  Er1  1  0.748434  0.750521  0.750536  1
  Er  Er2  1  0.000000  0.000000  0.000000  1
  Si  Si3  1  0.730133  0.268781  0.268771  1
  Si  Si4  1  0.269867  0.731219  0.731229  1
  Si  Si5  1  0.269870  0.731221  0.267683  1
  Si  Si6  1  0.730130  0.268779  0.732317  1
  Si  Si7  1  0.269862  0.267688  0.731229  1
  Si  Si8  1  0.730138  0.732312  0.268771  1
  Pd  Pd9  1  0.853799  0.382071  0.382065  1
  Pd  Pd10  1  0.146201  0.617929  0.617935  1
  Pd  Pd11  1  0.344040  0.000187  0.000184  1
  Pd  Pd12  1  0.655960  0.999813  0.999816  1
  Pd  Pd13  1  0.000010  0.344451  0.655531  1
  Pd  Pd14  1  0.999990  0.655549  0.344469  1
  Pd  Pd15  1  0.000008  0.344457  0.000006  1
  Pd  Pd16  1  0.655958  0.999815  0.344410  1
  Pd  Pd17  1  0.999992  0.655543  0.999994  1
  Pd  Pd18  1  0.344042  0.000185  0.655590  1
  Pd  Pd19  1  0.000000  0.999998  0.344461  1
  Pd  Pd20  1  0.000000  0.000002  0.655539  1
  Pd  Pd21  1  0.655944  0.344411  0.999817  1
  Pd  Pd22  1  0.344056  0.655589  0.000183  1
  Pt  Pt23  1  0.381056  0.384243  0.384246  1
  Pt  Pt24  1  0.618944  0.615757  0.615754  1
  Pt  Pt25  1  0.381056  0.384248  0.850445  1
  Pt  Pt26  1  0.381053  0.850458  0.384245  1
  Pt  Pt27  1  0.618944  0.615752  0.149555  1
  Pt  Pt28  1  0.618947  0.149542  0.615755  1
