# generated using pymatgen
data_Zr10Si2(SnSb)3
_symmetry_space_group_name_H-M   'P 1'
_cell_length_a   8.68542100
_cell_length_b   8.68553487
_cell_length_c   5.86975500
_cell_angle_alpha   90.00000000
_cell_angle_beta   90.00000000
_cell_angle_gamma   119.99956252
_symmetry_Int_Tables_number   1
_chemical_formula_structural   Zr10Si2(SnSb)3
_chemical_formula_sum   'Zr10 Si2 Sn3 Sb3'
_cell_volume   383.47756688
_cell_formula_units_Z   1
loop_
 _symmetry_equiv_pos_site_id
 _symmetry_equiv_pos_as_xyz
  1  'x, y, z'
loop_
 _atom_site_type_symbol
 _atom_site_label
 _atom_site_symmetry_multiplicity
 _atom_site_fract_x
 _atom_site_fract_y
 _atom_site_fract_z
 _atom_site_occupancy
  Zr  Zr0  1  0.258185  0.000000  0.250000  1
  Zr  Zr1  1  0.259090  0.258891  0.750000  1
  Zr  Zr2  1  0.000199  0.741109  0.750000  1
  Zr  Zr3  1  0.000319  0.258939  0.250000  1
  Zr  Zr4  1  0.741380  0.741061  0.250000  1
  Zr  Zr5  1  0.740367  0.000000  0.750000  1
  Zr  Zr6  1  0.333019  0.666668  0.999505  1
  Zr  Zr7  1  0.666353  0.333332  0.500495  1
  Zr  Zr8  1  0.666353  0.333332  0.999505  1
  Zr  Zr9  1  0.333019  0.666668  0.500495  1
  Si  Si10  1  0.998807  0.000000  0.999690  1
  Si  Si11  1  0.998807  0.000000  0.500310  1
  Sn  Sn12  1  0.606620  0.000000  0.250000  1
  Sn  Sn13  1  0.606369  0.606921  0.750000  1
  Sn  Sn14  1  0.999449  0.393079  0.750000  1
  Sb  Sb15  1  0.999457  0.603392  0.250000  1
  Sb  Sb16  1  0.396065  0.396608  0.250000  1
  Sb  Sb17  1  0.396143  0.000000  0.750000  1
