# generated using pymatgen
data_Sc11PaCo4
_symmetry_space_group_name_H-M   'P 1'
_cell_length_a   5.82919292
_cell_length_b   6.45569197
_cell_length_c   8.80841400
_cell_angle_alpha   90.00000000
_cell_angle_beta   90.00000000
_cell_angle_gamma   91.44128004
_symmetry_Int_Tables_number   1
_chemical_formula_structural   Sc11PaCo4
_chemical_formula_sum   'Sc11 Pa1 Co4'
_cell_volume   331.36873236
_cell_formula_units_Z   1
loop_
 _symmetry_equiv_pos_site_id
 _symmetry_equiv_pos_as_xyz
  1  'x, y, z'
loop_
 _atom_site_type_symbol
 _atom_site_label
 _atom_site_symmetry_multiplicity
 _atom_site_fract_x
 _atom_site_fract_y
 _atom_site_fract_z
 _atom_site_occupancy
  Sc  Sc0  1  0.329816  0.676367  0.060242  1
  Sc  Sc1  1  0.175698  0.176230  0.436399  1
  Sc  Sc2  1  0.677683  0.321553  0.566201  1
  Sc  Sc3  1  0.824944  0.829520  0.933716  1
  Sc  Sc4  1  0.677683  0.321553  0.933799  1
  Sc  Sc5  1  0.824944  0.829520  0.566284  1
  Sc  Sc6  1  0.329816  0.676367  0.439758  1
  Sc  Sc7  1  0.175698  0.176230  0.063601  1
  Sc  Sc8  1  0.630594  0.037013  0.250000  1
  Sc  Sc9  1  0.130655  0.461668  0.750000  1
  Sc  Sc10  1  0.370823  0.960845  0.750000  1
  Pa  Pa11  1  0.849335  0.547756  0.250000  1
  Co  Co12  1  0.032188  0.867859  0.250000  1
  Co  Co13  1  0.467721  0.393422  0.250000  1
  Co  Co14  1  0.959321  0.113129  0.750000  1
  Co  Co15  1  0.543078  0.610969  0.750000  1
