# generated using pymatgen
data_Nd6Tm2Sc12Si15Au
_symmetry_space_group_name_H-M   'P 1'
_cell_length_a   7.21899747
_cell_length_b   7.46068820
_cell_length_c   14.21334295
_cell_angle_alpha   89.74891284
_cell_angle_beta   89.78047493
_cell_angle_gamma   90.34915203
_symmetry_Int_Tables_number   1
_chemical_formula_structural   Nd6Tm2Sc12Si15Au
_chemical_formula_sum   'Nd6 Tm2 Sc12 Si15 Au1'
_cell_volume   765.48475898
_cell_formula_units_Z   1
loop_
 _symmetry_equiv_pos_site_id
 _symmetry_equiv_pos_as_xyz
  1  'x, y, z'
loop_
 _atom_site_type_symbol
 _atom_site_label
 _atom_site_symmetry_multiplicity
 _atom_site_fract_x
 _atom_site_fract_y
 _atom_site_fract_z
 _atom_site_occupancy
  Nd  Nd0  1  0.011734  0.173055  0.099183  1
  Nd  Nd1  1  0.988178  0.827885  0.902131  1
  Nd  Nd2  1  0.487868  0.673318  0.904079  1
  Nd  Nd3  1  0.988308  0.828452  0.596235  1
  Nd  Nd4  1  0.511681  0.327428  0.096035  1
  Nd  Nd5  1  0.010088  0.173369  0.401128  1
  Tm  Tm6  1  0.509268  0.323988  0.400493  1
  Tm  Tm7  1  0.492340  0.676726  0.599212  1
  Sc  Sc8  1  0.163447  0.500883  0.750038  1
  Sc  Sc9  1  0.837200  0.499316  0.252144  1
  Sc  Sc10  1  0.338163  0.998186  0.250753  1
  Sc  Sc11  1  0.664220  0.998801  0.749703  1
  Sc  Sc12  1  0.340088  0.177600  0.625057  1
  Sc  Sc13  1  0.664685  0.822233  0.373942  1
  Sc  Sc14  1  0.170377  0.670937  0.374259  1
  Sc  Sc15  1  0.669435  0.824910  0.126967  1
  Sc  Sc16  1  0.826389  0.328110  0.623242  1
  Sc  Sc17  1  0.329130  0.174087  0.874731  1
  Sc  Sc18  1  0.829557  0.324126  0.874904  1
  Sc  Sc19  1  0.169698  0.675319  0.126406  1
  Si  Si20  1  0.036445  0.126798  0.748938  1
  Si  Si21  1  0.965510  0.875859  0.251049  1
  Si  Si22  1  0.466192  0.618040  0.250426  1
  Si  Si23  1  0.536034  0.382434  0.750447  1
  Si  Si24  1  0.289566  0.878581  0.747966  1
  Si  Si25  1  0.707561  0.123977  0.251310  1
  Si  Si26  1  0.215814  0.376184  0.250769  1
  Si  Si27  1  0.785235  0.622106  0.749506  1
  Si  Si28  1  0.831178  0.535607  0.458550  1
  Si  Si29  1  0.347000  0.962112  0.460206  1
  Si  Si30  1  0.848706  0.537776  0.039782  1
  Si  Si31  1  0.650958  0.036195  0.537346  1
  Si  Si32  1  0.150853  0.462343  0.961382  1
  Si  Si33  1  0.652864  0.036613  0.961177  1
  Si  Si34  1  0.346903  0.962591  0.039819  1
  Au  Au35  1  0.167329  0.464056  0.540686  1
