# generated using pymatgen
data_Ga5Fe7(Mo3N)4
_symmetry_space_group_name_H-M   'P 1'
_cell_length_a   7.97067309
_cell_length_b   7.95879523
_cell_length_c   7.95879500
_cell_angle_alpha   59.99999679
_cell_angle_beta   60.04927986
_cell_angle_gamma   60.04928019
_symmetry_Int_Tables_number   1
_chemical_formula_structural   Ga5Fe7(Mo3N)4
_chemical_formula_sum   'Ga5 Fe7 Mo12 N4'
_cell_volume   357.27096994
_cell_formula_units_Z   1
loop_
 _symmetry_equiv_pos_site_id
 _symmetry_equiv_pos_as_xyz
  1  'x, y, z'
loop_
 _atom_site_type_symbol
 _atom_site_label
 _atom_site_symmetry_multiplicity
 _atom_site_fract_x
 _atom_site_fract_y
 _atom_site_fract_z
 _atom_site_occupancy
  Ga  Ga0  1  0.999679  0.333440  0.333440  1
  Ga  Ga1  1  0.130984  0.119515  0.629985  1
  Ga  Ga2  1  0.130984  0.119515  0.119515  1
  Ga  Ga3  1  0.624042  0.125320  0.125320  1
  Ga  Ga4  1  0.130984  0.629985  0.119515  1
  Fe  Fe5  1  0.917251  0.917703  0.917703  1
  Fe  Fe6  1  0.331930  0.332300  0.003470  1
  Fe  Fe7  1  0.917251  0.917703  0.247344  1
  Fe  Fe8  1  0.255713  0.914762  0.914762  1
  Fe  Fe9  1  0.331930  0.003470  0.332300  1
  Fe  Fe10  1  0.917251  0.247344  0.917703  1
  Fe  Fe11  1  0.331930  0.332300  0.332300  1
  Mo  Mo12  1  0.306926  0.691954  0.691954  1
  Mo  Mo13  1  0.558251  0.557524  0.942112  1
  Mo  Mo14  1  0.306926  0.691954  0.309168  1
  Mo  Mo15  1  0.306926  0.309168  0.691954  1
  Mo  Mo16  1  0.686957  0.307545  0.307545  1
  Mo  Mo17  1  0.941567  0.941599  0.558417  1
  Mo  Mo18  1  0.941567  0.558417  0.941599  1
  Mo  Mo19  1  0.941567  0.558417  0.558417  1
  Mo  Mo20  1  0.558251  0.942112  0.942112  1
  Mo  Mo21  1  0.686957  0.697954  0.307545  1
  Mo  Mo22  1  0.686957  0.307545  0.697954  1
  Mo  Mo23  1  0.558251  0.942112  0.557524  1
  N  N24  1  0.624669  0.125778  0.624776  1
  N  N25  1  0.624669  0.624776  0.125778  1
  N  N26  1  0.124958  0.625014  0.625014  1
  N  N27  1  0.624669  0.624776  0.624776  1
