# generated using pymatgen
data_LiZr6Zn17Cu5Ge
_symmetry_space_group_name_H-M   'P 1'
_cell_length_a   8.71911203
_cell_length_b   8.73171993
_cell_length_c   8.71911245
_cell_angle_alpha   59.95216359
_cell_angle_beta   59.82055539
_cell_angle_gamma   59.95215674
_symmetry_Int_Tables_number   1
_chemical_formula_structural   LiZr6Zn17Cu5Ge
_chemical_formula_sum   'Li1 Zr6 Zn17 Cu5 Ge1'
_cell_volume   468.40695731
_cell_formula_units_Z   1
loop_
 _symmetry_equiv_pos_site_id
 _symmetry_equiv_pos_as_xyz
  1  'x, y, z'
loop_
 _atom_site_type_symbol
 _atom_site_label
 _atom_site_symmetry_multiplicity
 _atom_site_fract_x
 _atom_site_fract_y
 _atom_site_fract_z
 _atom_site_occupancy
  Li  Li0  1  0.000000  0.000000  0.000000  1
  Zr  Zr1  1  0.714829  0.285182  0.285171  1
  Zr  Zr2  1  0.285171  0.714818  0.714829  1
  Zr  Zr3  1  0.285723  0.714277  0.285723  1
  Zr  Zr4  1  0.714277  0.285723  0.714277  1
  Zr  Zr5  1  0.285171  0.285182  0.714829  1
  Zr  Zr6  1  0.714829  0.714818  0.285171  1
  Zn  Zn7  1  0.126313  0.118763  0.126313  1
  Zn  Zn8  1  0.873687  0.881237  0.873687  1
  Zn  Zn9  1  0.125224  0.123353  0.628071  1
  Zn  Zn10  1  0.126313  0.628614  0.126313  1
  Zn  Zn11  1  0.874776  0.876647  0.371929  1
  Zn  Zn12  1  0.873687  0.371386  0.873687  1
  Zn  Zn13  1  0.628071  0.123353  0.125224  1
  Zn  Zn14  1  0.371929  0.876647  0.874776  1
  Zn  Zn15  1  0.000000  0.500000  0.000000  1
  Zn  Zn16  1  0.336118  0.335718  0.336118  1
  Zn  Zn17  1  0.663882  0.664282  0.663882  1
  Zn  Zn18  1  0.340736  0.333909  0.991448  1
  Zn  Zn19  1  0.336118  0.992049  0.336118  1
  Zn  Zn20  1  0.659264  0.666091  0.008552  1
  Zn  Zn21  1  0.663882  0.007951  0.663882  1
  Zn  Zn22  1  0.991448  0.333909  0.340736  1
  Zn  Zn23  1  0.008552  0.666091  0.659264  1
  Cu  Cu24  1  0.500000  0.000000  0.000000  1
  Cu  Cu25  1  0.000000  0.500000  0.500000  1
  Cu  Cu26  1  0.500000  0.000000  0.500000  1
  Cu  Cu27  1  0.000000  0.000000  0.500000  1
  Cu  Cu28  1  0.500000  0.500000  0.000000  1
  Ge  Ge29  1  0.500000  0.500000  0.500000  1
