# generated using pymatgen
data_Nd11In(Hg2Pt)4
_symmetry_space_group_name_H-M   'P 1'
_cell_length_a   13.49607454
_cell_length_b   13.49607457
_cell_length_c   3.79440600
_cell_angle_alpha   90.00000000
_cell_angle_beta   90.00000000
_cell_angle_gamma   111.68953013
_symmetry_Int_Tables_number   1
_chemical_formula_structural   Nd11In(Hg2Pt)4
_chemical_formula_sum   'Nd11 In1 Hg8 Pt4'
_cell_volume   642.19658773
_cell_formula_units_Z   1
loop_
 _symmetry_equiv_pos_site_id
 _symmetry_equiv_pos_as_xyz
  1  'x, y, z'
loop_
 _atom_site_type_symbol
 _atom_site_label
 _atom_site_symmetry_multiplicity
 _atom_site_fract_x
 _atom_site_fract_y
 _atom_site_fract_z
 _atom_site_occupancy
  Nd  Nd0  1  0.077901  0.418411  0.000000  1
  Nd  Nd1  1  0.922099  0.581589  0.000000  1
  Nd  Nd2  1  0.418411  0.077901  0.000000  1
  Nd  Nd3  1  0.581589  0.922099  0.000000  1
  Nd  Nd4  1  0.629602  0.370398  0.000000  1
  Nd  Nd5  1  0.370398  0.629602  0.000000  1
  Nd  Nd6  1  0.834117  0.165883  0.000000  1
  Nd  Nd7  1  0.165883  0.834117  0.000000  1
  Nd  Nd8  1  0.000000  0.000000  0.000000  1
  Nd  Nd9  1  0.304399  0.304399  0.000000  1
  Nd  Nd10  1  0.695601  0.695601  0.000000  1
  In  In11  1  0.500000  0.500000  0.500000  1
  Hg  Hg12  1  0.843758  0.365260  0.500000  1
  Hg  Hg13  1  0.156242  0.634740  0.500000  1
  Hg  Hg14  1  0.365260  0.843758  0.500000  1
  Hg  Hg15  1  0.634740  0.156242  0.500000  1
  Hg  Hg16  1  0.068141  0.214403  0.500000  1
  Hg  Hg17  1  0.931859  0.785597  0.500000  1
  Hg  Hg18  1  0.214403  0.068141  0.500000  1
  Hg  Hg19  1  0.785597  0.931859  0.500000  1
  Pt  Pt20  1  0.251094  0.450241  0.500000  1
  Pt  Pt21  1  0.748906  0.549759  0.500000  1
  Pt  Pt22  1  0.450241  0.251094  0.500000  1
  Pt  Pt23  1  0.549759  0.748906  0.500000  1
