# generated using pymatgen
data_TbDyHo2Ni13C4
_symmetry_space_group_name_H-M   'P 1'
_cell_length_a   8.37964302
_cell_length_b   8.37964397
_cell_length_c   3.84747500
_cell_angle_alpha   90.00000000
_cell_angle_beta   90.00000000
_cell_angle_gamma   91.10276396
_symmetry_Int_Tables_number   1
_chemical_formula_structural   TbDyHo2Ni13C4
_chemical_formula_sum   'Tb1 Dy1 Ho2 Ni13 C4'
_cell_volume   270.11359676
_cell_formula_units_Z   1
loop_
 _symmetry_equiv_pos_site_id
 _symmetry_equiv_pos_as_xyz
  1  'x, y, z'
loop_
 _atom_site_type_symbol
 _atom_site_label
 _atom_site_symmetry_multiplicity
 _atom_site_fract_x
 _atom_site_fract_y
 _atom_site_fract_z
 _atom_site_occupancy
  Tb  Tb0  1  0.348662  0.348662  0.500000  1
  Dy  Dy1  1  0.651344  0.651344  0.500000  1
  Ho  Ho2  1  0.812917  0.187085  0.500000  1
  Ho  Ho3  1  0.187085  0.812917  0.500000  1
  Ni  Ni4  1  0.000001  0.000001  0.000000  1
  Ni  Ni5  1  0.215401  0.570035  0.000000  1
  Ni  Ni6  1  0.784580  0.429995  0.000000  1
  Ni  Ni7  1  0.429995  0.784580  0.000000  1
  Ni  Ni8  1  0.570035  0.215401  0.000000  1
  Ni  Ni9  1  0.999983  0.500007  0.500000  1
  Ni  Ni10  1  0.500007  0.999983  0.500000  1
  Ni  Ni11  1  0.073751  0.290908  0.000000  1
  Ni  Ni12  1  0.926214  0.709084  0.000000  1
  Ni  Ni13  1  0.709084  0.926214  0.000000  1
  Ni  Ni14  1  0.290908  0.073751  0.000000  1
  Ni  Ni15  1  0.123398  0.123398  0.500000  1
  Ni  Ni16  1  0.876575  0.876575  0.500000  1
  C  C17  1  0.442995  0.557062  0.000000  1
  C  C18  1  0.557062  0.442995  0.000000  1
  C  C19  1  0.000004  0.499998  0.000000  1
  C  C20  1  0.499998  0.000004  0.000000  1
