# generated using pymatgen
data_SmHo(Sb5O13)2
_symmetry_space_group_name_H-M   'P 1'
_cell_length_a   7.43369366
_cell_length_b   7.36718861
_cell_length_c   10.30909263
_cell_angle_alpha   88.88894849
_cell_angle_beta   90.14148529
_cell_angle_gamma   90.13535405
_symmetry_Int_Tables_number   1
_chemical_formula_structural   SmHo(Sb5O13)2
_chemical_formula_sum   'Sm1 Ho1 Sb10 O26'
_cell_volume   564.47244130
_cell_formula_units_Z   1
loop_
 _symmetry_equiv_pos_site_id
 _symmetry_equiv_pos_as_xyz
  1  'x, y, z'
loop_
 _atom_site_type_symbol
 _atom_site_label
 _atom_site_symmetry_multiplicity
 _atom_site_fract_x
 _atom_site_fract_y
 _atom_site_fract_z
 _atom_site_occupancy
  Sm  Sm0  1  0.500000  0.500000  0.000000  1
  Ho  Ho1  1  0.000000  0.500000  0.000000  1
  Sb  Sb2  1  0.245846  0.729911  0.729183  1
  Sb  Sb3  1  0.754154  0.270089  0.270817  1
  Sb  Sb4  1  0.500000  0.000000  0.000000  1
  Sb  Sb5  1  0.750039  0.758001  0.748563  1
  Sb  Sb6  1  0.248890  0.748572  0.252459  1
  Sb  Sb7  1  0.500000  0.500000  0.500000  1
  Sb  Sb8  1  0.000000  0.500000  0.500000  1
  Sb  Sb9  1  0.751110  0.251428  0.747541  1
  Sb  Sb10  1  0.249961  0.241999  0.251437  1
  Sb  Sb11  1  0.000000  0.000000  0.000000  1
  O  O12  1  0.447651  0.689911  0.371951  1
  O  O13  1  0.757235  0.455296  0.130265  1
  O  O14  1  0.246621  0.493678  0.161804  1
  O  O15  1  0.453377  0.309312  0.366438  1
  O  O16  1  0.558191  0.213025  0.883674  1
  O  O17  1  0.942866  0.216194  0.885478  1
  O  O18  1  0.448403  0.205928  0.121638  1
  O  O19  1  0.750232  0.999492  0.072644  1
  O  O20  1  0.249768  0.000508  0.927356  1
  O  O21  1  0.751342  0.003784  0.683783  1
  O  O22  1  0.551597  0.794072  0.878362  1
  O  O23  1  0.948025  0.792877  0.879340  1
  O  O24  1  0.441809  0.786975  0.116326  1
  O  O25  1  0.051521  0.690400  0.372547  1
  O  O26  1  0.546623  0.690688  0.633562  1
  O  O27  1  0.955187  0.691574  0.633917  1
  O  O28  1  0.249991  0.518682  0.580686  1
  O  O29  1  0.753379  0.506322  0.838196  1
  O  O30  1  0.750009  0.481318  0.419314  1
  O  O31  1  0.044813  0.308426  0.366083  1
  O  O32  1  0.552349  0.310089  0.628049  1
  O  O33  1  0.948479  0.309600  0.627453  1
  O  O34  1  0.051975  0.207123  0.120660  1
  O  O35  1  0.248658  0.996216  0.316217  1
  O  O36  1  0.057134  0.783806  0.114522  1
  O  O37  1  0.242765  0.544704  0.869735  1
