# generated using pymatgen
data_CeZnPN
_symmetry_space_group_name_H-M   'P 1'
_cell_length_a   3.96344000
_cell_length_b   3.96344013
_cell_length_c   10.51752466
_cell_angle_alpha   100.86064085
_cell_angle_beta   90.00000000
_cell_angle_gamma   60.00000112
_symmetry_Int_Tables_number   1
_chemical_formula_structural   CeZnPN
_chemical_formula_sum   'Ce2 Zn2 P2 N2'
_cell_volume   139.65565226
_cell_formula_units_Z   2
loop_
 _symmetry_equiv_pos_site_id
 _symmetry_equiv_pos_as_xyz
  1  'x, y, z'
loop_
 _atom_site_type_symbol
 _atom_site_label
 _atom_site_symmetry_multiplicity
 _atom_site_fract_x
 _atom_site_fract_y
 _atom_site_fract_z
 _atom_site_occupancy
  Ce  Ce0  1  0.620770  0.758461  0.137691  1
  Ce  Ce1  1  0.379229  0.241540  0.862309  1
  Zn  Zn2  1  0.196371  0.607254  0.410883  1
  Zn  Zn3  1  0.803629  0.392745  0.589117  1
  P  P4  1  0.886798  0.226405  0.339609  1
  P  P5  1  0.113202  0.773594  0.660391  1
  N  N6  1  0.304847  0.390305  0.085458  1
  N  N7  1  0.695154  0.609694  0.914542  1
