# generated using pymatgen
data_TbEuReC2
_symmetry_space_group_name_H-M   'P 1'
_cell_length_a   5.28559200
_cell_length_b   6.63573600
_cell_length_c   10.15651200
_cell_angle_alpha   90.00000000
_cell_angle_beta   90.00000000
_cell_angle_gamma   90.00000000
_symmetry_Int_Tables_number   1
_chemical_formula_structural   TbEuReC2
_chemical_formula_sum   'Tb4 Eu4 Re4 C8'
_cell_volume   356.22740067
_cell_formula_units_Z   4
loop_
 _symmetry_equiv_pos_site_id
 _symmetry_equiv_pos_as_xyz
  1  'x, y, z'
loop_
 _atom_site_type_symbol
 _atom_site_label
 _atom_site_symmetry_multiplicity
 _atom_site_fract_x
 _atom_site_fract_y
 _atom_site_fract_z
 _atom_site_occupancy
  Tb  Tb0  1  0.250000  0.683869  0.552799  1
  Tb  Tb1  1  0.750000  0.316131  0.447201  1
  Tb  Tb2  1  0.750000  0.816131  0.052799  1
  Tb  Tb3  1  0.250000  0.183869  0.947201  1
  Eu  Eu4  1  0.250000  0.534544  0.219463  1
  Eu  Eu5  1  0.750000  0.465456  0.780537  1
  Eu  Eu6  1  0.750000  0.965456  0.719463  1
  Eu  Eu7  1  0.250000  0.034544  0.280537  1
  Re  Re8  1  0.250000  0.729335  0.858058  1
  Re  Re9  1  0.750000  0.270665  0.141942  1
  Re  Re10  1  0.750000  0.770665  0.358058  1
  Re  Re11  1  0.250000  0.229335  0.641942  1
  C  C12  1  0.250000  0.462293  0.760484  1
  C  C13  1  0.750000  0.537707  0.239516  1
  C  C14  1  0.750000  0.037707  0.260484  1
  C  C15  1  0.250000  0.962293  0.739516  1
  C  C16  1  0.250000  0.818899  0.036450  1
  C  C17  1  0.750000  0.181101  0.963550  1
  C  C18  1  0.750000  0.681101  0.536450  1
  C  C19  1  0.250000  0.318899  0.463550  1
