# generated using pymatgen
data_Ni8Ge4Mo12C3N
_symmetry_space_group_name_H-M   'P 1'
_cell_length_a   7.89116410
_cell_length_b   7.89116356
_cell_length_c   7.89116383
_cell_angle_alpha   60.13181354
_cell_angle_beta   60.13181457
_cell_angle_gamma   60.13181496
_symmetry_Int_Tables_number   1
_chemical_formula_structural   Ni8Ge4Mo12C3N
_chemical_formula_sum   'Ni8 Ge4 Mo12 C3 N1'
_cell_volume   348.50024129
_cell_formula_units_Z   1
loop_
 _symmetry_equiv_pos_site_id
 _symmetry_equiv_pos_as_xyz
  1  'x, y, z'
loop_
 _atom_site_type_symbol
 _atom_site_label
 _atom_site_symmetry_multiplicity
 _atom_site_fract_x
 _atom_site_fract_y
 _atom_site_fract_z
 _atom_site_occupancy
  Ni  Ni0  1  0.916175  0.916175  0.250811  1
  Ni  Ni1  1  0.333347  0.333347  0.333347  1
  Ni  Ni2  1  0.250811  0.916175  0.916175  1
  Ni  Ni3  1  0.333825  0.999189  0.333825  1
  Ni  Ni4  1  0.999189  0.333825  0.333825  1
  Ni  Ni5  1  0.333825  0.333825  0.999189  1
  Ni  Ni6  1  0.916653  0.916653  0.916653  1
  Ni  Ni7  1  0.916175  0.250811  0.916175  1
  Ge  Ge8  1  0.125000  0.125000  0.125000  1
  Ge  Ge9  1  0.625000  0.125000  0.125000  1
  Ge  Ge10  1  0.125000  0.125000  0.625000  1
  Ge  Ge11  1  0.125000  0.625000  0.125000  1
  Mo  Mo12  1  0.690043  0.308732  0.308732  1
  Mo  Mo13  1  0.941268  0.941268  0.559957  1
  Mo  Mo14  1  0.689759  0.689759  0.309849  1
  Mo  Mo15  1  0.689759  0.309849  0.689759  1
  Mo  Mo16  1  0.308732  0.690043  0.308732  1
  Mo  Mo17  1  0.560241  0.940151  0.560241  1
  Mo  Mo18  1  0.559957  0.941268  0.941268  1
  Mo  Mo19  1  0.940151  0.560241  0.560241  1
  Mo  Mo20  1  0.941268  0.559957  0.941268  1
  Mo  Mo21  1  0.308732  0.308732  0.690043  1
  Mo  Mo22  1  0.560241  0.560241  0.940151  1
  Mo  Mo23  1  0.309849  0.689759  0.689759  1
  C  C24  1  0.625000  0.625000  0.125000  1
  C  C25  1  0.125000  0.625000  0.625000  1
  C  C26  1  0.625000  0.125000  0.625000  1
  N  N27  1  0.625000  0.625000  0.625000  1
