# generated using pymatgen
data_LiHo8(ZnPd11)2
_symmetry_space_group_name_H-M   'P 1'
_cell_length_a   8.20550600
_cell_length_b   8.31525000
_cell_length_c   8.37197900
_cell_angle_alpha   90.00000000
_cell_angle_beta   90.00000000
_cell_angle_gamma   90.00000000
_symmetry_Int_Tables_number   1
_chemical_formula_structural   LiHo8(ZnPd11)2
_chemical_formula_sum   'Li1 Ho8 Zn2 Pd22'
_cell_volume   571.22710745
_cell_formula_units_Z   1
loop_
 _symmetry_equiv_pos_site_id
 _symmetry_equiv_pos_as_xyz
  1  'x, y, z'
loop_
 _atom_site_type_symbol
 _atom_site_label
 _atom_site_symmetry_multiplicity
 _atom_site_fract_x
 _atom_site_fract_y
 _atom_site_fract_z
 _atom_site_occupancy
  Li  Li0  1  0.000000  0.000000  0.000000  1
  Ho  Ho1  1  0.249893  0.244228  0.257235  1
  Ho  Ho2  1  0.750107  0.755772  0.742765  1
  Ho  Ho3  1  0.750107  0.755772  0.257235  1
  Ho  Ho4  1  0.750107  0.244228  0.742765  1
  Ho  Ho5  1  0.249893  0.244228  0.742765  1
  Ho  Ho6  1  0.249893  0.755772  0.257235  1
  Ho  Ho7  1  0.249893  0.755772  0.742765  1
  Ho  Ho8  1  0.750107  0.244228  0.257235  1
  Zn  Zn9  1  0.262454  0.500000  0.000000  1
  Zn  Zn10  1  0.737546  0.500000  0.000000  1
  Pd  Pd11  1  0.000000  0.256431  0.500000  1
  Pd  Pd12  1  0.500000  0.263187  0.000000  1
  Pd  Pd13  1  0.000000  0.743569  0.500000  1
  Pd  Pd14  1  0.500000  0.736813  0.000000  1
  Pd  Pd15  1  0.500000  0.000000  0.256772  1
  Pd  Pd16  1  0.257022  0.000000  0.500000  1
  Pd  Pd17  1  0.500000  0.000000  0.743228  1
  Pd  Pd18  1  0.742978  0.000000  0.500000  1
  Pd  Pd19  1  0.000000  0.500000  0.258878  1
  Pd  Pd20  1  0.000000  0.500000  0.741122  1
  Pd  Pd21  1  0.252685  0.500000  0.500000  1
  Pd  Pd22  1  0.747315  0.500000  0.500000  1
  Pd  Pd23  1  0.500000  0.253570  0.500000  1
  Pd  Pd24  1  0.500000  0.746430  0.500000  1
  Pd  Pd25  1  0.500000  0.500000  0.250481  1
  Pd  Pd26  1  0.500000  0.500000  0.749519  1
  Pd  Pd27  1  0.282028  0.000000  0.000000  1
  Pd  Pd28  1  0.717972  0.000000  0.000000  1
  Pd  Pd29  1  0.000000  0.287694  0.000000  1
  Pd  Pd30  1  0.000000  0.712306  0.000000  1
  Pd  Pd31  1  0.000000  0.000000  0.277594  1
  Pd  Pd32  1  0.000000  0.000000  0.722406  1
