# generated using pymatgen
data_Ti3Ga3Ir2Pt
_symmetry_space_group_name_H-M   'P 1'
_cell_length_a   7.26872200
_cell_length_b   7.26872035
_cell_length_c   6.11194500
_cell_angle_alpha   90.00000000
_cell_angle_beta   90.00000000
_cell_angle_gamma   120.00000751
_symmetry_Int_Tables_number   1
_chemical_formula_structural   Ti3Ga3Ir2Pt
_chemical_formula_sum   'Ti6 Ga6 Ir4 Pt2'
_cell_volume   279.65723278
_cell_formula_units_Z   2
loop_
 _symmetry_equiv_pos_site_id
 _symmetry_equiv_pos_as_xyz
  1  'x, y, z'
loop_
 _atom_site_type_symbol
 _atom_site_label
 _atom_site_symmetry_multiplicity
 _atom_site_fract_x
 _atom_site_fract_y
 _atom_site_fract_z
 _atom_site_occupancy
  Ti  Ti0  1  0.388144  0.386178  0.250000  1
  Ti  Ti1  1  0.611856  0.998033  0.750000  1
  Ti  Ti2  1  0.386178  0.388144  0.750000  1
  Ti  Ti3  1  0.001967  0.613822  0.750000  1
  Ti  Ti4  1  0.998033  0.611856  0.250000  1
  Ti  Ti5  1  0.613822  0.001967  0.250000  1
  Ga  Ga6  1  0.285337  0.000000  0.000000  1
  Ga  Ga7  1  0.285337  0.000000  0.500000  1
  Ga  Ga8  1  0.000000  0.285337  0.500000  1
  Ga  Ga9  1  0.000000  0.285337  0.000000  1
  Ga  Ga10  1  0.714663  0.714663  0.000000  1
  Ga  Ga11  1  0.714663  0.714663  0.500000  1
  Ir  Ir12  1  0.666667  0.333333  0.501021  1
  Ir  Ir13  1  0.666667  0.333333  0.998979  1
  Ir  Ir14  1  0.333333  0.666667  0.001021  1
  Ir  Ir15  1  0.333333  0.666667  0.498979  1
  Pt  Pt16  1  0.000000  0.000000  0.750000  1
  Pt  Pt17  1  0.000000  0.000000  0.250000  1
