# generated using pymatgen
data_Nd16Cd4TcPt3
_symmetry_space_group_name_H-M   'P 1'
_cell_length_a   10.04603689
_cell_length_b   10.04603691
_cell_length_c   10.04603596
_cell_angle_alpha   59.47997897
_cell_angle_beta   59.47997848
_cell_angle_gamma   59.47998449
_symmetry_Int_Tables_number   1
_chemical_formula_structural   Nd16Cd4TcPt3
_chemical_formula_sum   'Nd16 Cd4 Tc1 Pt3'
_cell_volume   708.43789094
_cell_formula_units_Z   1
loop_
 _symmetry_equiv_pos_site_id
 _symmetry_equiv_pos_as_xyz
  1  'x, y, z'
loop_
 _atom_site_type_symbol
 _atom_site_label
 _atom_site_symmetry_multiplicity
 _atom_site_fract_x
 _atom_site_fract_y
 _atom_site_fract_z
 _atom_site_occupancy
  Nd  Nd0  1  0.351302  0.351302  0.351302  1
  Nd  Nd1  1  0.347775  0.347775  0.952494  1
  Nd  Nd2  1  0.347775  0.952494  0.347775  1
  Nd  Nd3  1  0.952494  0.347775  0.347775  1
  Nd  Nd4  1  0.815450  0.189031  0.189031  1
  Nd  Nd5  1  0.190106  0.807866  0.807866  1
  Nd  Nd6  1  0.189031  0.815450  0.189031  1
  Nd  Nd7  1  0.807866  0.190106  0.807866  1
  Nd  Nd8  1  0.189031  0.189031  0.815450  1
  Nd  Nd9  1  0.807866  0.807866  0.190106  1
  Nd  Nd10  1  0.936332  0.564081  0.564081  1
  Nd  Nd11  1  0.556561  0.938627  0.938627  1
  Nd  Nd12  1  0.564081  0.936332  0.564081  1
  Nd  Nd13  1  0.938627  0.556561  0.938627  1
  Nd  Nd14  1  0.564081  0.564081  0.936332  1
  Nd  Nd15  1  0.938627  0.938627  0.556561  1
  Cd  Cd16  1  0.579821  0.579821  0.579821  1
  Cd  Cd17  1  0.580209  0.580209  0.257559  1
  Cd  Cd18  1  0.580209  0.257559  0.580209  1
  Cd  Cd19  1  0.257559  0.580209  0.580209  1
  Tc  Tc20  1  0.142281  0.142281  0.142281  1
  Pt  Pt21  1  0.144780  0.144780  0.573356  1
  Pt  Pt22  1  0.144780  0.573356  0.144780  1
  Pt  Pt23  1  0.573356  0.144780  0.144780  1
