# generated using pymatgen
data_TmTh3(ZnGa)4
_symmetry_space_group_name_H-M   'P 1'
_cell_length_a   4.41503600
_cell_length_b   4.41503658
_cell_length_c   15.34050000
_cell_angle_alpha   90.00000000
_cell_angle_beta   90.00000000
_cell_angle_gamma   119.99999568
_symmetry_Int_Tables_number   1
_chemical_formula_structural   TmTh3(ZnGa)4
_chemical_formula_sum   'Tm1 Th3 Zn4 Ga4'
_cell_volume   258.96359807
_cell_formula_units_Z   1
loop_
 _symmetry_equiv_pos_site_id
 _symmetry_equiv_pos_as_xyz
  1  'x, y, z'
loop_
 _atom_site_type_symbol
 _atom_site_label
 _atom_site_symmetry_multiplicity
 _atom_site_fract_x
 _atom_site_fract_y
 _atom_site_fract_z
 _atom_site_occupancy
  Tm  Tm0  1  0.000000  0.000000  0.750000  1
  Th  Th1  1  0.000000  0.000000  0.250000  1
  Th  Th2  1  0.000000  0.000000  0.991936  1
  Th  Th3  1  0.000000  0.000000  0.508064  1
  Zn  Zn4  1  0.333333  0.666667  0.126671  1
  Zn  Zn5  1  0.666667  0.333333  0.850989  1
  Zn  Zn6  1  0.666667  0.333333  0.649011  1
  Zn  Zn7  1  0.333333  0.666667  0.373329  1
  Ga  Ga8  1  0.333333  0.666667  0.624470  1
  Ga  Ga9  1  0.666667  0.333333  0.383118  1
  Ga  Ga10  1  0.666667  0.333333  0.116882  1
  Ga  Ga11  1  0.333333  0.666667  0.875530  1
