# generated using pymatgen
data_Pr16In3HgIr4
_symmetry_space_group_name_H-M   'P 1'
_cell_length_a   10.03370735
_cell_length_b   10.08696746
_cell_length_c   10.08696800
_cell_angle_alpha   59.99999822
_cell_angle_beta   59.82425116
_cell_angle_gamma   59.82424955
_symmetry_Int_Tables_number   1
_chemical_formula_structural   Pr16In3HgIr4
_chemical_formula_sum   'Pr16 In3 Hg1 Ir4'
_cell_volume   719.96085305
_cell_formula_units_Z   1
loop_
 _symmetry_equiv_pos_site_id
 _symmetry_equiv_pos_as_xyz
  1  'x, y, z'
loop_
 _atom_site_type_symbol
 _atom_site_label
 _atom_site_symmetry_multiplicity
 _atom_site_fract_x
 _atom_site_fract_y
 _atom_site_fract_z
 _atom_site_occupancy
  Pr  Pr0  1  0.058610  0.062205  0.439592  1
  Pr  Pr1  1  0.651650  0.045237  0.651557  1
  Pr  Pr2  1  0.191924  0.807708  0.192659  1
  Pr  Pr3  1  0.438145  0.060416  0.441023  1
  Pr  Pr4  1  0.191924  0.192659  0.807708  1
  Pr  Pr5  1  0.651650  0.651557  0.651557  1
  Pr  Pr6  1  0.044463  0.651846  0.651846  1
  Pr  Pr7  1  0.438145  0.060416  0.060416  1
  Pr  Pr8  1  0.651650  0.651557  0.045237  1
  Pr  Pr9  1  0.191924  0.807708  0.807708  1
  Pr  Pr10  1  0.807564  0.191186  0.810063  1
  Pr  Pr11  1  0.807564  0.191186  0.191186  1
  Pr  Pr12  1  0.807564  0.810063  0.191186  1
  Pr  Pr13  1  0.058610  0.439592  0.439592  1
  Pr  Pr14  1  0.438145  0.441023  0.060416  1
  Pr  Pr15  1  0.058610  0.439592  0.062205  1
  In  In16  1  0.419761  0.419194  0.741851  1
  In  In17  1  0.419761  0.741851  0.419194  1
  In  In18  1  0.419761  0.419194  0.419194  1
  Hg  Hg19  1  0.750280  0.416573  0.416573  1
  Ir  Ir20  1  0.859034  0.858354  0.858354  1
  Ir  Ir21  1  0.425194  0.858269  0.858269  1
  Ir  Ir22  1  0.859034  0.858354  0.424258  1
  Ir  Ir23  1  0.859034  0.424258  0.858354  1
