# generated using pymatgen
data_DyLu7In3Pt
_symmetry_space_group_name_H-M   'P 1'
_cell_length_a   10.30009100
_cell_length_b   10.30008511
_cell_length_c   6.88618900
_cell_angle_alpha   90.00000000
_cell_angle_beta   90.00000000
_cell_angle_gamma   119.99997073
_symmetry_Int_Tables_number   1
_chemical_formula_structural   DyLu7In3Pt
_chemical_formula_sum   'Dy2 Lu14 In6 Pt2'
_cell_volume   632.69087834
_cell_formula_units_Z   2
loop_
 _symmetry_equiv_pos_site_id
 _symmetry_equiv_pos_as_xyz
  1  'x, y, z'
loop_
 _atom_site_type_symbol
 _atom_site_label
 _atom_site_symmetry_multiplicity
 _atom_site_fract_x
 _atom_site_fract_y
 _atom_site_fract_z
 _atom_site_occupancy
  Dy  Dy0  1  0.000000  0.000000  0.497267  1
  Dy  Dy1  1  0.000000  0.000000  0.997267  1
  Lu  Lu2  1  0.530980  0.061960  0.515851  1
  Lu  Lu3  1  0.938040  0.469019  0.515851  1
  Lu  Lu4  1  0.530981  0.469020  0.515851  1
  Lu  Lu5  1  0.469020  0.938040  0.015851  1
  Lu  Lu6  1  0.061960  0.530981  0.015851  1
  Lu  Lu7  1  0.469019  0.530980  0.015851  1
  Lu  Lu8  1  0.175761  0.351521  0.722899  1
  Lu  Lu9  1  0.648479  0.824239  0.722899  1
  Lu  Lu10  1  0.175761  0.824239  0.722899  1
  Lu  Lu11  1  0.824239  0.648479  0.222899  1
  Lu  Lu12  1  0.351521  0.175761  0.222899  1
  Lu  Lu13  1  0.824239  0.175761  0.222899  1
  Lu  Lu14  1  0.666667  0.333333  0.891271  1
  Lu  Lu15  1  0.333333  0.666667  0.391271  1
  In  In16  1  0.836435  0.672872  0.759598  1
  In  In17  1  0.327127  0.163564  0.759598  1
  In  In18  1  0.836435  0.163564  0.759598  1
  In  In19  1  0.163565  0.327128  0.259598  1
  In  In20  1  0.672873  0.836436  0.259598  1
  In  In21  1  0.163565  0.836436  0.259598  1
  Pt  Pt22  1  0.666667  0.333333  0.288518  1
  Pt  Pt23  1  0.333333  0.666667  0.788518  1
