# generated using pymatgen
data_Y6Ni18P13Pt2
_symmetry_space_group_name_H-M   'P 1'
_cell_length_a   12.80042900
_cell_length_b   12.80042952
_cell_length_c   3.78574500
_cell_angle_alpha   90.00000000
_cell_angle_beta   90.00000000
_cell_angle_gamma   120.00000125
_symmetry_Int_Tables_number   1
_chemical_formula_structural   Y6Ni18P13Pt2
_chemical_formula_sum   'Y6 Ni18 P13 Pt2'
_cell_volume   537.19387374
_cell_formula_units_Z   1
loop_
 _symmetry_equiv_pos_site_id
 _symmetry_equiv_pos_as_xyz
  1  'x, y, z'
loop_
 _atom_site_type_symbol
 _atom_site_label
 _atom_site_symmetry_multiplicity
 _atom_site_fract_x
 _atom_site_fract_y
 _atom_site_fract_z
 _atom_site_occupancy
  Y  Y0  1  0.464257  0.183185  0.000000  1
  Y  Y1  1  0.718929  0.535743  0.000000  1
  Y  Y2  1  0.816815  0.281071  0.000000  1
  Y  Y3  1  0.536293  0.816433  0.500000  1
  Y  Y4  1  0.280141  0.463707  0.500000  1
  Y  Y5  1  0.183567  0.719859  0.500000  1
  Ni  Ni6  1  0.193576  0.090683  0.000000  1
  Ni  Ni7  1  0.897106  0.806424  0.000000  1
  Ni  Ni8  1  0.909317  0.102894  0.000000  1
  Ni  Ni9  1  0.850360  0.927462  0.500000  1
  Ni  Ni10  1  0.077102  0.149640  0.500000  1
  Ni  Ni11  1  0.072538  0.922898  0.500000  1
  Ni  Ni12  1  0.435872  0.413504  0.000000  1
  Ni  Ni13  1  0.977633  0.564128  0.000000  1
  Ni  Ni14  1  0.586496  0.022367  0.000000  1
  Ni  Ni15  1  0.567230  0.589871  0.500000  1
  Ni  Ni16  1  0.022641  0.432770  0.500000  1
  Ni  Ni17  1  0.410129  0.977359  0.500000  1
  Ni  Ni18  1  0.076871  0.316686  0.000000  1
  Ni  Ni19  1  0.239814  0.923129  0.000000  1
  Ni  Ni20  1  0.683314  0.760186  0.000000  1
  Ni  Ni21  1  0.930495  0.685977  0.500000  1
  Ni  Ni22  1  0.755482  0.069505  0.500000  1
  Ni  Ni23  1  0.314023  0.244518  0.500000  1
  P  P24  1  0.233027  0.280670  0.000000  1
  P  P25  1  0.047644  0.766973  0.000000  1
  P  P26  1  0.719330  0.952356  0.000000  1
  P  P27  1  0.769528  0.723520  0.500000  1
  P  P28  1  0.953992  0.230472  0.500000  1
  P  P29  1  0.276480  0.046008  0.500000  1
  P  P30  1  0.484372  0.612421  0.000000  1
  P  P31  1  0.128049  0.515628  0.000000  1
  P  P32  1  0.387579  0.871951  0.000000  1
  P  P33  1  0.516395  0.388653  0.500000  1
  P  P34  1  0.872258  0.483605  0.500000  1
  P  P35  1  0.611347  0.127742  0.500000  1
  P  P36  1  0.000000  0.000000  0.000000  1
  Pt  Pt37  1  0.333333  0.666667  0.000000  1
  Pt  Pt38  1  0.666667  0.333333  0.500000  1
