# generated using pymatgen
data_Ca10SnBi4Pb
_symmetry_space_group_name_H-M   'P 1'
_cell_length_a   9.34927805
_cell_length_b   9.33221453
_cell_length_c   7.08303200
_cell_angle_alpha   90.00000000
_cell_angle_beta   90.00000000
_cell_angle_gamma   119.75416178
_symmetry_Int_Tables_number   1
_chemical_formula_structural   Ca10SnBi4Pb
_chemical_formula_sum   'Ca10 Sn1 Bi4 Pb1'
_cell_volume   536.51658363
_cell_formula_units_Z   1
loop_
 _symmetry_equiv_pos_site_id
 _symmetry_equiv_pos_as_xyz
  1  'x, y, z'
loop_
 _atom_site_type_symbol
 _atom_site_label
 _atom_site_symmetry_multiplicity
 _atom_site_fract_x
 _atom_site_fract_y
 _atom_site_fract_z
 _atom_site_occupancy
  Ca  Ca0  1  0.664406  0.333937  0.499281  1
  Ca  Ca1  1  0.331152  0.659288  0.499207  1
  Ca  Ca2  1  0.331152  0.659288  0.000793  1
  Ca  Ca3  1  0.664406  0.333937  0.000719  1
  Ca  Ca4  1  0.720814  0.721285  0.250000  1
  Ca  Ca5  1  0.274761  0.007627  0.250000  1
  Ca  Ca6  1  0.007237  0.271537  0.250000  1
  Ca  Ca7  1  0.268638  0.273152  0.750000  1
  Ca  Ca8  1  0.730516  0.005781  0.750000  1
  Ca  Ca9  1  0.000861  0.724763  0.750000  1
  Sn  Sn10  1  0.381493  0.379364  0.250000  1
  Bi  Bi11  1  0.623399  0.999414  0.250000  1
  Bi  Bi12  1  0.001908  0.628081  0.250000  1
  Bi  Bi13  1  0.625724  0.626860  0.750000  1
  Bi  Bi14  1  0.376111  0.998100  0.750000  1
  Pb  Pb15  1  0.997422  0.377587  0.750000  1
