# generated using pymatgen
data_DyY6Th(CdPt)2
_symmetry_space_group_name_H-M   'P 1'
_cell_length_a   9.78908001
_cell_length_b   9.78907963
_cell_length_c   9.76529300
_cell_angle_alpha   60.08035181
_cell_angle_beta   60.08035309
_cell_angle_gamma   60.07841920
_symmetry_Int_Tables_number   1
_chemical_formula_structural   DyY6Th(CdPt)2
_chemical_formula_sum   'Dy2 Y12 Th2 Cd4 Pt4'
_cell_volume   662.88434914
_cell_formula_units_Z   2
loop_
 _symmetry_equiv_pos_site_id
 _symmetry_equiv_pos_as_xyz
  1  'x, y, z'
loop_
 _atom_site_type_symbol
 _atom_site_label
 _atom_site_symmetry_multiplicity
 _atom_site_fract_x
 _atom_site_fract_y
 _atom_site_fract_z
 _atom_site_occupancy
  Dy  Dy0  1  0.353123  0.941444  0.352716  1
  Dy  Dy1  1  0.941444  0.353123  0.352716  1
  Y  Y2  1  0.811346  0.190319  0.189180  1
  Y  Y3  1  0.190319  0.811346  0.809155  1
  Y  Y4  1  0.190319  0.811346  0.189180  1
  Y  Y5  1  0.811346  0.190319  0.809155  1
  Y  Y6  1  0.188239  0.188239  0.811761  1
  Y  Y7  1  0.809737  0.809737  0.190263  1
  Y  Y8  1  0.936010  0.565075  0.565585  1
  Y  Y9  1  0.565075  0.936010  0.933330  1
  Y  Y10  1  0.565075  0.936010  0.565585  1
  Y  Y11  1  0.936010  0.565075  0.933330  1
  Y  Y12  1  0.566013  0.566013  0.933987  1
  Y  Y13  1  0.936355  0.936355  0.563645  1
  Th  Th14  1  0.349802  0.349802  0.353288  1
  Th  Th15  1  0.349802  0.349802  0.947109  1
  Cd  Cd16  1  0.583505  0.583505  0.580483  1
  Cd  Cd17  1  0.583505  0.583505  0.252508  1
  Cd  Cd18  1  0.584811  0.251193  0.581997  1
  Cd  Cd19  1  0.251193  0.584811  0.581997  1
  Pt  Pt20  1  0.142117  0.142117  0.146675  1
  Pt  Pt21  1  0.142117  0.142117  0.569091  1
  Pt  Pt22  1  0.143637  0.569099  0.143632  1
  Pt  Pt23  1  0.569099  0.143637  0.143632  1
