# generated using pymatgen
data_DyHo6Lu9(In3Co)2
_symmetry_space_group_name_H-M   'P 1'
_cell_length_a   10.18875701
_cell_length_b   10.18895955
_cell_length_c   6.97453303
_cell_angle_alpha   89.99150466
_cell_angle_beta   89.99959242
_cell_angle_gamma   120.00487288
_symmetry_Int_Tables_number   1
_chemical_formula_structural   DyHo6Lu9(In3Co)2
_chemical_formula_sum   'Dy1 Ho6 Lu9 In6 Co2'
_cell_volume   627.01145678
_cell_formula_units_Z   1
loop_
 _symmetry_equiv_pos_site_id
 _symmetry_equiv_pos_as_xyz
  1  'x, y, z'
loop_
 _atom_site_type_symbol
 _atom_site_label
 _atom_site_symmetry_multiplicity
 _atom_site_fract_x
 _atom_site_fract_y
 _atom_site_fract_z
 _atom_site_occupancy
  Dy  Dy0  1  0.999990  0.999988  0.000847  1
  Ho  Ho1  1  0.534312  0.068638  0.512226  1
  Ho  Ho2  1  0.931312  0.465646  0.512169  1
  Ho  Ho3  1  0.534307  0.465670  0.512186  1
  Ho  Ho4  1  0.465587  0.931161  0.012438  1
  Ho  Ho5  1  0.068903  0.534447  0.012408  1
  Ho  Ho6  1  0.465576  0.534429  0.012473  1
  Lu  Lu7  1  0.179107  0.358202  0.717707  1
  Lu  Lu8  1  0.641803  0.820912  0.717744  1
  Lu  Lu9  1  0.179093  0.820901  0.717763  1
  Lu  Lu10  1  0.820920  0.641812  0.219062  1
  Lu  Lu11  1  0.358171  0.179086  0.219063  1
  Lu  Lu12  1  0.820911  0.179105  0.219043  1
  Lu  Lu13  1  0.666638  0.333327  0.905421  1
  Lu  Lu14  1  0.333350  0.666673  0.406823  1
  Lu  Lu15  1  0.000013  0.000010  0.500620  1
  In  In16  1  0.836957  0.673914  0.760441  1
  In  In17  1  0.326083  0.163040  0.760442  1
  In  In18  1  0.836956  0.163039  0.760448  1
  In  In19  1  0.163036  0.326070  0.264048  1
  In  In20  1  0.673935  0.836968  0.264053  1
  In  In21  1  0.163039  0.836962  0.264039  1
  Co  Co22  1  0.666667  0.333333  0.285364  1
  Co  Co23  1  0.333336  0.666666  0.787371  1
