# generated using pymatgen
data_La2Mg3Cd14
_symmetry_space_group_name_H-M   'P 1'
_cell_length_a   7.69596840
_cell_length_b   7.69596815
_cell_length_c   7.69596823
_cell_angle_alpha   82.47487793
_cell_angle_beta   82.47488557
_cell_angle_gamma   82.47487070
_symmetry_Int_Tables_number   1
_chemical_formula_structural   La2Mg3Cd14
_chemical_formula_sum   'La2 Mg3 Cd14'
_cell_volume   444.98497149
_cell_formula_units_Z   1
loop_
 _symmetry_equiv_pos_site_id
 _symmetry_equiv_pos_as_xyz
  1  'x, y, z'
loop_
 _atom_site_type_symbol
 _atom_site_label
 _atom_site_symmetry_multiplicity
 _atom_site_fract_x
 _atom_site_fract_y
 _atom_site_fract_z
 _atom_site_occupancy
  La  La0  1  0.335578  0.335578  0.335578  1
  La  La1  1  0.664422  0.664422  0.664422  1
  Mg  Mg2  1  0.000000  0.000000  0.500000  1
  Mg  Mg3  1  0.500000  0.000000  0.000000  1
  Mg  Mg4  1  0.000000  0.500000  0.000000  1
  Cd  Cd5  1  0.298192  0.701808  0.000000  1
  Cd  Cd6  1  0.843882  0.351795  0.351795  1
  Cd  Cd7  1  0.648205  0.156118  0.648205  1
  Cd  Cd8  1  0.106678  0.106678  0.106678  1
  Cd  Cd9  1  0.298192  0.000000  0.701808  1
  Cd  Cd10  1  0.701808  0.298192  0.000000  1
  Cd  Cd11  1  0.351795  0.351795  0.843882  1
  Cd  Cd12  1  0.893322  0.893322  0.893322  1
  Cd  Cd13  1  0.000000  0.701808  0.298192  1
  Cd  Cd14  1  0.701808  0.000000  0.298192  1
  Cd  Cd15  1  0.351795  0.843882  0.351795  1
  Cd  Cd16  1  0.156118  0.648205  0.648205  1
  Cd  Cd17  1  0.648205  0.648205  0.156118  1
  Cd  Cd18  1  0.000000  0.298192  0.701808  1
