# generated using pymatgen
data_Pr17Eu3Si15Pt
_symmetry_space_group_name_H-M   'P 1'
_cell_length_a   7.94951859
_cell_length_b   7.93717724
_cell_length_c   15.31164612
_cell_angle_alpha   89.96811655
_cell_angle_beta   89.73518366
_cell_angle_gamma   90.10193414
_symmetry_Int_Tables_number   1
_chemical_formula_structural   Pr17Eu3Si15Pt
_chemical_formula_sum   'Pr17 Eu3 Si15 Pt1'
_cell_volume   966.10292154
_cell_formula_units_Z   1
loop_
 _symmetry_equiv_pos_site_id
 _symmetry_equiv_pos_as_xyz
  1  'x, y, z'
loop_
 _atom_site_type_symbol
 _atom_site_label
 _atom_site_symmetry_multiplicity
 _atom_site_fract_x
 _atom_site_fract_y
 _atom_site_fract_z
 _atom_site_occupancy
  Pr  Pr0  1  0.692082  0.688275  0.499468  1
  Pr  Pr1  1  0.375089  0.010807  0.447958  1
  Pr  Pr2  1  0.490400  0.874585  0.698718  1
  Pr  Pr3  1  0.510219  0.123634  0.198028  1
  Pr  Pr4  1  0.876546  0.489034  0.300168  1
  Pr  Pr5  1  0.122942  0.511412  0.801529  1
  Pr  Pr6  1  0.625573  0.988624  0.949280  1
  Pr  Pr7  1  0.005715  0.375655  0.551207  1
  Pr  Pr8  1  0.989164  0.624873  0.051953  1
  Pr  Pr9  1  0.132663  0.986806  0.875795  1
  Pr  Pr10  1  0.516488  0.629843  0.126079  1
  Pr  Pr11  1  0.477619  0.365250  0.627580  1
  Pr  Pr12  1  0.627650  0.516336  0.874598  1
  Pr  Pr13  1  0.372567  0.483149  0.373069  1
  Pr  Pr14  1  0.872219  0.019267  0.375329  1
  Pr  Pr15  1  0.982847  0.127351  0.124667  1
  Pr  Pr16  1  0.021041  0.875311  0.623834  1
  Eu  Eu17  1  0.306499  0.307009  0.999609  1
  Eu  Eu18  1  0.190864  0.808847  0.249859  1
  Eu  Eu19  1  0.814015  0.187727  0.750240  1
  Si  Si20  1  0.332833  0.696483  0.951134  1
  Si  Si21  1  0.664968  0.303258  0.451112  1
  Si  Si22  1  0.698115  0.334680  0.049666  1
  Si  Si23  1  0.304502  0.668313  0.547886  1
  Si  Si24  1  0.803906  0.832551  0.201893  1
  Si  Si25  1  0.167898  0.198127  0.298468  1
  Si  Si26  1  0.833916  0.802393  0.799124  1
  Si  Si27  1  0.288708  0.921698  0.058945  1
  Si  Si28  1  0.579121  0.787688  0.309563  1
  Si  Si29  1  0.428761  0.208349  0.812800  1
  Si  Si30  1  0.786236  0.580097  0.690454  1
  Si  Si31  1  0.212034  0.422049  0.190520  1
  Si  Si32  1  0.706123  0.075317  0.558053  1
  Si  Si33  1  0.920331  0.289040  0.941988  1
  Si  Si34  1  0.078929  0.713736  0.441068  1
  Pt  Pt35  1  0.191421  0.172423  0.698360  1
