# generated using pymatgen
data_HoZr8Mn(In7Co3)2
_symmetry_space_group_name_H-M   'P 1'
_cell_length_a   9.48463264
_cell_length_b   9.48463221
_cell_length_c   9.48463300
_cell_angle_alpha   60.00000072
_cell_angle_beta   60.00000224
_cell_angle_gamma   60.00000400
_symmetry_Int_Tables_number   1
_chemical_formula_structural   HoZr8Mn(In7Co3)2
_chemical_formula_sum   'Ho1 Zr8 Mn1 In14 Co6'
_cell_volume   603.31839214
_cell_formula_units_Z   1
loop_
 _symmetry_equiv_pos_site_id
 _symmetry_equiv_pos_as_xyz
  1  'x, y, z'
loop_
 _atom_site_type_symbol
 _atom_site_label
 _atom_site_symmetry_multiplicity
 _atom_site_fract_x
 _atom_site_fract_y
 _atom_site_fract_z
 _atom_site_occupancy
  Ho  Ho0  1  0.500000  0.500000  0.500000  1
  Zr  Zr1  1  0.120251  0.639248  0.120251  1
  Zr  Zr2  1  0.360752  0.879749  0.879749  1
  Zr  Zr3  1  0.879749  0.879749  0.879749  1
  Zr  Zr4  1  0.639248  0.120251  0.120251  1
  Zr  Zr5  1  0.879749  0.879749  0.360752  1
  Zr  Zr6  1  0.120251  0.120251  0.120251  1
  Zr  Zr7  1  0.879749  0.360752  0.879749  1
  Zr  Zr8  1  0.120251  0.120251  0.639248  1
  Mn  Mn9  1  0.000000  0.000000  0.000000  1
  In  In10  1  0.500000  0.844137  0.155863  1
  In  In11  1  0.500000  0.844137  0.500000  1
  In  In12  1  0.500000  0.155863  0.500000  1
  In  In13  1  0.500000  0.500000  0.844137  1
  In  In14  1  0.155863  0.500000  0.500000  1
  In  In15  1  0.844137  0.155863  0.500000  1
  In  In16  1  0.155863  0.844137  0.500000  1
  In  In17  1  0.500000  0.155863  0.844137  1
  In  In18  1  0.155863  0.500000  0.844137  1
  In  In19  1  0.500000  0.500000  0.155863  1
  In  In20  1  0.844137  0.500000  0.500000  1
  In  In21  1  0.844137  0.500000  0.155863  1
  In  In22  1  0.250000  0.250000  0.250000  1
  In  In23  1  0.750000  0.750000  0.750000  1
  Co  Co24  1  0.779142  0.779142  0.220858  1
  Co  Co25  1  0.220858  0.779142  0.220858  1
  Co  Co26  1  0.220858  0.779142  0.779142  1
  Co  Co27  1  0.220858  0.220858  0.779142  1
  Co  Co28  1  0.779142  0.220858  0.779142  1
  Co  Co29  1  0.779142  0.220858  0.220858  1
