# generated using pymatgen
data_LuMgIr4
_symmetry_space_group_name_H-M   'P 1'
_cell_length_a   5.25878200
_cell_length_b   5.25878130
_cell_length_c   8.55999500
_cell_angle_alpha   90.00000000
_cell_angle_beta   90.00000000
_cell_angle_gamma   120.00000439
_symmetry_Int_Tables_number   1
_chemical_formula_structural   LuMgIr4
_chemical_formula_sum   'Lu2 Mg2 Ir8'
_cell_volume   205.00969589
_cell_formula_units_Z   2
loop_
 _symmetry_equiv_pos_site_id
 _symmetry_equiv_pos_as_xyz
  1  'x, y, z'
loop_
 _atom_site_type_symbol
 _atom_site_label
 _atom_site_symmetry_multiplicity
 _atom_site_fract_x
 _atom_site_fract_y
 _atom_site_fract_z
 _atom_site_occupancy
  Lu  Lu0  1  0.333333  0.666667  0.069139  1
  Lu  Lu1  1  0.666667  0.333333  0.569139  1
  Mg  Mg2  1  0.666667  0.333333  0.934726  1
  Mg  Mg3  1  0.333333  0.666667  0.434726  1
  Ir  Ir4  1  0.000000  0.000000  0.997013  1
  Ir  Ir5  1  0.000000  0.000000  0.497013  1
  Ir  Ir6  1  0.828959  0.657918  0.249707  1
  Ir  Ir7  1  0.171041  0.828959  0.749707  1
  Ir  Ir8  1  0.657918  0.828959  0.749707  1
  Ir  Ir9  1  0.342082  0.171041  0.249707  1
  Ir  Ir10  1  0.828959  0.171041  0.249707  1
  Ir  Ir11  1  0.171041  0.342082  0.749707  1
