# generated using pymatgen
data_Tb3Be(PPd4)5
_symmetry_space_group_name_H-M   'P 1'
_cell_length_a   8.68909251
_cell_length_b   8.64823602
_cell_length_c   8.64823596
_cell_angle_alpha   60.31279852
_cell_angle_beta   59.84360459
_cell_angle_gamma   59.84360217
_symmetry_Int_Tables_number   1
_chemical_formula_structural   Tb3Be(PPd4)5
_chemical_formula_sum   'Tb3 Be1 P5 Pd20'
_cell_volume   459.51006351
_cell_formula_units_Z   1
loop_
 _symmetry_equiv_pos_site_id
 _symmetry_equiv_pos_as_xyz
  1  'x, y, z'
loop_
 _atom_site_type_symbol
 _atom_site_label
 _atom_site_symmetry_multiplicity
 _atom_site_fract_x
 _atom_site_fract_y
 _atom_site_fract_z
 _atom_site_occupancy
  Tb  Tb0  1  0.249777  0.250223  0.250223  1
  Tb  Tb1  1  0.749777  0.750223  0.750223  1
  Tb  Tb2  1  0.996143  0.003857  0.003857  1
  Be  Be3  1  0.731959  0.268041  0.268041  1
  P  P4  1  0.263089  0.736911  0.736911  1
  P  P5  1  0.265382  0.734618  0.263812  1
  P  P6  1  0.736188  0.263812  0.734618  1
  P  P7  1  0.265382  0.263812  0.734618  1
  P  P8  1  0.736188  0.734618  0.263812  1
  Pd  Pd9  1  0.386841  0.383033  0.383033  1
  Pd  Pd10  1  0.616078  0.614952  0.614952  1
  Pd  Pd11  1  0.385048  0.383922  0.845982  1
  Pd  Pd12  1  0.385048  0.845982  0.383922  1
  Pd  Pd13  1  0.616967  0.613159  0.152907  1
  Pd  Pd14  1  0.616967  0.152907  0.613159  1
  Pd  Pd15  1  0.847093  0.383033  0.383033  1
  Pd  Pd16  1  0.154018  0.614952  0.614952  1
  Pd  Pd17  1  0.343873  0.001116  0.001116  1
  Pd  Pd18  1  0.653895  0.001116  0.001116  1
  Pd  Pd19  1  0.998884  0.346105  0.656127  1
  Pd  Pd20  1  0.998884  0.656127  0.346105  1
  Pd  Pd21  1  0.996578  0.342749  0.003422  1
  Pd  Pd22  1  0.657251  0.003422  0.342749  1
  Pd  Pd23  1  0.000457  0.653027  0.999543  1
  Pd  Pd24  1  0.346973  0.999543  0.653027  1
  Pd  Pd25  1  0.996578  0.003422  0.342749  1
  Pd  Pd26  1  0.000457  0.999543  0.653027  1
  Pd  Pd27  1  0.657251  0.342749  0.003422  1
  Pd  Pd28  1  0.346973  0.653027  0.999543  1
