# generated using pymatgen
data_SmNb(NiSn)2
_symmetry_space_group_name_H-M   'P 1'
_cell_length_a   7.77612596
_cell_length_b   7.77612651
_cell_length_c   7.77612684
_cell_angle_alpha   32.62319131
_cell_angle_beta   32.62318224
_cell_angle_gamma   32.62318990
_symmetry_Int_Tables_number   1
_chemical_formula_structural   SmNb(NiSn)2
_chemical_formula_sum   'Sm1 Nb1 Ni2 Sn2'
_cell_volume   121.54349795
_cell_formula_units_Z   1
loop_
 _symmetry_equiv_pos_site_id
 _symmetry_equiv_pos_as_xyz
  1  'x, y, z'
loop_
 _atom_site_type_symbol
 _atom_site_label
 _atom_site_symmetry_multiplicity
 _atom_site_fract_x
 _atom_site_fract_y
 _atom_site_fract_z
 _atom_site_occupancy
  Sm  Sm0  1  0.000264  0.000264  0.000264  1
  Nb  Nb1  1  0.502159  0.502159  0.502159  1
  Ni  Ni2  1  0.130696  0.130696  0.130696  1
  Ni  Ni3  1  0.614698  0.614698  0.614698  1
  Sn  Sn4  1  0.757066  0.757066  0.757066  1
  Sn  Sn5  1  0.245115  0.245115  0.245115  1
