# generated using pymatgen
data_ErThReB6
_symmetry_space_group_name_H-M   'P 1'
_cell_length_a   3.76132500
_cell_length_b   9.24865900
_cell_length_c   11.68310400
_cell_angle_alpha   90.00000000
_cell_angle_beta   90.00000000
_cell_angle_gamma   90.00000000
_symmetry_Int_Tables_number   1
_chemical_formula_structural   ErThReB6
_chemical_formula_sum   'Er4 Th4 Re4 B24'
_cell_volume   406.42261932
_cell_formula_units_Z   4
loop_
 _symmetry_equiv_pos_site_id
 _symmetry_equiv_pos_as_xyz
  1  'x, y, z'
loop_
 _atom_site_type_symbol
 _atom_site_label
 _atom_site_symmetry_multiplicity
 _atom_site_fract_x
 _atom_site_fract_y
 _atom_site_fract_z
 _atom_site_occupancy
  Er  Er0  1  0.000000  0.945046  0.372796  1
  Er  Er1  1  0.000000  0.054954  0.627204  1
  Er  Er2  1  0.000000  0.445046  0.127204  1
  Er  Er3  1  0.000000  0.554954  0.872796  1
  Th  Th4  1  0.000000  0.322409  0.414480  1
  Th  Th5  1  0.000000  0.677591  0.585520  1
  Th  Th6  1  0.000000  0.822409  0.085520  1
  Th  Th7  1  0.000000  0.177591  0.914480  1
  Re  Re8  1  0.000000  0.639590  0.319590  1
  Re  Re9  1  0.000000  0.360410  0.680410  1
  Re  Re10  1  0.000000  0.139590  0.180410  1
  Re  Re11  1  0.000000  0.860410  0.819590  1
  B  B12  1  0.500000  0.556485  0.429573  1
  B  B13  1  0.500000  0.443515  0.570427  1
  B  B14  1  0.500000  0.056485  0.070427  1
  B  B15  1  0.500000  0.943515  0.929573  1
  B  B16  1  0.500000  0.750204  0.416838  1
  B  B17  1  0.500000  0.249796  0.583162  1
  B  B18  1  0.500000  0.250204  0.083162  1
  B  B19  1  0.500000  0.749796  0.916838  1
  B  B20  1  0.500000  0.791498  0.266569  1
  B  B21  1  0.500000  0.208502  0.733431  1
  B  B22  1  0.500000  0.291498  0.233431  1
  B  B23  1  0.500000  0.708502  0.766569  1
  B  B24  1  0.500000  0.630653  0.185875  1
  B  B25  1  0.500000  0.369347  0.814125  1
  B  B26  1  0.500000  0.130653  0.314125  1
  B  B27  1  0.500000  0.869347  0.685875  1
  B  B28  1  0.500000  0.985301  0.214342  1
  B  B29  1  0.500000  0.014699  0.785658  1
  B  B30  1  0.500000  0.485301  0.285658  1
  B  B31  1  0.500000  0.514699  0.714342  1
  B  B32  1  0.500000  0.602329  0.027977  1
  B  B33  1  0.500000  0.397671  0.972023  1
  B  B34  1  0.500000  0.102329  0.472023  1
  B  B35  1  0.500000  0.897671  0.527977  1
