# generated using pymatgen
data_Tm4VPt3F28
_symmetry_space_group_name_H-M   'P 1'
_cell_length_a   5.47921857
_cell_length_b   8.79180501
_cell_length_c   11.82712549
_cell_angle_alpha   62.67923873
_cell_angle_beta   90.14821851
_cell_angle_gamma   90.04253427
_symmetry_Int_Tables_number   1
_chemical_formula_structural   Tm4VPt3F28
_chemical_formula_sum   'Tm4 V1 Pt3 F28'
_cell_volume   506.18333308
_cell_formula_units_Z   1
loop_
 _symmetry_equiv_pos_site_id
 _symmetry_equiv_pos_as_xyz
  1  'x, y, z'
loop_
 _atom_site_type_symbol
 _atom_site_label
 _atom_site_symmetry_multiplicity
 _atom_site_fract_x
 _atom_site_fract_y
 _atom_site_fract_z
 _atom_site_occupancy
  Tm  Tm0  1  0.258697  0.812248  0.263029  1
  Tm  Tm1  1  0.739291  0.184776  0.735356  1
  Tm  Tm2  1  0.761061  0.182167  0.236695  1
  Tm  Tm3  1  0.239327  0.813122  0.768367  1
  V  V4  1  0.755615  0.724700  0.044592  1
  Pt  Pt5  1  0.243036  0.271711  0.958172  1
  Pt  Pt6  1  0.258829  0.272690  0.456194  1
  Pt  Pt7  1  0.740613  0.726697  0.544127  1
  F  F8  1  0.935425  0.702337  0.413839  1
  F  F9  1  0.061129  0.298472  0.584648  1
  F  F10  1  0.442772  0.298538  0.086087  1
  F  F11  1  0.546193  0.713032  0.921400  1
  F  F12  1  0.483947  0.731760  0.140696  1
  F  F13  1  0.540623  0.266614  0.867649  1
  F  F14  1  0.962624  0.276182  0.360227  1
  F  F15  1  0.037693  0.725210  0.638434  1
  F  F16  1  0.960614  0.746245  0.167624  1
  F  F17  1  0.048654  0.250679  0.825755  1
  F  F18  1  0.452369  0.256263  0.321789  1
  F  F19  1  0.551604  0.745317  0.679000  1
  F  F20  1  0.769537  0.489602  0.136011  1
  F  F21  1  0.233672  0.522232  0.857600  1
  F  F22  1  0.271540  0.523682  0.355351  1
  F  F23  1  0.725685  0.475301  0.644802  1
  F  F24  1  0.939855  0.283060  0.044175  1
  F  F25  1  0.038953  0.720792  0.951142  1
  F  F26  1  0.436564  0.720276  0.456538  1
  F  F27  1  0.562988  0.279465  0.543017  1
  F  F28  1  0.744515  0.977766  0.449019  1
  F  F29  1  0.257954  0.022046  0.551184  1
  F  F30  1  0.242109  0.020924  0.051473  1
  F  F31  1  0.759189  0.959458  0.950350  1
  F  F32  1  0.582440  0.971041  0.232327  1
  F  F33  1  0.414618  0.032692  0.767335  1
  F  F34  1  0.083449  0.029098  0.266642  1
  F  F35  1  0.916815  0.973807  0.729355  1
