# generated using pymatgen
data_Sn2As3PO14
_symmetry_space_group_name_H-M   'P 1'
_cell_length_a   5.31471468
_cell_length_b   7.08010790
_cell_length_c   8.74836793
_cell_angle_alpha   68.03118833
_cell_angle_beta   88.85453090
_cell_angle_gamma   88.60378159
_symmetry_Int_Tables_number   1
_chemical_formula_structural   Sn2As3PO14
_chemical_formula_sum   'Sn2 As3 P1 O14'
_cell_volume   305.17526248
_cell_formula_units_Z   1
loop_
 _symmetry_equiv_pos_site_id
 _symmetry_equiv_pos_as_xyz
  1  'x, y, z'
loop_
 _atom_site_type_symbol
 _atom_site_label
 _atom_site_symmetry_multiplicity
 _atom_site_fract_x
 _atom_site_fract_y
 _atom_site_fract_z
 _atom_site_occupancy
  Sn  Sn0  1  0.236831  0.203291  0.733272  1
  Sn  Sn1  1  0.756824  0.791814  0.264247  1
  As  As2  1  0.241146  0.106770  0.164952  1
  As  As3  1  0.280766  0.458622  0.312091  1
  As  As4  1  0.724488  0.546679  0.687420  1
  P  P5  1  0.748528  0.889151  0.836579  1
  O  O6  1  0.159083  0.277482  0.485499  1
  O  O7  1  0.020689  0.947593  0.777245  1
  O  O8  1  0.102058  0.673063  0.223752  1
  O  O9  1  0.290032  0.357622  0.155106  1
  O  O10  1  0.330191  0.127736  0.973902  1
  O  O11  1  0.438747  0.941241  0.306949  1
  O  O12  1  0.422475  0.481202  0.670028  1
  O  O13  1  0.588419  0.512542  0.328077  1
  O  O14  1  0.557588  0.038319  0.718880  1
  O  O15  1  0.701733  0.855520  0.016870  1
  O  O16  1  0.705495  0.666402  0.833715  1
  O  O17  1  0.914358  0.341715  0.785499  1
  O  O18  1  0.930431  0.066024  0.215218  1
  O  O19  1  0.850119  0.717214  0.510698  1
