# generated using pymatgen
data_Ce4In2IrRh3
_symmetry_space_group_name_H-M   'P 1'
_cell_length_a   7.69707801
_cell_length_b   7.69707801
_cell_length_c   3.72883700
_cell_angle_alpha   90.00000000
_cell_angle_beta   90.00000000
_cell_angle_gamma   90.16528297
_symmetry_Int_Tables_number   1
_chemical_formula_structural   Ce4In2IrRh3
_chemical_formula_sum   'Ce4 In2 Ir1 Rh3'
_cell_volume   220.91406556
_cell_formula_units_Z   1
loop_
 _symmetry_equiv_pos_site_id
 _symmetry_equiv_pos_as_xyz
  1  'x, y, z'
loop_
 _atom_site_type_symbol
 _atom_site_label
 _atom_site_symmetry_multiplicity
 _atom_site_fract_x
 _atom_site_fract_y
 _atom_site_fract_z
 _atom_site_occupancy
  Ce  Ce0  1  0.670121  0.170121  0.500000  1
  Ce  Ce1  1  0.329027  0.829027  0.500000  1
  Ce  Ce2  1  0.171127  0.331577  0.500000  1
  Ce  Ce3  1  0.831577  0.671127  0.500000  1
  In  In4  1  0.000085  0.000789  0.000000  1
  In  In5  1  0.500789  0.500085  0.000000  1
  Ir  Ir6  1  0.133745  0.633745  0.000000  1
  Rh  Rh7  1  0.862076  0.362076  0.000000  1
  Rh  Rh8  1  0.636343  0.865110  0.000000  1
  Rh  Rh9  1  0.365110  0.136343  0.000000  1
