# generated using pymatgen
data_Sr3PrMnCrO8
_symmetry_space_group_name_H-M   'P 1'
_cell_length_a   5.47921900
_cell_length_b   12.49962800
_cell_length_c   5.49988800
_cell_angle_alpha   89.99996041
_cell_angle_beta   89.99997976
_cell_angle_gamma   90.00073041
_symmetry_Int_Tables_number   1
_chemical_formula_structural   Sr3PrMnCrO8
_chemical_formula_sum   'Sr6 Pr2 Mn2 Cr2 O16'
_cell_volume   376.67742511
_cell_formula_units_Z   2
loop_
 _symmetry_equiv_pos_site_id
 _symmetry_equiv_pos_as_xyz
  1  'x, y, z'
loop_
 _atom_site_type_symbol
 _atom_site_label
 _atom_site_symmetry_multiplicity
 _atom_site_fract_x
 _atom_site_fract_y
 _atom_site_fract_z
 _atom_site_occupancy
  Sr  Sr0  1  0.500002  0.145194  0.000001  1
  Sr  Sr1  1  0.500004  0.645193  0.500000  1
  Sr  Sr2  1  0.000010  0.142654  0.500001  1
  Sr  Sr3  1  0.999995  0.642655  0.999995  1
  Sr  Sr4  1  0.000000  0.355588  0.999998  1
  Sr  Sr5  1  0.999998  0.855589  0.500003  1
  Pr  Pr6  1  0.500007  0.361300  0.500004  1
  Pr  Pr7  1  0.500046  0.861303  0.000001  1
  Mn  Mn8  1  0.000009  0.501602  0.499991  1
  Mn  Mn9  1  0.000008  0.001607  0.000004  1
  Cr  Cr10  1  0.499984  0.003422  0.500008  1
  Cr  Cr11  1  0.499995  0.503409  0.999999  1
  O  O12  1  0.000000  0.339930  0.499999  1
  O  O13  1  0.999914  0.839932  0.000003  1
  O  O14  1  0.500000  0.339590  0.999993  1
  O  O15  1  0.500004  0.839592  0.500001  1
  O  O16  1  0.500003  0.170549  0.500000  1
  O  O17  1  0.499988  0.670549  0.000002  1
  O  O18  1  0.000012  0.156279  0.000001  1
  O  O19  1  0.000005  0.656276  0.499995  1
  O  O20  1  0.249332  0.495973  0.740047  1
  O  O21  1  0.249329  0.995968  0.240049  1
  O  O22  1  0.750671  0.495972  0.259948  1
  O  O23  1  0.750676  0.995984  0.759946  1
  O  O24  1  0.750679  0.495974  0.740053  1
  O  O25  1  0.750675  0.995985  0.240057  1
  O  O26  1  0.249327  0.495971  0.259942  1
  O  O27  1  0.249330  0.995968  0.759956  1
