# generated using pymatgen
data_Nd9Th(SiPb3)2
_symmetry_space_group_name_H-M   'P 1'
_cell_length_a   9.68987751
_cell_length_b   9.67041657
_cell_length_c   6.69865600
_cell_angle_alpha   90.00000000
_cell_angle_beta   90.00000000
_cell_angle_gamma   119.93359061
_symmetry_Int_Tables_number   1
_chemical_formula_structural   Nd9Th(SiPb3)2
_chemical_formula_sum   'Nd9 Th1 Si2 Pb6'
_cell_volume   543.96632087
_cell_formula_units_Z   1
loop_
 _symmetry_equiv_pos_site_id
 _symmetry_equiv_pos_as_xyz
  1  'x, y, z'
loop_
 _atom_site_type_symbol
 _atom_site_label
 _atom_site_symmetry_multiplicity
 _atom_site_fract_x
 _atom_site_fract_y
 _atom_site_fract_z
 _atom_site_occupancy
  Nd  Nd0  1  0.666373  0.333620  0.499201  1
  Nd  Nd1  1  0.333627  0.667248  0.499201  1
  Nd  Nd2  1  0.333627  0.667248  0.000799  1
  Nd  Nd3  1  0.666373  0.333620  0.000799  1
  Nd  Nd4  1  0.750162  0.749949  0.250000  1
  Nd  Nd5  1  0.249838  0.999787  0.250000  1
  Nd  Nd6  1  0.000000  0.249220  0.250000  1
  Nd  Nd7  1  0.250566  0.250904  0.750000  1
  Nd  Nd8  1  0.749434  0.000337  0.750000  1
  Th  Th9  1  0.000000  0.750838  0.750000  1
  Si  Si10  1  0.000000  0.999273  0.501284  1
  Si  Si11  1  0.000000  0.999273  0.998716  1
  Pb  Pb12  1  0.390448  0.390194  0.250000  1
  Pb  Pb13  1  0.609552  0.999746  0.250000  1
  Pb  Pb14  1  0.000000  0.610247  0.250000  1
  Pb  Pb15  1  0.608759  0.608364  0.750000  1
  Pb  Pb16  1  0.391241  0.999604  0.750000  1
  Pb  Pb17  1  0.000000  0.390529  0.750000  1
