# generated using pymatgen
data_TbGd2Y3CoBr10
_symmetry_space_group_name_H-M   'P 1'
_cell_length_a   7.45351282
_cell_length_b   9.34288492
_cell_length_c   9.33396400
_cell_angle_alpha   108.36807183
_cell_angle_beta   96.65227138
_cell_angle_gamma   105.63241543
_symmetry_Int_Tables_number   1
_chemical_formula_structural   TbGd2Y3CoBr10
_chemical_formula_sum   'Tb1 Gd2 Y3 Co1 Br10'
_cell_volume   579.54919489
_cell_formula_units_Z   1
loop_
 _symmetry_equiv_pos_site_id
 _symmetry_equiv_pos_as_xyz
  1  'x, y, z'
loop_
 _atom_site_type_symbol
 _atom_site_label
 _atom_site_symmetry_multiplicity
 _atom_site_fract_x
 _atom_site_fract_y
 _atom_site_fract_z
 _atom_site_occupancy
  Tb  Tb0  1  0.645866  0.868993  0.823964  1
  Gd  Gd1  1  0.118900  0.043889  0.766080  1
  Gd  Gd2  1  0.881255  0.955875  0.233857  1
  Y  Y3  1  0.972038  0.294360  0.093236  1
  Y  Y4  1  0.028152  0.705624  0.906486  1
  Y  Y5  1  0.355171  0.132068  0.176881  1
  Co  Co6  1  0.000443  0.000110  0.999992  1
  Br  Br7  1  0.547196  0.175522  0.918150  1
  Br  Br8  1  0.453185  0.825114  0.082293  1
  Br  Br9  1  0.351187  0.448886  0.268415  1
  Br  Br10  1  0.648371  0.551590  0.731201  1
  Br  Br11  1  0.250541  0.082602  0.452516  1
  Br  Br12  1  0.748014  0.915534  0.547001  1
  Br  Br13  1  0.784164  0.255699  0.341965  1
  Br  Br14  1  0.216876  0.745035  0.659153  1
  Br  Br15  1  0.082456  0.369195  0.831402  1
  Br  Br16  1  0.916184  0.629902  0.167408  1
