# generated using pymatgen
data_Lu2Mg2As6Ru7
_symmetry_space_group_name_H-M   'P 1'
_cell_length_a   7.16181393
_cell_length_b   7.16181259
_cell_length_c   7.03852700
_cell_angle_alpha   109.47972475
_cell_angle_beta   109.47972215
_cell_angle_gamma   110.15339492
_symmetry_Int_Tables_number   1
_chemical_formula_structural   Lu2Mg2As6Ru7
_chemical_formula_sum   'Lu2 Mg2 As6 Ru7'
_cell_volume   275.47744683
_cell_formula_units_Z   1
loop_
 _symmetry_equiv_pos_site_id
 _symmetry_equiv_pos_as_xyz
  1  'x, y, z'
loop_
 _atom_site_type_symbol
 _atom_site_label
 _atom_site_symmetry_multiplicity
 _atom_site_fract_x
 _atom_site_fract_y
 _atom_site_fract_z
 _atom_site_occupancy
  Lu  Lu0  1  0.000000  0.000000  0.500000  1
  Lu  Lu1  1  0.500000  0.500000  0.500000  1
  Mg  Mg2  1  0.000000  0.500000  0.000000  1
  Mg  Mg3  1  0.500000  0.000000  0.000000  1
  As  As4  1  0.689273  0.689273  0.000000  1
  As  As5  1  0.310521  0.996612  0.307132  1
  As  As6  1  0.996612  0.310521  0.307132  1
  As  As7  1  0.310727  0.310727  0.000000  1
  As  As8  1  0.689479  0.003388  0.692868  1
  As  As9  1  0.003388  0.689479  0.692868  1
  Ru  Ru10  1  0.750000  0.250000  0.500000  1
  Ru  Ru11  1  0.750175  0.494093  0.244268  1
  Ru  Ru12  1  0.505907  0.249825  0.755732  1
  Ru  Ru13  1  0.249825  0.505907  0.755732  1
  Ru  Ru14  1  0.250000  0.750000  0.500000  1
  Ru  Ru15  1  0.494093  0.750175  0.244268  1
  Ru  Ru16  1  0.000000  0.000000  0.000000  1
