# generated using pymatgen
data_Er5Co18ReP12
_symmetry_space_group_name_H-M   'P 1'
_cell_length_a   11.92716407
_cell_length_b   11.92716591
_cell_length_c   3.67225400
_cell_angle_alpha   90.00000000
_cell_angle_beta   90.00000000
_cell_angle_gamma   119.70020754
_symmetry_Int_Tables_number   1
_chemical_formula_structural   Er5Co18ReP12
_chemical_formula_sum   'Er5 Co18 Re1 P12'
_cell_volume   453.77634304
_cell_formula_units_Z   1
loop_
 _symmetry_equiv_pos_site_id
 _symmetry_equiv_pos_as_xyz
  1  'x, y, z'
loop_
 _atom_site_type_symbol
 _atom_site_label
 _atom_site_symmetry_multiplicity
 _atom_site_fract_x
 _atom_site_fract_y
 _atom_site_fract_z
 _atom_site_occupancy
  Er  Er0  1  0.666540  0.334920  0.000000  1
  Er  Er1  1  0.334920  0.666540  0.000000  1
  Er  Er2  1  0.815876  0.815876  0.500000  1
  Er  Er3  1  0.187209  0.999937  0.500000  1
  Er  Er4  1  0.999937  0.187209  0.500000  1
  Co  Co5  1  0.875310  0.358459  0.500000  1
  Co  Co6  1  0.642702  0.517353  0.500000  1
  Co  Co7  1  0.485128  0.127693  0.500000  1
  Co  Co8  1  0.358459  0.875310  0.500000  1
  Co  Co9  1  0.517353  0.642702  0.500000  1
  Co  Co10  1  0.127693  0.485128  0.500000  1
  Co  Co11  1  0.552279  0.001032  0.000000  1
  Co  Co12  1  0.001032  0.552279  0.000000  1
  Co  Co13  1  0.800126  0.178526  0.000000  1
  Co  Co14  1  0.822897  0.622589  0.000000  1
  Co  Co15  1  0.374314  0.195916  0.000000  1
  Co  Co16  1  0.178526  0.800126  0.000000  1
  Co  Co17  1  0.622589  0.822897  0.000000  1
  Co  Co18  1  0.195916  0.374314  0.000000  1
  Co  Co19  1  0.281148  0.281148  0.500000  1
  Co  Co20  1  0.714689  0.000443  0.500000  1
  Co  Co21  1  0.000443  0.714689  0.500000  1
  Co  Co22  1  0.997380  0.997380  0.000000  1
  Re  Re23  1  0.445532  0.445532  0.000000  1
  P  P24  1  0.686475  0.167639  0.500000  1
  P  P25  1  0.834621  0.519712  0.500000  1
  P  P26  1  0.479755  0.313976  0.500000  1
  P  P27  1  0.167639  0.686475  0.500000  1
  P  P28  1  0.519712  0.834621  0.500000  1
  P  P29  1  0.313976  0.479755  0.500000  1
  P  P30  1  0.175767  0.175767  0.000000  1
  P  P31  1  0.819711  0.000251  0.000000  1
  P  P32  1  0.000251  0.819711  0.000000  1
  P  P33  1  0.638502  0.638502  0.000000  1
  P  P34  1  0.366630  0.998964  0.000000  1
  P  P35  1  0.998964  0.366630  0.000000  1
