# generated using pymatgen
data_Ho4Ga4RuPt3
_symmetry_space_group_name_H-M   'P 1'
_cell_length_a   4.41264700
_cell_length_b   6.85231201
_cell_length_c   7.71506388
_cell_angle_alpha   90.19165787
_cell_angle_beta   90.00000000
_cell_angle_gamma   90.00000000
_symmetry_Int_Tables_number   1
_chemical_formula_structural   Ho4Ga4RuPt3
_chemical_formula_sum   'Ho4 Ga4 Ru1 Pt3'
_cell_volume   233.27780086
_cell_formula_units_Z   1
loop_
 _symmetry_equiv_pos_site_id
 _symmetry_equiv_pos_as_xyz
  1  'x, y, z'
loop_
 _atom_site_type_symbol
 _atom_site_label
 _atom_site_symmetry_multiplicity
 _atom_site_fract_x
 _atom_site_fract_y
 _atom_site_fract_z
 _atom_site_occupancy
  Ho  Ho0  1  0.250000  0.026267  0.686035  1
  Ho  Ho1  1  0.250000  0.524114  0.811764  1
  Ho  Ho2  1  0.750000  0.981499  0.309267  1
  Ho  Ho3  1  0.750000  0.477368  0.193958  1
  Ga  Ga4  1  0.250000  0.165262  0.072139  1
  Ga  Ga5  1  0.250000  0.654027  0.429300  1
  Ga  Ga6  1  0.750000  0.838843  0.930345  1
  Ga  Ga7  1  0.750000  0.334690  0.567443  1
  Ru  Ru8  1  0.250000  0.269431  0.392630  1
  Pt  Pt9  1  0.250000  0.776622  0.107955  1
  Pt  Pt10  1  0.750000  0.725428  0.607446  1
  Pt  Pt11  1  0.750000  0.226447  0.891717  1
