# generated using pymatgen
data_Dy2ZnGa3Ag2
_symmetry_space_group_name_H-M   'P 1'
_cell_length_a   4.35340800
_cell_length_b   6.98069955
_cell_length_c   10.25506436
_cell_angle_alpha   89.94667993
_cell_angle_beta   90.00000000
_cell_angle_gamma   90.00000000
_symmetry_Int_Tables_number   1
_chemical_formula_structural   Dy2ZnGa3Ag2
_chemical_formula_sum   'Dy4 Zn2 Ga6 Ag4'
_cell_volume   311.64956108
_cell_formula_units_Z   2
loop_
 _symmetry_equiv_pos_site_id
 _symmetry_equiv_pos_as_xyz
  1  'x, y, z'
loop_
 _atom_site_type_symbol
 _atom_site_label
 _atom_site_symmetry_multiplicity
 _atom_site_fract_x
 _atom_site_fract_y
 _atom_site_fract_z
 _atom_site_occupancy
  Dy  Dy0  1  0.250000  0.784157  0.829107  1
  Dy  Dy1  1  0.750000  0.215843  0.170893  1
  Dy  Dy2  1  0.750000  0.719768  0.328544  1
  Dy  Dy3  1  0.250000  0.280232  0.671456  1
  Zn  Zn4  1  0.250000  0.922898  0.149708  1
  Zn  Zn5  1  0.750000  0.077102  0.850292  1
  Ga  Ga6  1  0.750000  0.576021  0.653320  1
  Ga  Ga7  1  0.250000  0.423979  0.346680  1
  Ga  Ga8  1  0.250000  0.704350  0.535971  1
  Ga  Ga9  1  0.750000  0.295650  0.464029  1
  Ga  Ga10  1  0.750000  0.799434  0.037766  1
  Ga  Ga11  1  0.250000  0.200566  0.962234  1
  Ag  Ag12  1  0.250000  0.541771  0.097399  1
  Ag  Ag13  1  0.750000  0.458229  0.902601  1
  Ag  Ag14  1  0.750000  0.958218  0.600717  1
  Ag  Ag15  1  0.250000  0.041782  0.399283  1
