# generated using pymatgen
data_HoCo2SiC
_symmetry_space_group_name_H-M   'P 1'
_cell_length_a   5.55396847
_cell_length_b   5.55396921
_cell_length_c   6.69091900
_cell_angle_alpha   90.00000000
_cell_angle_beta   90.00000000
_cell_angle_gamma   141.16820476
_symmetry_Int_Tables_number   1
_chemical_formula_structural   HoCo2SiC
_chemical_formula_sum   'Ho2 Co4 Si2 C2'
_cell_volume   129.41519196
_cell_formula_units_Z   2
loop_
 _symmetry_equiv_pos_site_id
 _symmetry_equiv_pos_as_xyz
  1  'x, y, z'
loop_
 _atom_site_type_symbol
 _atom_site_label
 _atom_site_symmetry_multiplicity
 _atom_site_fract_x
 _atom_site_fract_y
 _atom_site_fract_z
 _atom_site_occupancy
  Ho  Ho0  1  0.550927  0.449073  0.250000  1
  Ho  Ho1  1  0.449073  0.550927  0.750000  1
  Co  Co2  1  0.836062  0.163938  0.056090  1
  Co  Co3  1  0.163938  0.836062  0.943910  1
  Co  Co4  1  0.163938  0.836062  0.556090  1
  Co  Co5  1  0.836062  0.163938  0.443910  1
  Si  Si6  1  0.271908  0.728092  0.250000  1
  Si  Si7  1  0.728092  0.271908  0.750000  1
  C  C8  1  0.000000  0.000000  0.000000  1
  C  C9  1  0.000000  0.000000  0.500000  1
