# generated using pymatgen
data_NpU3(NiAs)4
_symmetry_space_group_name_H-M   'P 1'
_cell_length_a   4.09038200
_cell_length_b   4.09038187
_cell_length_c   15.05335800
_cell_angle_alpha   90.00000000
_cell_angle_beta   90.00000000
_cell_angle_gamma   120.00001720
_symmetry_Int_Tables_number   1
_chemical_formula_structural   NpU3(NiAs)4
_chemical_formula_sum   'Np1 U3 Ni4 As4'
_cell_volume   218.11808213
_cell_formula_units_Z   1
loop_
 _symmetry_equiv_pos_site_id
 _symmetry_equiv_pos_as_xyz
  1  'x, y, z'
loop_
 _atom_site_type_symbol
 _atom_site_label
 _atom_site_symmetry_multiplicity
 _atom_site_fract_x
 _atom_site_fract_y
 _atom_site_fract_z
 _atom_site_occupancy
  Np  Np0  1  0.000000  0.000000  0.000000  1
  U  U1  1  0.000000  0.000000  0.249726  1
  U  U2  1  0.000000  0.000000  0.750274  1
  U  U3  1  0.000000  0.000000  0.500000  1
  Ni  Ni4  1  0.333333  0.666667  0.157668  1
  Ni  Ni5  1  0.666667  0.333333  0.842332  1
  Ni  Ni6  1  0.666667  0.333333  0.654684  1
  Ni  Ni7  1  0.333333  0.666667  0.345316  1
  As  As8  1  0.333333  0.666667  0.619228  1
  As  As9  1  0.666667  0.333333  0.380772  1
  As  As10  1  0.666667  0.333333  0.119106  1
  As  As11  1  0.333333  0.666667  0.880894  1
