# generated using pymatgen
data_YZr3(MoN2)4
_symmetry_space_group_name_H-M   'P 1'
_cell_length_a   3.11690000
_cell_length_b   5.60137094
_cell_length_c   10.55634105
_cell_angle_alpha   90.27336836
_cell_angle_beta   90.00000000
_cell_angle_gamma   90.00000000
_symmetry_Int_Tables_number   1
_chemical_formula_structural   YZr3(MoN2)4
_chemical_formula_sum   'Y1 Zr3 Mo4 N8'
_cell_volume   184.30014288
_cell_formula_units_Z   1
loop_
 _symmetry_equiv_pos_site_id
 _symmetry_equiv_pos_as_xyz
  1  'x, y, z'
loop_
 _atom_site_type_symbol
 _atom_site_label
 _atom_site_symmetry_multiplicity
 _atom_site_fract_x
 _atom_site_fract_y
 _atom_site_fract_z
 _atom_site_occupancy
  Y  Y0  1  0.750000  0.416129  0.351938  1
  Zr  Zr1  1  0.250000  0.088670  0.846876  1
  Zr  Zr2  1  0.250000  0.584489  0.653054  1
  Zr  Zr3  1  0.750000  0.912406  0.150952  1
  Mo  Mo4  1  0.250000  0.428028  0.090206  1
  Mo  Mo5  1  0.250000  0.927681  0.404995  1
  Mo  Mo6  1  0.750000  0.572277  0.910296  1
  Mo  Mo7  1  0.750000  0.067718  0.593832  1
  N  N8  1  0.250000  0.152079  0.239142  1
  N  N9  1  0.250000  0.672454  0.246357  1
  N  N10  1  0.750000  0.837836  0.756802  1
  N  N11  1  0.750000  0.339451  0.748650  1
  N  N12  1  0.250000  0.775730  0.995640  1
  N  N13  1  0.250000  0.268051  0.508830  1
  N  N14  1  0.750000  0.224726  0.999383  1
  N  N15  1  0.750000  0.732275  0.503046  1
