# generated using pymatgen
data_Dy3YPu6(SiB4)4
_symmetry_space_group_name_H-M   'P 1'
_cell_length_a   7.22451600
_cell_length_b   7.22439993
_cell_length_c   8.11306700
_cell_angle_alpha   90.00000000
_cell_angle_beta   90.00000000
_cell_angle_gamma   89.93311895
_symmetry_Int_Tables_number   1
_chemical_formula_structural   Dy3YPu6(SiB4)4
_chemical_formula_sum   'Dy3 Y1 Pu6 Si4 B16'
_cell_volume   423.44333711
_cell_formula_units_Z   1
loop_
 _symmetry_equiv_pos_site_id
 _symmetry_equiv_pos_as_xyz
  1  'x, y, z'
loop_
 _atom_site_type_symbol
 _atom_site_label
 _atom_site_symmetry_multiplicity
 _atom_site_fract_x
 _atom_site_fract_y
 _atom_site_fract_z
 _atom_site_occupancy
  Dy  Dy0  1  0.181486  0.318517  0.777851  1
  Dy  Dy1  1  0.181486  0.318517  0.222149  1
  Dy  Dy2  1  0.501712  0.500742  0.500000  1
  Y  Y3  1  0.999257  0.998295  0.500000  1
  Pu  Pu4  1  0.683091  0.182749  0.228574  1
  Pu  Pu5  1  0.317259  0.816902  0.771419  1
  Pu  Pu6  1  0.317259  0.816902  0.228581  1
  Pu  Pu7  1  0.816419  0.683574  0.228593  1
  Pu  Pu8  1  0.816419  0.683574  0.771407  1
  Pu  Pu9  1  0.683091  0.182749  0.771426  1
  Si  Si10  1  0.115892  0.614218  0.500000  1
  Si  Si11  1  0.885777  0.384109  0.500000  1
  Si  Si12  1  0.383856  0.116147  0.500000  1
  Si  Si13  1  0.613293  0.886707  0.500000  1
  B  B14  1  0.173491  0.038127  0.000000  1
  B  B15  1  0.826116  0.959735  0.000000  1
  B  B16  1  0.958294  0.172193  0.000000  1
  B  B17  1  0.327807  0.541705  0.000000  1
  B  B18  1  0.040121  0.825609  0.000000  1
  B  B19  1  0.674392  0.459877  0.000000  1
  B  B20  1  0.540268  0.673883  0.000000  1
  B  B21  1  0.461873  0.326508  0.000000  1
  B  B22  1  0.090327  0.589663  0.000000  1
  B  B23  1  0.910336  0.409672  0.000000  1
  B  B24  1  0.409865  0.090138  0.000000  1
  B  B25  1  0.589144  0.910858  0.000000  1
  B  B26  1  0.999501  0.998670  0.160691  1
  B  B27  1  0.999501  0.998670  0.839309  1
  B  B28  1  0.501332  0.500497  0.839307  1
  B  B29  1  0.501332  0.500497  0.160693  1
