# generated using pymatgen
data_Ho2Er5Co3Sn23Ir3
_symmetry_space_group_name_H-M   'P 1'
_cell_length_a   9.75406401
_cell_length_b   9.75358032
_cell_length_c   10.03893401
_cell_angle_alpha   89.99999787
_cell_angle_beta   89.99504412
_cell_angle_gamma   119.99835326
_symmetry_Int_Tables_number   1
_chemical_formula_structural   Ho2Er5Co3Sn23Ir3
_chemical_formula_sum   'Ho2 Er5 Co3 Sn23 Ir3'
_cell_volume   827.13252991
_cell_formula_units_Z   1
loop_
 _symmetry_equiv_pos_site_id
 _symmetry_equiv_pos_as_xyz
  1  'x, y, z'
loop_
 _atom_site_type_symbol
 _atom_site_label
 _atom_site_symmetry_multiplicity
 _atom_site_fract_x
 _atom_site_fract_y
 _atom_site_fract_z
 _atom_site_occupancy
  Ho  Ho0  1  0.479005  0.958001  0.307781  1
  Ho  Ho1  1  0.479005  0.521005  0.307781  1
  Er  Er2  1  0.000007  0.000003  0.979754  1
  Er  Er3  1  0.519973  0.480014  0.695039  1
  Er  Er4  1  0.519973  0.039958  0.695039  1
  Er  Er5  1  0.960056  0.480028  0.694966  1
  Er  Er6  1  0.041837  0.520919  0.307778  1
  Co  Co7  1  0.336597  0.168299  0.200459  1
  Co  Co8  1  0.831773  0.663330  0.200489  1
  Co  Co9  1  0.831773  0.168444  0.200489  1
  Sn  Sn10  1  0.666727  0.333363  0.183010  1
  Sn  Sn11  1  0.666681  0.333340  0.880376  1
  Sn  Sn12  1  0.333111  0.666556  0.123702  1
  Sn  Sn13  1  0.352163  0.345495  0.006936  1
  Sn  Sn14  1  0.993329  0.647787  0.006967  1
  Sn  Sn15  1  0.654497  0.006686  0.006926  1
  Sn  Sn16  1  0.654497  0.647810  0.006926  1
  Sn  Sn17  1  0.333326  0.666663  0.829073  1
  Sn  Sn18  1  0.440475  0.220238  0.450634  1
  Sn  Sn19  1  0.221802  0.778062  0.543728  1
  Sn  Sn20  1  0.221802  0.443737  0.543728  1
  Sn  Sn21  1  0.556268  0.778133  0.543811  1
  Sn  Sn22  1  0.117278  0.882590  0.272725  1
  Sn  Sn23  1  0.779918  0.559511  0.450557  1
  Sn  Sn24  1  0.779918  0.220407  0.450557  1
  Sn  Sn25  1  0.352163  0.006668  0.006936  1
  Sn  Sn26  1  0.117278  0.234689  0.272725  1
  Sn  Sn27  1  0.765428  0.882714  0.272715  1
  Sn  Sn28  1  0.241352  0.120676  0.712526  1
  Sn  Sn29  1  0.879325  0.758630  0.712539  1
  Sn  Sn30  1  0.879325  0.120694  0.712539  1
  Sn  Sn31  1  0.000007  0.000003  0.496917  1
  Sn  Sn32  1  0.993329  0.345543  0.006967  1
  Ir  Ir33  1  0.167488  0.832521  0.805633  1
  Ir  Ir34  1  0.167488  0.334966  0.805633  1
  Ir  Ir35  1  0.665029  0.832514  0.805641  1
