# generated using pymatgen
data_Ca3Nd17Sn16
_symmetry_space_group_name_H-M   'P 1'
_cell_length_a   8.20043209
_cell_length_b   8.45281333
_cell_length_c   16.11593600
_cell_angle_alpha   90.00000000
_cell_angle_beta   90.00000000
_cell_angle_gamma   89.81199002
_symmetry_Int_Tables_number   1
_chemical_formula_structural   Ca3Nd17Sn16
_chemical_formula_sum   'Ca3 Nd17 Sn16'
_cell_volume   1117.09783518
_cell_formula_units_Z   1
loop_
 _symmetry_equiv_pos_site_id
 _symmetry_equiv_pos_as_xyz
  1  'x, y, z'
loop_
 _atom_site_type_symbol
 _atom_site_label
 _atom_site_symmetry_multiplicity
 _atom_site_fract_x
 _atom_site_fract_y
 _atom_site_fract_z
 _atom_site_occupancy
  Ca  Ca0  1  0.188529  0.498695  0.250000  1
  Ca  Ca1  1  0.687663  0.999496  0.250000  1
  Ca  Ca2  1  0.311496  0.000619  0.750000  1
  Nd  Nd3  1  0.006152  0.182433  0.404809  1
  Nd  Nd4  1  0.359119  0.831223  0.122470  1
  Nd  Nd5  1  0.142942  0.334111  0.621397  1
  Nd  Nd6  1  0.490393  0.683760  0.903022  1
  Nd  Nd7  1  0.858478  0.663510  0.120784  1
  Nd  Nd8  1  0.142942  0.334111  0.878603  1
  Nd  Nd9  1  0.490393  0.683760  0.596978  1
  Nd  Nd10  1  0.641267  0.167072  0.622417  1
  Nd  Nd11  1  0.811995  0.501282  0.750000  1
  Nd  Nd12  1  0.858478  0.663510  0.379216  1
  Nd  Nd13  1  0.006152  0.182433  0.095191  1
  Nd  Nd14  1  0.994421  0.820143  0.903646  1
  Nd  Nd15  1  0.641267  0.167072  0.877583  1
  Nd  Nd16  1  0.507193  0.316524  0.095654  1
  Nd  Nd17  1  0.359119  0.831223  0.377530  1
  Nd  Nd18  1  0.994421  0.820143  0.596354  1
  Nd  Nd19  1  0.507193  0.316524  0.404346  1
  Sn  Sn20  1  0.801374  0.464062  0.542533  1
  Sn  Sn21  1  0.696420  0.960871  0.460705  1
  Sn  Sn22  1  0.689361  0.859075  0.750000  1
  Sn  Sn23  1  0.199755  0.537987  0.460366  1
  Sn  Sn24  1  0.303614  0.039073  0.961727  1
  Sn  Sn25  1  0.812213  0.358615  0.250000  1
  Sn  Sn26  1  0.801374  0.464062  0.957467  1
  Sn  Sn27  1  0.558346  0.607139  0.250000  1
  Sn  Sn28  1  0.199755  0.537987  0.039634  1
  Sn  Sn29  1  0.440902  0.390094  0.750000  1
  Sn  Sn30  1  0.186047  0.641571  0.750000  1
  Sn  Sn31  1  0.944038  0.111384  0.750000  1
  Sn  Sn32  1  0.303614  0.039073  0.538273  1
  Sn  Sn33  1  0.696420  0.960871  0.039295  1
  Sn  Sn34  1  0.310347  0.139196  0.250000  1
  Sn  Sn35  1  0.056808  0.891296  0.250000  1
