# generated using pymatgen
data_TbScP7(IrRu5)2
_symmetry_space_group_name_H-M   'P 1'
_cell_length_a   9.38055840
_cell_length_b   9.44312585
_cell_length_c   3.94237100
_cell_angle_alpha   90.00000000
_cell_angle_beta   90.00000000
_cell_angle_gamma   120.16617621
_symmetry_Int_Tables_number   1
_chemical_formula_structural   TbScP7(IrRu5)2
_chemical_formula_sum   'Tb1 Sc1 P7 Ir2 Ru10'
_cell_volume   301.92767843
_cell_formula_units_Z   1
loop_
 _symmetry_equiv_pos_site_id
 _symmetry_equiv_pos_as_xyz
  1  'x, y, z'
loop_
 _atom_site_type_symbol
 _atom_site_label
 _atom_site_symmetry_multiplicity
 _atom_site_fract_x
 _atom_site_fract_y
 _atom_site_fract_z
 _atom_site_occupancy
  Tb  Tb0  1  0.330805  0.665418  0.000000  1
  Sc  Sc1  1  0.668371  0.334142  0.500000  1
  P  P2  1  0.601628  0.718535  0.500000  1
  P  P3  1  0.000752  0.000767  0.000000  1
  P  P4  1  0.276451  0.878640  0.500000  1
  P  P5  1  0.114536  0.400728  0.500000  1
  P  P6  1  0.883198  0.571505  0.000000  1
  P  P7  1  0.430004  0.307444  0.000000  1
  P  P8  1  0.693571  0.120590  0.000000  1
  Ir  Ir9  1  0.552589  0.946880  0.500000  1
  Ir  Ir10  1  0.393327  0.445461  0.500000  1
  Ru  Ru11  1  0.914866  0.124739  0.500000  1
  Ru  Ru12  1  0.211293  0.086260  0.500000  1
  Ru  Ru13  1  0.875999  0.792733  0.500000  1
  Ru  Ru14  1  0.725719  0.892671  0.000000  1
  Ru  Ru15  1  0.108704  0.836125  0.000000  1
  Ru  Ru16  1  0.167849  0.273162  0.000000  1
  Ru  Ru17  1  0.430749  0.070578  0.000000  1
  Ru  Ru18  1  0.931628  0.357824  0.000000  1
  Ru  Ru19  1  0.641976  0.570786  0.000000  1
  Ru  Ru20  1  0.045984  0.605012  0.500000  1
