# generated using pymatgen
data_HoNp3(Si5Os3)2
_symmetry_space_group_name_H-M   'P 1'
_cell_length_a   8.12651023
_cell_length_b   8.09394417
_cell_length_c   5.75302176
_cell_angle_alpha   70.35193358
_cell_angle_beta   70.62723864
_cell_angle_gamma   93.28478743
_symmetry_Int_Tables_number   1
_chemical_formula_structural   HoNp3(Si5Os3)2
_chemical_formula_sum   'Ho1 Np3 Si10 Os6'
_cell_volume   330.07140681
_cell_formula_units_Z   1
loop_
 _symmetry_equiv_pos_site_id
 _symmetry_equiv_pos_as_xyz
  1  'x, y, z'
loop_
 _atom_site_type_symbol
 _atom_site_label
 _atom_site_symmetry_multiplicity
 _atom_site_fract_x
 _atom_site_fract_y
 _atom_site_fract_z
 _atom_site_occupancy
  Ho  Ho0  1  0.865281  0.601936  0.757807  1
  Np  Np1  1  0.407305  0.125521  0.743324  1
  Np  Np2  1  0.128953  0.406867  0.241435  1
  Np  Np3  1  0.595935  0.866989  0.261965  1
  Si  Si4  1  0.070754  0.261300  0.835788  1
  Si  Si5  1  0.735478  0.938543  0.665532  1
  Si  Si6  1  0.934486  0.737704  0.164136  1
  Si  Si7  1  0.262937  0.066514  0.335103  1
  Si  Si8  1  0.202500  0.794677  0.749474  1
  Si  Si9  1  0.794826  0.203315  0.254303  1
  Si  Si10  1  0.515239  0.483176  0.746924  1
  Si  Si11  1  0.484480  0.513325  0.251638  1
  Si  Si12  1  0.774721  0.222028  0.748256  1
  Si  Si13  1  0.223026  0.774702  0.250044  1
  Os  Os14  1  0.255029  0.543127  0.635426  1
  Os  Os15  1  0.455591  0.746531  0.861949  1
  Os  Os16  1  0.746397  0.457347  0.364515  1
  Os  Os17  1  0.545064  0.252539  0.135569  1
  Os  Os18  1  0.000954  0.002450  0.748654  1
  Os  Os19  1  0.001046  0.001410  0.248159  1
