# generated using pymatgen
data_Cu3Ni2SbO6
_symmetry_space_group_name_H-M   'P 1'
_cell_length_a   5.36347985
_cell_length_b   5.36348044
_cell_length_c   6.06049837
_cell_angle_alpha   81.68053182
_cell_angle_beta   81.68052813
_cell_angle_gamma   119.87775304
_symmetry_Int_Tables_number   1
_chemical_formula_structural   Cu3Ni2SbO6
_chemical_formula_sum   'Cu3 Ni2 Sb1 O6'
_cell_volume   144.72634756
_cell_formula_units_Z   1
loop_
 _symmetry_equiv_pos_site_id
 _symmetry_equiv_pos_as_xyz
  1  'x, y, z'
loop_
 _atom_site_type_symbol
 _atom_site_label
 _atom_site_symmetry_multiplicity
 _atom_site_fract_x
 _atom_site_fract_y
 _atom_site_fract_z
 _atom_site_occupancy
  Cu  Cu0  1  0.839818  0.160181  0.500000  1
  Cu  Cu1  1  0.499999  0.499999  0.500000  1
  Cu  Cu2  1  0.160181  0.839818  0.500000  1
  Ni  Ni3  1  0.666718  0.333281  0.000000  1
  Ni  Ni4  1  0.333281  0.666718  0.000000  1
  Sb  Sb5  1  0.000000  0.000000  0.000000  1
  O  O6  1  0.617860  0.617860  0.180298  1
  O  O7  1  0.265394  0.941434  0.180098  1
  O  O8  1  0.941434  0.265394  0.180098  1
  O  O9  1  0.058567  0.734607  0.819903  1
  O  O10  1  0.734607  0.058567  0.819903  1
  O  O11  1  0.382141  0.382141  0.819702  1
