# generated using pymatgen
data_Tm12Mg2Fe2Tc
_symmetry_space_group_name_H-M   'P 1'
_cell_length_a   8.31265141
_cell_length_b   8.31265142
_cell_length_c   8.31265219
_cell_angle_alpha   108.03779627
_cell_angle_beta   108.03780947
_cell_angle_gamma   112.37774861
_symmetry_Int_Tables_number   1
_chemical_formula_structural   Tm12Mg2Fe2Tc
_chemical_formula_sum   'Tm12 Mg2 Fe2 Tc1'
_cell_volume   441.31954946
_cell_formula_units_Z   1
loop_
 _symmetry_equiv_pos_site_id
 _symmetry_equiv_pos_as_xyz
  1  'x, y, z'
loop_
 _atom_site_type_symbol
 _atom_site_label
 _atom_site_symmetry_multiplicity
 _atom_site_fract_x
 _atom_site_fract_y
 _atom_site_fract_z
 _atom_site_occupancy
  Tm  Tm0  1  0.195263  0.431458  0.236195  1
  Tm  Tm1  1  0.804737  0.568542  0.763805  1
  Tm  Tm2  1  0.195263  0.959069  0.763805  1
  Tm  Tm3  1  0.959069  0.195263  0.763805  1
  Tm  Tm4  1  0.804737  0.040931  0.236195  1
  Tm  Tm5  1  0.040931  0.804737  0.236195  1
  Tm  Tm6  1  0.431458  0.195263  0.236195  1
  Tm  Tm7  1  0.568542  0.804737  0.763805  1
  Tm  Tm8  1  0.308928  0.308928  0.617856  1
  Tm  Tm9  1  0.691072  0.691072  0.382144  1
  Tm  Tm10  1  0.691072  0.308928  0.000000  1
  Tm  Tm11  1  0.308928  0.691072  0.000000  1
  Mg  Mg12  1  0.000000  0.500000  0.500000  1
  Mg  Mg13  1  0.500000  0.000000  0.500000  1
  Fe  Fe14  1  0.381913  0.381913  0.000000  1
  Fe  Fe15  1  0.618087  0.618087  0.000000  1
  Tc  Tc16  1  0.000000  0.000000  0.000000  1
