# generated using pymatgen
data_Lu4Mg3GaIr4
_symmetry_space_group_name_H-M   'P 1'
_cell_length_a   4.02277000
_cell_length_b   6.98151514
_cell_length_c   8.33748100
_cell_angle_alpha   89.95518275
_cell_angle_beta   90.00000000
_cell_angle_gamma   90.00000000
_symmetry_Int_Tables_number   1
_chemical_formula_structural   Lu4Mg3GaIr4
_chemical_formula_sum   'Lu4 Mg3 Ga1 Ir4'
_cell_volume   234.15832940
_cell_formula_units_Z   1
loop_
 _symmetry_equiv_pos_site_id
 _symmetry_equiv_pos_as_xyz
  1  'x, y, z'
loop_
 _atom_site_type_symbol
 _atom_site_label
 _atom_site_symmetry_multiplicity
 _atom_site_fract_x
 _atom_site_fract_y
 _atom_site_fract_z
 _atom_site_occupancy
  Lu  Lu0  1  0.250000  0.537989  0.171526  1
  Lu  Lu1  1  0.750000  0.454824  0.830519  1
  Lu  Lu2  1  0.750000  0.964135  0.676290  1
  Lu  Lu3  1  0.250000  0.040121  0.324867  1
  Mg  Mg4  1  0.250000  0.635663  0.560343  1
  Mg  Mg5  1  0.750000  0.364061  0.439653  1
  Mg  Mg6  1  0.750000  0.865675  0.057242  1
  Ga  Ga7  1  0.250000  0.134323  0.940445  1
  Ir  Ir8  1  0.250000  0.753706  0.870488  1
  Ir  Ir9  1  0.750000  0.244833  0.121476  1
  Ir  Ir10  1  0.750000  0.754875  0.367860  1
  Ir  Ir11  1  0.250000  0.249797  0.639290  1
