# generated using pymatgen
data_Er7Tm13Ir7Ru5
_symmetry_space_group_name_H-M   'P 1'
_cell_length_a   10.69112970
_cell_length_b   10.69056083
_cell_length_c   6.34618300
_cell_angle_alpha   89.98399318
_cell_angle_beta   89.97985630
_cell_angle_gamma   90.06661240
_symmetry_Int_Tables_number   1
_chemical_formula_structural   Er7Tm13Ir7Ru5
_chemical_formula_sum   'Er7 Tm13 Ir7 Ru5'
_cell_volume   725.33117095
_cell_formula_units_Z   1
loop_
 _symmetry_equiv_pos_site_id
 _symmetry_equiv_pos_as_xyz
  1  'x, y, z'
loop_
 _atom_site_type_symbol
 _atom_site_label
 _atom_site_symmetry_multiplicity
 _atom_site_fract_x
 _atom_site_fract_y
 _atom_site_fract_z
 _atom_site_occupancy
  Er  Er0  1  0.293090  0.086278  0.376451  1
  Er  Er1  1  0.292529  0.913710  0.876574  1
  Er  Er2  1  0.707600  0.086702  0.876896  1
  Er  Er3  1  0.707473  0.914031  0.375487  1
  Er  Er4  1  0.586396  0.793169  0.876592  1
  Er  Er5  1  0.587259  0.207176  0.376508  1
  Er  Er6  1  0.413590  0.793031  0.376433  1
  Tm  Tm7  1  0.413564  0.206586  0.876043  1
  Tm  Tm8  1  0.206328  0.413842  0.623267  1
  Tm  Tm9  1  0.206343  0.586110  0.123365  1
  Tm  Tm10  1  0.793437  0.413024  0.123278  1
  Tm  Tm11  1  0.793750  0.586215  0.623945  1
  Tm  Tm12  1  0.914108  0.706305  0.123336  1
  Tm  Tm13  1  0.913674  0.292888  0.622960  1
  Tm  Tm14  1  0.086065  0.706882  0.623189  1
  Tm  Tm15  1  0.085753  0.293114  0.124301  1
  Tm  Tm16  1  0.999504  0.000975  0.499466  1
  Tm  Tm17  1  0.999078  0.000507  0.000782  1
  Tm  Tm18  1  0.500064  0.500003  0.000171  1
  Tm  Tm19  1  0.499898  0.499845  0.500058  1
  Ir  Ir20  1  0.847203  0.846326  0.750011  1
  Ir  Ir21  1  0.153359  0.153376  0.750420  1
  Ir  Ir22  1  0.152774  0.846711  0.250140  1
  Ir  Ir23  1  0.652168  0.348131  0.750253  1
  Ir  Ir24  1  0.653152  0.652321  0.249876  1
  Ir  Ir25  1  0.347238  0.347254  0.250056  1
  Ir  Ir26  1  0.347151  0.652333  0.750160  1
  Ru  Ru27  1  0.847743  0.152693  0.250106  1
  Ru  Ru28  1  0.500070  0.000384  0.122419  1
  Ru  Ru29  1  0.499851  0.000117  0.622887  1
  Ru  Ru30  1  0.000013  0.500095  0.877212  1
  Ru  Ru31  1  0.999775  0.499862  0.377357  1
