# generated using pymatgen
data_Ho2Sc3Sn3Ge
_symmetry_space_group_name_H-M   'P 1'
_cell_length_a   7.52312600
_cell_length_b   7.83189900
_cell_length_c   14.76176900
_cell_angle_alpha   90.00000000
_cell_angle_beta   90.00000000
_cell_angle_gamma   90.00000000
_symmetry_Int_Tables_number   1
_chemical_formula_structural   Ho2Sc3Sn3Ge
_chemical_formula_sum   'Ho8 Sc12 Sn12 Ge4'
_cell_volume   869.76878795
_cell_formula_units_Z   4
loop_
 _symmetry_equiv_pos_site_id
 _symmetry_equiv_pos_as_xyz
  1  'x, y, z'
loop_
 _atom_site_type_symbol
 _atom_site_label
 _atom_site_symmetry_multiplicity
 _atom_site_fract_x
 _atom_site_fract_y
 _atom_site_fract_z
 _atom_site_occupancy
  Ho  Ho0  1  0.993027  0.172129  0.097332  1
  Ho  Ho1  1  0.006973  0.827871  0.902668  1
  Ho  Ho2  1  0.506973  0.672129  0.902668  1
  Ho  Ho3  1  0.006973  0.827871  0.597332  1
  Ho  Ho4  1  0.493027  0.327871  0.097332  1
  Ho  Ho5  1  0.993027  0.172129  0.402668  1
  Ho  Ho6  1  0.493027  0.327871  0.402668  1
  Ho  Ho7  1  0.506973  0.672129  0.597332  1
  Sc  Sc8  1  0.174742  0.489596  0.750000  1
  Sc  Sc9  1  0.825258  0.510404  0.250000  1
  Sc  Sc10  1  0.325258  0.989596  0.250000  1
  Sc  Sc11  1  0.674742  0.010404  0.750000  1
  Sc  Sc12  1  0.336522  0.167525  0.633245  1
  Sc  Sc13  1  0.663478  0.832475  0.366755  1
  Sc  Sc14  1  0.163478  0.667525  0.366755  1
  Sc  Sc15  1  0.663478  0.832475  0.133245  1
  Sc  Sc16  1  0.836522  0.332475  0.633245  1
  Sc  Sc17  1  0.336522  0.167525  0.866755  1
  Sc  Sc18  1  0.836522  0.332475  0.866755  1
  Sc  Sc19  1  0.163478  0.667525  0.133245  1
  Sn  Sn20  1  0.308090  0.851739  0.750000  1
  Sn  Sn21  1  0.691910  0.148261  0.250000  1
  Sn  Sn22  1  0.191910  0.351739  0.250000  1
  Sn  Sn23  1  0.808090  0.648261  0.750000  1
  Sn  Sn24  1  0.179189  0.457733  0.540192  1
  Sn  Sn25  1  0.820811  0.542267  0.459808  1
  Sn  Sn26  1  0.320811  0.957733  0.459808  1
  Sn  Sn27  1  0.820811  0.542267  0.040192  1
  Sn  Sn28  1  0.679189  0.042267  0.540192  1
  Sn  Sn29  1  0.179189  0.457733  0.959808  1
  Sn  Sn30  1  0.679189  0.042267  0.959808  1
  Sn  Sn31  1  0.320811  0.957733  0.040192  1
  Ge  Ge32  1  0.029834  0.130693  0.750000  1
  Ge  Ge33  1  0.970166  0.869307  0.250000  1
  Ge  Ge34  1  0.470166  0.630693  0.250000  1
  Ge  Ge35  1  0.529834  0.369307  0.750000  1
