# generated using pymatgen
data_SrLa3(GaSi3)2
_symmetry_space_group_name_H-M   'P 1'
_cell_length_a   4.36589700
_cell_length_b   4.36589700
_cell_length_c   14.15245100
_cell_angle_alpha   90.00000000
_cell_angle_beta   90.00000000
_cell_angle_gamma   90.00000000
_symmetry_Int_Tables_number   1
_chemical_formula_structural   SrLa3(GaSi3)2
_chemical_formula_sum   'Sr1 La3 Ga2 Si6'
_cell_volume   269.76066975
_cell_formula_units_Z   1
loop_
 _symmetry_equiv_pos_site_id
 _symmetry_equiv_pos_as_xyz
  1  'x, y, z'
loop_
 _atom_site_type_symbol
 _atom_site_label
 _atom_site_symmetry_multiplicity
 _atom_site_fract_x
 _atom_site_fract_y
 _atom_site_fract_z
 _atom_site_occupancy
  Sr  Sr0  1  0.500000  0.500000  0.000000  1
  La  La1  1  0.000000  0.000000  0.500000  1
  La  La2  1  0.500000  0.000000  0.741291  1
  La  La3  1  0.000000  0.500000  0.258709  1
  Ga  Ga4  1  0.000000  0.000000  0.912047  1
  Ga  Ga5  1  0.000000  0.000000  0.087953  1
  Si  Si6  1  0.500000  0.500000  0.417638  1
  Si  Si7  1  0.000000  0.500000  0.826168  1
  Si  Si8  1  0.500000  0.000000  0.337918  1
  Si  Si9  1  0.500000  0.500000  0.582362  1
  Si  Si10  1  0.500000  0.000000  0.173832  1
  Si  Si11  1  0.000000  0.500000  0.662082  1
