# generated using pymatgen
data_La2Sn2Ru2C
_symmetry_space_group_name_H-M   'P 1'
_cell_length_a   6.43705147
_cell_length_b   6.43705111
_cell_length_c   7.65648860
_cell_angle_alpha   127.04604097
_cell_angle_beta   127.04603577
_cell_angle_gamma   40.03653925
_symmetry_Int_Tables_number   1
_chemical_formula_structural   La2Sn2Ru2C
_chemical_formula_sum   'La2 Sn2 Ru2 C1'
_cell_volume   156.60662126
_cell_formula_units_Z   1
loop_
 _symmetry_equiv_pos_site_id
 _symmetry_equiv_pos_as_xyz
  1  'x, y, z'
loop_
 _atom_site_type_symbol
 _atom_site_label
 _atom_site_symmetry_multiplicity
 _atom_site_fract_x
 _atom_site_fract_y
 _atom_site_fract_z
 _atom_site_occupancy
  La  La0  1  0.449193  0.449193  0.172733  1
  La  La1  1  0.550807  0.550807  0.827268  1
  Sn  Sn2  1  0.834702  0.834702  0.375666  1
  Sn  Sn3  1  0.165297  0.165297  0.624334  1
  Ru  Ru4  1  0.182294  0.182294  0.290256  1
  Ru  Ru5  1  0.817705  0.817705  0.709743  1
  C  C6  1  0.000000  0.000000  0.000000  1
