# generated using pymatgen
data_ZrNb6SiAs3
_symmetry_space_group_name_H-M   'P 1'
_cell_length_a   7.95688572
_cell_length_b   7.95688777
_cell_length_c   14.36919127
_cell_angle_alpha   76.26267355
_cell_angle_beta   76.26267015
_cell_angle_gamma   25.91993982
_symmetry_Int_Tables_number   1
_chemical_formula_structural   ZrNb6SiAs3
_chemical_formula_sum   'Zr2 Nb12 Si2 As6'
_cell_volume   385.67503148
_cell_formula_units_Z   2
loop_
 _symmetry_equiv_pos_site_id
 _symmetry_equiv_pos_as_xyz
  1  'x, y, z'
loop_
 _atom_site_type_symbol
 _atom_site_label
 _atom_site_symmetry_multiplicity
 _atom_site_fract_x
 _atom_site_fract_y
 _atom_site_fract_z
 _atom_site_occupancy
  Zr  Zr0  1  0.176890  0.176890  0.453302  1
  Zr  Zr1  1  0.823110  0.823110  0.546698  1
  Nb  Nb2  1  0.000000  0.000000  0.000000  1
  Nb  Nb3  1  0.500000  0.500000  0.500000  1
  Nb  Nb4  1  0.428757  0.428757  0.168921  1
  Nb  Nb5  1  0.571243  0.571243  0.831079  1
  Nb  Nb6  1  0.194232  0.194232  0.698342  1
  Nb  Nb7  1  0.805768  0.805768  0.301658  1
  Nb  Nb8  1  0.212945  0.212945  0.196768  1
  Nb  Nb9  1  0.787055  0.787055  0.803232  1
  Nb  Nb10  1  0.331557  0.331557  0.970805  1
  Nb  Nb11  1  0.668443  0.668443  0.029195  1
  Nb  Nb12  1  0.000485  0.000485  0.334671  1
  Nb  Nb13  1  0.999515  0.999515  0.665329  1
  Si  Si14  1  0.173451  0.173451  0.893483  1
  Si  Si15  1  0.826549  0.826549  0.106517  1
  As  As16  1  0.372054  0.372054  0.397705  1
  As  As17  1  0.627946  0.627946  0.602295  1
  As  As18  1  0.372132  0.372132  0.671133  1
  As  As19  1  0.627868  0.627868  0.328867  1
  As  As20  1  0.063236  0.063236  0.149949  1
  As  As21  1  0.936764  0.936764  0.850051  1
