# generated using pymatgen
data_SrNd6PtBr12
_symmetry_space_group_name_H-M   'P 1'
_cell_length_a   9.59049459
_cell_length_b   9.59620050
_cell_length_c   9.59447882
_cell_angle_alpha   106.31490791
_cell_angle_beta   106.28674596
_cell_angle_gamma   106.22944483
_symmetry_Int_Tables_number   1
_chemical_formula_structural   SrNd6PtBr12
_chemical_formula_sum   'Sr1 Nd6 Pt1 Br12'
_cell_volume   749.40226485
_cell_formula_units_Z   1
loop_
 _symmetry_equiv_pos_site_id
 _symmetry_equiv_pos_as_xyz
  1  'x, y, z'
loop_
 _atom_site_type_symbol
 _atom_site_label
 _atom_site_symmetry_multiplicity
 _atom_site_fract_x
 _atom_site_fract_y
 _atom_site_fract_z
 _atom_site_occupancy
  Sr  Sr0  1  0.500000  0.500000  0.500000  1
  Nd  Nd1  1  0.103614  0.314590  0.020651  1
  Nd  Nd2  1  0.314902  0.020795  0.104175  1
  Nd  Nd3  1  0.020564  0.104142  0.314759  1
  Nd  Nd4  1  0.979435  0.895858  0.685241  1
  Nd  Nd5  1  0.685098  0.979204  0.895824  1
  Nd  Nd6  1  0.896386  0.685410  0.979349  1
  Pt  Pt7  1  0.000000  0.000000  0.000000  1
  Br  Br8  1  0.218519  0.680157  0.071086  1
  Br  Br9  1  0.447657  0.366555  0.150599  1
  Br  Br10  1  0.679709  0.070948  0.217961  1
  Br  Br11  1  0.928947  0.782138  0.319908  1
  Br  Br12  1  0.150457  0.447896  0.366442  1
  Br  Br13  1  0.366381  0.150494  0.447770  1
  Br  Br14  1  0.633619  0.849506  0.552230  1
  Br  Br15  1  0.849542  0.552104  0.633558  1
  Br  Br16  1  0.071054  0.217863  0.680093  1
  Br  Br17  1  0.320292  0.929053  0.782039  1
  Br  Br18  1  0.552342  0.633444  0.849401  1
  Br  Br19  1  0.781481  0.319844  0.928914  1
