# generated using pymatgen
data_Rb16ThSnBi8
_symmetry_space_group_name_H-M   'P 1'
_cell_length_a   12.43220358
_cell_length_b   12.43220419
_cell_length_c   12.43220300
_cell_angle_alpha   60.00000051
_cell_angle_beta   59.99999887
_cell_angle_gamma   59.99999628
_symmetry_Int_Tables_number   1
_chemical_formula_structural   Rb16ThSnBi8
_chemical_formula_sum   'Rb16 Th1 Sn1 Bi8'
_cell_volume   1358.71799889
_cell_formula_units_Z   1
loop_
 _symmetry_equiv_pos_site_id
 _symmetry_equiv_pos_as_xyz
  1  'x, y, z'
loop_
 _atom_site_type_symbol
 _atom_site_label
 _atom_site_symmetry_multiplicity
 _atom_site_fract_x
 _atom_site_fract_y
 _atom_site_fract_z
 _atom_site_occupancy
  Rb  Rb0  1  0.621047  0.136860  0.621047  1
  Rb  Rb1  1  0.621047  0.621047  0.136860  1
  Rb  Rb2  1  0.136860  0.621047  0.621047  1
  Rb  Rb3  1  0.621047  0.621047  0.621047  1
  Rb  Rb4  1  0.023474  0.023474  0.476526  1
  Rb  Rb5  1  0.776495  0.223505  0.223505  1
  Rb  Rb6  1  0.223505  0.776495  0.776495  1
  Rb  Rb7  1  0.776495  0.776495  0.223505  1
  Rb  Rb8  1  0.776495  0.223505  0.776495  1
  Rb  Rb9  1  0.223505  0.776495  0.223505  1
  Rb  Rb10  1  0.476526  0.023474  0.476526  1
  Rb  Rb11  1  0.476526  0.023474  0.023474  1
  Rb  Rb12  1  0.023474  0.476526  0.476526  1
  Rb  Rb13  1  0.023474  0.476526  0.023474  1
  Rb  Rb14  1  0.223505  0.223505  0.776495  1
  Rb  Rb15  1  0.476526  0.476526  0.023474  1
  Th  Th16  1  0.750000  0.750000  0.750000  1
  Sn  Sn17  1  0.500000  0.500000  0.500000  1
  Bi  Bi18  1  0.399255  0.802233  0.399255  1
  Bi  Bi19  1  0.854236  0.854236  0.437293  1
  Bi  Bi20  1  0.437293  0.854236  0.854236  1
  Bi  Bi21  1  0.854236  0.854236  0.854236  1
  Bi  Bi22  1  0.802233  0.399255  0.399255  1
  Bi  Bi23  1  0.399255  0.399255  0.399255  1
  Bi  Bi24  1  0.399255  0.399255  0.802233  1
  Bi  Bi25  1  0.854236  0.437293  0.854236  1
