# generated using pymatgen
data_SmSi2(TcMo)2
_symmetry_space_group_name_H-M   'P 1'
_cell_length_a   7.99939600
_cell_length_b   6.93248300
_cell_length_c   4.25872200
_cell_angle_alpha   90.00000000
_cell_angle_beta   90.00000000
_cell_angle_gamma   90.00000000
_symmetry_Int_Tables_number   1
_chemical_formula_structural   SmSi2(TcMo)2
_chemical_formula_sum   'Sm2 Si4 Tc4 Mo4'
_cell_volume   236.17031073
_cell_formula_units_Z   2
loop_
 _symmetry_equiv_pos_site_id
 _symmetry_equiv_pos_as_xyz
  1  'x, y, z'
loop_
 _atom_site_type_symbol
 _atom_site_label
 _atom_site_symmetry_multiplicity
 _atom_site_fract_x
 _atom_site_fract_y
 _atom_site_fract_z
 _atom_site_occupancy
  Sm  Sm0  1  0.500000  0.500000  0.000000  1
  Sm  Sm1  1  0.000000  0.000000  0.500000  1
  Si  Si2  1  0.685966  0.737624  0.500000  1
  Si  Si3  1  0.314034  0.262376  0.500000  1
  Si  Si4  1  0.185966  0.762376  0.000000  1
  Si  Si5  1  0.814034  0.237624  0.000000  1
  Tc  Tc6  1  0.160125  0.574726  0.500000  1
  Tc  Tc7  1  0.839875  0.425274  0.500000  1
  Tc  Tc8  1  0.339875  0.074726  0.000000  1
  Tc  Tc9  1  0.660125  0.925274  0.000000  1
  Mo  Mo10  1  0.616614  0.149458  0.500000  1
  Mo  Mo11  1  0.383386  0.850542  0.500000  1
  Mo  Mo12  1  0.116614  0.350542  0.000000  1
  Mo  Mo13  1  0.883386  0.649458  0.000000  1
