# generated using pymatgen
data_Dy5Y5(In2Pt)4
_symmetry_space_group_name_H-M   'P 1'
_cell_length_a   3.63852000
_cell_length_b   8.18289211
_cell_length_c   18.32109826
_cell_angle_alpha   89.98076814
_cell_angle_beta   90.00000000
_cell_angle_gamma   90.00000000
_symmetry_Int_Tables_number   1
_chemical_formula_structural   Dy5Y5(In2Pt)4
_chemical_formula_sum   'Dy5 Y5 In8 Pt4'
_cell_volume   545.48532485
_cell_formula_units_Z   1
loop_
 _symmetry_equiv_pos_site_id
 _symmetry_equiv_pos_as_xyz
  1  'x, y, z'
loop_
 _atom_site_type_symbol
 _atom_site_label
 _atom_site_symmetry_multiplicity
 _atom_site_fract_x
 _atom_site_fract_y
 _atom_site_fract_z
 _atom_site_occupancy
  Dy  Dy0  1  0.000000  0.616753  0.085545  1
  Dy  Dy1  1  0.000000  0.243831  0.220794  1
  Dy  Dy2  1  0.000000  0.756166  0.779103  1
  Dy  Dy3  1  0.000000  0.256095  0.720869  1
  Dy  Dy4  1  0.000000  0.744113  0.279172  1
  Y  Y5  1  0.000000  0.116961  0.415028  1
  Y  Y6  1  0.000000  0.882923  0.584849  1
  Y  Y7  1  0.000000  0.382907  0.915318  1
  Y  Y8  1  0.000000  0.999433  0.000224  1
  Y  Y9  1  0.000000  0.500114  0.499940  1
  In  In10  1  0.500000  0.425179  0.351362  1
  In  In11  1  0.500000  0.574894  0.648625  1
  In  In12  1  0.500000  0.075041  0.851431  1
  In  In13  1  0.500000  0.925075  0.148586  1
  In  In14  1  0.500000  0.292252  0.067109  1
  In  In15  1  0.500000  0.707643  0.932780  1
  In  In16  1  0.500000  0.207972  0.567346  1
  In  In17  1  0.500000  0.792109  0.432619  1
  Pt  Pt18  1  0.500000  0.024408  0.302708  1
  Pt  Pt19  1  0.500000  0.975815  0.697238  1
  Pt  Pt20  1  0.500000  0.475637  0.802843  1
  Pt  Pt21  1  0.500000  0.524676  0.196512  1
