# generated using pymatgen
data_K3Fe(SeO4)3
_symmetry_space_group_name_H-M   'P 1'
_cell_length_a   9.35271728
_cell_length_b   9.35271717
_cell_length_c   9.35271844
_cell_angle_alpha   108.36682131
_cell_angle_beta   108.36682051
_cell_angle_gamma   108.36683084
_symmetry_Int_Tables_number   1
_chemical_formula_structural   K3Fe(SeO4)3
_chemical_formula_sum   'K6 Fe2 Se6 O24'
_cell_volume   654.26858981
_cell_formula_units_Z   2
loop_
 _symmetry_equiv_pos_site_id
 _symmetry_equiv_pos_as_xyz
  1  'x, y, z'
loop_
 _atom_site_type_symbol
 _atom_site_label
 _atom_site_symmetry_multiplicity
 _atom_site_fract_x
 _atom_site_fract_y
 _atom_site_fract_z
 _atom_site_occupancy
  K  K0  1  0.627981  0.155443  0.773993  1
  K  K1  1  0.773993  0.627981  0.155443  1
  K  K2  1  0.155443  0.773993  0.627981  1
  K  K3  1  0.372019  0.844557  0.226007  1
  K  K4  1  0.226007  0.372019  0.844557  1
  K  K5  1  0.844557  0.226007  0.372019  1
  Fe  Fe6  1  0.000000  0.000000  0.000000  1
  Fe  Fe7  1  0.500000  0.500000  0.500000  1
  Se  Se8  1  0.893180  0.569087  0.766979  1
  Se  Se9  1  0.766979  0.893180  0.569087  1
  Se  Se10  1  0.569087  0.766979  0.893180  1
  Se  Se11  1  0.106820  0.430913  0.233021  1
  Se  Se12  1  0.233021  0.106820  0.430913  1
  Se  Se13  1  0.430913  0.233021  0.106820  1
  O  O14  1  0.736795  0.520031  0.579573  1
  O  O15  1  0.579573  0.736795  0.520031  1
  O  O16  1  0.520031  0.579573  0.736795  1
  O  O17  1  0.263205  0.479969  0.420427  1
  O  O18  1  0.420427  0.263205  0.479969  1
  O  O19  1  0.479969  0.420427  0.263205  1
  O  O20  1  0.821748  0.491349  0.880032  1
  O  O21  1  0.880032  0.821748  0.491349  1
  O  O22  1  0.491349  0.880032  0.821748  1
  O  O23  1  0.178252  0.508651  0.119968  1
  O  O24  1  0.119968  0.178252  0.508651  1
  O  O25  1  0.508651  0.119968  0.178252  1
  O  O26  1  0.019385  0.498291  0.711812  1
  O  O27  1  0.711812  0.019385  0.498291  1
  O  O28  1  0.498291  0.711812  0.019385  1
  O  O29  1  0.980615  0.501709  0.288188  1
  O  O30  1  0.288188  0.980615  0.501709  1
  O  O31  1  0.501709  0.288188  0.980615  1
  O  O32  1  0.011357  0.784728  0.873364  1
  O  O33  1  0.873364  0.011357  0.784728  1
  O  O34  1  0.784728  0.873364  0.011357  1
  O  O35  1  0.988643  0.215272  0.126636  1
  O  O36  1  0.126636  0.988643  0.215272  1
  O  O37  1  0.215272  0.126636  0.988643  1
