# generated using pymatgen
data_RbPr2Nd4IrBr12
_symmetry_space_group_name_H-M   'P 1'
_cell_length_a   9.56841459
_cell_length_b   9.55656915
_cell_length_c   9.68420084
_cell_angle_alpha   104.29608751
_cell_angle_beta   104.94017266
_cell_angle_gamma   104.48789739
_symmetry_Int_Tables_number   1
_chemical_formula_structural   RbPr2Nd4IrBr12
_chemical_formula_sum   'Rb1 Pr2 Nd4 Ir1 Br12'
_cell_volume   781.13882743
_cell_formula_units_Z   1
loop_
 _symmetry_equiv_pos_site_id
 _symmetry_equiv_pos_as_xyz
  1  'x, y, z'
loop_
 _atom_site_type_symbol
 _atom_site_label
 _atom_site_symmetry_multiplicity
 _atom_site_fract_x
 _atom_site_fract_y
 _atom_site_fract_z
 _atom_site_occupancy
  Rb  Rb0  1  0.499982  0.499933  0.499864  1
  Pr  Pr1  1  0.694267  0.989658  0.899297  1
  Pr  Pr2  1  0.900542  0.695778  0.990402  1
  Nd  Nd3  1  0.099855  0.303041  0.010277  1
  Nd  Nd4  1  0.304218  0.010495  0.100219  1
  Nd  Nd5  1  0.009604  0.104953  0.314294  1
  Nd  Nd6  1  0.990651  0.895776  0.686171  1
  Ir  Ir7  1  0.999961  0.000226  0.000334  1
  Br  Br8  1  0.217726  0.673665  0.075831  1
  Br  Br9  1  0.425966  0.334458  0.114327  1
  Br  Br10  1  0.672904  0.074923  0.215535  1
  Br  Br11  1  0.925445  0.786234  0.327596  1
  Br  Br12  1  0.113672  0.425503  0.332027  1
  Br  Br13  1  0.331961  0.112159  0.422770  1
  Br  Br14  1  0.668296  0.886941  0.574750  1
  Br  Br15  1  0.886366  0.574505  0.665701  1
  Br  Br16  1  0.075025  0.214994  0.674545  1
  Br  Br17  1  0.326151  0.925399  0.786321  1
  Br  Br18  1  0.571529  0.663603  0.884787  1
  Br  Br19  1  0.785883  0.327758  0.924957  1
