# generated using pymatgen
data_NdZnRu2C
_symmetry_space_group_name_H-M   'P 1'
_cell_length_a   5.77732813
_cell_length_b   5.77732671
_cell_length_c   7.48468400
_cell_angle_alpha   90.00000000
_cell_angle_beta   90.00000000
_cell_angle_gamma   139.05179774
_symmetry_Int_Tables_number   1
_chemical_formula_structural   NdZnRu2C
_chemical_formula_sum   'Nd2 Zn2 Ru4 C2'
_cell_volume   163.72623625
_cell_formula_units_Z   2
loop_
 _symmetry_equiv_pos_site_id
 _symmetry_equiv_pos_as_xyz
  1  'x, y, z'
loop_
 _atom_site_type_symbol
 _atom_site_label
 _atom_site_symmetry_multiplicity
 _atom_site_fract_x
 _atom_site_fract_y
 _atom_site_fract_z
 _atom_site_occupancy
  Nd  Nd0  1  0.545340  0.454660  0.250000  1
  Nd  Nd1  1  0.454660  0.545340  0.750000  1
  Zn  Zn2  1  0.270208  0.729792  0.250000  1
  Zn  Zn3  1  0.729792  0.270208  0.750000  1
  Ru  Ru4  1  0.831182  0.168818  0.055400  1
  Ru  Ru5  1  0.168818  0.831182  0.944600  1
  Ru  Ru6  1  0.168818  0.831182  0.555400  1
  Ru  Ru7  1  0.831182  0.168818  0.444600  1
  C  C8  1  0.000000  0.000000  0.000000  1
  C  C9  1  0.000000  0.000000  0.500000  1
