# generated using pymatgen
data_La9Pr7Cd4Pd3Ru
_symmetry_space_group_name_H-M   'P 1'
_cell_length_a   10.17174630
_cell_length_b   10.17174782
_cell_length_c   10.17034052
_cell_angle_alpha   59.58123360
_cell_angle_beta   59.58122827
_cell_angle_gamma   59.66472774
_symmetry_Int_Tables_number   1
_chemical_formula_structural   La9Pr7Cd4Pd3Ru
_chemical_formula_sum   'La9 Pr7 Cd4 Pd3 Ru1'
_cell_volume   737.45412040
_cell_formula_units_Z   1
loop_
 _symmetry_equiv_pos_site_id
 _symmetry_equiv_pos_as_xyz
  1  'x, y, z'
loop_
 _atom_site_type_symbol
 _atom_site_label
 _atom_site_symmetry_multiplicity
 _atom_site_fract_x
 _atom_site_fract_y
 _atom_site_fract_z
 _atom_site_occupancy
  La  La0  1  0.352051  0.352051  0.351978  1
  La  La1  1  0.347426  0.347426  0.950797  1
  La  La2  1  0.347733  0.950586  0.347251  1
  La  La3  1  0.950586  0.347733  0.347251  1
  La  La4  1  0.818170  0.188583  0.189232  1
  La  La5  1  0.189813  0.807053  0.807722  1
  La  La6  1  0.188583  0.818170  0.189232  1
  La  La7  1  0.807053  0.189813  0.807722  1
  La  La8  1  0.189087  0.189087  0.818330  1
  Pr  Pr9  1  0.807170  0.807170  0.190266  1
  Pr  Pr10  1  0.935548  0.565607  0.564976  1
  Pr  Pr11  1  0.559565  0.936330  0.936694  1
  Pr  Pr12  1  0.565607  0.935548  0.564976  1
  Pr  Pr13  1  0.936330  0.559565  0.936694  1
  Pr  Pr14  1  0.565258  0.565258  0.935859  1
  Pr  Pr15  1  0.936582  0.936582  0.559156  1
  Cd  Cd16  1  0.580262  0.580262  0.579791  1
  Cd  Cd17  1  0.580422  0.580422  0.257504  1
  Cd  Cd18  1  0.580259  0.257584  0.580283  1
  Cd  Cd19  1  0.257584  0.580259  0.580283  1
  Pd  Pd20  1  0.145254  0.145254  0.571402  1
  Pd  Pd21  1  0.145933  0.571074  0.145000  1
  Pd  Pd22  1  0.571074  0.145933  0.145000  1
  Ru  Ru23  1  0.142651  0.142651  0.142606  1
