# generated using pymatgen
data_Th3Cu(Ni6B)2
_symmetry_space_group_name_H-M   'P 1'
_cell_length_a   4.99683100
_cell_length_b   4.99683161
_cell_length_c   11.06853700
_cell_angle_alpha   90.00000000
_cell_angle_beta   90.00000000
_cell_angle_gamma   120.00000258
_symmetry_Int_Tables_number   1
_chemical_formula_structural   Th3Cu(Ni6B)2
_chemical_formula_sum   'Th3 Cu1 Ni12 B2'
_cell_volume   239.33720612
_cell_formula_units_Z   1
loop_
 _symmetry_equiv_pos_site_id
 _symmetry_equiv_pos_as_xyz
  1  'x, y, z'
loop_
 _atom_site_type_symbol
 _atom_site_label
 _atom_site_symmetry_multiplicity
 _atom_site_fract_x
 _atom_site_fract_y
 _atom_site_fract_z
 _atom_site_occupancy
  Th  Th0  1  0.000000  0.000000  0.999966  1
  Th  Th1  1  0.000000  0.000000  0.663634  1
  Th  Th2  1  0.000000  0.000000  0.331666  1
  Cu  Cu3  1  0.666667  0.333333  0.682744  1
  Ni  Ni4  1  0.499620  0.500380  0.500113  1
  Ni  Ni5  1  0.499620  0.999241  0.500113  1
  Ni  Ni6  1  0.000759  0.500380  0.500113  1
  Ni  Ni7  1  0.333333  0.666667  0.682077  1
  Ni  Ni8  1  0.333333  0.666667  0.318433  1
  Ni  Ni9  1  0.666667  0.333333  0.318282  1
  Ni  Ni10  1  0.499140  0.500860  0.867466  1
  Ni  Ni11  1  0.499140  0.998280  0.867466  1
  Ni  Ni12  1  0.001720  0.500860  0.867466  1
  Ni  Ni13  1  0.499886  0.500114  0.133227  1
  Ni  Ni14  1  0.499886  0.999772  0.133227  1
  Ni  Ni15  1  0.000228  0.500114  0.133227  1
  B  B16  1  0.666667  0.333333  0.000337  1
  B  B17  1  0.333333  0.666667  0.000444  1
