# generated using pymatgen
data_Y6Ho2Cd2IrRu
_symmetry_space_group_name_H-M   'P 1'
_cell_length_a   9.65521194
_cell_length_b   9.65521153
_cell_length_c   9.69304100
_cell_angle_alpha   59.87030412
_cell_angle_beta   59.87030554
_cell_angle_gamma   59.74439478
_symmetry_Int_Tables_number   1
_chemical_formula_structural   Y6Ho2Cd2IrRu
_chemical_formula_sum   'Y12 Ho4 Cd4 Ir2 Ru2'
_cell_volume   636.46103755
_cell_formula_units_Z   2
loop_
 _symmetry_equiv_pos_site_id
 _symmetry_equiv_pos_as_xyz
  1  'x, y, z'
loop_
 _atom_site_type_symbol
 _atom_site_label
 _atom_site_symmetry_multiplicity
 _atom_site_fract_x
 _atom_site_fract_y
 _atom_site_fract_z
 _atom_site_occupancy
  Y  Y0  1  0.811079  0.188657  0.190918  1
  Y  Y1  1  0.188657  0.811079  0.809345  1
  Y  Y2  1  0.188657  0.811079  0.190918  1
  Y  Y3  1  0.811079  0.188657  0.809345  1
  Y  Y4  1  0.188805  0.188805  0.811195  1
  Y  Y5  1  0.808688  0.808688  0.191312  1
  Y  Y6  1  0.938913  0.559314  0.562595  1
  Y  Y7  1  0.559314  0.938913  0.939178  1
  Y  Y8  1  0.559314  0.938913  0.562595  1
  Y  Y9  1  0.938913  0.559314  0.939178  1
  Y  Y10  1  0.560665  0.560665  0.939335  1
  Y  Y11  1  0.938879  0.938879  0.561121  1
  Ho  Ho12  1  0.347630  0.347630  0.347481  1
  Ho  Ho13  1  0.347630  0.347630  0.957258  1
  Ho  Ho14  1  0.346869  0.960597  0.346266  1
  Ho  Ho15  1  0.960597  0.346869  0.346266  1
  Cd  Cd16  1  0.580273  0.580273  0.580791  1
  Cd  Cd17  1  0.580273  0.580273  0.258663  1
  Cd  Cd18  1  0.580376  0.257359  0.581132  1
  Cd  Cd19  1  0.257359  0.580376  0.581132  1
  Ir  Ir20  1  0.144820  0.575576  0.139801  1
  Ir  Ir21  1  0.575576  0.144820  0.139801  1
  Ru  Ru22  1  0.142816  0.142816  0.137893  1
  Ru  Ru23  1  0.142816  0.142816  0.576475  1
