# generated using pymatgen
data_ScFePO5
_symmetry_space_group_name_H-M   'P 1'
_cell_length_a   6.67737700
_cell_length_b   7.72274000
_cell_length_c   7.61321300
_cell_angle_alpha   90.00000000
_cell_angle_beta   90.00000000
_cell_angle_gamma   90.00000000
_symmetry_Int_Tables_number   1
_chemical_formula_structural   ScFePO5
_chemical_formula_sum   'Sc4 Fe4 P4 O20'
_cell_volume   392.59547636
_cell_formula_units_Z   4
loop_
 _symmetry_equiv_pos_site_id
 _symmetry_equiv_pos_as_xyz
  1  'x, y, z'
loop_
 _atom_site_type_symbol
 _atom_site_label
 _atom_site_symmetry_multiplicity
 _atom_site_fract_x
 _atom_site_fract_y
 _atom_site_fract_z
 _atom_site_occupancy
  Sc  Sc0  1  0.750000  0.842129  0.713543  1
  Sc  Sc1  1  0.250000  0.157871  0.286457  1
  Sc  Sc2  1  0.750000  0.342129  0.786457  1
  Sc  Sc3  1  0.250000  0.657871  0.213543  1
  Fe  Fe4  1  0.000000  0.000000  0.000000  1
  Fe  Fe5  1  0.500000  0.000000  0.000000  1
  Fe  Fe6  1  0.500000  0.500000  0.500000  1
  Fe  Fe7  1  0.000000  0.500000  0.500000  1
  P  P8  1  0.750000  0.625114  0.133100  1
  P  P9  1  0.250000  0.374886  0.866900  1
  P  P10  1  0.750000  0.125114  0.366900  1
  P  P11  1  0.250000  0.874886  0.633100  1
  O  O12  1  0.750000  0.594008  0.633617  1
  O  O13  1  0.250000  0.405992  0.366383  1
  O  O14  1  0.750000  0.094008  0.866383  1
  O  O15  1  0.250000  0.905992  0.133617  1
  O  O16  1  0.750000  0.789111  0.012037  1
  O  O17  1  0.250000  0.210889  0.987963  1
  O  O18  1  0.750000  0.289111  0.487963  1
  O  O19  1  0.250000  0.710889  0.512037  1
  O  O20  1  0.750000  0.959971  0.478054  1
  O  O21  1  0.250000  0.040029  0.521946  1
  O  O22  1  0.750000  0.459971  0.021946  1
  O  O23  1  0.250000  0.540029  0.978054  1
  O  O24  1  0.937748  0.631361  0.253474  1
  O  O25  1  0.437748  0.368639  0.746526  1
  O  O26  1  0.562252  0.131361  0.246526  1
  O  O27  1  0.062252  0.868639  0.753474  1
  O  O28  1  0.062252  0.368639  0.746526  1
  O  O29  1  0.562252  0.631361  0.253474  1
  O  O30  1  0.437748  0.868639  0.753474  1
  O  O31  1  0.937748  0.131361  0.246526  1
