# generated using pymatgen
data_Nd5MgTiP12Ir17
_symmetry_space_group_name_H-M   'P 1'
_cell_length_a   12.71314899
_cell_length_b   12.85833776
_cell_length_c   4.02749500
_cell_angle_alpha   90.00000000
_cell_angle_beta   90.00000000
_cell_angle_gamma   119.33824077
_symmetry_Int_Tables_number   1
_chemical_formula_structural   Nd5MgTiP12Ir17
_chemical_formula_sum   'Nd5 Mg1 Ti1 P12 Ir17'
_cell_volume   573.93296699
_cell_formula_units_Z   1
loop_
 _symmetry_equiv_pos_site_id
 _symmetry_equiv_pos_as_xyz
  1  'x, y, z'
loop_
 _atom_site_type_symbol
 _atom_site_label
 _atom_site_symmetry_multiplicity
 _atom_site_fract_x
 _atom_site_fract_y
 _atom_site_fract_z
 _atom_site_occupancy
  Nd  Nd0  1  0.332106  0.661837  0.500000  1
  Nd  Nd1  1  0.667127  0.337776  0.500000  1
  Nd  Nd2  1  0.000936  0.813986  0.000000  1
  Nd  Nd3  1  0.190708  0.188201  0.000000  1
  Nd  Nd4  1  0.811085  0.997069  0.000000  1
  Mg  Mg5  1  0.994927  0.444037  0.500000  1
  Ti  Ti6  1  0.554774  0.554708  0.500000  1
  P  P7  1  0.004118  0.644116  0.500000  1
  P  P8  1  0.366289  0.365836  0.500000  1
  P  P9  1  0.641028  0.999632  0.500000  1
  P  P10  1  0.515928  0.682122  0.000000  1
  P  P11  1  0.307214  0.823520  0.000000  1
  P  P12  1  0.165747  0.479226  0.000000  1
  P  P13  1  0.483045  0.174938  0.000000  1
  P  P14  1  0.683551  0.521422  0.000000  1
  P  P15  1  0.827914  0.312351  0.000000  1
  P  P16  1  0.999666  0.178321  0.500000  1
  P  P17  1  0.822993  0.823614  0.500000  1
  P  P18  1  0.183231  0.001370  0.500000  1
  Ir  Ir19  1  0.504878  0.864456  0.000000  1
  Ir  Ir20  1  0.122771  0.640315  0.000000  1
  Ir  Ir21  1  0.357582  0.489905  0.000000  1
  Ir  Ir22  1  0.486575  0.360425  0.000000  1
  Ir  Ir23  1  0.860559  0.505328  0.000000  1
  Ir  Ir24  1  0.637749  0.130041  0.000000  1
  Ir  Ir25  1  0.461313  0.998992  0.500000  1
  Ir  Ir26  1  0.996658  0.280500  0.000000  1
  Ir  Ir27  1  0.714022  0.717194  0.000000  1
  Ir  Ir28  1  0.291953  0.000709  0.000000  1
  Ir  Ir29  1  0.622455  0.804700  0.500000  1
  Ir  Ir30  1  0.207370  0.826377  0.500000  1
  Ir  Ir31  1  0.176868  0.372618  0.500000  1
  Ir  Ir32  1  0.379462  0.176221  0.500000  1
  Ir  Ir33  1  0.808440  0.632080  0.500000  1
  Ir  Ir34  1  0.815288  0.193824  0.500000  1
  Ir  Ir35  1  0.003670  0.002230  0.500000  1
