# generated using pymatgen
data_RbMnMoF7
_symmetry_space_group_name_H-M   'P 1'
_cell_length_a   6.44929807
_cell_length_b   6.44929803
_cell_length_c   8.37336100
_cell_angle_alpha   90.00000000
_cell_angle_beta   90.00000000
_cell_angle_gamma   117.53278950
_symmetry_Int_Tables_number   1
_chemical_formula_structural   RbMnMoF7
_chemical_formula_sum   'Rb2 Mn2 Mo2 F14'
_cell_volume   308.83332933
_cell_formula_units_Z   2
loop_
 _symmetry_equiv_pos_site_id
 _symmetry_equiv_pos_as_xyz
  1  'x, y, z'
loop_
 _atom_site_type_symbol
 _atom_site_label
 _atom_site_symmetry_multiplicity
 _atom_site_fract_x
 _atom_site_fract_y
 _atom_site_fract_z
 _atom_site_occupancy
  Rb  Rb0  1  0.500000  0.500000  0.500000  1
  Rb  Rb1  1  0.500000  0.500000  0.000000  1
  Mn  Mn2  1  0.189610  0.810390  0.250000  1
  Mn  Mn3  1  0.810390  0.189610  0.750000  1
  Mo  Mo4  1  0.806437  0.193563  0.250000  1
  Mo  Mo5  1  0.193563  0.806437  0.750000  1
  F  F6  1  0.846153  0.559367  0.750000  1
  F  F7  1  0.153847  0.440633  0.250000  1
  F  F8  1  0.168138  0.472872  0.750000  1
  F  F9  1  0.800749  0.199251  0.495925  1
  F  F10  1  0.440633  0.153847  0.750000  1
  F  F11  1  0.800749  0.199251  0.004075  1
  F  F12  1  0.199251  0.800749  0.995925  1
  F  F13  1  0.831862  0.527128  0.250000  1
  F  F14  1  0.559367  0.846153  0.250000  1
  F  F15  1  0.990528  0.009472  0.250000  1
  F  F16  1  0.009472  0.990528  0.750000  1
  F  F17  1  0.199251  0.800749  0.504075  1
  F  F18  1  0.527128  0.831862  0.750000  1
  F  F19  1  0.472872  0.168138  0.250000  1
