# generated using pymatgen
data_Ho8Tm2Si5As
_symmetry_space_group_name_H-M   'P 1'
_cell_length_a   8.38010100
_cell_length_b   8.39357163
_cell_length_c   6.26932003
_cell_angle_alpha   89.99107626
_cell_angle_beta   90.00000000
_cell_angle_gamma   119.94692141
_symmetry_Int_Tables_number   1
_chemical_formula_structural   Ho8Tm2Si5As
_chemical_formula_sum   'Ho8 Tm2 Si5 As1'
_cell_volume   382.10186243
_cell_formula_units_Z   1
loop_
 _symmetry_equiv_pos_site_id
 _symmetry_equiv_pos_as_xyz
  1  'x, y, z'
loop_
 _atom_site_type_symbol
 _atom_site_label
 _atom_site_symmetry_multiplicity
 _atom_site_fract_x
 _atom_site_fract_y
 _atom_site_fract_z
 _atom_site_occupancy
  Ho  Ho0  1  0.996482  0.753763  0.749985  1
  Ho  Ho1  1  0.000230  0.243897  0.249990  1
  Ho  Ho2  1  0.756333  0.756103  0.250010  1
  Ho  Ho3  1  0.758512  0.000000  0.750000  1
  Ho  Ho4  1  0.242719  0.246237  0.750015  1
  Ho  Ho5  1  0.242905  0.000000  0.250000  1
  Ho  Ho6  1  0.669050  0.336069  0.498831  1
  Ho  Ho7  1  0.332980  0.663931  0.001169  1
  Tm  Tm8  1  0.332970  0.663866  0.498780  1
  Tm  Tm9  1  0.669105  0.336134  0.001220  1
  Si  Si10  1  0.394181  0.393156  0.249999  1
  Si  Si11  1  0.001025  0.606844  0.250001  1
  Si  Si12  1  0.999789  0.394081  0.749995  1
  Si  Si13  1  0.605708  0.605919  0.750005  1
  Si  Si14  1  0.606798  0.000000  0.250000  1
  As  As15  1  0.391212  0.000000  0.750000  1
