# generated using pymatgen
data_Li6ErNp2N6
_symmetry_space_group_name_H-M   'P 1'
_cell_length_a   5.97980700
_cell_length_b   5.97980831
_cell_length_c   5.47129700
_cell_angle_alpha   90.00000000
_cell_angle_beta   90.00000000
_cell_angle_gamma   119.99999826
_symmetry_Int_Tables_number   1
_chemical_formula_structural   Li6ErNp2N6
_chemical_formula_sum   'Li6 Er1 Np2 N6'
_cell_volume   169.43196964
_cell_formula_units_Z   1
loop_
 _symmetry_equiv_pos_site_id
 _symmetry_equiv_pos_as_xyz
  1  'x, y, z'
loop_
 _atom_site_type_symbol
 _atom_site_label
 _atom_site_symmetry_multiplicity
 _atom_site_fract_x
 _atom_site_fract_y
 _atom_site_fract_z
 _atom_site_occupancy
  Li  Li0  1  0.986533  0.660477  0.607347  1
  Li  Li1  1  0.339523  0.326056  0.607347  1
  Li  Li2  1  0.673944  0.013467  0.607347  1
  Li  Li3  1  0.013467  0.339523  0.392653  1
  Li  Li4  1  0.660477  0.673944  0.392653  1
  Li  Li5  1  0.326056  0.986533  0.392653  1
  Er  Er6  1  0.000000  0.000000  0.000000  1
  Np  Np7  1  0.333333  0.666667  0.995035  1
  Np  Np8  1  0.666667  0.333333  0.004965  1
  N  N9  1  0.000700  0.656090  0.224667  1
  N  N10  1  0.343910  0.344611  0.224667  1
  N  N11  1  0.655389  0.999300  0.224667  1
  N  N12  1  0.999300  0.343910  0.775333  1
  N  N13  1  0.656090  0.655389  0.775333  1
  N  N14  1  0.344611  0.000700  0.775333  1
