# generated using pymatgen
data_PrNdZn5Pb
_symmetry_space_group_name_H-M   'P 1'
_cell_length_a   8.66575508
_cell_length_b   8.66575540
_cell_length_c   9.17157800
_cell_angle_alpha   90.00000000
_cell_angle_beta   90.00000000
_cell_angle_gamma   149.78100061
_symmetry_Int_Tables_number   1
_chemical_formula_structural   PrNdZn5Pb
_chemical_formula_sum   'Pr2 Nd2 Zn10 Pb2'
_cell_volume   346.64860143
_cell_formula_units_Z   2
loop_
 _symmetry_equiv_pos_site_id
 _symmetry_equiv_pos_as_xyz
  1  'x, y, z'
loop_
 _atom_site_type_symbol
 _atom_site_label
 _atom_site_symmetry_multiplicity
 _atom_site_fract_x
 _atom_site_fract_y
 _atom_site_fract_z
 _atom_site_occupancy
  Pr  Pr0  1  0.000000  0.000000  0.500000  1
  Pr  Pr1  1  0.000000  0.000000  0.000000  1
  Nd  Nd2  1  0.205053  0.794947  0.250000  1
  Nd  Nd3  1  0.794947  0.205053  0.750000  1
  Zn  Zn4  1  0.814001  0.185999  0.390985  1
  Zn  Zn5  1  0.185999  0.814001  0.609015  1
  Zn  Zn6  1  0.814001  0.185999  0.109015  1
  Zn  Zn7  1  0.185999  0.814001  0.890985  1
  Zn  Zn8  1  0.658277  0.341723  0.485287  1
  Zn  Zn9  1  0.341723  0.658277  0.514713  1
  Zn  Zn10  1  0.658277  0.341723  0.014713  1
  Zn  Zn11  1  0.341723  0.658277  0.985287  1
  Zn  Zn12  1  0.391642  0.608358  0.250000  1
  Zn  Zn13  1  0.608358  0.391642  0.750000  1
  Pb  Pb14  1  0.554211  0.445789  0.250000  1
  Pb  Pb15  1  0.445789  0.554211  0.750000  1
