# generated using pymatgen
data_TbHo15In4OsRh3
_symmetry_space_group_name_H-M   'P 1'
_cell_length_a   9.60736759
_cell_length_b   9.63871171
_cell_length_c   9.60564100
_cell_angle_alpha   60.11343623
_cell_angle_beta   60.00594820
_cell_angle_gamma   60.10115553
_symmetry_Int_Tables_number   1
_chemical_formula_structural   TbHo15In4OsRh3
_chemical_formula_sum   'Tb1 Ho15 In4 Os1 Rh3'
_cell_volume   630.02350514
_cell_formula_units_Z   1
loop_
 _symmetry_equiv_pos_site_id
 _symmetry_equiv_pos_as_xyz
  1  'x, y, z'
loop_
 _atom_site_type_symbol
 _atom_site_label
 _atom_site_symmetry_multiplicity
 _atom_site_fract_x
 _atom_site_fract_y
 _atom_site_fract_z
 _atom_site_occupancy
  Tb  Tb0  1  0.187739  0.189018  0.811622  1
  Ho  Ho1  1  0.599246  0.599752  0.203888  1
  Ho  Ho2  1  0.439585  0.057446  0.440865  1
  Ho  Ho3  1  0.439235  0.440953  0.059907  1
  Ho  Ho4  1  0.811268  0.188757  0.812013  1
  Ho  Ho5  1  0.190810  0.812750  0.191207  1
  Ho  Ho6  1  0.439585  0.057446  0.062104  1
  Ho  Ho7  1  0.190810  0.812750  0.805234  1
  Ho  Ho8  1  0.059020  0.440365  0.060294  1
  Ho  Ho9  1  0.806521  0.814111  0.189684  1
  Ho  Ho10  1  0.201919  0.601025  0.598528  1
  Ho  Ho11  1  0.059020  0.440365  0.440322  1
  Ho  Ho12  1  0.061544  0.057625  0.440416  1
  Ho  Ho13  1  0.811268  0.188757  0.187962  1
  Ho  Ho14  1  0.601325  0.200245  0.599215  1
  Ho  Ho15  1  0.599246  0.599752  0.597114  1
  In  In16  1  0.832529  0.833359  0.832905  1
  In  In17  1  0.832529  0.833359  0.501209  1
  In  In18  1  0.501958  0.832569  0.832738  1
  In  In19  1  0.831394  0.502983  0.832811  1
  Os  Os20  1  0.392007  0.825189  0.391402  1
  Rh  Rh21  1  0.392604  0.390541  0.391382  1
  Rh  Rh22  1  0.826237  0.390344  0.391709  1
  Rh  Rh23  1  0.392604  0.390541  0.825472  1
