# generated using pymatgen
data_TbYTm14(CdPd)4
_symmetry_space_group_name_H-M   'P 1'
_cell_length_a   9.58569004
_cell_length_b   9.58569040
_cell_length_c   9.57478500
_cell_angle_alpha   60.03763032
_cell_angle_beta   60.03762906
_cell_angle_gamma   59.96557580
_symmetry_Int_Tables_number   1
_chemical_formula_structural   TbYTm14(CdPd)4
_chemical_formula_sum   'Tb1 Y1 Tm14 Cd4 Pd4'
_cell_volume   622.29219146
_cell_formula_units_Z   1
loop_
 _symmetry_equiv_pos_site_id
 _symmetry_equiv_pos_as_xyz
  1  'x, y, z'
loop_
 _atom_site_type_symbol
 _atom_site_label
 _atom_site_symmetry_multiplicity
 _atom_site_fract_x
 _atom_site_fract_y
 _atom_site_fract_z
 _atom_site_occupancy
  Tb  Tb0  1  0.934624  0.934624  0.565376  1
  Y  Y1  1  0.567804  0.567804  0.932196  1
  Tm  Tm2  1  0.354266  0.354266  0.350696  1
  Tm  Tm3  1  0.354266  0.354266  0.940773  1
  Tm  Tm4  1  0.358910  0.932730  0.354181  1
  Tm  Tm5  1  0.932730  0.358910  0.354181  1
  Tm  Tm6  1  0.811177  0.189216  0.189380  1
  Tm  Tm7  1  0.189216  0.811177  0.810227  1
  Tm  Tm8  1  0.189216  0.811177  0.189380  1
  Tm  Tm9  1  0.811177  0.189216  0.810227  1
  Tm  Tm10  1  0.189995  0.189995  0.810005  1
  Tm  Tm11  1  0.811796  0.811796  0.188204  1
  Tm  Tm12  1  0.935716  0.564035  0.564307  1
  Tm  Tm13  1  0.564035  0.935716  0.935941  1
  Tm  Tm14  1  0.564035  0.935716  0.564307  1
  Tm  Tm15  1  0.935716  0.564035  0.935941  1
  Cd  Cd16  1  0.581944  0.581944  0.582792  1
  Cd  Cd17  1  0.581944  0.581944  0.253319  1
  Cd  Cd18  1  0.579866  0.252842  0.583646  1
  Cd  Cd19  1  0.252842  0.579866  0.583646  1
  Pd  Pd20  1  0.144932  0.144932  0.146701  1
  Pd  Pd21  1  0.144932  0.144932  0.563435  1
  Pd  Pd22  1  0.141419  0.567438  0.145572  1
  Pd  Pd23  1  0.567438  0.141419  0.145572  1
