# generated using pymatgen
data_DyEr15(In3Rh)2
_symmetry_space_group_name_H-M   'P 1'
_cell_length_a   10.34038600
_cell_length_b   10.34421554
_cell_length_c   6.97407906
_cell_angle_alpha   90.00582384
_cell_angle_beta   90.00174116
_cell_angle_gamma   119.98469742
_symmetry_Int_Tables_number   1
_chemical_formula_structural   DyEr15(In3Rh)2
_chemical_formula_sum   'Dy1 Er15 In6 Rh2'
_cell_volume   646.12828517
_cell_formula_units_Z   1
loop_
 _symmetry_equiv_pos_site_id
 _symmetry_equiv_pos_as_xyz
  1  'x, y, z'
loop_
 _atom_site_type_symbol
 _atom_site_label
 _atom_site_symmetry_multiplicity
 _atom_site_fract_x
 _atom_site_fract_y
 _atom_site_fract_z
 _atom_site_occupancy
  Dy  Dy0  1  0.532005  0.063942  0.793104  1
  Er  Er1  1  0.935586  0.467893  0.793785  1
  Er  Er2  1  0.532295  0.467831  0.793587  1
  Er  Er3  1  0.467466  0.934842  0.293624  1
  Er  Er4  1  0.064440  0.532245  0.293944  1
  Er  Er5  1  0.467779  0.532271  0.294003  1
  Er  Er6  1  0.824055  0.647926  0.500159  1
  Er  Er7  1  0.352581  0.176593  0.499599  1
  Er  Er8  1  0.824007  0.176485  0.499588  1
  Er  Er9  1  0.176246  0.352525  0.000367  1
  Er  Er10  1  0.647556  0.823366  0.000697  1
  Er  Er11  1  0.175754  0.823418  0.000620  1
  Er  Er12  1  0.666935  0.333870  0.171970  1
  Er  Er13  1  0.333066  0.666112  0.672200  1
  Er  Er14  1  0.000093  0.000070  0.779469  1
  Er  Er15  1  0.000096  0.000147  0.279574  1
  In  In16  1  0.837125  0.674660  0.038843  1
  In  In17  1  0.325151  0.162359  0.039026  1
  In  In18  1  0.837113  0.162229  0.039361  1
  In  In19  1  0.162596  0.325182  0.539523  1
  In  In20  1  0.674601  0.837338  0.539596  1
  In  In21  1  0.163285  0.837887  0.540034  1
  Rh  Rh22  1  0.667238  0.334941  0.565840  1
  Rh  Rh23  1  0.332935  0.665864  0.067394  1
