# generated using pymatgen
data_LiTb16Cd(HgPd2)2
_symmetry_space_group_name_H-M   'P 1'
_cell_length_a   9.71526297
_cell_length_b   9.71264269
_cell_length_c   9.71264423
_cell_angle_alpha   60.10435040
_cell_angle_beta   60.04974869
_cell_angle_gamma   60.04974690
_symmetry_Int_Tables_number   1
_chemical_formula_structural   LiTb16Cd(HgPd2)2
_chemical_formula_sum   'Li1 Tb16 Cd1 Hg2 Pd4'
_cell_volume   649.05642096
_cell_formula_units_Z   1
loop_
 _symmetry_equiv_pos_site_id
 _symmetry_equiv_pos_as_xyz
  1  'x, y, z'
loop_
 _atom_site_type_symbol
 _atom_site_label
 _atom_site_symmetry_multiplicity
 _atom_site_fract_x
 _atom_site_fract_y
 _atom_site_fract_z
 _atom_site_occupancy
  Li  Li0  1  0.571162  0.568275  0.568275  1
  Tb  Tb1  1  0.352799  0.352597  0.352597  1
  Tb  Tb2  1  0.355082  0.354120  0.937539  1
  Tb  Tb3  1  0.355082  0.937539  0.354120  1
  Tb  Tb4  1  0.935155  0.355253  0.355253  1
  Tb  Tb5  1  0.809561  0.193407  0.193407  1
  Tb  Tb6  1  0.188070  0.813465  0.813465  1
  Tb  Tb7  1  0.192051  0.810169  0.193176  1
  Tb  Tb8  1  0.813259  0.188538  0.813418  1
  Tb  Tb9  1  0.192051  0.193176  0.810169  1
  Tb  Tb10  1  0.813259  0.813418  0.188538  1
  Tb  Tb11  1  0.934245  0.566369  0.566369  1
  Tb  Tb12  1  0.563558  0.935890  0.935890  1
  Tb  Tb13  1  0.565270  0.936192  0.566006  1
  Tb  Tb14  1  0.934631  0.564494  0.936459  1
  Tb  Tb15  1  0.565270  0.566006  0.936192  1
  Tb  Tb16  1  0.934631  0.936459  0.564494  1
  Cd  Cd17  1  0.252521  0.582414  0.582414  1
  Hg  Hg18  1  0.585797  0.588362  0.242407  1
  Hg  Hg19  1  0.585797  0.242407  0.588362  1
  Pd  Pd20  1  0.145767  0.146424  0.146424  1
  Pd  Pd21  1  0.143865  0.144001  0.566862  1
  Pd  Pd22  1  0.143865  0.566862  0.144001  1
  Pd  Pd23  1  0.567251  0.144161  0.144161  1
