# generated using pymatgen
data_Y16MgTl2Hg(PdPt)2
_symmetry_space_group_name_H-M   'P 1'
_cell_length_a   9.71382462
_cell_length_b   9.72715930
_cell_length_c   9.71114700
_cell_angle_alpha   60.05444245
_cell_angle_beta   60.00912144
_cell_angle_gamma   60.12033081
_symmetry_Int_Tables_number   1
_chemical_formula_structural   Y16MgTl2Hg(PdPt)2
_chemical_formula_sum   'Y16 Mg1 Tl2 Hg1 Pd2 Pt2'
_cell_volume   649.73148712
_cell_formula_units_Z   1
loop_
 _symmetry_equiv_pos_site_id
 _symmetry_equiv_pos_as_xyz
  1  'x, y, z'
loop_
 _atom_site_type_symbol
 _atom_site_label
 _atom_site_symmetry_multiplicity
 _atom_site_fract_x
 _atom_site_fract_y
 _atom_site_fract_z
 _atom_site_occupancy
  Y  Y0  1  0.601538  0.601331  0.599472  1
  Y  Y1  1  0.601538  0.601331  0.197658  1
  Y  Y2  1  0.605528  0.191039  0.601717  1
  Y  Y3  1  0.181264  0.607850  0.605444  1
  Y  Y4  1  0.057241  0.442594  0.439865  1
  Y  Y5  1  0.439356  0.060065  0.062066  1
  Y  Y6  1  0.439356  0.060065  0.438511  1
  Y  Y7  1  0.057241  0.442594  0.060299  1
  Y  Y8  1  0.437352  0.439575  0.061537  1
  Y  Y9  1  0.058223  0.059412  0.441183  1
  Y  Y10  1  0.188787  0.816193  0.812440  1
  Y  Y11  1  0.815381  0.190465  0.181815  1
  Y  Y12  1  0.815381  0.190465  0.812339  1
  Y  Y13  1  0.188787  0.816193  0.182579  1
  Y  Y14  1  0.815488  0.815893  0.184311  1
  Y  Y15  1  0.187494  0.187363  0.812572  1
  Mg  Mg16  1  0.526743  0.819594  0.826831  1
  Tl  Tl17  1  0.832134  0.835603  0.839302  1
  Tl  Tl18  1  0.832134  0.835603  0.492961  1
  Hg  Hg19  1  0.830769  0.488397  0.840417  1
  Pd  Pd20  1  0.389912  0.393639  0.398653  1
  Pd  Pd21  1  0.389912  0.393639  0.817797  1
  Pt  Pt22  1  0.387776  0.820143  0.396041  1
  Pt  Pt23  1  0.820664  0.390959  0.394189  1
