# generated using pymatgen
data_Yb8Ag3Pt5Pb4
_symmetry_space_group_name_H-M   'P 1'
_cell_length_a   7.91995245
_cell_length_b   7.91995245
_cell_length_c   7.48688656
_cell_angle_alpha   90.10694479
_cell_angle_beta   89.89305521
_cell_angle_gamma   89.99194712
_symmetry_Int_Tables_number   1
_chemical_formula_structural   Yb8Ag3Pt5Pb4
_chemical_formula_sum   'Yb8 Ag3 Pt5 Pb4'
_cell_volume   469.61816092
_cell_formula_units_Z   1
loop_
 _symmetry_equiv_pos_site_id
 _symmetry_equiv_pos_as_xyz
  1  'x, y, z'
loop_
 _atom_site_type_symbol
 _atom_site_label
 _atom_site_symmetry_multiplicity
 _atom_site_fract_x
 _atom_site_fract_y
 _atom_site_fract_z
 _atom_site_occupancy
  Yb  Yb0  1  0.666501  0.678064  0.010270  1
  Yb  Yb1  1  0.335871  0.347409  0.488953  1
  Yb  Yb2  1  0.824506  0.175494  0.484027  1
  Yb  Yb3  1  0.652591  0.664129  0.488953  1
  Yb  Yb4  1  0.321936  0.333499  0.010270  1
  Yb  Yb5  1  0.183491  0.816509  0.491472  1
  Yb  Yb6  1  0.841116  0.158884  0.018871  1
  Yb  Yb7  1  0.169515  0.830485  0.009746  1
  Ag  Ag8  1  0.874621  0.873838  0.732181  1
  Ag  Ag9  1  0.126162  0.125379  0.732181  1
  Ag  Ag10  1  0.628173  0.371827  0.767499  1
  Pt  Pt11  1  0.629247  0.370753  0.236957  1
  Pt  Pt12  1  0.371613  0.628387  0.237096  1
  Pt  Pt13  1  0.131001  0.127447  0.264382  1
  Pt  Pt14  1  0.872553  0.868999  0.264382  1
  Pt  Pt15  1  0.374111  0.625889  0.760897  1
  Pb  Pb16  1  0.498567  0.995703  0.750955  1
  Pb  Pb17  1  0.498838  0.004708  0.249976  1
  Pb  Pb18  1  0.004297  0.501433  0.750955  1
  Pb  Pb19  1  0.995292  0.501162  0.249976  1
