# generated using pymatgen
data_Yb3HoOs7W
_symmetry_space_group_name_H-M   'P 1'
_cell_length_a   5.41509400
_cell_length_b   5.41509266
_cell_length_c   8.50401600
_cell_angle_alpha   90.00000000
_cell_angle_beta   90.00000000
_cell_angle_gamma   119.99999596
_symmetry_Int_Tables_number   1
_chemical_formula_structural   Yb3HoOs7W
_chemical_formula_sum   'Yb3 Ho1 Os7 W1'
_cell_volume   215.95666420
_cell_formula_units_Z   1
loop_
 _symmetry_equiv_pos_site_id
 _symmetry_equiv_pos_as_xyz
  1  'x, y, z'
loop_
 _atom_site_type_symbol
 _atom_site_label
 _atom_site_symmetry_multiplicity
 _atom_site_fract_x
 _atom_site_fract_y
 _atom_site_fract_z
 _atom_site_occupancy
  Yb  Yb0  1  0.666667  0.333333  0.574736  1
  Yb  Yb1  1  0.666667  0.333333  0.934640  1
  Yb  Yb2  1  0.333333  0.666667  0.059600  1
  Ho  Ho3  1  0.333333  0.666667  0.426959  1
  Os  Os4  1  0.000000  0.000000  0.001469  1
  Os  Os5  1  0.826592  0.173408  0.252317  1
  Os  Os6  1  0.826592  0.653183  0.252317  1
  Os  Os7  1  0.346817  0.173408  0.252317  1
  Os  Os8  1  0.173008  0.826992  0.748319  1
  Os  Os9  1  0.173008  0.346016  0.748319  1
  Os  Os10  1  0.653984  0.826992  0.748319  1
  W  W11  1  0.000000  0.000000  0.500686  1
