# generated using pymatgen
data_Tm12TcIr2Rh
_symmetry_space_group_name_H-M   'P 1'
_cell_length_a   6.28369145
_cell_length_b   7.24299928
_cell_length_c   9.02201000
_cell_angle_alpha   90.00000000
_cell_angle_beta   90.00000000
_cell_angle_gamma   89.86265515
_symmetry_Int_Tables_number   1
_chemical_formula_structural   Tm12TcIr2Rh
_chemical_formula_sum   'Tm12 Tc1 Ir2 Rh1'
_cell_volume   410.61551000
_cell_formula_units_Z   1
loop_
 _symmetry_equiv_pos_site_id
 _symmetry_equiv_pos_as_xyz
  1  'x, y, z'
loop_
 _atom_site_type_symbol
 _atom_site_label
 _atom_site_symmetry_multiplicity
 _atom_site_fract_x
 _atom_site_fract_y
 _atom_site_fract_z
 _atom_site_occupancy
  Tm  Tm0  1  0.330432  0.675447  0.062427  1
  Tm  Tm1  1  0.171943  0.179410  0.437180  1
  Tm  Tm2  1  0.668274  0.323252  0.560286  1
  Tm  Tm3  1  0.827286  0.821195  0.936782  1
  Tm  Tm4  1  0.668274  0.323252  0.939714  1
  Tm  Tm5  1  0.827286  0.821195  0.563218  1
  Tm  Tm6  1  0.330432  0.675447  0.437573  1
  Tm  Tm7  1  0.171943  0.179410  0.062820  1
  Tm  Tm8  1  0.876767  0.537165  0.250000  1
  Tm  Tm9  1  0.627238  0.036465  0.250000  1
  Tm  Tm10  1  0.127946  0.461940  0.750000  1
  Tm  Tm11  1  0.370494  0.964520  0.750000  1
  Tc  Tc12  1  0.465612  0.385749  0.250000  1
  Ir  Ir13  1  0.957142  0.113988  0.750000  1
  Ir  Ir14  1  0.540455  0.616377  0.750000  1
  Rh  Rh15  1  0.038474  0.885190  0.250000  1
