# generated using pymatgen
data_Y4Al17Co6Si
_symmetry_space_group_name_H-M   'P 1'
_cell_length_a   7.36037323
_cell_length_b   7.36037346
_cell_length_c   9.24333800
_cell_angle_alpha   90.00000000
_cell_angle_beta   90.00000000
_cell_angle_gamma   119.24906202
_symmetry_Int_Tables_number   1
_chemical_formula_structural   Y4Al17Co6Si
_chemical_formula_sum   'Y4 Al17 Co6 Si1'
_cell_volume   436.91399021
_cell_formula_units_Z   1
loop_
 _symmetry_equiv_pos_site_id
 _symmetry_equiv_pos_as_xyz
  1  'x, y, z'
loop_
 _atom_site_type_symbol
 _atom_site_label
 _atom_site_symmetry_multiplicity
 _atom_site_fract_x
 _atom_site_fract_y
 _atom_site_fract_z
 _atom_site_occupancy
  Y  Y0  1  0.992947  0.676517  0.250000  1
  Y  Y1  1  0.006254  0.328297  0.750000  1
  Y  Y2  1  0.676517  0.992947  0.250000  1
  Y  Y3  1  0.328297  0.006254  0.750000  1
  Al  Al4  1  0.875900  0.875900  0.750000  1
  Al  Al5  1  0.332119  0.332119  0.545207  1
  Al  Al6  1  0.665658  0.665658  0.041361  1
  Al  Al7  1  0.332119  0.332119  0.954793  1
  Al  Al8  1  0.665658  0.665658  0.458639  1
  Al  Al9  1  0.336216  0.553712  0.250000  1
  Al  Al10  1  0.661250  0.446115  0.750000  1
  Al  Al11  1  0.553712  0.336216  0.250000  1
  Al  Al12  1  0.446115  0.661250  0.750000  1
  Al  Al13  1  0.998966  0.336839  0.073253  1
  Al  Al14  1  0.001939  0.664972  0.571171  1
  Al  Al15  1  0.336839  0.998966  0.426747  1
  Al  Al16  1  0.664972  0.001939  0.928829  1
  Al  Al17  1  0.001939  0.664972  0.928829  1
  Al  Al18  1  0.998966  0.336839  0.426747  1
  Al  Al19  1  0.664972  0.001939  0.571171  1
  Al  Al20  1  0.336839  0.998966  0.073253  1
  Co  Co21  1  0.001072  0.001072  0.008094  1
  Co  Co22  1  0.001072  0.001072  0.491906  1
  Co  Co23  1  0.669542  0.327896  0.000793  1
  Co  Co24  1  0.327896  0.669542  0.499207  1
  Co  Co25  1  0.327896  0.669542  0.000793  1
  Co  Co26  1  0.669542  0.327896  0.499207  1
  Si  Si27  1  0.124786  0.124786  0.250000  1
