# generated using pymatgen
data_Li8Pr8SiPt7
_symmetry_space_group_name_H-M   'P 1'
_cell_length_a   9.63792241
_cell_length_b   9.63792223
_cell_length_c   7.40009000
_cell_angle_alpha   90.92699947
_cell_angle_beta   89.07300055
_cell_angle_gamma   128.76177343
_symmetry_Int_Tables_number   1
_chemical_formula_structural   Li8Pr8SiPt7
_chemical_formula_sum   'Li8 Pr8 Si1 Pt7'
_cell_volume   535.91087263
_cell_formula_units_Z   1
loop_
 _symmetry_equiv_pos_site_id
 _symmetry_equiv_pos_as_xyz
  1  'x, y, z'
loop_
 _atom_site_type_symbol
 _atom_site_label
 _atom_site_symmetry_multiplicity
 _atom_site_fract_x
 _atom_site_fract_y
 _atom_site_fract_z
 _atom_site_occupancy
  Li  Li0  1  0.845005  0.154995  0.876692  1
  Li  Li1  1  0.842919  0.647662  0.629680  1
  Li  Li2  1  0.352338  0.157081  0.629680  1
  Li  Li3  1  0.155165  0.844835  0.373579  1
  Li  Li4  1  0.155249  0.352687  0.131893  1
  Li  Li5  1  0.647313  0.844751  0.131893  1
  Li  Li6  1  0.653263  0.346737  0.371656  1
  Li  Li7  1  0.346758  0.653242  0.877939  1
  Pr  Pr8  1  0.465160  0.534840  0.453214  1
  Pr  Pr9  1  0.535741  0.966441  0.547710  1
  Pr  Pr10  1  0.033559  0.464259  0.547710  1
  Pr  Pr11  1  0.534224  0.465776  0.956006  1
  Pr  Pr12  1  0.465279  0.031395  0.045094  1
  Pr  Pr13  1  0.968605  0.534721  0.045094  1
  Pr  Pr14  1  0.972482  0.027518  0.465427  1
  Pr  Pr15  1  0.029233  0.970767  0.962090  1
  Si  Si16  1  0.819762  0.180238  0.248032  1
  Pt  Pt17  1  0.814486  0.686111  0.247076  1
  Pt  Pt18  1  0.313889  0.185514  0.247076  1
  Pt  Pt19  1  0.184105  0.815895  0.756580  1
  Pt  Pt20  1  0.186354  0.319660  0.750803  1
  Pt  Pt21  1  0.680340  0.813646  0.750803  1
  Pt  Pt22  1  0.686663  0.313337  0.754457  1
  Pt  Pt23  1  0.312107  0.687893  0.257822  1
