# generated using pymatgen
data_DyHo2Cd3Ge2Au
_symmetry_space_group_name_H-M   'P 1'
_cell_length_a   7.32295100
_cell_length_b   7.32598809
_cell_length_c   4.33193900
_cell_angle_alpha   90.00000000
_cell_angle_beta   90.00000000
_cell_angle_gamma   119.98629178
_symmetry_Int_Tables_number   1
_chemical_formula_structural   DyHo2Cd3Ge2Au
_chemical_formula_sum   'Dy1 Ho2 Cd3 Ge2 Au1'
_cell_volume   201.29142518
_cell_formula_units_Z   1
loop_
 _symmetry_equiv_pos_site_id
 _symmetry_equiv_pos_as_xyz
  1  'x, y, z'
loop_
 _atom_site_type_symbol
 _atom_site_label
 _atom_site_symmetry_multiplicity
 _atom_site_fract_x
 _atom_site_fract_y
 _atom_site_fract_z
 _atom_site_occupancy
  Dy  Dy0  1  0.585042  0.000000  0.000000  1
  Ho  Ho1  1  0.999797  0.585255  0.000000  1
  Ho  Ho2  1  0.414542  0.414745  0.000000  1
  Cd  Cd3  1  0.251698  0.000000  0.500000  1
  Cd  Cd4  1  0.000170  0.251993  0.500000  1
  Cd  Cd5  1  0.748177  0.748007  0.500000  1
  Ge  Ge6  1  0.332959  0.666021  0.500000  1
  Ge  Ge7  1  0.666939  0.333979  0.500000  1
  Au  Au8  1  0.000677  0.000000  0.000000  1
