# generated using pymatgen
data_Na3OsN3
_symmetry_space_group_name_H-M   'P 1'
_cell_length_a   7.40305900
_cell_length_b   7.40305911
_cell_length_c   5.15442900
_cell_angle_alpha   90.00000000
_cell_angle_beta   90.00000000
_cell_angle_gamma   119.99999623
_symmetry_Int_Tables_number   1
_chemical_formula_structural   Na3OsN3
_chemical_formula_sum   'Na6 Os2 N6'
_cell_volume   244.64347540
_cell_formula_units_Z   2
loop_
 _symmetry_equiv_pos_site_id
 _symmetry_equiv_pos_as_xyz
  1  'x, y, z'
loop_
 _atom_site_type_symbol
 _atom_site_label
 _atom_site_symmetry_multiplicity
 _atom_site_fract_x
 _atom_site_fract_y
 _atom_site_fract_z
 _atom_site_occupancy
  Na  Na0  1  0.354692  0.127256  0.250000  1
  Na  Na1  1  0.872744  0.227437  0.250000  1
  Na  Na2  1  0.772563  0.645308  0.250000  1
  Na  Na3  1  0.645308  0.872744  0.750000  1
  Na  Na4  1  0.127256  0.772563  0.750000  1
  Na  Na5  1  0.227437  0.354692  0.750000  1
  Os  Os6  1  0.666667  0.333333  0.750000  1
  Os  Os7  1  0.333333  0.666667  0.250000  1
  N  N8  1  0.396998  0.144084  0.750000  1
  N  N9  1  0.855916  0.252913  0.750000  1
  N  N10  1  0.747087  0.603002  0.750000  1
  N  N11  1  0.603002  0.855916  0.250000  1
  N  N12  1  0.144084  0.747087  0.250000  1
  N  N13  1  0.252913  0.396998  0.250000  1
