# generated using pymatgen
data_Sm2Er18Si15As
_symmetry_space_group_name_H-M   'P 1'
_cell_length_a   7.43772130
_cell_length_b   7.60265015
_cell_length_c   14.49740400
_cell_angle_alpha   90.11298414
_cell_angle_beta   93.71694196
_cell_angle_gamma   90.04647676
_symmetry_Int_Tables_number   1
_chemical_formula_structural   Sm2Er18Si15As
_chemical_formula_sum   'Sm2 Er18 Si15 As1'
_cell_volume   818.04954601
_cell_formula_units_Z   1
loop_
 _symmetry_equiv_pos_site_id
 _symmetry_equiv_pos_as_xyz
  1  'x, y, z'
loop_
 _atom_site_type_symbol
 _atom_site_label
 _atom_site_symmetry_multiplicity
 _atom_site_fract_x
 _atom_site_fract_y
 _atom_site_fract_z
 _atom_site_occupancy
  Sm  Sm0  1  0.001303  0.816787  0.598929  1
  Sm  Sm1  1  0.498678  0.677164  0.598729  1
  Er  Er2  1  0.322693  0.823813  0.122889  1
  Er  Er3  1  0.823211  0.676752  0.123012  1
  Er  Er4  1  0.832482  0.505201  0.746417  1
  Er  Er5  1  0.472598  0.315369  0.101993  1
  Er  Er6  1  0.027628  0.815379  0.898927  1
  Er  Er7  1  0.499214  0.320839  0.400242  1
  Er  Er8  1  0.666185  0.005927  0.251467  1
  Er  Er9  1  0.528038  0.685813  0.899020  1
  Er  Er10  1  0.676326  0.177213  0.878982  1
  Er  Er11  1  0.148025  0.334171  0.621114  1
  Er  Er12  1  0.176213  0.322882  0.878969  1
  Er  Er13  1  0.852292  0.664032  0.377985  1
  Er  Er14  1  0.350011  0.833914  0.379846  1
  Er  Er15  1  0.333347  0.995014  0.745781  1
  Er  Er16  1  0.647050  0.165570  0.619385  1
  Er  Er17  1  0.167404  0.494239  0.253489  1
  Er  Er18  1  0.973268  0.184892  0.101556  1
  Er  Er19  1  0.005108  0.182371  0.399703  1
  Si  Si20  1  0.217700  0.628049  0.754251  1
  Si  Si21  1  0.294925  0.040355  0.541052  1
  Si  Si22  1  0.039408  0.891802  0.248881  1
  Si  Si23  1  0.717147  0.872502  0.753432  1
  Si  Si24  1  0.285198  0.130549  0.248755  1
  Si  Si25  1  0.801342  0.458838  0.539938  1
  Si  Si26  1  0.459569  0.389439  0.753404  1
  Si  Si27  1  0.197574  0.533154  0.455916  1
  Si  Si28  1  0.144553  0.528682  0.043016  1
  Si  Si29  1  0.958566  0.109982  0.752687  1
  Si  Si30  1  0.784483  0.368464  0.248220  1
  Si  Si31  1  0.354452  0.028680  0.958463  1
  Si  Si32  1  0.854958  0.472608  0.957844  1
  Si  Si33  1  0.644998  0.971999  0.042796  1
  Si  Si34  1  0.539357  0.609642  0.248302  1
  As  As35  1  0.704696  0.967911  0.454609  1
