# generated using pymatgen
data_Na20Zr2SiGeAs12
_symmetry_space_group_name_H-M   'P 1'
_cell_length_a   7.60554813
_cell_length_b   8.46605131
_cell_length_c   16.16812168
_cell_angle_alpha   57.70406234
_cell_angle_beta   90.10791972
_cell_angle_gamma   89.99193590
_symmetry_Int_Tables_number   1
_chemical_formula_structural   Na20Zr2SiGeAs12
_chemical_formula_sum   'Na20 Zr2 Si1 Ge1 As12'
_cell_volume   879.99567467
_cell_formula_units_Z   1
loop_
 _symmetry_equiv_pos_site_id
 _symmetry_equiv_pos_as_xyz
  1  'x, y, z'
loop_
 _atom_site_type_symbol
 _atom_site_label
 _atom_site_symmetry_multiplicity
 _atom_site_fract_x
 _atom_site_fract_y
 _atom_site_fract_z
 _atom_site_occupancy
  Na  Na0  1  0.487205  0.075074  0.244960  1
  Na  Na1  1  0.988718  0.927404  0.254132  1
  Na  Na2  1  0.510008  0.915255  0.760186  1
  Na  Na3  1  0.009440  0.085320  0.739712  1
  Na  Na4  1  0.026795  0.416910  0.415887  1
  Na  Na5  1  0.527831  0.581426  0.084199  1
  Na  Na6  1  0.962704  0.590859  0.584972  1
  Na  Na7  1  0.462568  0.408620  0.915336  1
  Na  Na8  1  0.523410  0.255704  0.410382  1
  Na  Na9  1  0.023072  0.743870  0.089490  1
  Na  Na10  1  0.484880  0.743554  0.588677  1
  Na  Na11  1  0.985205  0.257212  0.911612  1
  Na  Na12  1  0.659176  0.993581  0.082880  1
  Na  Na13  1  0.159789  0.009095  0.416286  1
  Na  Na14  1  0.339417  0.009183  0.919983  1
  Na  Na15  1  0.840395  0.989708  0.581137  1
  Na  Na16  1  0.852024  0.312386  0.258973  1
  Na  Na17  1  0.350177  0.687947  0.239984  1
  Na  Na18  1  0.149160  0.682012  0.741559  1
  Na  Na19  1  0.649107  0.317456  0.759195  1
  Zr  Zr20  1  0.864403  0.647269  0.920208  1
  Zr  Zr21  1  0.363276  0.351887  0.580297  1
  Si  Si22  1  0.135568  0.348473  0.083218  1
  Ge  Ge23  1  0.636829  0.653007  0.415700  1
  As  As24  1  0.759448  0.923882  0.419202  1
  As  As25  1  0.257137  0.085674  0.080933  1
  As  As26  1  0.237821  0.065253  0.578463  1
  As  As27  1  0.737795  0.933988  0.921953  1
  As  As28  1  0.733724  0.633305  0.274299  1
  As  As29  1  0.230935  0.366603  0.220284  1
  As  As30  1  0.261765  0.359352  0.732498  1
  As  As31  1  0.761309  0.639906  0.767903  1
  As  As32  1  0.810432  0.318472  0.079116  1
  As  As33  1  0.299068  0.679925  0.421475  1
  As  As34  1  0.209704  0.652477  0.935382  1
  As  As35  1  0.709704  0.337952  0.569528  1
