# generated using pymatgen
data_Pr4ErZr5(Si5Ir2)4
_symmetry_space_group_name_H-M   'P 1'
_cell_length_a   12.60612700
_cell_length_b   12.60612700
_cell_length_c   4.23326800
_cell_angle_alpha   90.00000000
_cell_angle_beta   90.00000000
_cell_angle_gamma   90.00000000
_symmetry_Int_Tables_number   1
_chemical_formula_structural   Pr4ErZr5(Si5Ir2)4
_chemical_formula_sum   'Pr4 Er1 Zr5 Si20 Ir8'
_cell_volume   672.72740487
_cell_formula_units_Z   1
loop_
 _symmetry_equiv_pos_site_id
 _symmetry_equiv_pos_as_xyz
  1  'x, y, z'
loop_
 _atom_site_type_symbol
 _atom_site_label
 _atom_site_symmetry_multiplicity
 _atom_site_fract_x
 _atom_site_fract_y
 _atom_site_fract_z
 _atom_site_occupancy
  Pr  Pr0  1  0.884626  0.384831  0.500000  1
  Pr  Pr1  1  0.115374  0.615169  0.500000  1
  Pr  Pr2  1  0.384831  0.115374  0.500000  1
  Pr  Pr3  1  0.615169  0.884626  0.500000  1
  Er  Er4  1  0.000000  0.000000  0.000000  1
  Zr  Zr5  1  0.500000  0.500000  0.000000  1
  Zr  Zr6  1  0.676129  0.176935  0.500000  1
  Zr  Zr7  1  0.323871  0.823065  0.500000  1
  Zr  Zr8  1  0.176935  0.323871  0.500000  1
  Zr  Zr9  1  0.823065  0.676129  0.500000  1
  Si  Si10  1  0.568138  0.069435  0.000000  1
  Si  Si11  1  0.431862  0.930565  0.000000  1
  Si  Si12  1  0.069435  0.431862  0.000000  1
  Si  Si13  1  0.930565  0.568138  0.000000  1
  Si  Si14  1  0.663619  0.700228  0.000000  1
  Si  Si15  1  0.336381  0.299772  0.000000  1
  Si  Si16  1  0.162291  0.801334  0.000000  1
  Si  Si17  1  0.837709  0.198666  0.000000  1
  Si  Si18  1  0.299772  0.663619  0.000000  1
  Si  Si19  1  0.700228  0.336381  0.000000  1
  Si  Si20  1  0.198666  0.162291  0.000000  1
  Si  Si21  1  0.801334  0.837709  0.000000  1
  Si  Si22  1  0.652871  0.509336  0.500000  1
  Si  Si23  1  0.347129  0.490664  0.500000  1
  Si  Si24  1  0.155745  0.990377  0.500000  1
  Si  Si25  1  0.844255  0.009623  0.500000  1
  Si  Si26  1  0.490664  0.652871  0.500000  1
  Si  Si27  1  0.509336  0.347129  0.500000  1
  Si  Si28  1  0.009623  0.155745  0.500000  1
  Si  Si29  1  0.990377  0.844255  0.500000  1
  Ir  Ir30  1  0.739712  0.523731  0.000000  1
  Ir  Ir31  1  0.260288  0.476269  0.000000  1
  Ir  Ir32  1  0.242818  0.976376  0.000000  1
  Ir  Ir33  1  0.757182  0.023624  0.000000  1
  Ir  Ir34  1  0.476269  0.739712  0.000000  1
  Ir  Ir35  1  0.523731  0.260288  0.000000  1
  Ir  Ir36  1  0.023624  0.242818  0.000000  1
  Ir  Ir37  1  0.976376  0.757182  0.000000  1
