# generated using pymatgen
data_La5Sm5(Ga2Ru3)2
_symmetry_space_group_name_H-M   'P 1'
_cell_length_a   8.52961603
_cell_length_b   8.56607454
_cell_length_c   8.56607530
_cell_angle_alpha   109.55853406
_cell_angle_beta   109.61672090
_cell_angle_gamma   109.41129810
_symmetry_Int_Tables_number   1
_chemical_formula_structural   La5Sm5(Ga2Ru3)2
_chemical_formula_sum   'La5 Sm5 Ga4 Ru6'
_cell_volume   480.77301890
_cell_formula_units_Z   1
loop_
 _symmetry_equiv_pos_site_id
 _symmetry_equiv_pos_as_xyz
  1  'x, y, z'
loop_
 _atom_site_type_symbol
 _atom_site_label
 _atom_site_symmetry_multiplicity
 _atom_site_fract_x
 _atom_site_fract_y
 _atom_site_fract_z
 _atom_site_occupancy
  La  La0  1  0.750000  0.809715  0.059715  1
  La  La1  1  0.437949  0.244901  0.687674  1
  La  La2  1  0.691680  0.439442  0.250840  1
  La  La3  1  0.062051  0.749724  0.806951  1
  La  La4  1  0.808320  0.059160  0.747761  1
  Sm  Sm5  1  0.215529  0.217534  0.214764  1
  Sm  Sm6  1  0.496522  0.998543  0.281195  1
  Sm  Sm7  1  0.284471  0.499234  0.002004  1
  Sm  Sm8  1  0.003478  0.284672  0.502021  1
  Sm  Sm9  1  0.250000  0.683749  0.433749  1
  Ga  Ga10  1  0.578016  0.580531  0.581111  1
  Ga  Ga11  1  0.500429  0.998452  0.914092  1
  Ga  Ga12  1  0.921984  0.503095  0.002515  1
  Ga  Ga13  1  0.999571  0.913664  0.498024  1
  Ru  Ru14  1  0.250000  0.121968  0.871968  1
  Ru  Ru15  1  0.750000  0.379887  0.629887  1
  Ru  Ru16  1  0.874377  0.256970  0.125597  1
  Ru  Ru17  1  0.115006  0.875004  0.247541  1
  Ru  Ru18  1  0.625622  0.751218  0.382592  1
  Ru  Ru19  1  0.384994  0.632535  0.759999  1
