# generated using pymatgen
data_Ce4B16Os3Ru
_symmetry_space_group_name_H-M   'P 1'
_cell_length_a   3.62089700
_cell_length_b   6.01427902
_cell_length_c   11.66424201
_cell_angle_alpha   90.00211509
_cell_angle_beta   90.00000000
_cell_angle_gamma   90.00000000
_symmetry_Int_Tables_number   1
_chemical_formula_structural   Ce4B16Os3Ru
_chemical_formula_sum   'Ce4 B16 Os3 Ru1'
_cell_volume   254.01318768
_cell_formula_units_Z   1
loop_
 _symmetry_equiv_pos_site_id
 _symmetry_equiv_pos_as_xyz
  1  'x, y, z'
loop_
 _atom_site_type_symbol
 _atom_site_label
 _atom_site_symmetry_multiplicity
 _atom_site_fract_x
 _atom_site_fract_y
 _atom_site_fract_z
 _atom_site_occupancy
  Ce  Ce0  1  0.500000  0.128680  0.149293  1
  Ce  Ce1  1  0.500000  0.871179  0.850468  1
  Ce  Ce2  1  0.500000  0.628954  0.350145  1
  Ce  Ce3  1  0.500000  0.371435  0.650052  1
  B  B4  1  0.000000  0.474768  0.190352  1
  B  B5  1  0.000000  0.525056  0.809576  1
  B  B6  1  0.000000  0.974140  0.309700  1
  B  B7  1  0.000000  0.026002  0.690543  1
  B  B8  1  0.000000  0.286316  0.313863  1
  B  B9  1  0.000000  0.713867  0.686285  1
  B  B10  1  0.000000  0.785862  0.185932  1
  B  B11  1  0.000000  0.214080  0.814039  1
  B  B12  1  0.000000  0.362395  0.468853  1
  B  B13  1  0.000000  0.637654  0.531344  1
  B  B14  1  0.000000  0.862285  0.031306  1
  B  B15  1  0.000000  0.137726  0.968486  1
  B  B16  1  0.000000  0.388641  0.045943  1
  B  B17  1  0.000000  0.611721  0.954318  1
  B  B18  1  0.000000  0.888354  0.454186  1
  B  B19  1  0.000000  0.111668  0.545981  1
  Os  Os20  1  0.500000  0.140910  0.405792  1
  Os  Os21  1  0.500000  0.859213  0.593908  1
  Os  Os22  1  0.500000  0.639697  0.093690  1
  Ru  Ru23  1  0.500000  0.359395  0.905945  1
