# generated using pymatgen
data_TaBe6Nb5Ru6
_symmetry_space_group_name_H-M   'P 1'
_cell_length_a   7.31064658
_cell_length_b   7.31046462
_cell_length_c   7.31064701
_cell_angle_alpha   126.46856644
_cell_angle_beta   128.64446758
_cell_angle_gamma   77.35801219
_symmetry_Int_Tables_number   1
_chemical_formula_structural   TaBe6Nb5Ru6
_chemical_formula_sum   'Ta1 Be6 Nb5 Ru6'
_cell_volume   238.07844307
_cell_formula_units_Z   1
loop_
 _symmetry_equiv_pos_site_id
 _symmetry_equiv_pos_as_xyz
  1  'x, y, z'
loop_
 _atom_site_type_symbol
 _atom_site_label
 _atom_site_symmetry_multiplicity
 _atom_site_fract_x
 _atom_site_fract_y
 _atom_site_fract_z
 _atom_site_occupancy
  Ta  Ta0  1  0.250756  0.096968  0.346212  1
  Be  Be1  1  0.749617  0.503064  0.253448  1
  Be  Be2  1  0.250383  0.503791  0.753407  1
  Be  Be3  1  0.669562  0.169685  0.506114  1
  Be  Be4  1  0.331477  0.836548  0.501148  1
  Be  Be5  1  0.163570  0.169685  0.000123  1
  Be  Be6  1  0.835400  0.836548  0.005071  1
  Nb  Nb7  1  0.953761  0.909704  0.455945  1
  Nb  Nb8  1  0.046684  0.504212  0.957528  1
  Nb  Nb9  1  0.544979  0.502560  0.457580  1
  Nb  Nb10  1  0.454609  0.913686  0.959077  1
  Nb  Nb11  1  0.749210  0.094197  0.844987  1
  Ru  Ru12  1  0.499522  0.757859  0.257389  1
  Ru  Ru13  1  0.000470  0.757859  0.758337  1
  Ru  Ru14  1  0.873643  0.248273  0.376089  1
  Ru  Ru15  1  0.127472  0.502443  0.375745  1
  Ru  Ru16  1  0.372183  0.248273  0.874630  1
  Ru  Ru17  1  0.626699  0.502443  0.874971  1
