# generated using pymatgen
data_Er12Si12Os3Pt
_symmetry_space_group_name_H-M   'P 1'
_cell_length_a   4.20262700
_cell_length_b   10.62535756
_cell_length_c   12.21286159
_cell_angle_alpha   90.12752998
_cell_angle_beta   90.00000000
_cell_angle_gamma   90.00000000
_symmetry_Int_Tables_number   1
_chemical_formula_structural   Er12Si12Os3Pt
_chemical_formula_sum   'Er12 Si12 Os3 Pt1'
_cell_volume   545.35683339
_cell_formula_units_Z   1
loop_
 _symmetry_equiv_pos_site_id
 _symmetry_equiv_pos_as_xyz
  1  'x, y, z'
loop_
 _atom_site_type_symbol
 _atom_site_label
 _atom_site_symmetry_multiplicity
 _atom_site_fract_x
 _atom_site_fract_y
 _atom_site_fract_z
 _atom_site_occupancy
  Er  Er0  1  0.250000  0.880401  0.021975  1
  Er  Er1  1  0.250000  0.620577  0.520462  1
  Er  Er2  1  0.750000  0.121847  0.981285  1
  Er  Er3  1  0.750000  0.381303  0.478196  1
  Er  Er4  1  0.250000  0.919390  0.604305  1
  Er  Er5  1  0.250000  0.579945  0.104384  1
  Er  Er6  1  0.750000  0.079132  0.396538  1
  Er  Er7  1  0.750000  0.419938  0.895614  1
  Er  Er8  1  0.250000  0.659143  0.799943  1
  Er  Er9  1  0.250000  0.839083  0.299347  1
  Er  Er10  1  0.750000  0.339876  0.200199  1
  Er  Er11  1  0.750000  0.160870  0.697655  1
  Si  Si12  1  0.250000  0.016716  0.823341  1
  Si  Si13  1  0.250000  0.490814  0.320839  1
  Si  Si14  1  0.750000  0.991235  0.179553  1
  Si  Si15  1  0.750000  0.507425  0.679450  1
  Si  Si16  1  0.250000  0.249468  0.839494  1
  Si  Si17  1  0.250000  0.250166  0.340180  1
  Si  Si18  1  0.750000  0.750775  0.159672  1
  Si  Si19  1  0.750000  0.746100  0.655715  1
  Si  Si20  1  0.250000  0.203953  0.543581  1
  Si  Si21  1  0.250000  0.298241  0.045014  1
  Si  Si22  1  0.750000  0.799568  0.454523  1
  Si  Si23  1  0.750000  0.694722  0.958694  1
  Os  Os24  1  0.250000  0.390012  0.679722  1
  Os  Os25  1  0.250000  0.109306  0.179295  1
  Os  Os26  1  0.750000  0.610777  0.320435  1
  Pt  Pt27  1  0.750000  0.889215  0.820589  1
