# generated using pymatgen
data_Ba2CrNi3P4
_symmetry_space_group_name_H-M   'P 1'
_cell_length_a   5.47122223
_cell_length_b   6.80577778
_cell_length_c   5.48263420
_cell_angle_alpha   66.10544486
_cell_angle_beta   90.02955386
_cell_angle_gamma   90.06300716
_symmetry_Int_Tables_number   1
_chemical_formula_structural   Ba2CrNi3P4
_chemical_formula_sum   'Ba2 Cr1 Ni3 P4'
_cell_volume   186.65355293
_cell_formula_units_Z   1
loop_
 _symmetry_equiv_pos_site_id
 _symmetry_equiv_pos_as_xyz
  1  'x, y, z'
loop_
 _atom_site_type_symbol
 _atom_site_label
 _atom_site_symmetry_multiplicity
 _atom_site_fract_x
 _atom_site_fract_y
 _atom_site_fract_z
 _atom_site_occupancy
  Ba  Ba0  1  0.993392  0.000077  0.999882  1
  Ba  Ba1  1  0.506434  0.000005  0.499853  1
  Cr  Cr2  1  0.250085  0.500135  0.499906  1
  Ni  Ni3  1  0.249395  0.499336  0.999662  1
  Ni  Ni4  1  0.750649  0.500848  0.000206  1
  Ni  Ni5  1  0.750270  0.499640  0.500613  1
  P  P6  1  0.495351  0.688985  0.159119  1
  P  P7  1  0.004452  0.688381  0.651024  1
  P  P8  1  0.004370  0.311586  0.348830  1
  P  P9  1  0.495603  0.311006  0.840908  1
