# generated using pymatgen
data_Tb8Ho11MgPb16
_symmetry_space_group_name_H-M   'P 1'
_cell_length_a   8.15612315
_cell_length_b   8.25175138
_cell_length_c   15.65667000
_cell_angle_alpha   90.00000000
_cell_angle_beta   90.00000000
_cell_angle_gamma   89.75165799
_symmetry_Int_Tables_number   1
_chemical_formula_structural   Tb8Ho11MgPb16
_chemical_formula_sum   'Tb8 Ho11 Mg1 Pb16'
_cell_volume   1053.72001059
_cell_formula_units_Z   1
loop_
 _symmetry_equiv_pos_site_id
 _symmetry_equiv_pos_as_xyz
  1  'x, y, z'
loop_
 _atom_site_type_symbol
 _atom_site_label
 _atom_site_symmetry_multiplicity
 _atom_site_fract_x
 _atom_site_fract_y
 _atom_site_fract_z
 _atom_site_occupancy
  Tb  Tb0  1  0.529420  0.324866  0.902501  1
  Tb  Tb1  1  0.033444  0.183404  0.597612  1
  Tb  Tb2  1  0.467238  0.676025  0.400747  1
  Tb  Tb3  1  0.966752  0.822098  0.099047  1
  Tb  Tb4  1  0.467238  0.676025  0.099253  1
  Tb  Tb5  1  0.966752  0.822098  0.400953  1
  Tb  Tb6  1  0.529420  0.324866  0.597499  1
  Tb  Tb7  1  0.033444  0.183404  0.902388  1
  Ho  Ho8  1  0.373346  0.838821  0.878879  1
  Ho  Ho9  1  0.881607  0.657485  0.621981  1
  Ho  Ho10  1  0.625549  0.156791  0.378996  1
  Ho  Ho11  1  0.126336  0.339998  0.121790  1
  Ho  Ho12  1  0.625549  0.156791  0.121004  1
  Ho  Ho13  1  0.126336  0.339998  0.378210  1
  Ho  Ho14  1  0.373346  0.838821  0.621121  1
  Ho  Ho15  1  0.881607  0.657485  0.878019  1
  Ho  Ho16  1  0.704234  0.993699  0.750000  1
  Ho  Ho17  1  0.793472  0.494914  0.250000  1
  Ho  Ho18  1  0.293270  0.004451  0.250000  1
  Mg  Mg19  1  0.206046  0.503069  0.750000  1
  Pb  Pb20  1  0.284126  0.034207  0.042748  1
  Pb  Pb21  1  0.785297  0.464027  0.457634  1
  Pb  Pb22  1  0.716556  0.965832  0.544400  1
  Pb  Pb23  1  0.215761  0.538243  0.959056  1
  Pb  Pb24  1  0.716556  0.965832  0.955600  1
  Pb  Pb25  1  0.215761  0.538243  0.540944  1
  Pb  Pb26  1  0.284126  0.034207  0.457252  1
  Pb  Pb27  1  0.785297  0.464027  0.042366  1
  Pb  Pb28  1  0.566764  0.620991  0.750000  1
  Pb  Pb29  1  0.071291  0.880203  0.750000  1
  Pb  Pb30  1  0.430876  0.374794  0.250000  1
  Pb  Pb31  1  0.930405  0.125659  0.250000  1
  Pb  Pb32  1  0.344123  0.153986  0.750000  1
  Pb  Pb33  1  0.838350  0.346498  0.750000  1
  Pb  Pb34  1  0.655194  0.845713  0.250000  1
  Pb  Pb35  1  0.155113  0.652428  0.250000  1
