# generated using pymatgen
data_Tb8Y8Sc4Si15Ir
_symmetry_space_group_name_H-M   'P 1'
_cell_length_a   7.25018167
_cell_length_b   7.73453045
_cell_length_c   14.43134400
_cell_angle_alpha   90.00000000
_cell_angle_beta   90.00000000
_cell_angle_gamma   89.96513785
_symmetry_Int_Tables_number   1
_chemical_formula_structural   Tb8Y8Sc4Si15Ir
_chemical_formula_sum   'Tb8 Y8 Sc4 Si15 Ir1'
_cell_volume   809.26273243
_cell_formula_units_Z   1
loop_
 _symmetry_equiv_pos_site_id
 _symmetry_equiv_pos_as_xyz
  1  'x, y, z'
loop_
 _atom_site_type_symbol
 _atom_site_label
 _atom_site_symmetry_multiplicity
 _atom_site_fract_x
 _atom_site_fract_y
 _atom_site_fract_z
 _atom_site_occupancy
  Tb  Tb0  1  0.018053  0.184522  0.096423  1
  Tb  Tb1  1  0.984606  0.822988  0.903037  1
  Tb  Tb2  1  0.483108  0.682792  0.904831  1
  Tb  Tb3  1  0.984606  0.822988  0.596963  1
  Tb  Tb4  1  0.519046  0.317280  0.097004  1
  Tb  Tb5  1  0.018053  0.184522  0.403577  1
  Tb  Tb6  1  0.519046  0.317280  0.402996  1
  Tb  Tb7  1  0.483108  0.682792  0.595169  1
  Y  Y8  1  0.312350  0.173445  0.628305  1
  Y  Y9  1  0.678235  0.823907  0.373623  1
  Y  Y10  1  0.176482  0.680067  0.373822  1
  Y  Y11  1  0.678235  0.823907  0.126377  1
  Y  Y12  1  0.828750  0.317851  0.628461  1
  Y  Y13  1  0.312350  0.173445  0.871695  1
  Y  Y14  1  0.828750  0.317851  0.871539  1
  Y  Y15  1  0.176482  0.680067  0.126178  1
  Sc  Sc16  1  0.156164  0.521186  0.750000  1
  Sc  Sc17  1  0.842271  0.482752  0.250000  1
  Sc  Sc18  1  0.343259  0.019111  0.250000  1
  Sc  Sc19  1  0.665056  0.982558  0.750000  1
  Si  Si20  1  0.980694  0.909714  0.250000  1
  Si  Si21  1  0.481036  0.593338  0.250000  1
  Si  Si22  1  0.517640  0.406758  0.750000  1
  Si  Si23  1  0.284545  0.860509  0.750000  1
  Si  Si24  1  0.719213  0.136084  0.250000  1
  Si  Si25  1  0.220978  0.365919  0.250000  1
  Si  Si26  1  0.773436  0.630074  0.750000  1
  Si  Si27  1  0.154563  0.473085  0.539091  1
  Si  Si28  1  0.847574  0.529201  0.460656  1
  Si  Si29  1  0.348126  0.971504  0.460001  1
  Si  Si30  1  0.847574  0.529201  0.039344  1
  Si  Si31  1  0.651212  0.030076  0.539505  1
  Si  Si32  1  0.154563  0.473085  0.960909  1
  Si  Si33  1  0.651212  0.030076  0.960495  1
  Si  Si34  1  0.348126  0.971504  0.039999  1
  Ir  Ir35  1  0.011496  0.078564  0.750000  1
