# generated using pymatgen
data_K3Rb(Zn2Au3)4
_symmetry_space_group_name_H-M   'P 1'
_cell_length_a   5.63823400
_cell_length_b   7.15709279
_cell_length_c   13.60419600
_cell_angle_alpha   89.87964591
_cell_angle_beta   90.00000000
_cell_angle_gamma   90.00000000
_symmetry_Int_Tables_number   1
_chemical_formula_structural   K3Rb(Zn2Au3)4
_chemical_formula_sum   'K3 Rb1 Zn8 Au12'
_cell_volume   548.97386074
_cell_formula_units_Z   1
loop_
 _symmetry_equiv_pos_site_id
 _symmetry_equiv_pos_as_xyz
  1  'x, y, z'
loop_
 _atom_site_type_symbol
 _atom_site_label
 _atom_site_symmetry_multiplicity
 _atom_site_fract_x
 _atom_site_fract_y
 _atom_site_fract_z
 _atom_site_occupancy
  K  K0  1  0.250000  0.111441  0.079813  1
  K  K1  1  0.250000  0.387123  0.582978  1
  K  K2  1  0.750000  0.888694  0.919658  1
  Rb  Rb3  1  0.750000  0.603801  0.425082  1
  Zn  Zn4  1  0.000982  0.898060  0.652741  1
  Zn  Zn5  1  0.499369  0.603481  0.151639  1
  Zn  Zn6  1  0.501365  0.103006  0.346792  1
  Zn  Zn7  1  0.999719  0.396377  0.847554  1
  Zn  Zn8  1  0.998635  0.103006  0.346792  1
  Zn  Zn9  1  0.500281  0.396377  0.847554  1
  Zn  Zn10  1  0.499018  0.898060  0.652741  1
  Zn  Zn11  1  0.000631  0.603481  0.151639  1
  Au  Au12  1  0.250000  0.104731  0.787999  1
  Au  Au13  1  0.250000  0.393532  0.284789  1
  Au  Au14  1  0.750000  0.894372  0.211700  1
  Au  Au15  1  0.750000  0.606819  0.714160  1
  Au  Au16  1  0.250000  0.702700  0.787620  1
  Au  Au17  1  0.250000  0.798700  0.286551  1
  Au  Au18  1  0.750000  0.296433  0.210904  1
  Au  Au19  1  0.750000  0.203462  0.712272  1
  Au  Au20  1  0.250000  0.577079  0.989078  1
  Au  Au21  1  0.250000  0.927555  0.489511  1
  Au  Au22  1  0.750000  0.423329  0.009979  1
  Au  Au23  1  0.750000  0.078382  0.510456  1
