# generated using pymatgen
data_Ho8Tl3Tc
_symmetry_space_group_name_H-M   'P 1'
_cell_length_a   10.33795900
_cell_length_b   10.33803358
_cell_length_c   7.18275200
_cell_angle_alpha   90.00000000
_cell_angle_beta   90.00000000
_cell_angle_gamma   119.99990809
_symmetry_Int_Tables_number   1
_chemical_formula_structural   Ho8Tl3Tc
_chemical_formula_sum   'Ho16 Tl6 Tc2'
_cell_volume   664.80557041
_cell_formula_units_Z   2
loop_
 _symmetry_equiv_pos_site_id
 _symmetry_equiv_pos_as_xyz
  1  'x, y, z'
loop_
 _atom_site_type_symbol
 _atom_site_label
 _atom_site_symmetry_multiplicity
 _atom_site_fract_x
 _atom_site_fract_y
 _atom_site_fract_z
 _atom_site_occupancy
  Ho  Ho0  1  0.666670  0.333333  0.177808  1
  Ho  Ho1  1  0.999998  0.999995  0.264332  1
  Ho  Ho2  1  0.463608  0.927232  0.292270  1
  Ho  Ho3  1  0.072737  0.536387  0.292286  1
  Ho  Ho4  1  0.463649  0.536374  0.292289  1
  Ho  Ho5  1  0.349586  0.174790  0.488586  1
  Ho  Ho6  1  0.825211  0.174790  0.488578  1
  Ho  Ho7  1  0.825204  0.650404  0.488605  1
  Ho  Ho8  1  0.333330  0.666668  0.677808  1
  Ho  Ho9  1  0.000002  0.000005  0.764332  1
  Ho  Ho10  1  0.536391  0.072767  0.792270  1
  Ho  Ho11  1  0.536351  0.463626  0.792288  1
  Ho  Ho12  1  0.927264  0.463613  0.792285  1
  Ho  Ho13  1  0.174788  0.825209  0.988578  1
  Ho  Ho14  1  0.650413  0.825209  0.988586  1
  Ho  Ho15  1  0.174796  0.349596  0.988607  1
  Tl  Tl16  1  0.331156  0.165584  0.041208  1
  Tl  Tl17  1  0.834427  0.165577  0.041216  1
  Tl  Tl18  1  0.834417  0.668844  0.041207  1
  Tl  Tl19  1  0.165583  0.331157  0.541206  1
  Tl  Tl20  1  0.165573  0.834422  0.541216  1
  Tl  Tl21  1  0.668843  0.834415  0.541208  1
  Tc  Tc22  1  0.333327  0.666654  0.054617  1
  Tc  Tc23  1  0.666673  0.333346  0.554618  1
