# generated using pymatgen
data_TbEr3Co3SiI2
_symmetry_space_group_name_H-M   'P 1'
_cell_length_a   3.98952300
_cell_length_b   3.98952288
_cell_length_c   16.80926800
_cell_angle_alpha   90.00000000
_cell_angle_beta   90.00000000
_cell_angle_gamma   119.99997608
_symmetry_Int_Tables_number   1
_chemical_formula_structural   TbEr3Co3SiI2
_chemical_formula_sum   'Tb1 Er3 Co3 Si1 I2'
_cell_volume   231.69756606
_cell_formula_units_Z   1
loop_
 _symmetry_equiv_pos_site_id
 _symmetry_equiv_pos_as_xyz
  1  'x, y, z'
loop_
 _atom_site_type_symbol
 _atom_site_label
 _atom_site_symmetry_multiplicity
 _atom_site_fract_x
 _atom_site_fract_y
 _atom_site_fract_z
 _atom_site_occupancy
  Tb  Tb0  1  0.000000  0.000000  0.894292  1
  Er  Er1  1  0.000000  0.000000  0.102701  1
  Er  Er2  1  0.000000  0.000000  0.601166  1
  Er  Er3  1  0.000000  0.000000  0.398366  1
  Co  Co4  1  0.333333  0.666667  0.006426  1
  Co  Co5  1  0.666667  0.333333  0.501499  1
  Co  Co6  1  0.333333  0.666667  0.498288  1
  Si  Si7  1  0.666667  0.333333  0.997453  1
  I  I8  1  0.666667  0.333333  0.249299  1
  I  I9  1  0.333333  0.666667  0.750509  1
