# generated using pymatgen
data_ZnReF6
_symmetry_space_group_name_H-M   'P 1'
_cell_length_a   5.61316114
_cell_length_b   5.61316084
_cell_length_c   5.61316201
_cell_angle_alpha   58.30697008
_cell_angle_beta   58.30697231
_cell_angle_gamma   58.30699269
_symmetry_Int_Tables_number   1
_chemical_formula_structural   ZnReF6
_chemical_formula_sum   'Zn1 Re1 F6'
_cell_volume   120.20829882
_cell_formula_units_Z   1
loop_
 _symmetry_equiv_pos_site_id
 _symmetry_equiv_pos_as_xyz
  1  'x, y, z'
loop_
 _atom_site_type_symbol
 _atom_site_label
 _atom_site_symmetry_multiplicity
 _atom_site_fract_x
 _atom_site_fract_y
 _atom_site_fract_z
 _atom_site_occupancy
  Zn  Zn0  1  0.500000  0.500000  0.500000  1
  Re  Re1  1  0.000000  0.000000  0.000000  1
  F  F2  1  0.666361  0.842701  0.244628  1
  F  F3  1  0.842701  0.244628  0.666361  1
  F  F4  1  0.755372  0.333639  0.157299  1
  F  F5  1  0.157299  0.755372  0.333639  1
  F  F6  1  0.333639  0.157299  0.755372  1
  F  F7  1  0.244628  0.666361  0.842701  1
