# generated using pymatgen
data_Si12P12RuRh3
_symmetry_space_group_name_H-M   'P 1'
_cell_length_a   5.86652037
_cell_length_b   6.11320972
_cell_length_c   13.08904364
_cell_angle_alpha   89.97936658
_cell_angle_beta   90.02623245
_cell_angle_gamma   90.54845116
_symmetry_Int_Tables_number   1
_chemical_formula_structural   Si12P12RuRh3
_chemical_formula_sum   'Si12 P12 Ru1 Rh3'
_cell_volume   469.39431302
_cell_formula_units_Z   1
loop_
 _symmetry_equiv_pos_site_id
 _symmetry_equiv_pos_as_xyz
  1  'x, y, z'
loop_
 _atom_site_type_symbol
 _atom_site_label
 _atom_site_symmetry_multiplicity
 _atom_site_fract_x
 _atom_site_fract_y
 _atom_site_fract_z
 _atom_site_occupancy
  Si  Si0  1  0.977561  0.155012  0.315384  1
  Si  Si1  1  0.467831  0.839810  0.682074  1
  Si  Si2  1  0.930121  0.621299  0.215506  1
  Si  Si3  1  0.432457  0.374339  0.786526  1
  Si  Si4  1  0.343598  0.913997  0.951201  1
  Si  Si5  1  0.842578  0.086169  0.047866  1
  Si  Si6  1  0.916192  0.529469  0.673269  1
  Si  Si7  1  0.409019  0.473514  0.327926  1
  Si  Si8  1  0.996525  0.062906  0.568378  1
  Si  Si9  1  0.495363  0.940358  0.430130  1
  Si  Si10  1  0.914045  0.626896  0.927626  1
  Si  Si11  1  0.409710  0.374033  0.073508  1
  P  P12  1  0.579766  0.030517  0.825500  1
  P  P13  1  0.078009  0.965755  0.172379  1
  P  P14  1  0.520417  0.561908  0.931072  1
  P  P15  1  0.018045  0.438115  0.069660  1
  P  P16  1  0.608005  0.115424  0.574322  1
  P  P17  1  0.107310  0.879467  0.424913  1
  P  P18  1  0.542561  0.644474  0.181311  1
  P  P19  1  0.044212  0.357908  0.818739  1
  P  P20  1  0.581579  0.135329  0.289760  1
  P  P21  1  0.078697  0.869479  0.709157  1
  P  P22  1  0.151620  0.404774  0.552603  1
  P  P23  1  0.652240  0.602641  0.448477  1
  Ru  Ru24  1  0.025952  0.510178  0.382192  1
  Rh  Rh25  1  0.967856  0.988528  0.878156  1
  Rh  Rh26  1  0.467221  0.012799  0.121561  1
  Rh  Rh27  1  0.535310  0.484897  0.620801  1
