# generated using pymatgen
data_YbLu(Al3Pt)6
_symmetry_space_group_name_H-M   'P 1'
_cell_length_a   10.42714388
_cell_length_b   10.42714402
_cell_length_c   10.42714500
_cell_angle_alpha   42.15640709
_cell_angle_beta   42.15640623
_cell_angle_gamma   42.15640031
_symmetry_Int_Tables_number   1
_chemical_formula_structural   YbLu(Al3Pt)6
_chemical_formula_sum   'Yb1 Lu1 Al18 Pt6'
_cell_volume   462.08585061
_cell_formula_units_Z   1
loop_
 _symmetry_equiv_pos_site_id
 _symmetry_equiv_pos_as_xyz
  1  'x, y, z'
loop_
 _atom_site_type_symbol
 _atom_site_label
 _atom_site_symmetry_multiplicity
 _atom_site_fract_x
 _atom_site_fract_y
 _atom_site_fract_z
 _atom_site_occupancy
  Yb  Yb0  1  0.166945  0.166945  0.166945  1
  Lu  Lu1  1  0.833214  0.833214  0.833214  1
  Al  Al2  1  0.107744  0.435744  0.765248  1
  Al  Al3  1  0.435744  0.765248  0.107744  1
  Al  Al4  1  0.563347  0.892762  0.235177  1
  Al  Al5  1  0.949595  0.949595  0.949595  1
  Al  Al6  1  0.050901  0.050901  0.050901  1
  Al  Al7  1  0.294505  0.702918  0.502582  1
  Al  Al8  1  0.892762  0.235177  0.563347  1
  Al  Al9  1  0.385176  0.385176  0.385176  1
  Al  Al10  1  0.502582  0.294505  0.702918  1
  Al  Al11  1  0.235177  0.563347  0.892762  1
  Al  Al12  1  0.716738  0.716738  0.716738  1
  Al  Al13  1  0.614645  0.614645  0.614645  1
  Al  Al14  1  0.333800  0.999799  0.666359  1
  Al  Al15  1  0.702918  0.502582  0.294505  1
  Al  Al16  1  0.666359  0.333800  0.999799  1
  Al  Al17  1  0.282855  0.282855  0.282855  1
  Al  Al18  1  0.999799  0.666359  0.333800  1
  Al  Al19  1  0.765248  0.107744  0.435744  1
  Pt  Pt20  1  0.419377  0.076838  0.759670  1
  Pt  Pt21  1  0.582135  0.239458  0.922465  1
  Pt  Pt22  1  0.076838  0.759670  0.419377  1
  Pt  Pt23  1  0.759670  0.419377  0.076838  1
  Pt  Pt24  1  0.922465  0.582135  0.239458  1
  Pt  Pt25  1  0.239458  0.922465  0.582135  1
