# generated using pymatgen
data_Ho2Er3Lu11(Ga3Os)2
_symmetry_space_group_name_H-M   'P 1'
_cell_length_a   9.83458600
_cell_length_b   9.83458523
_cell_length_c   6.98762700
_cell_angle_alpha   90.00000000
_cell_angle_beta   90.00000000
_cell_angle_gamma   119.99999586
_symmetry_Int_Tables_number   1
_chemical_formula_structural   Ho2Er3Lu11(Ga3Os)2
_chemical_formula_sum   'Ho2 Er3 Lu11 Ga6 Os2'
_cell_volume   585.29187451
_cell_formula_units_Z   1
loop_
 _symmetry_equiv_pos_site_id
 _symmetry_equiv_pos_as_xyz
  1  'x, y, z'
loop_
 _atom_site_type_symbol
 _atom_site_label
 _atom_site_symmetry_multiplicity
 _atom_site_fract_x
 _atom_site_fract_y
 _atom_site_fract_z
 _atom_site_occupancy
  Ho  Ho0  1  0.000000  0.000000  0.234012  1
  Ho  Ho1  1  0.000000  0.000000  0.734493  1
  Er  Er2  1  0.533412  0.466588  0.706067  1
  Er  Er3  1  0.933176  0.466588  0.706067  1
  Er  Er4  1  0.533412  0.066824  0.706067  1
  Lu  Lu5  1  0.172658  0.827342  0.509932  1
  Lu  Lu6  1  0.654682  0.827342  0.509932  1
  Lu  Lu7  1  0.172658  0.345318  0.509932  1
  Lu  Lu8  1  0.827380  0.172620  0.013320  1
  Lu  Lu9  1  0.345241  0.172620  0.013320  1
  Lu  Lu10  1  0.827380  0.654759  0.013320  1
  Lu  Lu11  1  0.333333  0.666667  0.838877  1
  Lu  Lu12  1  0.666667  0.333333  0.337984  1
  Lu  Lu13  1  0.465148  0.534852  0.204990  1
  Lu  Lu14  1  0.069701  0.534852  0.204990  1
  Lu  Lu15  1  0.465148  0.930299  0.204990  1
  Ga  Ga16  1  0.164210  0.835790  0.955936  1
  Ga  Ga17  1  0.671579  0.835790  0.955936  1
  Ga  Ga18  1  0.164210  0.328421  0.955936  1
  Ga  Ga19  1  0.836160  0.163840  0.456182  1
  Ga  Ga20  1  0.327682  0.163840  0.456182  1
  Ga  Ga21  1  0.836160  0.672318  0.456182  1
  Os  Os22  1  0.333333  0.666667  0.443837  1
  Os  Os23  1  0.666667  0.333333  0.945562  1
