# generated using pymatgen
data_BaCd2H8Os
_symmetry_space_group_name_H-M   'P 1'
_cell_length_a   5.14356500
_cell_length_b   5.14356500
_cell_length_c   11.06129000
_cell_angle_alpha   90.00000000
_cell_angle_beta   90.00000000
_cell_angle_gamma   90.00000000
_symmetry_Int_Tables_number   1
_chemical_formula_structural   BaCd2H8Os
_chemical_formula_sum   'Ba2 Cd4 H16 Os2'
_cell_volume   292.64037423
_cell_formula_units_Z   2
loop_
 _symmetry_equiv_pos_site_id
 _symmetry_equiv_pos_as_xyz
  1  'x, y, z'
loop_
 _atom_site_type_symbol
 _atom_site_label
 _atom_site_symmetry_multiplicity
 _atom_site_fract_x
 _atom_site_fract_y
 _atom_site_fract_z
 _atom_site_occupancy
  Ba  Ba0  1  0.500000  0.000000  0.000000  1
  Ba  Ba1  1  0.000000  0.500000  0.500000  1
  Cd  Cd2  1  0.500000  0.000000  0.636673  1
  Cd  Cd3  1  0.000000  0.500000  0.136673  1
  Cd  Cd4  1  0.500000  0.000000  0.363327  1
  Cd  Cd5  1  0.000000  0.500000  0.863327  1
  H  H6  1  0.237165  0.237165  0.750000  1
  H  H7  1  0.762835  0.762835  0.750000  1
  H  H8  1  0.762835  0.237165  0.250000  1
  H  H9  1  0.237165  0.762835  0.250000  1
  H  H10  1  0.762835  0.762835  0.250000  1
  H  H11  1  0.237165  0.237165  0.250000  1
  H  H12  1  0.237165  0.762835  0.750000  1
  H  H13  1  0.762835  0.237165  0.750000  1
  H  H14  1  0.500000  0.263130  0.500000  1
  H  H15  1  0.500000  0.736870  0.500000  1
  H  H16  1  0.736870  0.500000  0.000000  1
  H  H17  1  0.263130  0.500000  0.000000  1
  H  H18  1  0.000000  0.000000  0.595437  1
  H  H19  1  0.000000  0.000000  0.095437  1
  H  H20  1  0.000000  0.000000  0.404563  1
  H  H21  1  0.000000  0.000000  0.904563  1
  Os  Os22  1  0.000000  0.000000  0.750000  1
  Os  Os23  1  0.000000  0.000000  0.250000  1
