# generated using pymatgen
data_Dy3Ho2ZrTc2(P3Ir4)4
_symmetry_space_group_name_H-M   'P 1'
_cell_length_a   12.65695300
_cell_length_b   12.65386477
_cell_length_c   3.98174100
_cell_angle_alpha   90.00000000
_cell_angle_beta   90.00000000
_cell_angle_gamma   120.00807095
_symmetry_Int_Tables_number   1
_chemical_formula_structural   Dy3Ho2ZrTc2(P3Ir4)4
_chemical_formula_sum   'Dy3 Ho2 Zr1 Tc2 P12 Ir16'
_cell_volume   552.23085574
_cell_formula_units_Z   1
loop_
 _symmetry_equiv_pos_site_id
 _symmetry_equiv_pos_as_xyz
  1  'x, y, z'
loop_
 _atom_site_type_symbol
 _atom_site_label
 _atom_site_symmetry_multiplicity
 _atom_site_fract_x
 _atom_site_fract_y
 _atom_site_fract_z
 _atom_site_occupancy
  Dy  Dy0  1  0.331909  0.665696  0.500000  1
  Dy  Dy1  1  0.668113  0.333735  0.500000  1
  Dy  Dy2  1  0.813887  0.999783  0.000000  1
  Ho  Ho3  1  0.000042  0.817708  0.000000  1
  Ho  Ho4  1  0.185950  0.185877  0.000000  1
  Zr  Zr5  1  0.000119  0.448327  0.500000  1
  Tc  Tc6  1  0.544905  0.544025  0.500000  1
  Tc  Tc7  1  0.455007  0.999289  0.500000  1
  P  P8  1  0.999985  0.648711  0.500000  1
  P  P9  1  0.362556  0.359167  0.500000  1
  P  P10  1  0.637185  0.996604  0.500000  1
  P  P11  1  0.513919  0.684861  0.000000  1
  P  P12  1  0.316425  0.832996  0.000000  1
  P  P13  1  0.169786  0.484098  0.000000  1
  P  P14  1  0.486088  0.170906  0.000000  1
  P  P15  1  0.683532  0.516426  0.000000  1
  P  P16  1  0.830351  0.314310  0.000000  1
  P  P17  1  0.000205  0.174535  0.500000  1
  P  P18  1  0.821848  0.823837  0.500000  1
  P  P19  1  0.178249  0.002175  0.500000  1
  Ir  Ir20  1  0.510774  0.868780  0.000000  1
  Ir  Ir21  1  0.136044  0.647044  0.000000  1
  Ir  Ir22  1  0.359158  0.490689  0.000000  1
  Ir  Ir23  1  0.489158  0.357850  0.000000  1
  Ir  Ir24  1  0.863979  0.510961  0.000000  1
  Ir  Ir25  1  0.640846  0.131577  0.000000  1
  Ir  Ir26  1  0.000159  0.279422  0.000000  1
  Ir  Ir27  1  0.708302  0.710843  0.000000  1
  Ir  Ir28  1  0.291658  0.002678  0.000000  1
  Ir  Ir29  1  0.623067  0.802194  0.500000  1
  Ir  Ir30  1  0.195598  0.825990  0.500000  1
  Ir  Ir31  1  0.182950  0.371901  0.500000  1
  Ir  Ir32  1  0.376497  0.179183  0.500000  1
  Ir  Ir33  1  0.804400  0.630315  0.500000  1
  Ir  Ir34  1  0.817161  0.189443  0.500000  1
  Ir  Ir35  1  0.000189  0.998066  0.500000  1
