# generated using pymatgen
data_Tb3ThZnRh
_symmetry_space_group_name_H-M   'P 1'
_cell_length_a   9.63396934
_cell_length_b   9.63397019
_cell_length_c   9.63397000
_cell_angle_alpha   60.00000064
_cell_angle_beta   59.99999774
_cell_angle_gamma   60.00000337
_symmetry_Int_Tables_number   1
_chemical_formula_structural   Tb3ThZnRh
_chemical_formula_sum   'Tb12 Th4 Zn4 Rh4'
_cell_volume   632.26749527
_cell_formula_units_Z   4
loop_
 _symmetry_equiv_pos_site_id
 _symmetry_equiv_pos_as_xyz
  1  'x, y, z'
loop_
 _atom_site_type_symbol
 _atom_site_label
 _atom_site_symmetry_multiplicity
 _atom_site_fract_x
 _atom_site_fract_y
 _atom_site_fract_z
 _atom_site_occupancy
  Tb  Tb0  1  0.810347  0.189653  0.189653  1
  Tb  Tb1  1  0.189653  0.810347  0.810347  1
  Tb  Tb2  1  0.189653  0.810347  0.189653  1
  Tb  Tb3  1  0.810347  0.189653  0.810347  1
  Tb  Tb4  1  0.189653  0.189653  0.810347  1
  Tb  Tb5  1  0.810347  0.810347  0.189653  1
  Tb  Tb6  1  0.934299  0.565701  0.565701  1
  Tb  Tb7  1  0.565701  0.934299  0.934299  1
  Tb  Tb8  1  0.565701  0.934299  0.565701  1
  Tb  Tb9  1  0.934299  0.565701  0.934299  1
  Tb  Tb10  1  0.565701  0.565701  0.934299  1
  Tb  Tb11  1  0.934299  0.934299  0.565701  1
  Th  Th12  1  0.353201  0.353201  0.353201  1
  Th  Th13  1  0.353201  0.353201  0.940399  1
  Th  Th14  1  0.353201  0.940399  0.353201  1
  Th  Th15  1  0.940399  0.353201  0.353201  1
  Zn  Zn16  1  0.581039  0.581039  0.581039  1
  Zn  Zn17  1  0.581039  0.581039  0.256884  1
  Zn  Zn18  1  0.581039  0.256884  0.581039  1
  Zn  Zn19  1  0.256884  0.581039  0.581039  1
  Rh  Rh20  1  0.144761  0.144761  0.144761  1
  Rh  Rh21  1  0.144761  0.144761  0.565716  1
  Rh  Rh22  1  0.144761  0.565716  0.144761  1
  Rh  Rh23  1  0.565716  0.144761  0.144761  1
