# generated using pymatgen
data_MgCrP4Ru5
_symmetry_space_group_name_H-M   'P 1'
_cell_length_a   7.13122300
_cell_length_b   7.05302307
_cell_length_c   3.51342400
_cell_angle_alpha   90.00000000
_cell_angle_beta   90.00000000
_cell_angle_gamma   120.36745689
_symmetry_Int_Tables_number   1
_chemical_formula_structural   MgCrP4Ru5
_chemical_formula_sum   'Mg1 Cr1 P4 Ru5'
_cell_volume   152.46863061
_cell_formula_units_Z   1
loop_
 _symmetry_equiv_pos_site_id
 _symmetry_equiv_pos_as_xyz
  1  'x, y, z'
loop_
 _atom_site_type_symbol
 _atom_site_label
 _atom_site_symmetry_multiplicity
 _atom_site_fract_x
 _atom_site_fract_y
 _atom_site_fract_z
 _atom_site_occupancy
  Mg  Mg0  1  0.998958  0.997916  0.000000  1
  Cr  Cr1  1  0.462363  0.924724  0.000000  1
  P  P2  1  0.184485  0.368970  0.500000  1
  P  P3  1  0.633854  0.811736  0.500000  1
  P  P4  1  0.177881  0.811736  0.500000  1
  P  P5  1  0.668440  0.336878  0.000000  1
  Ru  Ru6  1  0.800932  0.601863  0.500000  1
  Ru  Ru7  1  0.391079  0.190765  0.500000  1
  Ru  Ru8  1  0.799686  0.190765  0.500000  1
  Ru  Ru9  1  0.083287  0.548990  0.000000  1
  Ru  Ru10  1  0.465705  0.548990  0.000000  1
