# generated using pymatgen
data_Dy7Tm(Si4W3)4
_symmetry_space_group_name_H-M   'P 1'
_cell_length_a   6.77119564
_cell_length_b   6.93521846
_cell_length_c   12.89969421
_cell_angle_alpha   90.03893506
_cell_angle_beta   89.98614035
_cell_angle_gamma   90.01841330
_symmetry_Int_Tables_number   1
_chemical_formula_structural   Dy7Tm(Si4W3)4
_chemical_formula_sum   'Dy7 Tm1 Si16 W12'
_cell_volume   605.76585245
_cell_formula_units_Z   1
loop_
 _symmetry_equiv_pos_site_id
 _symmetry_equiv_pos_as_xyz
  1  'x, y, z'
loop_
 _atom_site_type_symbol
 _atom_site_label
 _atom_site_symmetry_multiplicity
 _atom_site_fract_x
 _atom_site_fract_y
 _atom_site_fract_z
 _atom_site_occupancy
  Dy  Dy0  1  0.495230  0.667604  0.593317  1
  Dy  Dy1  1  0.995458  0.832418  0.906772  1
  Dy  Dy2  1  0.504916  0.332460  0.093475  1
  Dy  Dy3  1  0.004408  0.168060  0.407310  1
  Dy  Dy4  1  0.504273  0.332023  0.407369  1
  Dy  Dy5  1  0.004542  0.167757  0.093461  1
  Dy  Dy6  1  0.495222  0.667816  0.905766  1
  Tm  Tm7  1  0.993971  0.831568  0.593407  1
  Si  Si8  1  0.662101  0.957454  0.453902  1
  Si  Si9  1  0.161896  0.542453  0.046841  1
  Si  Si10  1  0.338883  0.042936  0.952532  1
  Si  Si11  1  0.838600  0.458611  0.547159  1
  Si  Si12  1  0.336079  0.041205  0.547092  1
  Si  Si13  1  0.838162  0.457288  0.952757  1
  Si  Si14  1  0.661575  0.957120  0.046916  1
  Si  Si15  1  0.161790  0.543542  0.453791  1
  Si  Si16  1  0.463428  0.370130  0.749752  1
  Si  Si17  1  0.964044  0.128002  0.748998  1
  Si  Si18  1  0.536930  0.629575  0.250326  1
  Si  Si19  1  0.036760  0.870970  0.250246  1
  Si  Si20  1  0.697911  0.866378  0.749323  1
  Si  Si21  1  0.195596  0.634115  0.749188  1
  Si  Si22  1  0.303154  0.133604  0.250385  1
  Si  Si23  1  0.803465  0.367027  0.250680  1
  W  W24  1  0.667699  0.163092  0.625533  1
  W  W25  1  0.166966  0.336077  0.873536  1
  W  W26  1  0.332454  0.836814  0.125581  1
  W  W27  1  0.832818  0.664443  0.375020  1
  W  W28  1  0.332381  0.836573  0.374481  1
  W  W29  1  0.832827  0.663781  0.125915  1
  W  W30  1  0.668577  0.162975  0.873943  1
  W  W31  1  0.167862  0.336449  0.625357  1
  W  W32  1  0.833740  0.499355  0.749551  1
  W  W33  1  0.333745  0.999874  0.749294  1
  W  W34  1  0.166487  0.501141  0.250397  1
  W  W35  1  0.666050  0.999309  0.250629  1
