# generated using pymatgen
data_DyHoGe2(Ru2C)2
_symmetry_space_group_name_H-M   'P 1'
_cell_length_a   5.92324684
_cell_length_b   5.92324608
_cell_length_c   7.28069200
_cell_angle_alpha   90.00000000
_cell_angle_beta   90.00000000
_cell_angle_gamma   141.72780758
_symmetry_Int_Tables_number   1
_chemical_formula_structural   DyHoGe2(Ru2C)2
_chemical_formula_sum   'Dy1 Ho1 Ge2 Ru4 C2'
_cell_volume   158.22026993
_cell_formula_units_Z   1
loop_
 _symmetry_equiv_pos_site_id
 _symmetry_equiv_pos_as_xyz
  1  'x, y, z'
loop_
 _atom_site_type_symbol
 _atom_site_label
 _atom_site_symmetry_multiplicity
 _atom_site_fract_x
 _atom_site_fract_y
 _atom_site_fract_z
 _atom_site_occupancy
  Dy  Dy0  1  0.454219  0.545781  0.750000  1
  Ho  Ho1  1  0.545683  0.454317  0.250000  1
  Ge  Ge2  1  0.266762  0.733238  0.250000  1
  Ge  Ge3  1  0.733124  0.266876  0.750000  1
  Ru  Ru4  1  0.838244  0.161756  0.057025  1
  Ru  Ru5  1  0.161792  0.838208  0.943550  1
  Ru  Ru6  1  0.161792  0.838208  0.556450  1
  Ru  Ru7  1  0.838244  0.161756  0.442975  1
  C  C8  1  0.000070  0.999930  0.000657  1
  C  C9  1  0.000070  0.999930  0.499343  1
