# generated using pymatgen
data_TbY2GaSn3Rh2
_symmetry_space_group_name_H-M   'P 1'
_cell_length_a   7.47335555
_cell_length_b   7.47660419
_cell_length_c   4.09298800
_cell_angle_alpha   90.00000000
_cell_angle_beta   90.00000000
_cell_angle_gamma   120.02974496
_symmetry_Int_Tables_number   1
_chemical_formula_structural   TbY2GaSn3Rh2
_chemical_formula_sum   'Tb1 Y2 Ga1 Sn3 Rh2'
_cell_volume   197.99803883
_cell_formula_units_Z   1
loop_
 _symmetry_equiv_pos_site_id
 _symmetry_equiv_pos_as_xyz
  1  'x, y, z'
loop_
 _atom_site_type_symbol
 _atom_site_label
 _atom_site_symmetry_multiplicity
 _atom_site_fract_x
 _atom_site_fract_y
 _atom_site_fract_z
 _atom_site_occupancy
  Tb  Tb0  1  0.410398  0.011485  0.500000  1
  Y  Y1  1  0.989294  0.399065  0.500000  1
  Y  Y2  1  0.601034  0.590012  0.500000  1
  Ga  Ga3  1  0.333130  0.666440  0.000000  1
  Sn  Sn4  1  0.748605  0.006165  0.000000  1
  Sn  Sn5  1  0.993730  0.742108  0.000000  1
  Sn  Sn6  1  0.257535  0.251803  0.000000  1
  Rh  Rh7  1  0.666203  0.332932  0.000000  1
  Rh  Rh8  1  0.000073  0.999988  0.500000  1
