# generated using pymatgen
data_CaScB6Ru
_symmetry_space_group_name_H-M   'P 1'
_cell_length_a   3.54930400
_cell_length_b   9.00554800
_cell_length_c   11.38894900
_cell_angle_alpha   90.00000000
_cell_angle_beta   90.00000000
_cell_angle_gamma   90.00000000
_symmetry_Int_Tables_number   1
_chemical_formula_structural   CaScB6Ru
_chemical_formula_sum   'Ca4 Sc4 B24 Ru4'
_cell_volume   364.02984610
_cell_formula_units_Z   4
loop_
 _symmetry_equiv_pos_site_id
 _symmetry_equiv_pos_as_xyz
  1  'x, y, z'
loop_
 _atom_site_type_symbol
 _atom_site_label
 _atom_site_symmetry_multiplicity
 _atom_site_fract_x
 _atom_site_fract_y
 _atom_site_fract_z
 _atom_site_occupancy
  Ca  Ca0  1  0.000000  0.323116  0.415795  1
  Ca  Ca1  1  0.000000  0.676884  0.584205  1
  Ca  Ca2  1  0.000000  0.823116  0.084205  1
  Ca  Ca3  1  0.000000  0.176884  0.915795  1
  Sc  Sc4  1  0.000000  0.943442  0.367663  1
  Sc  Sc5  1  0.000000  0.056558  0.632337  1
  Sc  Sc6  1  0.000000  0.443442  0.132337  1
  Sc  Sc7  1  0.000000  0.556558  0.867663  1
  B  B8  1  0.500000  0.555196  0.431857  1
  B  B9  1  0.500000  0.444804  0.568143  1
  B  B10  1  0.500000  0.055196  0.068143  1
  B  B11  1  0.500000  0.944804  0.931857  1
  B  B12  1  0.500000  0.753607  0.416454  1
  B  B13  1  0.500000  0.246393  0.583546  1
  B  B14  1  0.500000  0.253607  0.083546  1
  B  B15  1  0.500000  0.746393  0.916454  1
  B  B16  1  0.500000  0.795168  0.263904  1
  B  B17  1  0.500000  0.204832  0.736096  1
  B  B18  1  0.500000  0.295168  0.236096  1
  B  B19  1  0.500000  0.704832  0.763904  1
  B  B20  1  0.500000  0.630027  0.182755  1
  B  B21  1  0.500000  0.369973  0.817245  1
  B  B22  1  0.500000  0.130027  0.317245  1
  B  B23  1  0.500000  0.869973  0.682755  1
  B  B24  1  0.500000  0.983124  0.213055  1
  B  B25  1  0.500000  0.016876  0.786945  1
  B  B26  1  0.500000  0.483124  0.286945  1
  B  B27  1  0.500000  0.516876  0.713055  1
  B  B28  1  0.500000  0.593856  0.024998  1
  B  B29  1  0.500000  0.406144  0.975002  1
  B  B30  1  0.500000  0.093856  0.475002  1
  B  B31  1  0.500000  0.906144  0.524998  1
  Ru  Ru32  1  0.000000  0.642067  0.316591  1
  Ru  Ru33  1  0.000000  0.357933  0.683409  1
  Ru  Ru34  1  0.000000  0.142067  0.183409  1
  Ru  Ru35  1  0.000000  0.857933  0.816591  1
