# generated using pymatgen
data_Na3LuF6
_symmetry_space_group_name_H-M   'P 1'
_cell_length_a   5.95130300
_cell_length_b   5.75357199
_cell_length_c   10.09236904
_cell_angle_alpha   55.96218271
_cell_angle_beta   90.00000000
_cell_angle_gamma   90.00000000
_symmetry_Int_Tables_number   1
_chemical_formula_structural   Na3LuF6
_chemical_formula_sum   'Na6 Lu2 F12'
_cell_volume   286.36732593
_cell_formula_units_Z   2
loop_
 _symmetry_equiv_pos_site_id
 _symmetry_equiv_pos_as_xyz
  1  'x, y, z'
loop_
 _atom_site_type_symbol
 _atom_site_label
 _atom_site_symmetry_multiplicity
 _atom_site_fract_x
 _atom_site_fract_y
 _atom_site_fract_z
 _atom_site_occupancy
  Na  Na0  1  0.500000  0.500000  0.000000  1
  Na  Na1  1  0.000000  0.500000  0.500000  1
  Na  Na2  1  0.053597  0.731367  0.756437  1
  Na  Na3  1  0.946403  0.268633  0.243563  1
  Na  Na4  1  0.553597  0.268633  0.743563  1
  Na  Na5  1  0.446403  0.731367  0.256437  1
  Lu  Lu6  1  0.500000  0.000000  0.500000  1
  Lu  Lu7  1  0.000000  0.000000  0.000000  1
  F  F8  1  0.796954  0.752241  0.576731  1
  F  F9  1  0.203046  0.247759  0.423269  1
  F  F10  1  0.296954  0.247759  0.923269  1
  F  F11  1  0.703046  0.752241  0.076731  1
  F  F12  1  0.430408  0.893714  0.735211  1
  F  F13  1  0.569592  0.106286  0.264789  1
  F  F14  1  0.930408  0.106286  0.764789  1
  F  F15  1  0.069592  0.893714  0.235211  1
  F  F16  1  0.321415  0.635175  0.560451  1
  F  F17  1  0.678585  0.364825  0.439549  1
  F  F18  1  0.821415  0.364825  0.939549  1
  F  F19  1  0.178585  0.635175  0.060451  1
