# generated using pymatgen
data_La(FeBr4)3
_symmetry_space_group_name_H-M   'P 1'
_cell_length_a   10.75781700
_cell_length_b   10.75781655
_cell_length_c   19.12822100
_cell_angle_alpha   90.00000000
_cell_angle_beta   90.00000000
_cell_angle_gamma   120.00000447
_symmetry_Int_Tables_number   1
_chemical_formula_structural   La(FeBr4)3
_chemical_formula_sum   'La3 Fe9 Br36'
_cell_volume   1917.13845784
_cell_formula_units_Z   3
loop_
 _symmetry_equiv_pos_site_id
 _symmetry_equiv_pos_as_xyz
  1  'x, y, z'
loop_
 _atom_site_type_symbol
 _atom_site_label
 _atom_site_symmetry_multiplicity
 _atom_site_fract_x
 _atom_site_fract_y
 _atom_site_fract_z
 _atom_site_occupancy
  La  La0  1  0.000000  0.728067  0.666667  1
  La  La1  1  0.271933  0.271933  0.000000  1
  La  La2  1  0.728067  0.000000  0.333333  1
  Fe  Fe3  1  0.368193  0.670150  0.053606  1
  Fe  Fe4  1  0.670150  0.368193  0.946394  1
  Fe  Fe5  1  0.329850  0.698043  0.386939  1
  Fe  Fe6  1  0.900014  0.900014  0.500000  1
  Fe  Fe7  1  0.698043  0.329850  0.613061  1
  Fe  Fe8  1  0.099986  0.000000  0.833333  1
  Fe  Fe9  1  0.301957  0.631807  0.720273  1
  Fe  Fe10  1  0.631807  0.301957  0.279727  1
  Fe  Fe11  1  0.000000  0.099986  0.166667  1
  Br  Br12  1  0.863479  0.579044  0.984338  1
  Br  Br13  1  0.420956  0.284435  0.317671  1
  Br  Br14  1  0.207123  0.971469  0.935672  1
  Br  Br15  1  0.079867  0.584560  0.777991  1
  Br  Br16  1  0.579044  0.863479  0.015662  1
  Br  Br17  1  0.497240  0.775143  0.789080  1
  Br  Br18  1  0.495307  0.415440  0.888676  1
  Br  Br19  1  0.277903  0.502760  0.455747  1
  Br  Br20  1  0.504693  0.920133  0.444657  1
  Br  Br21  1  0.792877  0.764346  0.397661  1
  Br  Br22  1  0.584560  0.079867  0.222009  1
  Br  Br23  1  0.768253  0.290896  0.377697  1
  Br  Br24  1  0.477357  0.709104  0.288970  1
  Br  Br25  1  0.290896  0.768253  0.622303  1
  Br  Br26  1  0.235654  0.028531  0.730995  1
  Br  Br27  1  0.722097  0.224857  0.877586  1
  Br  Br28  1  0.764346  0.792877  0.602339  1
  Br  Br29  1  0.801695  0.876354  0.197142  1
  Br  Br30  1  0.925342  0.123646  0.469525  1
  Br  Br31  1  0.502760  0.277903  0.544253  1
  Br  Br32  1  0.715565  0.136521  0.651004  1
  Br  Br33  1  0.709104  0.477357  0.711030  1
  Br  Br34  1  0.775143  0.497240  0.210920  1
  Br  Br35  1  0.971469  0.207123  0.064328  1
  Br  Br36  1  0.415440  0.495307  0.111324  1
  Br  Br37  1  0.198305  0.074658  0.136192  1
  Br  Br38  1  0.920133  0.504693  0.555343  1
  Br  Br39  1  0.074658  0.198305  0.863808  1
  Br  Br40  1  0.136521  0.715565  0.348996  1
  Br  Br41  1  0.876354  0.801695  0.802858  1
  Br  Br42  1  0.123646  0.925342  0.530475  1
  Br  Br43  1  0.028531  0.235654  0.269005  1
  Br  Br44  1  0.284435  0.420956  0.682329  1
  Br  Br45  1  0.231747  0.522643  0.955636  1
  Br  Br46  1  0.224857  0.722097  0.122414  1
  Br  Br47  1  0.522643  0.231747  0.044364  1
