# generated using pymatgen
data_LiLa2ZnPdRh
_symmetry_space_group_name_H-M   'P 1'
_cell_length_a   4.08316000
_cell_length_b   7.57457920
_cell_length_c   16.94190404
_cell_angle_alpha   89.94718525
_cell_angle_beta   90.00000000
_cell_angle_gamma   90.00000000
_symmetry_Int_Tables_number   1
_chemical_formula_structural   LiLa2ZnPdRh
_chemical_formula_sum   'Li4 La8 Zn4 Pd4 Rh4'
_cell_volume   523.98269264
_cell_formula_units_Z   4
loop_
 _symmetry_equiv_pos_site_id
 _symmetry_equiv_pos_as_xyz
  1  'x, y, z'
loop_
 _atom_site_type_symbol
 _atom_site_label
 _atom_site_symmetry_multiplicity
 _atom_site_fract_x
 _atom_site_fract_y
 _atom_site_fract_z
 _atom_site_occupancy
  Li  Li0  1  0.750000  0.869532  0.852802  1
  Li  Li1  1  0.750000  0.008061  0.556053  1
  Li  Li2  1  0.750000  0.372822  0.647474  1
  Li  Li3  1  0.750000  0.510485  0.943343  1
  La  La4  1  0.750000  0.329765  0.437918  1
  La  La5  1  0.250000  0.033063  0.716579  1
  La  La6  1  0.250000  0.550644  0.779060  1
  La  La7  1  0.250000  0.678469  0.555765  1
  La  La8  1  0.750000  0.826807  0.066133  1
  La  La9  1  0.250000  0.175103  0.948351  1
  La  La10  1  0.750000  0.456643  0.213299  1
  La  La11  1  0.750000  0.943063  0.284018  1
  Zn  Zn12  1  0.250000  0.124655  0.149556  1
  Zn  Zn13  1  0.250000  0.994739  0.439976  1
  Zn  Zn14  1  0.250000  0.497018  0.059960  1
  Zn  Zn15  1  0.250000  0.627451  0.350701  1
  Pd  Pd16  1  0.750000  0.254018  0.812466  1
  Pd  Pd17  1  0.250000  0.244481  0.312445  1
  Pd  Pd18  1  0.250000  0.746507  0.937114  1
  Pd  Pd19  1  0.250000  0.244861  0.562803  1
  Rh  Rh20  1  0.250000  0.746310  0.185991  1
  Rh  Rh21  1  0.750000  0.754640  0.434361  1
  Rh  Rh22  1  0.750000  0.257457  0.065480  1
  Rh  Rh23  1  0.750000  0.753405  0.688354  1
