# generated using pymatgen
data_Li2Nd2Th(AgSn2)2
_symmetry_space_group_name_H-M   'P 1'
_cell_length_a   8.87788314
_cell_length_b   8.87788361
_cell_length_c   8.87788375
_cell_angle_alpha   149.45733965
_cell_angle_beta   130.69423919
_cell_angle_gamma   59.11789667
_symmetry_Int_Tables_number   1
_chemical_formula_structural   Li2Nd2Th(AgSn2)2
_chemical_formula_sum   'Li2 Nd2 Th1 Ag2 Sn4'
_cell_volume   267.48083357
_cell_formula_units_Z   1
loop_
 _symmetry_equiv_pos_site_id
 _symmetry_equiv_pos_as_xyz
  1  'x, y, z'
loop_
 _atom_site_type_symbol
 _atom_site_label
 _atom_site_symmetry_multiplicity
 _atom_site_fract_x
 _atom_site_fract_y
 _atom_site_fract_z
 _atom_site_occupancy
  Li  Li0  1  0.484983  0.672561  0.812423  1
  Li  Li1  1  0.860138  0.672561  0.187577  1
  Nd  Nd2  1  0.496372  0.996372  0.500000  1
  Nd  Nd3  1  0.127400  0.127400  0.000000  1
  Th  Th4  1  0.873480  0.873480  0.000000  1
  Ag  Ag5  1  0.130185  0.328745  0.801441  1
  Ag  Ag6  1  0.527305  0.328745  0.198559  1
  Sn  Sn7  1  0.281114  0.781114  0.500000  1
  Sn  Sn8  1  0.712732  0.212732  0.500000  1
  Sn  Sn9  1  0.806892  0.503146  0.303747  1
  Sn  Sn10  1  0.199399  0.503146  0.696253  1
