# generated using pymatgen
data_Cs12ScGa(FeS6)2
_symmetry_space_group_name_H-M   'P 1'
_cell_length_a   10.66850435
_cell_length_b   10.66850530
_cell_length_c   13.71211577
_cell_angle_alpha   89.96294704
_cell_angle_beta   89.96295251
_cell_angle_gamma   139.12664558
_symmetry_Int_Tables_number   1
_chemical_formula_structural   Cs12ScGa(FeS6)2
_chemical_formula_sum   'Cs12 Sc1 Ga1 Fe2 S12'
_cell_volume   1021.28507723
_cell_formula_units_Z   1
loop_
 _symmetry_equiv_pos_site_id
 _symmetry_equiv_pos_as_xyz
  1  'x, y, z'
loop_
 _atom_site_type_symbol
 _atom_site_label
 _atom_site_symmetry_multiplicity
 _atom_site_fract_x
 _atom_site_fract_y
 _atom_site_fract_z
 _atom_site_occupancy
  Cs  Cs0  1  0.867356  0.866905  0.677902  1
  Cs  Cs1  1  0.133095  0.132644  0.322098  1
  Cs  Cs2  1  0.632540  0.629550  0.181064  1
  Cs  Cs3  1  0.370450  0.367460  0.818936  1
  Cs  Cs4  1  0.175909  0.534792  0.131878  1
  Cs  Cs5  1  0.465208  0.824091  0.868122  1
  Cs  Cs6  1  0.979110  0.335504  0.624720  1
  Cs  Cs7  1  0.664496  0.020890  0.375280  1
  Cs  Cs8  1  0.832136  0.478422  0.872908  1
  Cs  Cs9  1  0.521578  0.167864  0.127092  1
  Cs  Cs10  1  0.017085  0.662000  0.375177  1
  Cs  Cs11  1  0.338000  0.982915  0.624823  1
  Sc  Sc12  1  0.920313  0.079687  0.000000  1
  Ga  Ga13  1  0.420375  0.579625  0.500000  1
  Fe  Fe14  1  0.081273  0.918727  0.000000  1
  Fe  Fe15  1  0.578338  0.421662  0.500000  1
  S  S16  1  0.296855  0.296519  0.564760  1
  S  S17  1  0.703481  0.703145  0.435240  1
  S  S18  1  0.213538  0.202234  0.066364  1
  S  S19  1  0.797766  0.786462  0.933636  1
  S  S20  1  0.704582  0.000746  0.122164  1
  S  S21  1  0.999254  0.295418  0.877836  1
  S  S22  1  0.492321  0.780090  0.616787  1
  S  S23  1  0.219910  0.507679  0.383213  1
  S  S24  1  0.277202  0.988163  0.883826  1
  S  S25  1  0.011837  0.722798  0.116174  1
  S  S26  1  0.510006  0.224013  0.385645  1
  S  S27  1  0.775987  0.489994  0.614355  1
