# generated using pymatgen
data_TbDy5Ti2(Co4P3)4
_symmetry_space_group_name_H-M   'P 1'
_cell_length_a   3.70153500
_cell_length_b   10.61988700
_cell_length_c   12.30729100
_cell_angle_alpha   90.00000000
_cell_angle_beta   90.00000000
_cell_angle_gamma   90.00000000
_symmetry_Int_Tables_number   1
_chemical_formula_structural   TbDy5Ti2(Co4P3)4
_chemical_formula_sum   'Tb1 Dy5 Ti2 Co16 P12'
_cell_volume   483.79817451
_cell_formula_units_Z   1
loop_
 _symmetry_equiv_pos_site_id
 _symmetry_equiv_pos_as_xyz
  1  'x, y, z'
loop_
 _atom_site_type_symbol
 _atom_site_label
 _atom_site_symmetry_multiplicity
 _atom_site_fract_x
 _atom_site_fract_y
 _atom_site_fract_z
 _atom_site_occupancy
  Tb  Tb0  1  0.500000  0.000000  0.474967  1
  Dy  Dy1  1  0.000000  0.500000  0.525057  1
  Dy  Dy2  1  0.500000  0.819936  0.204345  1
  Dy  Dy3  1  0.500000  0.180064  0.204345  1
  Dy  Dy4  1  0.000000  0.680077  0.795625  1
  Dy  Dy5  1  0.000000  0.319923  0.795625  1
  Ti  Ti6  1  0.500000  0.500000  0.153160  1
  Ti  Ti7  1  0.000000  0.000000  0.846696  1
  Co  Co8  1  0.500000  0.500000  0.702507  1
  Co  Co9  1  0.000000  0.000000  0.297278  1
  Co  Co10  1  0.000000  0.500000  0.987096  1
  Co  Co11  1  0.500000  0.000000  0.012878  1
  Co  Co12  1  0.500000  0.332330  0.993907  1
  Co  Co13  1  0.500000  0.667670  0.993907  1
  Co  Co14  1  0.000000  0.167828  0.006043  1
  Co  Co15  1  0.000000  0.832172  0.006043  1
  Co  Co16  1  0.500000  0.295975  0.431781  1
  Co  Co17  1  0.500000  0.704025  0.431781  1
  Co  Co18  1  0.000000  0.204240  0.568359  1
  Co  Co19  1  0.000000  0.795760  0.568359  1
  Co  Co20  1  0.500000  0.878565  0.706247  1
  Co  Co21  1  0.500000  0.121435  0.706247  1
  Co  Co22  1  0.000000  0.621369  0.293771  1
  Co  Co23  1  0.000000  0.378631  0.293771  1
  P  P24  1  0.500000  0.500000  0.883133  1
  P  P25  1  0.000000  0.000000  0.116926  1
  P  P26  1  0.500000  0.500000  0.352697  1
  P  P27  1  0.000000  0.000000  0.647546  1
  P  P28  1  0.500000  0.310240  0.615685  1
  P  P29  1  0.500000  0.689760  0.615685  1
  P  P30  1  0.000000  0.189937  0.384209  1
  P  P31  1  0.000000  0.810063  0.384209  1
  P  P32  1  0.500000  0.842869  0.892335  1
  P  P33  1  0.500000  0.157131  0.892335  1
  P  P34  1  0.000000  0.657128  0.107721  1
  P  P35  1  0.000000  0.342872  0.107721  1
