# generated using pymatgen
data_KTlZn2S2(ClO4)2
_symmetry_space_group_name_H-M   'P 1'
_cell_length_a   9.79796700
_cell_length_b   7.35868170
_cell_length_c   8.36612000
_cell_angle_alpha   85.40004965
_cell_angle_beta   90.00000000
_cell_angle_gamma   90.00000000
_symmetry_Int_Tables_number   1
_chemical_formula_structural   KTlZn2S2(ClO4)2
_chemical_formula_sum   'K2 Tl2 Zn4 S4 Cl4 O16'
_cell_volume   601.25532653
_cell_formula_units_Z   2
loop_
 _symmetry_equiv_pos_site_id
 _symmetry_equiv_pos_as_xyz
  1  'x, y, z'
loop_
 _atom_site_type_symbol
 _atom_site_label
 _atom_site_symmetry_multiplicity
 _atom_site_fract_x
 _atom_site_fract_y
 _atom_site_fract_z
 _atom_site_occupancy
  K  K0  1  0.582009  0.367323  0.305495  1
  K  K1  1  0.082009  0.632677  0.194505  1
  Tl  Tl2  1  0.414461  0.622481  0.707135  1
  Tl  Tl3  1  0.914461  0.377519  0.792865  1
  Zn  Zn4  1  0.805139  0.903159  0.542109  1
  Zn  Zn5  1  0.195271  0.094671  0.458626  1
  Zn  Zn6  1  0.695271  0.905329  0.041374  1
  Zn  Zn7  1  0.305139  0.096841  0.957891  1
  S  S8  1  0.569238  0.104833  0.729757  1
  S  S9  1  0.431230  0.895610  0.267967  1
  S  S10  1  0.069238  0.895167  0.770243  1
  S  S11  1  0.931230  0.104390  0.232033  1
  Cl  Cl12  1  0.679038  0.622095  0.971159  1
  Cl  Cl13  1  0.822344  0.624496  0.461942  1
  Cl  Cl14  1  0.322344  0.375504  0.038058  1
  Cl  Cl15  1  0.179038  0.377905  0.528841  1
  O  O16  1  0.071950  0.036901  0.277810  1
  O  O17  1  0.571950  0.963099  0.222190  1
  O  O18  1  0.926411  0.955137  0.726822  1
  O  O19  1  0.426411  0.044863  0.773178  1
  O  O20  1  0.932733  0.285402  0.146388  1
  O  O21  1  0.432733  0.714598  0.353612  1
  O  O22  1  0.072241  0.716475  0.860694  1
  O  O23  1  0.572241  0.283525  0.639306  1
  O  O24  1  0.876344  0.960706  0.131352  1
  O  O25  1  0.652438  0.113973  0.880873  1
  O  O26  1  0.124003  0.042693  0.866567  1
  O  O27  1  0.624003  0.957307  0.633433  1
  O  O28  1  0.845150  0.112233  0.381412  1
  O  O29  1  0.345150  0.887767  0.118588  1
  O  O30  1  0.152438  0.886027  0.619127  1
  O  O31  1  0.376344  0.039294  0.368648  1
