# generated using pymatgen
data_Ho7TmIn4AgAu7
_symmetry_space_group_name_H-M   'P 1'
_cell_length_a   8.01443524
_cell_length_b   8.01269058
_cell_length_c   7.31305124
_cell_angle_alpha   89.97582403
_cell_angle_beta   89.98375578
_cell_angle_gamma   89.88871760
_symmetry_Int_Tables_number   1
_chemical_formula_structural   Ho7TmIn4AgAu7
_chemical_formula_sum   'Ho7 Tm1 In4 Ag1 Au7'
_cell_volume   469.62265259
_cell_formula_units_Z   1
loop_
 _symmetry_equiv_pos_site_id
 _symmetry_equiv_pos_as_xyz
  1  'x, y, z'
loop_
 _atom_site_type_symbol
 _atom_site_label
 _atom_site_symmetry_multiplicity
 _atom_site_fract_x
 _atom_site_fract_y
 _atom_site_fract_z
 _atom_site_occupancy
  Ho  Ho0  1  0.838250  0.158515  0.497952  1
  Ho  Ho1  1  0.157926  0.838726  0.497938  1
  Ho  Ho2  1  0.343175  0.342781  0.002325  1
  Ho  Ho3  1  0.660647  0.660334  0.999200  1
  Ho  Ho4  1  0.680390  0.679498  0.500412  1
  Ho  Ho5  1  0.322697  0.321791  0.497654  1
  Ho  Ho6  1  0.178190  0.817892  0.001770  1
  Tm  Tm7  1  0.817904  0.177802  0.002001  1
  In  In8  1  0.499447  0.999750  0.249907  1
  In  In9  1  0.000552  0.497378  0.750110  1
  In  In10  1  0.497829  0.000675  0.749893  1
  In  In11  1  0.999605  0.499047  0.249952  1
  Ag  Ag12  1  0.128480  0.130060  0.774461  1
  Au  Au13  1  0.630183  0.371300  0.268417  1
  Au  Au14  1  0.372200  0.629269  0.270571  1
  Au  Au15  1  0.873149  0.874737  0.770182  1
  Au  Au16  1  0.371313  0.628975  0.729290  1
  Au  Au17  1  0.630018  0.370250  0.731508  1
  Au  Au18  1  0.870086  0.871622  0.228816  1
  Au  Au19  1  0.127960  0.129599  0.227641  1
