# generated using pymatgen
data_Yb3ZrGa14(Si2Ir3)2
_symmetry_space_group_name_H-M   'P 1'
_cell_length_a   7.51886615
_cell_length_b   7.48090684
_cell_length_c   9.44906399
_cell_angle_alpha   90.03237184
_cell_angle_beta   89.99236411
_cell_angle_gamma   120.24553849
_symmetry_Int_Tables_number   1
_chemical_formula_structural   Yb3ZrGa14(Si2Ir3)2
_chemical_formula_sum   'Yb3 Zr1 Ga14 Si4 Ir6'
_cell_volume   459.14100896
_cell_formula_units_Z   1
loop_
 _symmetry_equiv_pos_site_id
 _symmetry_equiv_pos_as_xyz
  1  'x, y, z'
loop_
 _atom_site_type_symbol
 _atom_site_label
 _atom_site_symmetry_multiplicity
 _atom_site_fract_x
 _atom_site_fract_y
 _atom_site_fract_z
 _atom_site_occupancy
  Yb  Yb0  1  0.003581  0.338488  0.749939  1
  Yb  Yb1  1  0.668799  0.001933  0.250069  1
  Yb  Yb2  1  0.326714  0.995289  0.749952  1
  Zr  Zr3  1  0.999511  0.666438  0.249994  1
  Ga  Ga4  1  0.128893  0.126012  0.249929  1
  Ga  Ga5  1  0.873146  0.868911  0.749961  1
  Ga  Ga6  1  0.997537  0.327183  0.419263  1
  Ga  Ga7  1  0.670698  0.002130  0.581063  1
  Ga  Ga8  1  0.664047  0.000674  0.919066  1
  Ga  Ga9  1  0.338814  0.001404  0.082067  1
  Ga  Ga10  1  0.331759  0.333233  0.572775  1
  Ga  Ga11  1  0.664512  0.670163  0.425176  1
  Ga  Ga12  1  0.663094  0.670270  0.074539  1
  Ga  Ga13  1  0.335125  0.329920  0.927129  1
  Ga  Ga14  1  0.332828  0.547849  0.250410  1
  Ga  Ga15  1  0.665548  0.456456  0.750881  1
  Ga  Ga16  1  0.549749  0.341050  0.249590  1
  Ga  Ga17  1  0.450182  0.662772  0.749214  1
  Si  Si18  1  0.000275  0.330703  0.073661  1
  Si  Si19  1  0.999611  0.671320  0.937567  1
  Si  Si20  1  0.995759  0.660372  0.562395  1
  Si  Si21  1  0.336003  0.001430  0.425405  1
  Ir  Ir22  1  0.695300  0.343899  0.004397  1
  Ir  Ir23  1  0.305303  0.657864  0.000184  1
  Ir  Ir24  1  0.317804  0.680179  0.497083  1
  Ir  Ir25  1  0.672831  0.331521  0.498029  1
  Ir  Ir26  1  0.000099  0.997379  0.002623  1
  Ir  Ir27  1  0.012473  0.985158  0.497640  1
