# generated using pymatgen
data_ErTh3Pd11Pt
_symmetry_space_group_name_H-M   'P 1'
_cell_length_a   5.91735480
_cell_length_b   5.91735447
_cell_length_c   9.73471555
_cell_angle_alpha   89.84048823
_cell_angle_beta   90.15951341
_cell_angle_gamma   120.01638475
_symmetry_Int_Tables_number   1
_chemical_formula_structural   ErTh3Pd11Pt
_chemical_formula_sum   'Er1 Th3 Pd11 Pt1'
_cell_volume   295.14479109
_cell_formula_units_Z   1
loop_
 _symmetry_equiv_pos_site_id
 _symmetry_equiv_pos_as_xyz
  1  'x, y, z'
loop_
 _atom_site_type_symbol
 _atom_site_label
 _atom_site_symmetry_multiplicity
 _atom_site_fract_x
 _atom_site_fract_y
 _atom_site_fract_z
 _atom_site_occupancy
  Er  Er0  1  0.333697  0.666303  0.250321  1
  Th  Th1  1  0.999977  0.000023  0.494996  1
  Th  Th2  1  0.000006  0.999994  0.005214  1
  Th  Th3  1  0.666392  0.333608  0.749828  1
  Pd  Pd4  1  0.499518  0.998889  0.498531  1
  Pd  Pd5  1  0.001111  0.500482  0.498531  1
  Pd  Pd6  1  0.499500  0.500500  0.001464  1
  Pd  Pd7  1  0.499449  0.998950  0.001507  1
  Pd  Pd8  1  0.001050  0.500551  0.001507  1
  Pd  Pd9  1  0.825176  0.650077  0.249636  1
  Pd  Pd10  1  0.349923  0.174824  0.249636  1
  Pd  Pd11  1  0.825411  0.174589  0.249254  1
  Pd  Pd12  1  0.173732  0.348035  0.750303  1
  Pd  Pd13  1  0.651965  0.826268  0.750303  1
  Pd  Pd14  1  0.173617  0.826383  0.750706  1
  Pt  Pt15  1  0.499479  0.500521  0.498262  1
