# generated using pymatgen
data_DyY2Ho(ReB6)2
_symmetry_space_group_name_H-M   'P 1'
_cell_length_a   3.68437000
_cell_length_b   9.18458201
_cell_length_c   11.57495702
_cell_angle_alpha   90.00623761
_cell_angle_beta   90.00000000
_cell_angle_gamma   90.00000000
_symmetry_Int_Tables_number   1
_chemical_formula_structural   DyY2Ho(ReB6)2
_chemical_formula_sum   'Dy2 Y4 Ho2 Re4 B24'
_cell_volume   391.68958003
_cell_formula_units_Z   2
loop_
 _symmetry_equiv_pos_site_id
 _symmetry_equiv_pos_as_xyz
  1  'x, y, z'
loop_
 _atom_site_type_symbol
 _atom_site_label
 _atom_site_symmetry_multiplicity
 _atom_site_fract_x
 _atom_site_fract_y
 _atom_site_fract_z
 _atom_site_occupancy
  Dy  Dy0  1  0.000000  0.943197  0.370029  1
  Dy  Dy1  1  0.000000  0.056803  0.629971  1
  Y  Y2  1  0.000000  0.323543  0.413977  1
  Y  Y3  1  0.000000  0.676457  0.586023  1
  Y  Y4  1  0.000000  0.823449  0.085980  1
  Y  Y5  1  0.000000  0.176551  0.914020  1
  Ho  Ho6  1  0.000000  0.443223  0.129927  1
  Ho  Ho7  1  0.000000  0.556777  0.870073  1
  Re  Re8  1  0.000000  0.638573  0.320513  1
  Re  Re9  1  0.000000  0.361427  0.679487  1
  Re  Re10  1  0.000000  0.138973  0.179278  1
  Re  Re11  1  0.000000  0.861027  0.820722  1
  B  B12  1  0.500000  0.553439  0.432676  1
  B  B13  1  0.500000  0.446561  0.567324  1
  B  B14  1  0.500000  0.053480  0.067299  1
  B  B15  1  0.500000  0.946520  0.932701  1
  B  B16  1  0.500000  0.749115  0.418367  1
  B  B17  1  0.500000  0.250885  0.581633  1
  B  B18  1  0.500000  0.249377  0.081627  1
  B  B19  1  0.500000  0.750623  0.918373  1
  B  B20  1  0.500000  0.791984  0.265632  1
  B  B21  1  0.500000  0.208016  0.734368  1
  B  B22  1  0.500000  0.292247  0.234293  1
  B  B23  1  0.500000  0.707753  0.765707  1
  B  B24  1  0.500000  0.630673  0.185721  1
  B  B25  1  0.500000  0.369327  0.814279  1
  B  B26  1  0.500000  0.130906  0.314142  1
  B  B27  1  0.500000  0.869094  0.685858  1
  B  B28  1  0.500000  0.982597  0.212032  1
  B  B29  1  0.500000  0.017403  0.787968  1
  B  B30  1  0.500000  0.482459  0.287814  1
  B  B31  1  0.500000  0.517541  0.712186  1
  B  B32  1  0.500000  0.599671  0.027877  1
  B  B33  1  0.500000  0.400329  0.972123  1
  B  B34  1  0.500000  0.099980  0.472049  1
  B  B35  1  0.500000  0.900020  0.527951  1
