# generated using pymatgen
data_AgOsCl6
_symmetry_space_group_name_H-M   'P 1'
_cell_length_a   6.69413376
_cell_length_b   6.69413341
_cell_length_c   6.72075705
_cell_angle_alpha   80.58592398
_cell_angle_beta   80.58592754
_cell_angle_gamma   119.91802523
_symmetry_Int_Tables_number   1
_chemical_formula_structural   AgOsCl6
_chemical_formula_sum   'Ag1 Os1 Cl6'
_cell_volume   246.70692474
_cell_formula_units_Z   1
loop_
 _symmetry_equiv_pos_site_id
 _symmetry_equiv_pos_as_xyz
  1  'x, y, z'
loop_
 _atom_site_type_symbol
 _atom_site_label
 _atom_site_symmetry_multiplicity
 _atom_site_fract_x
 _atom_site_fract_y
 _atom_site_fract_z
 _atom_site_occupancy
  Ag  Ag0  1  0.166792  0.833208  0.000000  1
  Os  Os1  1  0.833240  0.166760  0.000000  1
  Cl  Cl2  1  0.478954  0.092661  0.212863  1
  Cl  Cl3  1  0.907339  0.521046  0.787137  1
  Cl  Cl4  1  0.182951  0.230594  0.786726  1
  Cl  Cl5  1  0.769406  0.817049  0.213274  1
  Cl  Cl6  1  0.045716  0.384396  0.211192  1
  Cl  Cl7  1  0.615604  0.954284  0.788808  1
