# generated using pymatgen
data_Sc3Nb2Si7Pt9
_symmetry_space_group_name_H-M   'P 1'
_cell_length_a   9.92139384
_cell_length_b   9.87114080
_cell_length_c   3.94878100
_cell_angle_alpha   90.00000000
_cell_angle_beta   90.00000000
_cell_angle_gamma   119.62738573
_symmetry_Int_Tables_number   1
_chemical_formula_structural   Sc3Nb2Si7Pt9
_chemical_formula_sum   'Sc3 Nb2 Si7 Pt9'
_cell_volume   336.16473400
_cell_formula_units_Z   1
loop_
 _symmetry_equiv_pos_site_id
 _symmetry_equiv_pos_as_xyz
  1  'x, y, z'
loop_
 _atom_site_type_symbol
 _atom_site_label
 _atom_site_symmetry_multiplicity
 _atom_site_fract_x
 _atom_site_fract_y
 _atom_site_fract_z
 _atom_site_occupancy
  Sc  Sc0  1  0.898851  0.772509  0.499998  1
  Sc  Sc1  1  0.337630  0.666405  0.000000  1
  Sc  Sc2  1  0.665181  0.332338  0.499998  1
  Nb  Nb3  1  0.219001  0.128486  0.499998  1
  Nb  Nb4  1  0.878630  0.097820  0.499998  1
  Si  Si5  1  0.285981  0.416586  0.499998  1
  Si  Si6  1  0.591196  0.878135  0.499998  1
  Si  Si7  1  0.142107  0.713202  0.499998  1
  Si  Si8  1  0.416168  0.114007  0.000000  1
  Si  Si9  1  0.882783  0.303328  0.000000  1
  Si  Si10  1  0.689169  0.574007  0.000000  1
  Si  Si11  1  0.003444  0.005322  0.000000  1
  Pt  Pt12  1  0.050599  0.444180  0.499998  1
  Pt  Pt13  1  0.552237  0.608777  0.499998  1
  Pt  Pt14  1  0.393443  0.947848  0.499998  1
  Pt  Pt15  1  0.123008  0.286258  0.000000  1
  Pt  Pt16  1  0.722241  0.838960  0.000000  1
  Pt  Pt17  1  0.157647  0.873618  0.000000  1
  Pt  Pt18  1  0.434903  0.359829  0.000000  1
  Pt  Pt19  1  0.637722  0.077544  0.000000  1
  Pt  Pt20  1  0.918058  0.560844  0.000000  1
