# generated using pymatgen
data_Cs4Ac3Pr(SiSe4)4
_symmetry_space_group_name_H-M   'P 1'
_cell_length_a   7.14857836
_cell_length_b   9.97900726
_cell_length_c   13.64076800
_cell_angle_alpha   71.32410148
_cell_angle_beta   90.01807380
_cell_angle_gamma   90.01777602
_symmetry_Int_Tables_number   1
_chemical_formula_structural   Cs4Ac3Pr(SiSe4)4
_chemical_formula_sum   'Cs4 Ac3 Pr1 Si4 Se16'
_cell_volume   921.83672415
_cell_formula_units_Z   1
loop_
 _symmetry_equiv_pos_site_id
 _symmetry_equiv_pos_as_xyz
  1  'x, y, z'
loop_
 _atom_site_type_symbol
 _atom_site_label
 _atom_site_symmetry_multiplicity
 _atom_site_fract_x
 _atom_site_fract_y
 _atom_site_fract_z
 _atom_site_occupancy
  Cs  Cs0  1  0.246848  0.433154  0.387234  1
  Cs  Cs1  1  0.749043  0.565145  0.116449  1
  Cs  Cs2  1  0.753268  0.566955  0.610554  1
  Cs  Cs3  1  0.253536  0.433355  0.888450  1
  Ac  Ac4  1  0.707999  0.044965  0.135842  1
  Ac  Ac5  1  0.790708  0.046149  0.634256  1
  Ac  Ac6  1  0.289497  0.952190  0.866106  1
  Pr  Pr7  1  0.201800  0.955767  0.364269  1
  Si  Si8  1  0.744204  0.177526  0.350654  1
  Si  Si9  1  0.242489  0.820175  0.153745  1
  Si  Si10  1  0.256729  0.821192  0.646348  1
  Si  Si11  1  0.756724  0.181556  0.848716  1
  Se  Se12  1  0.025632  0.216529  0.751898  1
  Se  Se13  1  0.775194  0.941115  0.442019  1
  Se  Se14  1  0.516024  0.222264  0.731515  1
  Se  Se15  1  0.739182  0.943241  0.940915  1
  Se  Se16  1  0.752825  0.324921  0.446589  1
  Se  Se17  1  0.976096  0.786577  0.251796  1
  Se  Se18  1  0.256495  0.674102  0.056621  1
  Se  Se19  1  0.240540  0.057131  0.550787  1
  Se  Se20  1  0.746773  0.325029  0.947563  1
  Se  Se21  1  0.475494  0.782682  0.274815  1
  Se  Se22  1  0.019001  0.777687  0.765814  1
  Se  Se23  1  0.244327  0.683391  0.543786  1
  Se  Se24  1  0.471165  0.207148  0.257106  1
  Se  Se25  1  0.984363  0.219260  0.232926  1
  Se  Se26  1  0.523292  0.784212  0.745289  1
  Se  Se27  1  0.260754  0.056578  0.057938  1
