# generated using pymatgen
data_Dy9Y7Cd4OsPt3
_symmetry_space_group_name_H-M   'P 1'
_cell_length_a   9.70370532
_cell_length_b   9.70370555
_cell_length_c   9.70249748
_cell_angle_alpha   59.58559595
_cell_angle_beta   59.58560165
_cell_angle_gamma   59.64866463
_symmetry_Int_Tables_number   1
_chemical_formula_structural   Dy9Y7Cd4OsPt3
_chemical_formula_sum   'Dy9 Y7 Cd4 Os1 Pt3'
_cell_volume   640.24034786
_cell_formula_units_Z   1
loop_
 _symmetry_equiv_pos_site_id
 _symmetry_equiv_pos_as_xyz
  1  'x, y, z'
loop_
 _atom_site_type_symbol
 _atom_site_label
 _atom_site_symmetry_multiplicity
 _atom_site_fract_x
 _atom_site_fract_y
 _atom_site_fract_z
 _atom_site_occupancy
  Dy  Dy0  1  0.351651  0.351651  0.351611  1
  Dy  Dy1  1  0.349690  0.349690  0.948260  1
  Dy  Dy2  1  0.349493  0.948471  0.349579  1
  Dy  Dy3  1  0.948471  0.349493  0.349579  1
  Dy  Dy4  1  0.814580  0.188985  0.188950  1
  Dy  Dy5  1  0.189034  0.809730  0.809915  1
  Dy  Dy6  1  0.188985  0.814580  0.188950  1
  Dy  Dy7  1  0.809730  0.189034  0.809915  1
  Dy  Dy8  1  0.188976  0.188976  0.814667  1
  Y  Y9  1  0.809585  0.809585  0.189176  1
  Y  Y10  1  0.935882  0.564865  0.565069  1
  Y  Y11  1  0.558536  0.937757  0.937612  1
  Y  Y12  1  0.564865  0.935882  0.565069  1
  Y  Y13  1  0.937757  0.558536  0.937612  1
  Y  Y14  1  0.564855  0.564855  0.936028  1
  Y  Y15  1  0.937741  0.937741  0.558588  1
  Cd  Cd16  1  0.580550  0.580550  0.580385  1
  Cd  Cd17  1  0.581222  0.581222  0.254521  1
  Cd  Cd18  1  0.581095  0.254584  0.581192  1
  Cd  Cd19  1  0.254584  0.581095  0.581192  1
  Os  Os20  1  0.143168  0.143168  0.143168  1
  Pt  Pt21  1  0.143405  0.143405  0.572377  1
  Pt  Pt22  1  0.144407  0.571742  0.143294  1
  Pt  Pt23  1  0.571742  0.144407  0.143294  1
