# generated using pymatgen
data_HfZr3Nb2(Si2W)2
_symmetry_space_group_name_H-M   'P 1'
_cell_length_a   3.57940500
_cell_length_b   7.00846600
_cell_length_c   8.38484000
_cell_angle_alpha   90.00383315
_cell_angle_beta   90.00000000
_cell_angle_gamma   90.00000000
_symmetry_Int_Tables_number   1
_chemical_formula_structural   HfZr3Nb2(Si2W)2
_chemical_formula_sum   'Hf1 Zr3 Nb2 Si4 W2'
_cell_volume   210.34325515
_cell_formula_units_Z   1
loop_
 _symmetry_equiv_pos_site_id
 _symmetry_equiv_pos_as_xyz
  1  'x, y, z'
loop_
 _atom_site_type_symbol
 _atom_site_label
 _atom_site_symmetry_multiplicity
 _atom_site_fract_x
 _atom_site_fract_y
 _atom_site_fract_z
 _atom_site_occupancy
  Hf  Hf0  1  0.250000  0.043109  0.333624  1
  Zr  Zr1  1  0.250000  0.542499  0.166634  1
  Zr  Zr2  1  0.750000  0.459134  0.831882  1
  Zr  Zr3  1  0.750000  0.959334  0.667170  1
  Nb  Nb4  1  0.250000  0.631398  0.558852  1
  Nb  Nb5  1  0.250000  0.131086  0.941237  1
  Si  Si6  1  0.250000  0.756179  0.864540  1
  Si  Si7  1  0.250000  0.256189  0.635221  1
  Si  Si8  1  0.750000  0.242410  0.143665  1
  Si  Si9  1  0.750000  0.744156  0.357038  1
  W  W10  1  0.750000  0.366247  0.438235  1
  W  W11  1  0.750000  0.868258  0.061902  1
