# generated using pymatgen
data_La5Zr2P12Ir17
_symmetry_space_group_name_H-M   'P 1'
_cell_length_a   12.79291600
_cell_length_b   13.03209479
_cell_length_c   4.05397100
_cell_angle_alpha   90.00000000
_cell_angle_beta   90.00000000
_cell_angle_gamma   119.39471527
_symmetry_Int_Tables_number   1
_chemical_formula_structural   La5Zr2P12Ir17
_chemical_formula_sum   'La5 Zr2 P12 Ir17'
_cell_volume   588.85956863
_cell_formula_units_Z   1
loop_
 _symmetry_equiv_pos_site_id
 _symmetry_equiv_pos_as_xyz
  1  'x, y, z'
loop_
 _atom_site_type_symbol
 _atom_site_label
 _atom_site_symmetry_multiplicity
 _atom_site_fract_x
 _atom_site_fract_y
 _atom_site_fract_z
 _atom_site_occupancy
  La  La0  1  0.329183  0.661751  0.500000  1
  La  La1  1  0.667434  0.338249  0.500000  1
  La  La2  1  0.002005  0.815358  0.000000  1
  La  La3  1  0.186647  0.184642  0.000000  1
  La  La4  1  0.814804  0.000000  0.000000  1
  Zr  Zr5  1  0.997089  0.444848  0.500000  1
  Zr  Zr6  1  0.552241  0.555152  0.500000  1
  P  P7  1  0.004890  0.645588  0.500000  1
  P  P8  1  0.359302  0.354412  0.500000  1
  P  P9  1  0.640874  0.000000  0.500000  1
  P  P10  1  0.517136  0.687097  0.000000  1
  P  P11  1  0.308369  0.825463  0.000000  1
  P  P12  1  0.162360  0.477944  0.000000  1
  P  P13  1  0.482905  0.174537  0.000000  1
  P  P14  1  0.684416  0.522056  0.000000  1
  P  P15  1  0.830039  0.312903  0.000000  1
  P  P16  1  0.999539  0.177396  0.500000  1
  P  P17  1  0.822143  0.822604  0.500000  1
  P  P18  1  0.185421  0.000000  0.500000  1
  Ir  Ir19  1  0.506694  0.868347  0.000000  1
  Ir  Ir20  1  0.124109  0.643677  0.000000  1
  Ir  Ir21  1  0.355271  0.493779  0.000000  1
  Ir  Ir22  1  0.480432  0.356323  0.000000  1
  Ir  Ir23  1  0.861492  0.506221  0.000000  1
  Ir  Ir24  1  0.638348  0.131653  0.000000  1
  Ir  Ir25  1  0.463049  0.000000  0.500000  1
  Ir  Ir26  1  0.996629  0.279538  0.000000  1
  Ir  Ir27  1  0.717091  0.720462  0.000000  1
  Ir  Ir28  1  0.294514  0.000000  0.000000  1
  Ir  Ir29  1  0.621366  0.806396  0.500000  1
  Ir  Ir30  1  0.208406  0.827141  0.500000  1
  Ir  Ir31  1  0.176975  0.368654  0.500000  1
  Ir  Ir32  1  0.381265  0.172859  0.500000  1
  Ir  Ir33  1  0.808320  0.631346  0.500000  1
  Ir  Ir34  1  0.814971  0.193604  0.500000  1
  Ir  Ir35  1  0.004275  0.000000  0.500000  1
