# generated using pymatgen
data_HfZr4Re17Tc7
_symmetry_space_group_name_H-M   'P 1'
_cell_length_a   8.48120019
_cell_length_b   8.48120027
_cell_length_c   8.47142404
_cell_angle_alpha   109.47461949
_cell_angle_beta   109.47461820
_cell_angle_gamma   109.57805927
_symmetry_Int_Tables_number   1
_chemical_formula_structural   HfZr4Re17Tc7
_chemical_formula_sum   'Hf1 Zr4 Re17 Tc7'
_cell_volume   468.42304433
_cell_formula_units_Z   1
loop_
 _symmetry_equiv_pos_site_id
 _symmetry_equiv_pos_as_xyz
  1  'x, y, z'
loop_
 _atom_site_type_symbol
 _atom_site_label
 _atom_site_symmetry_multiplicity
 _atom_site_fract_x
 _atom_site_fract_y
 _atom_site_fract_z
 _atom_site_occupancy
  Hf  Hf0  1  0.372063  0.372063  0.372583  1
  Zr  Zr1  1  0.999499  0.999499  0.999849  1
  Zr  Zr2  1  0.625587  0.999610  0.999643  1
  Zr  Zr3  1  0.999610  0.625587  0.999643  1
  Zr  Zr4  1  0.001447  0.001447  0.628080  1
  Re  Re5  1  0.000938  0.676218  0.396175  1
  Re  Re6  1  0.676218  0.000938  0.396175  1
  Re  Re7  1  0.603584  0.603584  0.278893  1
  Re  Re8  1  0.279409  0.604807  0.603838  1
  Re  Re9  1  0.604807  0.279409  0.603838  1
  Re  Re10  1  0.376906  0.195575  0.001255  1
  Re  Re11  1  0.180167  0.805668  0.805020  1
  Re  Re12  1  0.375336  0.000925  0.194880  1
  Re  Re13  1  0.195575  0.376906  0.001255  1
  Re  Re14  1  0.000925  0.375336  0.194880  1
  Re  Re15  1  0.805668  0.180167  0.805020  1
  Re  Re16  1  0.805655  0.805655  0.181059  1
  Re  Re17  1  0.000926  0.194448  0.377202  1
  Re  Re18  1  0.194448  0.000926  0.377202  1
  Re  Re19  1  0.622476  0.622476  0.816222  1
  Re  Re20  1  0.816175  0.622826  0.622208  1
  Re  Re21  1  0.622826  0.816175  0.622208  1
  Tc  Tc22  1  0.396377  0.677770  0.000605  1
  Tc  Tc23  1  0.719761  0.323065  0.322578  1
  Tc  Tc24  1  0.397336  0.001911  0.678225  1
  Tc  Tc25  1  0.677770  0.396377  0.000605  1
  Tc  Tc26  1  0.001911  0.397336  0.678225  1
  Tc  Tc27  1  0.323065  0.719761  0.322578  1
  Tc  Tc28  1  0.323531  0.323531  0.720054  1
