# generated using pymatgen
data_K3Rb13(TiAs4)2
_symmetry_space_group_name_H-M   'P 1'
_cell_length_a   11.29920224
_cell_length_b   11.29922948
_cell_length_c   11.29920866
_cell_angle_alpha   59.73101022
_cell_angle_beta   59.73109377
_cell_angle_gamma   59.73104606
_symmetry_Int_Tables_number   1
_chemical_formula_structural   K3Rb13(TiAs4)2
_chemical_formula_sum   'K3 Rb13 Ti2 As8'
_cell_volume   1013.83863246
_cell_formula_units_Z   1
loop_
 _symmetry_equiv_pos_site_id
 _symmetry_equiv_pos_as_xyz
  1  'x, y, z'
loop_
 _atom_site_type_symbol
 _atom_site_label
 _atom_site_symmetry_multiplicity
 _atom_site_fract_x
 _atom_site_fract_y
 _atom_site_fract_z
 _atom_site_occupancy
  K  K0  1  0.625000  0.625000  0.125000  1
  K  K1  1  0.625000  0.125000  0.625000  1
  K  K2  1  0.125000  0.625000  0.625000  1
  Rb  Rb3  1  0.625000  0.625000  0.625000  1
  Rb  Rb4  1  0.029614  0.471343  0.471344  1
  Rb  Rb5  1  0.778872  0.221454  0.221454  1
  Rb  Rb6  1  0.471344  0.029613  0.471344  1
  Rb  Rb7  1  0.471344  0.471343  0.029613  1
  Rb  Rb8  1  0.028546  0.028547  0.471128  1
  Rb  Rb9  1  0.028546  0.471128  0.028547  1
  Rb  Rb10  1  0.471128  0.028546  0.028546  1
  Rb  Rb11  1  0.778656  0.220387  0.778656  1
  Rb  Rb12  1  0.221454  0.778872  0.221453  1
  Rb  Rb13  1  0.221454  0.221453  0.778872  1
  Rb  Rb14  1  0.778656  0.778657  0.220387  1
  Rb  Rb15  1  0.220386  0.778657  0.778656  1
  Ti  Ti16  1  0.750529  0.750530  0.750530  1
  Ti  Ti17  1  0.499471  0.499470  0.499470  1
  As  As18  1  0.845021  0.845020  0.469299  1
  As  As19  1  0.845021  0.469298  0.845020  1
  As  As20  1  0.404979  0.404980  0.780701  1
  As  As21  1  0.404979  0.780702  0.404980  1
  As  As22  1  0.780701  0.404980  0.404980  1
  As  As23  1  0.843549  0.843549  0.843549  1
  As  As24  1  0.469299  0.845020  0.845020  1
  As  As25  1  0.406451  0.406451  0.406451  1
