# generated using pymatgen
data_Li2Yb2Si2O7
_symmetry_space_group_name_H-M   'P 1'
_cell_length_a   5.09069426
_cell_length_b   13.73545500
_cell_length_c   5.09073929
_cell_angle_alpha   90.00003947
_cell_angle_beta   60.13356706
_cell_angle_gamma   90.00008061
_symmetry_Int_Tables_number   1
_chemical_formula_structural   Li2Yb2Si2O7
_chemical_formula_sum   'Li4 Yb4 Si4 O14'
_cell_volume   308.68427228
_cell_formula_units_Z   2
loop_
 _symmetry_equiv_pos_site_id
 _symmetry_equiv_pos_as_xyz
  1  'x, y, z'
loop_
 _atom_site_type_symbol
 _atom_site_label
 _atom_site_symmetry_multiplicity
 _atom_site_fract_x
 _atom_site_fract_y
 _atom_site_fract_z
 _atom_site_occupancy
  Li  Li0  1  0.240811  0.579644  0.347388  1
  Li  Li1  1  0.240803  0.920350  0.347327  1
  Li  Li2  1  0.652667  0.420351  0.759207  1
  Li  Li3  1  0.652655  0.079648  0.759144  1
  Yb  Yb4  1  0.983054  0.999997  0.016909  1
  Yb  Yb5  1  0.983079  0.499998  0.016963  1
  Yb  Yb6  1  0.010062  0.249992  0.045569  1
  Yb  Yb7  1  0.954406  0.749991  0.989969  1
  Si  Si8  1  0.313577  0.362670  0.410545  1
  Si  Si9  1  0.313558  0.137337  0.410482  1
  Si  Si10  1  0.589484  0.637334  0.686473  1
  Si  Si11  1  0.589449  0.862669  0.686431  1
  O  O12  1  0.166668  0.250005  0.415652  1
  O  O13  1  0.584328  0.750004  0.833354  1
  O  O14  1  0.655787  0.132631  0.120102  1
  O  O15  1  0.655815  0.367369  0.120167  1
  O  O16  1  0.879829  0.867373  0.344196  1
  O  O17  1  0.879858  0.632629  0.344239  1
  O  O18  1  0.269559  0.873017  0.684774  1
  O  O19  1  0.269594  0.626972  0.684825  1
  O  O20  1  0.315228  0.373016  0.730439  1
  O  O21  1  0.315221  0.126970  0.730358  1
  O  O22  1  0.071361  0.061329  0.403154  1
  O  O23  1  0.071383  0.438689  0.403256  1
  O  O24  1  0.596803  0.561327  0.928679  1
  O  O25  1  0.596752  0.938690  0.928609  1
