# generated using pymatgen
data_La8Si13Sn
_symmetry_space_group_name_H-M   'P 1'
_cell_length_a   8.24415213
_cell_length_b   8.20822132
_cell_length_c   8.77315000
_cell_angle_alpha   90.00000000
_cell_angle_beta   90.00000000
_cell_angle_gamma   120.07875313
_symmetry_Int_Tables_number   1
_chemical_formula_structural   La8Si13Sn
_chemical_formula_sum   'La8 Si13 Sn1'
_cell_volume   513.73132943
_cell_formula_units_Z   1
loop_
 _symmetry_equiv_pos_site_id
 _symmetry_equiv_pos_as_xyz
  1  'x, y, z'
loop_
 _atom_site_type_symbol
 _atom_site_label
 _atom_site_symmetry_multiplicity
 _atom_site_fract_x
 _atom_site_fract_y
 _atom_site_fract_z
 _atom_site_occupancy
  La  La0  1  0.259902  0.251116  0.992701  1
  La  La1  1  0.748410  0.749768  0.999304  1
  La  La2  1  0.748410  0.749768  0.500696  1
  La  La3  1  0.259902  0.251116  0.507299  1
  La  La4  1  0.252355  0.750090  0.497601  1
  La  La5  1  0.740878  0.250061  0.509988  1
  La  La6  1  0.740878  0.250061  0.990012  1
  La  La7  1  0.252355  0.750090  0.002399  1
  Si  Si8  1  0.926726  0.601848  0.750000  1
  Si  Si9  1  0.582416  0.415035  0.250000  1
  Si  Si10  1  0.416319  0.585321  0.750000  1
  Si  Si11  1  0.426645  0.595457  0.250000  1
  Si  Si12  1  0.587753  0.415277  0.750000  1
  Si  Si13  1  0.076733  0.932948  0.250000  1
  Si  Si14  1  0.924226  0.076785  0.750000  1
  Si  Si15  1  0.605980  0.932470  0.250000  1
  Si  Si16  1  0.400844  0.072487  0.750000  1
  Si  Si17  1  0.918354  0.595282  0.250000  1
  Si  Si18  1  0.075749  0.414205  0.750000  1
  Si  Si19  1  0.413855  0.075356  0.250000  1
  Si  Si20  1  0.585833  0.922814  0.750000  1
  Sn  Sn21  1  0.055476  0.362644  0.250000  1
