# generated using pymatgen
data_Eu3V(Co4P3)2
_symmetry_space_group_name_H-M   'P 1'
_cell_length_a   3.72885400
_cell_length_b   10.62279400
_cell_length_c   12.35557200
_cell_angle_alpha   90.00000000
_cell_angle_beta   90.00000000
_cell_angle_gamma   90.00000000
_symmetry_Int_Tables_number   1
_chemical_formula_structural   Eu3V(Co4P3)2
_chemical_formula_sum   'Eu6 V2 Co16 P12'
_cell_volume   489.41468319
_cell_formula_units_Z   2
loop_
 _symmetry_equiv_pos_site_id
 _symmetry_equiv_pos_as_xyz
  1  'x, y, z'
loop_
 _atom_site_type_symbol
 _atom_site_label
 _atom_site_symmetry_multiplicity
 _atom_site_fract_x
 _atom_site_fract_y
 _atom_site_fract_z
 _atom_site_occupancy
  Eu  Eu0  1  0.000000  0.500000  0.525925  1
  Eu  Eu1  1  0.500000  0.000000  0.474075  1
  Eu  Eu2  1  0.500000  0.821445  0.205439  1
  Eu  Eu3  1  0.500000  0.178555  0.205439  1
  Eu  Eu4  1  0.000000  0.678555  0.794561  1
  Eu  Eu5  1  0.000000  0.321445  0.794561  1
  V  V6  1  0.500000  0.500000  0.152626  1
  V  V7  1  0.000000  0.000000  0.847374  1
  Co  Co8  1  0.500000  0.500000  0.701746  1
  Co  Co9  1  0.000000  0.000000  0.298254  1
  Co  Co10  1  0.000000  0.500000  0.989814  1
  Co  Co11  1  0.500000  0.000000  0.010186  1
  Co  Co12  1  0.500000  0.332233  0.995368  1
  Co  Co13  1  0.500000  0.667767  0.995368  1
  Co  Co14  1  0.000000  0.167767  0.004632  1
  Co  Co15  1  0.000000  0.832233  0.004632  1
  Co  Co16  1  0.500000  0.297259  0.431203  1
  Co  Co17  1  0.500000  0.702741  0.431203  1
  Co  Co18  1  0.000000  0.202741  0.568797  1
  Co  Co19  1  0.000000  0.797259  0.568797  1
  Co  Co20  1  0.500000  0.881228  0.707800  1
  Co  Co21  1  0.500000  0.118772  0.707800  1
  Co  Co22  1  0.000000  0.618772  0.292200  1
  Co  Co23  1  0.000000  0.381228  0.292200  1
  P  P24  1  0.500000  0.500000  0.886851  1
  P  P25  1  0.000000  0.000000  0.113149  1
  P  P26  1  0.500000  0.500000  0.343656  1
  P  P27  1  0.000000  0.000000  0.656344  1
  P  P28  1  0.500000  0.304600  0.614815  1
  P  P29  1  0.500000  0.695400  0.614815  1
  P  P30  1  0.000000  0.195400  0.385185  1
  P  P31  1  0.000000  0.804600  0.385185  1
  P  P32  1  0.500000  0.846218  0.892237  1
  P  P33  1  0.500000  0.153782  0.892237  1
  P  P34  1  0.000000  0.653782  0.107763  1
  P  P35  1  0.000000  0.346218  0.107763  1
