# generated using pymatgen
data_Yb20Si3Bi8Sb
_symmetry_space_group_name_H-M   'P 1'
_cell_length_a   8.08836682
_cell_length_b   9.65226800
_cell_length_c   12.78400670
_cell_angle_alpha   90.00000000
_cell_angle_beta   89.74041672
_cell_angle_gamma   90.00000000
_symmetry_Int_Tables_number   1
_chemical_formula_structural   Yb20Si3Bi8Sb
_chemical_formula_sum   'Yb20 Si3 Bi8 Sb1'
_cell_volume   998.05102029
_cell_formula_units_Z   1
loop_
 _symmetry_equiv_pos_site_id
 _symmetry_equiv_pos_as_xyz
  1  'x, y, z'
loop_
 _atom_site_type_symbol
 _atom_site_label
 _atom_site_symmetry_multiplicity
 _atom_site_fract_x
 _atom_site_fract_y
 _atom_site_fract_z
 _atom_site_occupancy
  Yb  Yb0  1  0.825940  0.528803  0.071102  1
  Yb  Yb1  1  0.831644  0.250000  0.784930  1
  Yb  Yb2  1  0.043637  0.750000  0.501077  1
  Yb  Yb3  1  0.357681  0.250000  0.698280  1
  Yb  Yb4  1  0.176147  0.031206  0.926759  1
  Yb  Yb5  1  0.555957  0.250000  0.000177  1
  Yb  Yb6  1  0.853637  0.750000  0.802703  1
  Yb  Yb7  1  0.315928  0.750000  0.729857  1
  Yb  Yb8  1  0.321684  0.458958  0.423225  1
  Yb  Yb9  1  0.673187  0.250000  0.281812  1
  Yb  Yb10  1  0.445311  0.750000  0.002707  1
  Yb  Yb11  1  0.678693  0.520421  0.580085  1
  Yb  Yb12  1  0.944161  0.250000  0.498390  1
  Yb  Yb13  1  0.142256  0.250000  0.195685  1
  Yb  Yb14  1  0.168212  0.750000  0.214785  1
  Yb  Yb15  1  0.176147  0.468794  0.926759  1
  Yb  Yb16  1  0.825940  0.971197  0.071102  1
  Yb  Yb17  1  0.678693  0.979579  0.580085  1
  Yb  Yb18  1  0.321684  0.041042  0.423225  1
  Yb  Yb19  1  0.653666  0.750000  0.290603  1
  Si  Si20  1  0.564431  0.250000  0.509556  1
  Si  Si21  1  0.067310  0.750000  0.986702  1
  Si  Si22  1  0.935940  0.250000  0.009931  1
  Bi  Bi23  1  0.062998  0.009773  0.667684  1
  Bi  Bi24  1  0.938615  0.990654  0.331029  1
  Bi  Bi25  1  0.062998  0.490227  0.667684  1
  Bi  Bi26  1  0.560034  0.991389  0.831469  1
  Bi  Bi27  1  0.439828  0.008863  0.170060  1
  Bi  Bi28  1  0.439828  0.491137  0.170060  1
  Bi  Bi29  1  0.560034  0.508611  0.831469  1
  Bi  Bi30  1  0.938615  0.509346  0.331029  1
  Sb  Sb31  1  0.439164  0.750000  0.489978  1
