# generated using pymatgen
data_Nd2SiTc16C3
_symmetry_space_group_name_H-M   'P 1'
_cell_length_a   6.98045678
_cell_length_b   6.98045718
_cell_length_c   6.99893070
_cell_angle_alpha   82.79359488
_cell_angle_beta   82.79359471
_cell_angle_gamma   82.63141728
_symmetry_Int_Tables_number   1
_chemical_formula_structural   Nd2SiTc16C3
_chemical_formula_sum   'Nd2 Si1 Tc16 C3'
_cell_volume   333.46830480
_cell_formula_units_Z   1
loop_
 _symmetry_equiv_pos_site_id
 _symmetry_equiv_pos_as_xyz
  1  'x, y, z'
loop_
 _atom_site_type_symbol
 _atom_site_label
 _atom_site_symmetry_multiplicity
 _atom_site_fract_x
 _atom_site_fract_y
 _atom_site_fract_z
 _atom_site_occupancy
  Nd  Nd0  1  0.650997  0.650997  0.651985  1
  Nd  Nd1  1  0.349003  0.349003  0.348015  1
  Si  Si2  1  0.000000  0.000000  0.500000  1
  Tc  Tc3  1  0.500000  0.000000  0.000000  1
  Tc  Tc4  1  0.000000  0.500000  0.000000  1
  Tc  Tc5  1  0.723913  0.276087  0.000000  1
  Tc  Tc6  1  0.997002  0.726970  0.280255  1
  Tc  Tc7  1  0.273030  0.002998  0.719745  1
  Tc  Tc8  1  0.002998  0.273030  0.719745  1
  Tc  Tc9  1  0.726970  0.997002  0.280255  1
  Tc  Tc10  1  0.276087  0.723913  0.000000  1
  Tc  Tc11  1  0.344909  0.864256  0.348220  1
  Tc  Tc12  1  0.352006  0.352006  0.861205  1
  Tc  Tc13  1  0.864256  0.344909  0.348220  1
  Tc  Tc14  1  0.655091  0.135744  0.651780  1
  Tc  Tc15  1  0.647994  0.647994  0.138795  1
  Tc  Tc16  1  0.135744  0.655091  0.651780  1
  Tc  Tc17  1  0.900562  0.900562  0.905385  1
  Tc  Tc18  1  0.099438  0.099438  0.094615  1
  C  C19  1  0.500000  0.500000  0.000000  1
  C  C20  1  0.000000  0.500000  0.500000  1
  C  C21  1  0.500000  0.000000  0.500000  1
