# generated using pymatgen
data_CsV3Ge2O9
_symmetry_space_group_name_H-M   'P 1'
_cell_length_a   6.01383216
_cell_length_b   6.01253290
_cell_length_c   14.15365760
_cell_angle_alpha   89.97380183
_cell_angle_beta   90.05608899
_cell_angle_gamma   120.00409197
_symmetry_Int_Tables_number   1
_chemical_formula_structural   CsV3Ge2O9
_chemical_formula_sum   'Cs2 V6 Ge4 O18'
_cell_volume   443.19001600
_cell_formula_units_Z   2
loop_
 _symmetry_equiv_pos_site_id
 _symmetry_equiv_pos_as_xyz
  1  'x, y, z'
loop_
 _atom_site_type_symbol
 _atom_site_label
 _atom_site_symmetry_multiplicity
 _atom_site_fract_x
 _atom_site_fract_y
 _atom_site_fract_z
 _atom_site_occupancy
  Cs  Cs0  1  0.333310  0.666570  0.750006  1
  Cs  Cs1  1  0.666693  0.333424  0.249994  1
  V  V2  1  0.500000  0.500000  0.500000  1
  V  V3  1  0.499998  0.999998  0.999999  1
  V  V4  1  0.499998  0.499999  0.000000  1
  V  V5  1  0.000002  0.500002  0.500001  1
  V  V6  1  0.500002  0.000001  0.500000  1
  V  V7  1  0.000000  0.500000  0.000000  1
  Ge  Ge8  1  0.000108  0.999778  0.622568  1
  Ge  Ge9  1  0.999892  0.000223  0.377432  1
  Ge  Ge10  1  0.000346  0.000240  0.122588  1
  Ge  Ge11  1  0.999652  0.999760  0.877410  1
  O  O12  1  0.999809  0.999486  0.750011  1
  O  O13  1  0.000188  0.000519  0.249989  1
  O  O14  1  0.666740  0.333360  0.565361  1
  O  O15  1  0.333260  0.666641  0.434639  1
  O  O16  1  0.333369  0.666644  0.065368  1
  O  O17  1  0.666627  0.333355  0.934634  1
  O  O18  1  0.162990  0.836964  0.582955  1
  O  O19  1  0.674241  0.836831  0.583020  1
  O  O20  1  0.162963  0.325577  0.583045  1
  O  O21  1  0.837014  0.163038  0.417044  1
  O  O22  1  0.325758  0.163169  0.416978  1
  O  O23  1  0.837039  0.674426  0.416954  1
  O  O24  1  0.837316  0.163078  0.083015  1
  O  O25  1  0.326047  0.163142  0.082956  1
  O  O26  1  0.837469  0.674427  0.083029  1
  O  O27  1  0.162684  0.836921  0.916985  1
  O  O28  1  0.673950  0.836857  0.917045  1
  O  O29  1  0.162530  0.325573  0.916972  1
