# generated using pymatgen
data_Al8Co3CuRu4
_symmetry_space_group_name_H-M   'P 1'
_cell_length_a   5.92578500
_cell_length_b   4.15901700
_cell_length_c   8.31731600
_cell_angle_alpha   90.00000000
_cell_angle_beta   90.00001656
_cell_angle_gamma   90.00000000
_symmetry_Int_Tables_number   1
_chemical_formula_structural   Al8Co3CuRu4
_chemical_formula_sum   'Al8 Co3 Cu1 Ru4'
_cell_volume   204.98391704
_cell_formula_units_Z   1
loop_
 _symmetry_equiv_pos_site_id
 _symmetry_equiv_pos_as_xyz
  1  'x, y, z'
loop_
 _atom_site_type_symbol
 _atom_site_label
 _atom_site_symmetry_multiplicity
 _atom_site_fract_x
 _atom_site_fract_y
 _atom_site_fract_z
 _atom_site_occupancy
  Al  Al0  1  0.487560  0.749999  0.124984  1
  Al  Al1  1  0.012440  0.749999  0.124985  1
  Al  Al2  1  0.494167  0.249999  0.380720  1
  Al  Al3  1  0.005843  0.249999  0.380721  1
  Al  Al4  1  0.000110  0.749999  0.625016  1
  Al  Al5  1  0.499881  0.749999  0.625017  1
  Al  Al6  1  0.005896  0.249999  0.869278  1
  Al  Al7  1  0.494103  0.249999  0.869279  1
  Co  Co8  1  0.250003  0.749999  0.373815  1
  Co  Co9  1  0.749997  0.249999  0.625015  1
  Co  Co10  1  0.249996  0.749999  0.876176  1
  Cu  Cu11  1  0.750004  0.249999  0.124984  1
  Ru  Ru12  1  0.250002  0.249999  0.125005  1
  Ru  Ru13  1  0.750001  0.749999  0.369295  1
  Ru  Ru14  1  0.249999  0.249999  0.625001  1
  Ru  Ru15  1  0.749998  0.749999  0.880709  1
