# generated using pymatgen
data_Sc6Si6Tc5Ir
_symmetry_space_group_name_H-M   'P 1'
_cell_length_a   7.76828013
_cell_length_b   7.76795365
_cell_length_c   7.76795438
_cell_angle_alpha   126.73336552
_cell_angle_beta   128.14310857
_cell_angle_gamma   77.54124940
_symmetry_Int_Tables_number   1
_chemical_formula_structural   Sc6Si6Tc5Ir
_chemical_formula_sum   'Sc6 Si6 Tc5 Ir1'
_cell_volume   286.53616747
_cell_formula_units_Z   1
loop_
 _symmetry_equiv_pos_site_id
 _symmetry_equiv_pos_as_xyz
  1  'x, y, z'
loop_
 _atom_site_type_symbol
 _atom_site_label
 _atom_site_symmetry_multiplicity
 _atom_site_fract_x
 _atom_site_fract_y
 _atom_site_fract_z
 _atom_site_occupancy
  Sc  Sc0  1  0.447564  0.398109  0.448624  1
  Sc  Sc1  1  0.552436  0.001060  0.950545  1
  Sc  Sc2  1  0.050193  0.001081  0.448843  1
  Sc  Sc3  1  0.949807  0.398649  0.950889  1
  Sc  Sc4  1  0.247606  0.608962  0.856846  1
  Sc  Sc5  1  0.752394  0.609241  0.361356  1
  Si  Si6  1  0.168237  0.672242  0.504784  1
  Si  Si7  1  0.831763  0.336547  0.504006  1
  Si  Si8  1  0.666899  0.671490  0.003816  1
  Si  Si9  1  0.333101  0.336917  0.004592  1
  Si  Si10  1  0.247860  0.001854  0.249923  1
  Si  Si11  1  0.752140  0.002063  0.753994  1
  Tc  Tc12  1  0.372227  0.745558  0.373601  1
  Tc  Tc13  1  0.627773  0.001374  0.373331  1
  Tc  Tc14  1  0.869828  0.744999  0.874933  1
  Tc  Tc15  1  0.130172  0.005105  0.875172  1
  Tc  Tc16  1  0.000000  0.263801  0.263801  1
  Ir  Ir17  1  0.500000  0.260945  0.760945  1
