# generated using pymatgen
data_Th4Zn9Sn2Au
_symmetry_space_group_name_H-M   'P 1'
_cell_length_a   8.57768685
_cell_length_b   8.57768622
_cell_length_c   9.08754995
_cell_angle_alpha   90.73718675
_cell_angle_beta   89.26281207
_cell_angle_gamma   149.46486882
_symmetry_Int_Tables_number   1
_chemical_formula_structural   Th4Zn9Sn2Au
_chemical_formula_sum   'Th4 Zn9 Sn2 Au1'
_cell_volume   339.67935724
_cell_formula_units_Z   1
loop_
 _symmetry_equiv_pos_site_id
 _symmetry_equiv_pos_as_xyz
  1  'x, y, z'
loop_
 _atom_site_type_symbol
 _atom_site_label
 _atom_site_symmetry_multiplicity
 _atom_site_fract_x
 _atom_site_fract_y
 _atom_site_fract_z
 _atom_site_occupancy
  Th  Th0  1  0.205386  0.794614  0.246913  1
  Th  Th1  1  0.794839  0.205161  0.752107  1
  Th  Th2  1  0.999904  0.000096  0.499390  1
  Th  Th3  1  0.998934  0.001066  0.000792  1
  Zn  Zn4  1  0.183069  0.816931  0.609387  1
  Zn  Zn5  1  0.813369  0.186631  0.098242  1
  Zn  Zn6  1  0.183831  0.816169  0.894939  1
  Zn  Zn7  1  0.657749  0.342251  0.483305  1
  Zn  Zn8  1  0.340122  0.659878  0.524373  1
  Zn  Zn9  1  0.656373  0.343627  0.016443  1
  Zn  Zn10  1  0.343750  0.656250  0.983382  1
  Zn  Zn11  1  0.395579  0.604421  0.250530  1
  Zn  Zn12  1  0.604819  0.395181  0.751722  1
  Sn  Sn13  1  0.555599  0.444401  0.250326  1
  Sn  Sn14  1  0.445316  0.554684  0.750442  1
  Au  Au15  1  0.821362  0.178638  0.387709  1
