# generated using pymatgen
data_Ta2AlZn3
_symmetry_space_group_name_H-M   'P 1'
_cell_length_a   5.03679800
_cell_length_b   5.03679935
_cell_length_c   8.28953500
_cell_angle_alpha   90.00000000
_cell_angle_beta   90.00000000
_cell_angle_gamma   120.00000429
_symmetry_Int_Tables_number   1
_chemical_formula_structural   Ta2AlZn3
_chemical_formula_sum   'Ta4 Al2 Zn6'
_cell_volume   182.12516844
_cell_formula_units_Z   2
loop_
 _symmetry_equiv_pos_site_id
 _symmetry_equiv_pos_as_xyz
  1  'x, y, z'
loop_
 _atom_site_type_symbol
 _atom_site_label
 _atom_site_symmetry_multiplicity
 _atom_site_fract_x
 _atom_site_fract_y
 _atom_site_fract_z
 _atom_site_occupancy
  Ta  Ta0  1  0.333333  0.666667  0.434922  1
  Ta  Ta1  1  0.666667  0.333333  0.565078  1
  Ta  Ta2  1  0.666667  0.333333  0.934922  1
  Ta  Ta3  1  0.333333  0.666667  0.065078  1
  Al  Al4  1  0.000000  0.000000  0.500000  1
  Al  Al5  1  0.000000  0.000000  0.000000  1
  Zn  Zn6  1  0.827724  0.172276  0.250000  1
  Zn  Zn7  1  0.827724  0.655448  0.250000  1
  Zn  Zn8  1  0.344552  0.172276  0.250000  1
  Zn  Zn9  1  0.172276  0.827724  0.750000  1
  Zn  Zn10  1  0.172276  0.344552  0.750000  1
  Zn  Zn11  1  0.655448  0.827724  0.750000  1
