# generated using pymatgen
data_LaPr11(Si7Br3)2
_symmetry_space_group_name_H-M   'P 1'
_cell_length_a   4.11926800
_cell_length_b   11.83481800
_cell_length_c   16.70434900
_cell_angle_alpha   90.00000000
_cell_angle_beta   90.00000000
_cell_angle_gamma   90.00000000
_symmetry_Int_Tables_number   1
_chemical_formula_structural   LaPr11(Si7Br3)2
_chemical_formula_sum   'La1 Pr11 Si14 Br6'
_cell_volume   814.35016130
_cell_formula_units_Z   1
loop_
 _symmetry_equiv_pos_site_id
 _symmetry_equiv_pos_as_xyz
  1  'x, y, z'
loop_
 _atom_site_type_symbol
 _atom_site_label
 _atom_site_symmetry_multiplicity
 _atom_site_fract_x
 _atom_site_fract_y
 _atom_site_fract_z
 _atom_site_occupancy
  La  La0  1  0.000000  0.643162  0.500000  1
  Pr  Pr1  1  0.500000  0.341844  0.500000  1
  Pr  Pr2  1  0.000000  0.657946  0.000000  1
  Pr  Pr3  1  0.500000  0.358044  0.756831  1
  Pr  Pr4  1  0.000000  0.641892  0.743700  1
  Pr  Pr5  1  0.500000  0.358044  0.243169  1
  Pr  Pr6  1  0.000000  0.641892  0.256300  1
  Pr  Pr7  1  0.500000  0.065658  0.880407  1
  Pr  Pr8  1  0.000000  0.934478  0.619567  1
  Pr  Pr9  1  0.500000  0.065658  0.119593  1
  Pr  Pr10  1  0.000000  0.934478  0.380433  1
  Pr  Pr11  1  0.500000  0.356710  0.000000  1
  Si  Si12  1  0.000000  0.151713  0.000000  1
  Si  Si13  1  0.500000  0.849139  0.500000  1
  Si  Si14  1  0.500000  0.567146  0.876241  1
  Si  Si15  1  0.000000  0.432467  0.624221  1
  Si  Si16  1  0.500000  0.567146  0.123759  1
  Si  Si17  1  0.000000  0.432467  0.375779  1
  Si  Si18  1  0.000000  0.253587  0.874490  1
  Si  Si19  1  0.500000  0.746700  0.625847  1
  Si  Si20  1  0.000000  0.253587  0.125510  1
  Si  Si21  1  0.500000  0.746700  0.374153  1
  Si  Si22  1  0.000000  0.458208  0.876360  1
  Si  Si23  1  0.500000  0.541442  0.624053  1
  Si  Si24  1  0.500000  0.541442  0.375947  1
  Si  Si25  1  0.000000  0.458208  0.123640  1
  Br  Br26  1  0.500000  0.108855  0.692686  1
  Br  Br27  1  0.000000  0.891211  0.807432  1
  Br  Br28  1  0.000000  0.138714  0.500000  1
  Br  Br29  1  0.500000  0.861395  0.000000  1
  Br  Br30  1  0.500000  0.108855  0.307314  1
  Br  Br31  1  0.000000  0.891211  0.192568  1
