# generated using pymatgen
data_Tm12MgCo4Rh
_symmetry_space_group_name_H-M   'P 1'
_cell_length_a   8.20174104
_cell_length_b   8.20174017
_cell_length_c   8.20174070
_cell_angle_alpha   110.83865321
_cell_angle_beta   110.79608155
_cell_angle_gamma   106.81122700
_symmetry_Int_Tables_number   1
_chemical_formula_structural   Tm12MgCo4Rh
_chemical_formula_sum   'Tm12 Mg1 Co4 Rh1'
_cell_volume   424.03105705
_cell_formula_units_Z   1
loop_
 _symmetry_equiv_pos_site_id
 _symmetry_equiv_pos_as_xyz
  1  'x, y, z'
loop_
 _atom_site_type_symbol
 _atom_site_label
 _atom_site_symmetry_multiplicity
 _atom_site_fract_x
 _atom_site_fract_y
 _atom_site_fract_z
 _atom_site_occupancy
  Tm  Tm0  1  0.410474  0.214734  0.195740  1
  Tm  Tm1  1  0.589526  0.785266  0.804260  1
  Tm  Tm2  1  0.018995  0.214734  0.804260  1
  Tm  Tm3  1  0.981005  0.785266  0.195740  1
  Tm  Tm4  1  0.183943  0.287456  0.471398  1
  Tm  Tm5  1  0.816057  0.712544  0.528602  1
  Tm  Tm6  1  0.183943  0.712544  0.896487  1
  Tm  Tm7  1  0.816057  0.287456  0.103513  1
  Tm  Tm8  1  0.314240  0.621632  0.307389  1
  Tm  Tm9  1  0.685760  0.378368  0.692611  1
  Tm  Tm10  1  0.314240  0.006851  0.692611  1
  Tm  Tm11  1  0.685760  0.993149  0.307389  1
  Mg  Mg12  1  0.500000  0.500000  0.000000  1
  Co  Co13  1  0.375210  0.000000  0.375210  1
  Co  Co14  1  0.624790  0.000000  0.624790  1
  Co  Co15  1  0.112566  0.612566  0.500000  1
  Co  Co16  1  0.887434  0.387434  0.500000  1
  Rh  Rh17  1  0.000000  0.000000  0.000000  1
