# generated using pymatgen
data_Tb4Ga10Ir5Pd
_symmetry_space_group_name_H-M   'P 1'
_cell_length_a   8.63607395
_cell_length_b   8.63607507
_cell_length_c   8.63607481
_cell_angle_alpha   141.57429680
_cell_angle_beta   108.84839216
_cell_angle_gamma   83.88756176
_symmetry_Int_Tables_number   1
_chemical_formula_structural   Tb4Ga10Ir5Pd
_chemical_formula_sum   'Tb4 Ga10 Ir5 Pd1'
_cell_volume   366.87982513
_cell_formula_units_Z   1
loop_
 _symmetry_equiv_pos_site_id
 _symmetry_equiv_pos_as_xyz
  1  'x, y, z'
loop_
 _atom_site_type_symbol
 _atom_site_label
 _atom_site_symmetry_multiplicity
 _atom_site_fract_x
 _atom_site_fract_y
 _atom_site_fract_z
 _atom_site_occupancy
  Tb  Tb0  1  0.415170  0.641815  0.773290  1
  Tb  Tb1  1  0.584830  0.358119  0.226645  1
  Tb  Tb2  1  0.131474  0.858185  0.273355  1
  Tb  Tb3  1  0.868526  0.141881  0.726710  1
  Ga  Ga4  1  0.734275  0.916476  0.825154  1
  Ga  Ga5  1  0.265725  0.090878  0.182200  1
  Ga  Ga6  1  0.908677  0.583524  0.317800  1
  Ga  Ga7  1  0.091323  0.409122  0.674846  1
  Ga  Ga8  1  0.204923  0.954923  0.750000  1
  Ga  Ga9  1  0.795077  0.545077  0.750000  1
  Ga  Ga10  1  0.797151  0.047151  0.250000  1
  Ga  Ga11  1  0.202849  0.452849  0.250000  1
  Ga  Ga12  1  0.500000  0.750000  0.250000  1
  Ga  Ga13  1  0.500000  0.250000  0.750000  1
  Ir  Ir14  1  0.000000  0.250000  0.250000  1
  Ir  Ir15  1  0.441024  0.847289  0.590147  1
  Ir  Ir16  1  0.558976  0.149124  0.406266  1
  Ir  Ir17  1  0.742859  0.652711  0.093734  1
  Ir  Ir18  1  0.257141  0.350876  0.909853  1
  Pd  Pd19  1  0.000000  0.750000  0.750000  1
