# generated using pymatgen
data_Ce3Sm(InRh2)2
_symmetry_space_group_name_H-M   'P 1'
_cell_length_a   7.68973247
_cell_length_b   7.68973247
_cell_length_c   3.74660900
_cell_angle_alpha   90.00000000
_cell_angle_beta   90.00000000
_cell_angle_gamma   88.61893377
_symmetry_Int_Tables_number   1
_chemical_formula_structural   Ce3Sm(InRh2)2
_chemical_formula_sum   'Ce3 Sm1 In2 Rh4'
_cell_volume   221.48007224
_cell_formula_units_Z   1
loop_
 _symmetry_equiv_pos_site_id
 _symmetry_equiv_pos_as_xyz
  1  'x, y, z'
loop_
 _atom_site_type_symbol
 _atom_site_label
 _atom_site_symmetry_multiplicity
 _atom_site_fract_x
 _atom_site_fract_y
 _atom_site_fract_z
 _atom_site_occupancy
  Ce  Ce0  1  0.330533  0.830533  0.500000  1
  Ce  Ce1  1  0.167568  0.328760  0.500000  1
  Ce  Ce2  1  0.828760  0.667568  0.500000  1
  Sm  Sm3  1  0.669126  0.169126  0.500000  1
  In  In4  1  0.995063  0.000191  0.000000  1
  In  In5  1  0.500191  0.495063  0.000000  1
  Rh  Rh6  1  0.143700  0.643700  0.000000  1
  Rh  Rh7  1  0.879261  0.379261  0.000000  1
  Rh  Rh8  1  0.632750  0.853047  0.000000  1
  Rh  Rh9  1  0.353047  0.132750  0.000000  1
