# generated using pymatgen
data_Eu2(NiN)3
_symmetry_space_group_name_H-M   'P 1'
_cell_length_a   6.31407046
_cell_length_b   6.31407043
_cell_length_c   6.15036317
_cell_angle_alpha   88.01427202
_cell_angle_beta   88.01425795
_cell_angle_gamma   117.61033397
_symmetry_Int_Tables_number   1
_chemical_formula_structural   Eu2(NiN)3
_chemical_formula_sum   'Eu4 Ni6 N6'
_cell_volume   216.78943294
_cell_formula_units_Z   2
loop_
 _symmetry_equiv_pos_site_id
 _symmetry_equiv_pos_as_xyz
  1  'x, y, z'
loop_
 _atom_site_type_symbol
 _atom_site_label
 _atom_site_symmetry_multiplicity
 _atom_site_fract_x
 _atom_site_fract_y
 _atom_site_fract_z
 _atom_site_occupancy
  Eu  Eu0  1  0.821747  0.675367  0.899393  1
  Eu  Eu1  1  0.324633  0.178253  0.600607  1
  Eu  Eu2  1  0.178253  0.324633  0.100607  1
  Eu  Eu3  1  0.675367  0.821747  0.399393  1
  Ni  Ni4  1  0.823294  0.176706  0.750000  1
  Ni  Ni5  1  0.176706  0.823294  0.250000  1
  Ni  Ni6  1  0.576861  0.175986  0.103078  1
  Ni  Ni7  1  0.423139  0.824014  0.896922  1
  Ni  Ni8  1  0.824014  0.423139  0.396922  1
  Ni  Ni9  1  0.175986  0.576861  0.603078  1
  N  N10  1  0.429946  0.570054  0.750000  1
  N  N11  1  0.570054  0.429946  0.250000  1
  N  N12  1  0.005509  0.739473  0.511999  1
  N  N13  1  0.739473  0.005509  0.011999  1
  N  N14  1  0.994491  0.260527  0.488001  1
  N  N15  1  0.260527  0.994491  0.988001  1
