# generated using pymatgen
data_Er7Sc9(Ga3Co)2
_symmetry_space_group_name_H-M   'P 1'
_cell_length_a   9.54457733
_cell_length_b   9.54457716
_cell_length_c   6.79583700
_cell_angle_alpha   90.08010962
_cell_angle_beta   89.91988438
_cell_angle_gamma   120.00782207
_symmetry_Int_Tables_number   1
_chemical_formula_structural   Er7Sc9(Ga3Co)2
_chemical_formula_sum   'Er7 Sc9 Ga6 Co2'
_cell_volume   536.10786268
_cell_formula_units_Z   1
loop_
 _symmetry_equiv_pos_site_id
 _symmetry_equiv_pos_as_xyz
  1  'x, y, z'
loop_
 _atom_site_type_symbol
 _atom_site_label
 _atom_site_symmetry_multiplicity
 _atom_site_fract_x
 _atom_site_fract_y
 _atom_site_fract_z
 _atom_site_occupancy
  Er  Er0  1  0.068302  0.533994  0.210953  1
  Er  Er1  1  0.466006  0.931698  0.210953  1
  Er  Er2  1  0.532896  0.467104  0.711458  1
  Er  Er3  1  0.932387  0.466021  0.711893  1
  Er  Er4  1  0.533979  0.067613  0.711893  1
  Er  Er5  1  0.000112  0.999888  0.228203  1
  Er  Er6  1  0.999698  0.000302  0.728478  1
  Sc  Sc7  1  0.174981  0.825019  0.511752  1
  Sc  Sc8  1  0.649428  0.822165  0.506828  1
  Sc  Sc9  1  0.177835  0.350572  0.506828  1
  Sc  Sc10  1  0.825778  0.174222  0.013119  1
  Sc  Sc11  1  0.350538  0.178434  0.015103  1
  Sc  Sc12  1  0.821566  0.649462  0.015103  1
  Sc  Sc13  1  0.334434  0.665566  0.826178  1
  Sc  Sc14  1  0.664832  0.335168  0.324718  1
  Sc  Sc15  1  0.463880  0.536120  0.210442  1
  Ga  Ga16  1  0.163172  0.836828  0.951861  1
  Ga  Ga17  1  0.670252  0.833591  0.955060  1
  Ga  Ga18  1  0.166409  0.329748  0.955060  1
  Ga  Ga19  1  0.836446  0.163554  0.452355  1
  Ga  Ga20  1  0.327250  0.163179  0.452391  1
  Ga  Ga21  1  0.836821  0.672750  0.452391  1
  Co  Co22  1  0.336007  0.663993  0.453582  1
  Co  Co23  1  0.666991  0.333009  0.957438  1
