# generated using pymatgen
data_Zr4Sc4Ru7Rh
_symmetry_space_group_name_H-M   'P 1'
_cell_length_a   6.46117600
_cell_length_b   4.60380100
_cell_length_c   9.21977000
_cell_angle_alpha   90.00000000
_cell_angle_beta   90.00000000
_cell_angle_gamma   90.00000000
_symmetry_Int_Tables_number   1
_chemical_formula_structural   Zr4Sc4Ru7Rh
_chemical_formula_sum   'Zr4 Sc4 Ru7 Rh1'
_cell_volume   274.25098827
_cell_formula_units_Z   1
loop_
 _symmetry_equiv_pos_site_id
 _symmetry_equiv_pos_as_xyz
  1  'x, y, z'
loop_
 _atom_site_type_symbol
 _atom_site_label
 _atom_site_symmetry_multiplicity
 _atom_site_fract_x
 _atom_site_fract_y
 _atom_site_fract_z
 _atom_site_occupancy
  Zr  Zr0  1  0.753576  0.250000  0.125007  1
  Zr  Zr1  1  0.247968  0.750000  0.377195  1
  Zr  Zr2  1  0.750102  0.250000  0.625016  1
  Zr  Zr3  1  0.248237  0.750000  0.872749  1
  Sc  Sc4  1  0.248490  0.250000  0.124973  1
  Sc  Sc5  1  0.750555  0.750000  0.376481  1
  Sc  Sc6  1  0.250289  0.250000  0.624981  1
  Sc  Sc7  1  0.750854  0.750000  0.873539  1
  Ru  Ru8  1  0.999961  0.750000  0.124997  1
  Ru  Ru9  1  0.499970  0.250000  0.374231  1
  Ru  Ru10  1  0.999851  0.250000  0.374217  1
  Ru  Ru11  1  0.999990  0.750000  0.625005  1
  Ru  Ru12  1  0.500054  0.750000  0.624986  1
  Ru  Ru13  1  0.000056  0.250000  0.875826  1
  Ru  Ru14  1  0.500147  0.250000  0.875804  1
  Rh  Rh15  1  0.499897  0.750000  0.124994  1
