# generated using pymatgen
data_Ho11ErInCo4Cu
_symmetry_space_group_name_H-M   'P 1'
_cell_length_a   8.27238785
_cell_length_b   8.27236269
_cell_length_c   8.27238802
_cell_angle_alpha   111.09587332
_cell_angle_beta   110.77892874
_cell_angle_gamma   106.57731909
_symmetry_Int_Tables_number   1
_chemical_formula_structural   Ho11ErInCo4Cu
_chemical_formula_sum   'Ho11 Er1 In1 Co4 Cu1'
_cell_volume   434.94962562
_cell_formula_units_Z   1
loop_
 _symmetry_equiv_pos_site_id
 _symmetry_equiv_pos_as_xyz
  1  'x, y, z'
loop_
 _atom_site_type_symbol
 _atom_site_label
 _atom_site_symmetry_multiplicity
 _atom_site_fract_x
 _atom_site_fract_y
 _atom_site_fract_z
 _atom_site_occupancy
  Ho  Ho0  1  0.683947  0.378929  0.694982  1
  Ho  Ho1  1  0.316049  0.011007  0.694960  1
  Ho  Ho2  1  0.683934  0.988957  0.305020  1
  Ho  Ho3  1  0.185662  0.290000  0.475633  1
  Ho  Ho4  1  0.814322  0.710014  0.524352  1
  Ho  Ho5  1  0.185662  0.710014  0.895692  1
  Ho  Ho6  1  0.814367  0.290000  0.104339  1
  Ho  Ho7  1  0.417383  0.218371  0.199034  1
  Ho  Ho8  1  0.582597  0.781635  0.800939  1
  Ho  Ho9  1  0.019337  0.218371  0.800988  1
  Ho  Ho10  1  0.980696  0.781635  0.199038  1
  Er  Er11  1  0.316063  0.621107  0.305044  1
  In  In12  1  0.499993  0.500006  0.000013  1
  Co  Co13  1  0.112733  0.612721  0.499989  1
  Co  Co14  1  0.887291  0.387291  0.500000  1
  Co  Co15  1  0.375761  0.999972  0.375767  1
  Co  Co16  1  0.624205  0.999972  0.624210  1
  Cu  Cu17  1  0.999998  0.999999  0.000001  1
