# generated using pymatgen
data_Ca2La13Nd5Ir12
_symmetry_space_group_name_H-M   'P 1'
_cell_length_a   11.43409535
_cell_length_b   11.40603506
_cell_length_c   6.58153478
_cell_angle_alpha   90.00650232
_cell_angle_beta   90.10844390
_cell_angle_gamma   89.94449727
_symmetry_Int_Tables_number   1
_chemical_formula_structural   Ca2La13Nd5Ir12
_chemical_formula_sum   'Ca2 La13 Nd5 Ir12'
_cell_volume   858.34663276
_cell_formula_units_Z   1
loop_
 _symmetry_equiv_pos_site_id
 _symmetry_equiv_pos_as_xyz
  1  'x, y, z'
loop_
 _atom_site_type_symbol
 _atom_site_label
 _atom_site_symmetry_multiplicity
 _atom_site_fract_x
 _atom_site_fract_y
 _atom_site_fract_z
 _atom_site_occupancy
  Ca  Ca0  1  0.500704  0.499910  0.989502  1
  Ca  Ca1  1  0.498540  0.501929  0.489772  1
  La  La2  1  0.709918  0.910999  0.395782  1
  La  La3  1  0.587254  0.791593  0.898775  1
  La  La4  1  0.589084  0.210943  0.397697  1
  La  La5  1  0.408225  0.791911  0.397461  1
  La  La6  1  0.411126  0.208303  0.896812  1
  La  La7  1  0.212613  0.407279  0.605700  1
  La  La8  1  0.212712  0.591155  0.104744  1
  La  La9  1  0.788077  0.407788  0.106210  1
  La  La10  1  0.786950  0.591345  0.605835  1
  La  La11  1  0.909791  0.707980  0.107126  1
  La  La12  1  0.909575  0.290218  0.609330  1
  La  La13  1  0.090020  0.708136  0.607704  1
  La  La14  1  0.091333  0.289930  0.109351  1
  Nd  Nd15  1  0.291565  0.089590  0.391574  1
  Nd  Nd16  1  0.289815  0.911678  0.892689  1
  Nd  Nd17  1  0.709262  0.090472  0.893620  1
  Nd  Nd18  1  0.002999  0.000325  0.498938  1
  Nd  Nd19  1  0.999249  0.999479  0.998385  1
  Ir  Ir20  1  0.848545  0.154190  0.251246  1
  Ir  Ir21  1  0.847440  0.846239  0.749046  1
  Ir  Ir22  1  0.154230  0.152701  0.752876  1
  Ir  Ir23  1  0.151258  0.844449  0.249034  1
  Ir  Ir24  1  0.660244  0.342100  0.746833  1
  Ir  Ir25  1  0.658376  0.659918  0.248213  1
  Ir  Ir26  1  0.341431  0.340796  0.247503  1
  Ir  Ir27  1  0.339780  0.659195  0.747096  1
  Ir  Ir28  1  0.500358  0.000566  0.128211  1
  Ir  Ir29  1  0.499637  0.001202  0.627975  1
  Ir  Ir30  1  0.000046  0.498956  0.877439  1
  Ir  Ir31  1  0.999840  0.498723  0.377519  1
