# generated using pymatgen
data_Pu2B4O9
_symmetry_space_group_name_H-M   'P 1'
_cell_length_a   6.33569403
_cell_length_b   6.66958185
_cell_length_c   7.62377514
_cell_angle_alpha   101.03713124
_cell_angle_beta   97.09485124
_cell_angle_gamma   102.90205225
_symmetry_Int_Tables_number   1
_chemical_formula_structural   Pu2B4O9
_chemical_formula_sum   'Pu4 B8 O18'
_cell_volume   303.52226175
_cell_formula_units_Z   2
loop_
 _symmetry_equiv_pos_site_id
 _symmetry_equiv_pos_as_xyz
  1  'x, y, z'
loop_
 _atom_site_type_symbol
 _atom_site_label
 _atom_site_symmetry_multiplicity
 _atom_site_fract_x
 _atom_site_fract_y
 _atom_site_fract_z
 _atom_site_occupancy
  Pu  Pu0  1  0.453379  0.909670  0.714184  1
  Pu  Pu1  1  0.546621  0.090330  0.285816  1
  Pu  Pu2  1  0.115682  0.316979  0.639245  1
  Pu  Pu3  1  0.884318  0.683021  0.360755  1
  B  B4  1  0.992986  0.152388  0.186084  1
  B  B5  1  0.007014  0.847612  0.813916  1
  B  B6  1  0.369188  0.640964  0.343820  1
  B  B7  1  0.630812  0.359036  0.656180  1
  B  B8  1  0.274538  0.664752  0.016656  1
  B  B9  1  0.725462  0.335248  0.983344  1
  B  B10  1  0.337329  0.327188  0.077181  1
  B  B11  1  0.662671  0.672812  0.922819  1
  O  O12  1  0.570472  0.809886  0.438594  1
  O  O13  1  0.243057  0.733128  0.204718  1
  O  O14  1  0.779870  0.403778  0.526984  1
  O  O15  1  0.220130  0.596222  0.473016  1
  O  O16  1  0.756943  0.266872  0.795282  1
  O  O17  1  0.855506  0.275171  0.134528  1
  O  O18  1  0.547239  0.533914  0.747320  1
  O  O19  1  0.452761  0.466086  0.252680  1
  O  O20  1  0.770846  0.564189  0.037977  1
  O  O21  1  0.229154  0.435811  0.962023  1
  O  O22  1  0.815617  0.855644  0.877929  1
  O  O23  1  0.184383  0.144356  0.122071  1
  O  O24  1  0.066797  0.948371  0.678425  1
  O  O25  1  0.933203  0.051629  0.321575  1
  O  O26  1  0.492260  0.221873  0.989353  1
  O  O27  1  0.507740  0.778127  0.010647  1
  O  O28  1  0.144494  0.724829  0.865472  1
  O  O29  1  0.429528  0.190114  0.561406  1
