# generated using pymatgen
data_BaTbDySe4
_symmetry_space_group_name_H-M   'P 1'
_cell_length_a   4.22966600
_cell_length_b   12.92033400
_cell_length_c   15.24108900
_cell_angle_alpha   90.00000000
_cell_angle_beta   90.00000000
_cell_angle_gamma   90.00000000
_symmetry_Int_Tables_number   1
_chemical_formula_structural   BaTbDySe4
_chemical_formula_sum   'Ba4 Tb4 Dy4 Se16'
_cell_volume   832.90566124
_cell_formula_units_Z   4
loop_
 _symmetry_equiv_pos_site_id
 _symmetry_equiv_pos_as_xyz
  1  'x, y, z'
loop_
 _atom_site_type_symbol
 _atom_site_label
 _atom_site_symmetry_multiplicity
 _atom_site_fract_x
 _atom_site_fract_y
 _atom_site_fract_z
 _atom_site_occupancy
  Ba  Ba0  1  0.250000  0.756756  0.337048  1
  Ba  Ba1  1  0.250000  0.256756  0.162952  1
  Ba  Ba2  1  0.750000  0.243244  0.662952  1
  Ba  Ba3  1  0.750000  0.743244  0.837048  1
  Tb  Tb4  1  0.250000  0.433640  0.390376  1
  Tb  Tb5  1  0.250000  0.933640  0.109624  1
  Tb  Tb6  1  0.750000  0.566360  0.609624  1
  Tb  Tb7  1  0.750000  0.066360  0.890376  1
  Dy  Dy8  1  0.250000  0.420906  0.900115  1
  Dy  Dy9  1  0.250000  0.920906  0.599885  1
  Dy  Dy10  1  0.750000  0.579094  0.099885  1
  Dy  Dy11  1  0.750000  0.079094  0.400115  1
  Se  Se12  1  0.250000  0.207497  0.834041  1
  Se  Se13  1  0.250000  0.707497  0.665959  1
  Se  Se14  1  0.750000  0.792503  0.165959  1
  Se  Se15  1  0.750000  0.292503  0.334041  1
  Se  Se16  1  0.250000  0.125845  0.524612  1
  Se  Se17  1  0.250000  0.625845  0.975388  1
  Se  Se18  1  0.750000  0.874155  0.475388  1
  Se  Se19  1  0.750000  0.374155  0.024612  1
  Se  Se20  1  0.250000  0.524303  0.216103  1
  Se  Se21  1  0.250000  0.024303  0.283897  1
  Se  Se22  1  0.750000  0.475697  0.783897  1
  Se  Se23  1  0.750000  0.975697  0.716103  1
  Se  Se24  1  0.250000  0.417486  0.577065  1
  Se  Se25  1  0.250000  0.917486  0.922935  1
  Se  Se26  1  0.750000  0.582514  0.422935  1
  Se  Se27  1  0.750000  0.082514  0.077065  1
