# generated using pymatgen
data_Lu5Hf5Sn6
_symmetry_space_group_name_H-M   'P 1'
_cell_length_a   8.63755796
_cell_length_b   8.65909540
_cell_length_c   5.96362000
_cell_angle_alpha   90.00000000
_cell_angle_beta   90.00000000
_cell_angle_gamma   120.08251330
_symmetry_Int_Tables_number   1
_chemical_formula_structural   Lu5Hf5Sn6
_chemical_formula_sum   'Lu5 Hf5 Sn6'
_cell_volume   385.96008619
_cell_formula_units_Z   1
loop_
 _symmetry_equiv_pos_site_id
 _symmetry_equiv_pos_as_xyz
  1  'x, y, z'
loop_
 _atom_site_type_symbol
 _atom_site_label
 _atom_site_symmetry_multiplicity
 _atom_site_fract_x
 _atom_site_fract_y
 _atom_site_fract_z
 _atom_site_occupancy
  Lu  Lu0  1  0.761263  0.759742  0.750000  1
  Lu  Lu1  1  0.238737  0.998479  0.750000  1
  Lu  Lu2  1  0.000000  0.243140  0.750000  1
  Lu  Lu3  1  0.240167  0.238861  0.250000  1
  Lu  Lu4  1  0.759833  0.998694  0.250000  1
  Hf  Hf5  1  0.000000  0.754672  0.250000  1
  Hf  Hf6  1  0.667499  0.334776  0.001210  1
  Hf  Hf7  1  0.332501  0.667278  0.001210  1
  Hf  Hf8  1  0.332501  0.667278  0.498790  1
  Hf  Hf9  1  0.667499  0.334776  0.498790  1
  Sn  Sn10  1  0.398066  0.397806  0.750000  1
  Sn  Sn11  1  0.601934  0.999740  0.750000  1
  Sn  Sn12  1  0.000000  0.603211  0.750000  1
  Sn  Sn13  1  0.607537  0.604695  0.250000  1
  Sn  Sn14  1  0.392463  0.997158  0.250000  1
  Sn  Sn15  1  0.000000  0.399694  0.250000  1
